REMARK SMILES COc1cccc([C@@]([NH3+])(C(=O)NCCCNC(=O)c2ccc(-c3c4nc(c(-c5ccccc5)c5ccc([nH]5)c(-c5ccccc5)c5nc(c(-c6ccccc6)c6ccc3[nH]6)C=C5)C=C4)cc2)C(F)(F)F)c1
REMARK SMILES IDX 14 1 13 2 12 3 10 4 11 5 8 7 7 8 3 9 4 10 71 11 5 12 6 13
REMARK SMILES IDX 2 14 1 15 9 16 67 20 68 21 69 22 70 23 15 24 16 25 17 26
REMARK SMILES IDX 18 28 19 29 20 30 66 31 21 32 65 33 22 34 23 35 24 36 59 37
REMARK SMILES IDX 25 38 64 39 58 40 60 41 26 42 63 43 57 44 56 45 27 47 49 48
REMARK SMILES IDX 34 49 48 50 35 51 38 52 47 53 61 54 36 55 37 56 46 58 62 59
REMARK SMILES IDX 39 60 28 61 29 62 33 63 30 64 32 65 31 66 50 67 51 68 55 69
REMARK SMILES IDX 52 70 54 71 53 72 40 73 41 74 45 75 42 76 44 77 43 78
REMARK H PARENT 12 6 9 17 9 18 9 19 16 27 60 46 38 57
REMARK Flexibility Score: inf
ROOT
ATOM      1  C   UNL     1       1.857  -1.644   7.479  1.00  0.00     0.042 C 
ENDROOT
BRANCH   1   2
ATOM      2  C   UNL     1       3.345  -1.408   7.231  1.00  0.00     0.118 C 
BRANCH   2   3
ATOM      3  N   UNL     1       3.830  -2.212   6.121  1.00  0.00    -0.350 N 
ATOM      4  C   UNL     1       4.072  -1.934   4.804  1.00  0.00     0.296 C 
ATOM      5  O   UNL     1       4.327  -2.933   4.120  1.00  0.00    -0.267 OA
ATOM      6  H   UNL     1       4.024  -3.145   6.367  1.00  0.00     0.163 HD
BRANCH   4   7
ATOM      7  C   UNL     1       4.016  -0.504   4.176  1.00  0.00     0.295 C 
BRANCH   7   8
ATOM      8  C   UNL     1       2.568  -0.114   3.787  1.00  0.00     0.035 A 
ATOM      9  C   UNL     1       0.747   0.100   2.151  1.00  0.00     0.119 A 
ATOM     10  C   UNL     1      -0.098   0.592   3.142  1.00  0.00     0.046 A 
ATOM     11  C   UNL     1       2.057  -0.278   2.481  1.00  0.00     0.057 A 
ATOM     12  C   UNL     1       0.371   0.761   4.437  1.00  0.00     0.004 A 
ATOM     13  C   UNL     1       1.694   0.438   4.744  1.00  0.00     0.011 A 
BRANCH   9  14
ATOM     14  O   UNL     1       0.180   0.033   0.908  1.00  0.00    -0.497 OA
ATOM     15  C   UNL     1       1.048  -0.237  -0.187  1.00  0.00     0.278 C 
ENDBRANCH   9  14
ENDBRANCH   7   8
BRANCH   7  16
ATOM     16  N   UNL     1       4.567   0.518   5.159  1.00  0.00    -0.333 N 
ATOM     17  H   UNL     1       3.942   0.587   5.963  1.00  0.00     0.345 HD
ATOM     18  H   UNL     1       4.635   1.427   4.701  1.00  0.00     0.345 HD
ATOM     19  H   UNL     1       5.492   0.225   5.472  1.00  0.00     0.345 HD
ENDBRANCH   7  16
BRANCH   7  20
ATOM     20  C   UNL     1       4.998  -0.590   2.949  1.00  0.00     0.458 C 
ATOM     21  F   UNL     1       4.682  -1.494   2.002  1.00  0.00    -0.164 F 
ATOM     22  F   UNL     1       5.065   0.622   2.327  1.00  0.00    -0.164 F 
ATOM     23  F   UNL     1       6.266  -0.852   3.367  1.00  0.00    -0.164 F 
ENDBRANCH   7  20
ENDBRANCH   4   7
ENDBRANCH   2   3
ENDBRANCH   1   2
BRANCH   1  24
ATOM     24  C   UNL     1       1.555  -2.965   8.175  1.00  0.00     0.118 C 
BRANCH  24  25
ATOM     25  N   UNL     1       1.921  -2.942   9.583  1.00  0.00    -0.352 N 
ATOM     26  C   UNL     1       1.140  -3.068  10.706  1.00  0.00     0.251 C 
ATOM     27  H   UNL     1       2.881  -2.816   9.759  1.00  0.00     0.163 HD
ATOM     28  O   UNL     1       1.621  -2.807  11.805  1.00  0.00    -0.269 OA
BRANCH  26  29
ATOM     29  C   UNL     1      -0.274  -3.501  10.612  1.00  0.00     0.039 A 
ATOM     30  C   UNL     1      -1.213  -2.913  11.466  1.00  0.00     0.014 A 
ATOM     31  C   UNL     1      -0.673  -4.515   9.738  1.00  0.00     0.014 A 
ATOM     32  C   UNL     1      -2.553  -3.306  11.409  1.00  0.00     0.010 A 
ATOM     33  C   UNL     1      -2.021  -4.851   9.626  1.00  0.00     0.010 A 
ATOM     34  C   UNL     1      -2.973  -4.261  10.470  1.00  0.00    -0.014 A 
BRANCH  34  35
ATOM     35  C   UNL     1      -4.396  -4.673  10.372  1.00  0.00     0.031 A 
ATOM     36  C   UNL     1      -4.798  -6.087  10.692  1.00  0.00     0.074 A 
ATOM     37  C   UNL     1      -5.321  -3.793   9.943  1.00  0.00     0.049 A 
ATOM     38  N   UNL     1      -5.979  -6.650  10.613  1.00  0.00    -0.248 NA
ATOM     39  C   UNL     1      -3.730  -6.995  11.139  1.00  0.00     0.031 C 
ATOM     40  C   UNL     1      -5.061  -2.400   9.575  1.00  0.00     0.029 A 
ATOM     41  N   UNL     1      -6.670  -3.944   9.743  1.00  0.00    -0.354 N 
ATOM     42  C   UNL     1      -5.789  -7.977  10.977  1.00  0.00     0.074 A 
ATOM     43  C   UNL     1      -4.375  -8.147  11.233  1.00  0.00     0.031 C 
ATOM     44  C   UNL     1      -6.219  -1.815   9.227  1.00  0.00     0.029 A 
ATOM     45  C   UNL     1      -7.293  -2.800   9.306  1.00  0.00     0.049 A 
ATOM     46  H   UNL     1      -7.147  -4.792   9.898  1.00  0.00     0.167 HD
ATOM     47  C   UNL     1      -6.709  -8.963  11.106  1.00  0.00     0.031 A 
ATOM     48  C   UNL     1      -8.584  -2.570   9.002  1.00  0.00     0.031 A 
ATOM     49  C   UNL     1      -8.117  -8.795  10.866  1.00  0.00     0.049 A 
ATOM     50  C   UNL     1      -9.582  -3.686   9.129  1.00  0.00     0.074 A 
ATOM     51  C   UNL     1      -9.136  -9.718  11.024  1.00  0.00     0.029 A 
ATOM     52  N   UNL     1      -8.704  -7.623  10.415  1.00  0.00    -0.354 N 
ATOM     53  N   UNL     1      -9.395  -4.920   9.531  1.00  0.00    -0.248 NA
ATOM     54  C   UNL     1     -10.971  -3.372   8.767  1.00  0.00     0.031 C 
ATOM     55  C   UNL     1     -10.335  -9.117  10.624  1.00  0.00     0.029 A 
ATOM     56  C   UNL     1     -10.068  -7.806  10.265  1.00  0.00     0.049 A 
ATOM     57  H   UNL     1      -8.222  -6.785  10.228  1.00  0.00     0.167 HD
ATOM     58  C   UNL     1     -10.646  -5.521   9.497  1.00  0.00     0.074 A 
ATOM     59  C   UNL     1     -11.585  -4.513   9.046  1.00  0.00     0.031 C 
ATOM     60  C   UNL     1     -10.988  -6.794   9.814  1.00  0.00     0.031 A 
BRANCH  47  61
ATOM     61  C   UNL     1      -6.208 -10.320  11.517  1.00  0.00    -0.014 A 
ATOM     62  C   UNL     1      -5.730 -10.558  12.816  1.00  0.00     0.009 A 
ATOM     63  C   UNL     1      -6.224 -11.379  10.596  1.00  0.00     0.009 A 
ATOM     64  C   UNL     1      -5.237 -11.816  13.170  1.00  0.00     0.001 A 
ATOM     65  C   UNL     1      -5.758 -12.644  10.962  1.00  0.00     0.001 A 
ATOM     66  C   UNL     1      -5.254 -12.857  12.244  1.00  0.00     0.000 A 
ENDBRANCH  47  61
BRANCH  48  67
ATOM     67  C   UNL     1      -9.015  -1.215   8.573  1.00  0.00    -0.014 A 
ATOM     68  C   UNL     1      -9.775  -0.411   9.437  1.00  0.00     0.009 A 
ATOM     69  C   UNL     1      -8.673  -0.719   7.306  1.00  0.00     0.009 A 
ATOM     70  C   UNL     1     -10.201   0.856   9.032  1.00  0.00     0.001 A 
ATOM     71  C   UNL     1      -9.079   0.559   6.914  1.00  0.00     0.001 A 
ATOM     72  C   UNL     1      -9.849   1.341   7.774  1.00  0.00     0.000 A 
ENDBRANCH  48  67
BRANCH  60  73
ATOM     73  C   UNL     1     -12.443  -7.156   9.719  1.00  0.00    -0.014 A 
ATOM     74  C   UNL     1     -13.068  -7.335   8.476  1.00  0.00     0.009 A 
ATOM     75  C   UNL     1     -13.187  -7.352  10.892  1.00  0.00     0.009 A 
ATOM     76  C   UNL     1     -14.421  -7.674   8.411  1.00  0.00     0.001 A 
ATOM     77  C   UNL     1     -14.533  -7.716  10.824  1.00  0.00     0.001 A 
ATOM     78  C   UNL     1     -15.151  -7.868   9.584  1.00  0.00     0.000 A 
ENDBRANCH  60  73
ENDBRANCH  34  35
ENDBRANCH  26  29
ENDBRANCH  24  25
ENDBRANCH   1  24
TORSDOF 14
