REMARK SMILES CC1(C)O[C@](C)([C@H](O)C2CCCCC2)CC[C@H]1C(=O)NCCCNC(=O)c1ccc(-c2c3nc(c(-c4ccccc4)c4ccc([nH]4)c(-c4ccccc4)c4nc(c(-c5ccccc5)c5ccc2[nH]5)C=C4)C=C3)cc1
REMARK SMILES IDX 22 1 21 2 20 3 18 4 19 5 17 7 1 8 2 9 3 10 4 11 5 12 16 13
REMARK SMILES IDX 6 14 15 15 7 16 9 17 10 18 14 19 11 20 13 21 12 22 8 23
REMARK SMILES IDX 23 25 24 26 25 27 26 29 27 30 28 31 74 32 29 33 73 34 30 35
REMARK SMILES IDX 31 36 32 37 67 38 33 39 72 40 66 41 68 42 34 43 71 44 65 45
REMARK SMILES IDX 64 46 35 48 57 49 42 50 56 51 43 52 46 53 55 54 69 55 44 56
REMARK SMILES IDX 45 57 54 59 70 60 47 61 36 62 37 63 41 64 38 65 40 66 39 67
REMARK SMILES IDX 58 68 59 69 63 70 60 71 62 72 61 73 48 74 49 75 53 76 50 77
REMARK SMILES IDX 52 78 51 79
REMARK H PARENT 20 6 8 24 24 28 68 47 46 58
REMARK Flexibility Score: inf
ROOT
ATOM      1  C   UNL     1      -1.475   2.600  -8.316  1.00  0.00     0.042 C 
ENDROOT
BRANCH   1   2
ATOM      2  C   UNL     1      -0.440   1.479  -8.298  1.00  0.00     0.117 C 
BRANCH   2   3
ATOM      3  N   UNL     1       0.731   1.775  -9.106  1.00  0.00    -0.356 N 
ATOM      4  C   UNL     1       2.041   1.984  -8.816  1.00  0.00     0.226 C 
ATOM      5  O   UNL     1       2.764   2.259  -9.782  1.00  0.00    -0.275 OA
ATOM      6  H   UNL     1       0.532   1.838 -10.068  1.00  0.00     0.163 HD
BRANCH   4   7
ATOM      7  C   UNL     1       2.654   1.921  -7.412  1.00  0.00     0.110 C 
ATOM      8  C   UNL     1       1.197   3.996  -6.719  1.00  0.00     0.043 C 
ATOM      9  C   UNL     1       2.504   3.221  -6.565  1.00  0.00     0.075 C 
ATOM     10  C   UNL     1       3.616   4.205  -7.009  1.00  0.00     0.043 C 
ATOM     11  O   UNL     1       2.724   3.051  -5.154  1.00  0.00    -0.366 OA
ATOM     12  C   UNL     1       2.304   1.854  -4.491  1.00  0.00     0.092 C 
ATOM     13  C   UNL     1       2.443   0.585  -6.700  1.00  0.00     0.019 C 
ATOM     14  C   UNL     1       0.774   1.705  -4.412  1.00  0.00     0.045 C 
ATOM     15  C   UNL     1       2.898   0.645  -5.246  1.00  0.00     0.039 C 
BRANCH  12  16
ATOM     16  C   UNL     1       2.938   1.902  -3.048  1.00  0.00     0.149 C 
BRANCH  16  17
ATOM     17  C   UNL     1       2.704   3.174  -2.158  1.00  0.00     0.021 C 
ATOM     18  C   UNL     1       1.274   3.689  -1.930  1.00  0.00     0.006 C 
ATOM     19  C   UNL     1       3.372   3.037  -0.769  1.00  0.00     0.006 C 
ATOM     20  C   UNL     1       0.435   2.804  -1.018  1.00  0.00     0.000 C 
ATOM     21  C   UNL     1       2.569   2.213   0.244  1.00  0.00     0.000 C 
ATOM     22  C   UNL     1       1.103   2.632   0.341  1.00  0.00     0.000 C 
ENDBRANCH  16  17
BRANCH  16  23
ATOM     23  O   UNL     1       2.692   0.680  -2.350  1.00  0.00    -0.390 OA
ATOM     24  H   UNL     1       1.742   0.595  -2.173  1.00  0.00     0.211 HD
ENDBRANCH  16  23
ENDBRANCH  12  16
ENDBRANCH   4   7
ENDBRANCH   2   3
ENDBRANCH   1   2
BRANCH   1  25
ATOM     25  C   UNL     1      -2.181   2.770  -9.649  1.00  0.00     0.118 C 
BRANCH  25  26
ATOM     26  N   UNL     1      -3.279   1.833  -9.807  1.00  0.00    -0.352 N 
ATOM     27  C   UNL     1      -4.636   2.044  -9.768  1.00  0.00     0.251 C 
ATOM     28  H   UNL     1      -3.008   0.900  -9.966  1.00  0.00     0.163 HD
ATOM     29  O   UNL     1      -5.387   1.076  -9.686  1.00  0.00    -0.269 OA
BRANCH  27  30
ATOM     30  C   UNL     1      -5.210   3.412  -9.810  1.00  0.00     0.039 A 
ATOM     31  C   UNL     1      -6.376   3.671  -9.082  1.00  0.00     0.014 A 
ATOM     32  C   UNL     1      -4.661   4.423 -10.603  1.00  0.00     0.014 A 
ATOM     33  C   UNL     1      -6.963   4.939  -9.124  1.00  0.00     0.010 A 
ATOM     34  C   UNL     1      -5.186   5.713 -10.564  1.00  0.00     0.010 A 
ATOM     35  C   UNL     1      -6.362   5.979  -9.851  1.00  0.00    -0.014 A 
BRANCH  35  36
ATOM     36  C   UNL     1      -6.982   7.328  -9.911  1.00  0.00     0.031 A 
ATOM     37  C   UNL     1      -7.468   7.887 -11.223  1.00  0.00     0.074 A 
ATOM     38  C   UNL     1      -7.078   8.072  -8.792  1.00  0.00     0.049 A 
ATOM     39  N   UNL     1      -8.043   9.038 -11.469  1.00  0.00    -0.248 NA
ATOM     40  C   UNL     1      -7.250   7.061 -12.422  1.00  0.00     0.031 C 
ATOM     41  C   UNL     1      -6.585   7.684  -7.469  1.00  0.00     0.029 A 
ATOM     42  N   UNL     1      -7.625   9.315  -8.592  1.00  0.00    -0.354 N 
ATOM     43  C   UNL     1      -8.227   9.083 -12.846  1.00  0.00     0.074 A 
ATOM     44  C   UNL     1      -7.658   7.869 -13.388  1.00  0.00     0.031 C 
ATOM     45  C   UNL     1      -6.884   8.652  -6.588  1.00  0.00     0.029 A 
ATOM     46  C   UNL     1      -7.567   9.736  -7.286  1.00  0.00     0.049 A 
ATOM     47  H   UNL     1      -8.021   9.852  -9.315  1.00  0.00     0.167 HD
ATOM     48  C   UNL     1      -8.834  10.034 -13.594  1.00  0.00     0.031 A 
ATOM     49  C   UNL     1      -8.024  10.864  -6.711  1.00  0.00     0.031 A 
ATOM     50  C   UNL     1      -9.434  11.226 -13.058  1.00  0.00     0.049 A 
ATOM     51  C   UNL     1      -8.749  11.878  -7.549  1.00  0.00     0.074 A 
ATOM     52  C   UNL     1     -10.148  12.208 -13.722  1.00  0.00     0.029 A 
ATOM     53  N   UNL     1      -9.389  11.595 -11.723  1.00  0.00    -0.354 N 
ATOM     54  N   UNL     1      -8.996  11.861  -8.836  1.00  0.00    -0.248 NA
ATOM     55  C   UNL     1      -9.278  13.056  -6.848  1.00  0.00     0.031 C 
ATOM     56  C   UNL     1     -10.503  13.193 -12.793  1.00  0.00     0.029 A 
ATOM     57  C   UNL     1     -10.046  12.801 -11.545  1.00  0.00     0.049 A 
ATOM     58  H   UNL     1      -8.954  11.078 -11.008  1.00  0.00     0.167 HD
ATOM     59  C   UNL     1      -9.720  13.015  -9.098  1.00  0.00     0.074 A 
ATOM     60  C   UNL     1      -9.894  13.698  -7.831  1.00  0.00     0.031 C 
ATOM     61  C   UNL     1     -10.198  13.472 -10.281  1.00  0.00     0.031 A 
BRANCH  48  62
ATOM     62  C   UNL     1      -8.876   9.818 -15.082  1.00  0.00    -0.014 A 
ATOM     63  C   UNL     1      -9.688   8.823 -15.652  1.00  0.00     0.009 A 
ATOM     64  C   UNL     1      -8.102  10.628 -15.927  1.00  0.00     0.009 A 
ATOM     65  C   UNL     1      -9.690   8.617 -17.033  1.00  0.00     0.001 A 
ATOM     66  C   UNL     1      -8.128  10.438 -17.310  1.00  0.00     0.001 A 
ATOM     67  C   UNL     1      -8.913   9.425 -17.860  1.00  0.00     0.000 A 
ENDBRANCH  48  62
BRANCH  49  68
ATOM     68  C   UNL     1      -7.842  11.074  -5.252  1.00  0.00    -0.014 A 
ATOM     69  C   UNL     1      -8.928  10.943  -4.374  1.00  0.00     0.009 A 
ATOM     70  C   UNL     1      -6.579  11.391  -4.730  1.00  0.00     0.009 A 
ATOM     71  C   UNL     1      -8.758  11.147  -3.003  1.00  0.00     0.001 A 
ATOM     72  C   UNL     1      -6.407  11.571  -3.356  1.00  0.00     0.001 A 
ATOM     73  C   UNL     1      -7.497  11.455  -2.495  1.00  0.00     0.000 A 
ENDBRANCH  49  68
BRANCH  61  74
ATOM     74  C   UNL     1     -10.962  14.764 -10.253  1.00  0.00    -0.014 A 
ATOM     75  C   UNL     1     -10.304  15.991 -10.068  1.00  0.00     0.009 A 
ATOM     76  C   UNL     1     -12.353  14.756 -10.433  1.00  0.00     0.009 A 
ATOM     77  C   UNL     1     -11.032  17.181 -10.027  1.00  0.00     0.001 A 
ATOM     78  C   UNL     1     -13.075  15.951 -10.417  1.00  0.00     0.001 A 
ATOM     79  C   UNL     1     -12.415  17.160 -10.204  1.00  0.00     0.000 A 
ENDBRANCH  61  74
ENDBRANCH  35  36
ENDBRANCH  27  30
ENDBRANCH  25  26
ENDBRANCH   1  25
TORSDOF 13
