REMARK SMILES Cc1cccc(OCC[N@H+]2CCO[C@@H](CC(=O)NCCCNC(=O)c3ccc(-c4c5nc(c(-c6ccccc6)c6ccc([nH]6)c(-c6ccccc6)c6nc(c(-c7ccccc7)c7ccc4[nH]7)C=C6)C=C5)cc3)C2)c1
REMARK SMILES IDX 16 1 17 2 18 3 15 5 14 6 10 7 11 8 73 9 12 11 13 12 9 13
REMARK SMILES IDX 8 14 7 15 6 16 1 17 2 18 3 19 74 20 4 21 5 22 19 23 20 24
REMARK SMILES IDX 21 25 22 26 23 27 24 29 25 30 26 31 72 32 27 33 71 34 28 35
REMARK SMILES IDX 29 36 30 37 65 38 31 39 70 40 64 41 66 42 32 43 69 44 63 45
REMARK SMILES IDX 62 46 33 48 55 49 40 50 54 51 41 52 44 53 53 54 67 55 42 56
REMARK SMILES IDX 43 57 52 59 68 60 45 61 34 62 35 63 39 64 36 65 38 66 37 67
REMARK SMILES IDX 56 68 57 69 61 70 58 71 60 72 59 73 46 74 47 75 51 76 48 77
REMARK SMILES IDX 50 78 49 79
REMARK H PARENT 18 4 10 10 22 28 66 47 44 58
REMARK Flexibility Score: inf
ROOT
ATOM      1  C   UNL     1       1.129  -0.378   3.733  1.00  0.00     0.222 C 
ATOM      2  O   UNL     1       0.094  -1.042   3.681  1.00  0.00    -0.275 OA
ATOM      3  N   UNL     1       1.369   0.363   4.850  1.00  0.00    -0.356 N 
ATOM      4  H   UNL     1       0.730   0.230   5.587  1.00  0.00     0.163 HD
ENDROOT
BRANCH   1   5
ATOM      5  C   UNL     1       2.126  -0.382   2.602  1.00  0.00     0.138 C 
BRANCH   5   6
ATOM      6  C   UNL     1       1.810   0.543   1.428  1.00  0.00     0.182 C 
ATOM      7  N   UNL     1       0.566   2.409   0.412  1.00  0.00    -0.328 N 
ATOM      8  C   UNL     1       1.827   2.993  -0.050  1.00  0.00     0.291 C 
ATOM      9  C   UNL     1       0.766   1.655   1.659  1.00  0.00     0.295 C 
ATOM     10  H   UNL     1       0.285   1.744  -0.307  1.00  0.00     0.348 HD
ATOM     11  C   UNL     1       2.874   1.880  -0.219  1.00  0.00     0.222 C 
ATOM     12  O   UNL     1       3.061   1.138   0.997  1.00  0.00    -0.366 OA
BRANCH   7  13
ATOM     13  C   UNL     1      -0.574   3.321   0.442  1.00  0.00     0.304 C 
BRANCH  13  14
ATOM     14  C   UNL     1      -1.576   2.956  -0.674  1.00  0.00     0.290 C 
BRANCH  14  15
ATOM     15  O   UNL     1      -2.374   1.808  -0.361  1.00  0.00    -0.488 OA
BRANCH  15  16
ATOM     16  C   UNL     1      -1.873   0.553  -0.577  1.00  0.00     0.119 A 
ATOM     17  C   UNL     1       1.094  -1.425  -1.927  1.00  0.00     0.044 C 
ATOM     18  C   UNL     1      -0.244  -1.101  -1.326  1.00  0.00    -0.047 A 
ATOM     19  C   UNL     1      -0.992  -2.110  -0.714  1.00  0.00     0.003 A 
ATOM     20  C   UNL     1      -0.709   0.226  -1.275  1.00  0.00     0.049 A 
ATOM     21  C   UNL     1      -2.185  -1.799  -0.064  1.00  0.00     0.004 A 
ATOM     22  C   UNL     1      -2.618  -0.474   0.007  1.00  0.00     0.046 A 
ENDBRANCH  15  16
ENDBRANCH  14  15
ENDBRANCH  13  14
ENDBRANCH   7  13
ENDBRANCH   5   6
ENDBRANCH   1   5
BRANCH   3  23
ATOM     23  C   UNL     1       2.429   1.319   5.117  1.00  0.00     0.117 C 
BRANCH  23  24
ATOM     24  C   UNL     1       1.981   2.742   4.788  1.00  0.00     0.042 C 
BRANCH  24  25
ATOM     25  C   UNL     1       2.145   3.718   5.947  1.00  0.00     0.118 C 
BRANCH  25  26
ATOM     26  N   UNL     1       2.781   4.955   5.489  1.00  0.00    -0.352 N 
ATOM     27  C   UNL     1       2.401   6.269   5.672  1.00  0.00     0.251 C 
ATOM     28  H   UNL     1       3.608   4.830   4.970  1.00  0.00     0.163 HD
ATOM     29  O   UNL     1       3.093   7.200   5.301  1.00  0.00    -0.269 OA
BRANCH  27  30
ATOM     30  C   UNL     1       1.169   6.501   6.440  1.00  0.00     0.039 A 
ATOM     31  C   UNL     1       1.342   6.789   7.795  1.00  0.00     0.014 A 
ATOM     32  C   UNL     1      -0.036   6.018   5.927  1.00  0.00     0.014 A 
ATOM     33  C   UNL     1       0.386   6.340   8.691  1.00  0.00     0.010 A 
ATOM     34  C   UNL     1      -0.977   5.549   6.827  1.00  0.00     0.010 A 
ATOM     35  C   UNL     1      -0.703   5.616   8.201  1.00  0.00    -0.014 A 
BRANCH  35  36
ATOM     36  C   UNL     1      -1.487   4.758   9.082  1.00  0.00     0.031 A 
ATOM     37  C   UNL     1      -2.757   5.250   9.636  1.00  0.00     0.074 A 
ATOM     38  C   UNL     1      -0.997   3.562   9.480  1.00  0.00     0.049 A 
ATOM     39  N   UNL     1      -3.240   4.881  10.775  1.00  0.00    -0.248 NA
ATOM     40  C   UNL     1      -3.530   6.302   8.987  1.00  0.00     0.031 C 
ATOM     41  C   UNL     1      -1.692   2.526  10.239  1.00  0.00     0.029 A 
ATOM     42  N   UNL     1       0.343   3.161   9.487  1.00  0.00    -0.354 N 
ATOM     43  C   UNL     1      -4.500   5.416  10.875  1.00  0.00     0.074 A 
ATOM     44  C   UNL     1      -4.571   6.397   9.819  1.00  0.00     0.031 C 
ATOM     45  C   UNL     1      -0.780   1.761  10.860  1.00  0.00     0.029 A 
ATOM     46  C   UNL     1       0.526   2.355  10.626  1.00  0.00     0.049 A 
ATOM     47  H   UNL     1       1.029   3.398   8.821  1.00  0.00     0.167 HD
ATOM     48  C   UNL     1      -5.389   4.862  11.746  1.00  0.00     0.031 A 
ATOM     49  C   UNL     1       1.424   2.678  11.599  1.00  0.00     0.031 A 
ATOM     50  C   UNL     1      -4.737   3.926  12.664  1.00  0.00     0.049 A 
ATOM     51  C   UNL     1       0.808   2.884  12.966  1.00  0.00     0.074 A 
ATOM     52  C   UNL     1      -4.692   2.545  12.749  1.00  0.00     0.029 A 
ATOM     53  N   UNL     1      -3.757   4.403  13.529  1.00  0.00    -0.354 N 
ATOM     54  N   UNL     1      -0.470   3.025  13.180  1.00  0.00    -0.248 NA
ATOM     55  C   UNL     1       1.596   3.018  14.190  1.00  0.00     0.031 C 
ATOM     56  C   UNL     1      -3.616   2.193  13.610  1.00  0.00     0.029 A 
ATOM     57  C   UNL     1      -3.035   3.360  14.076  1.00  0.00     0.049 A 
ATOM     58  H   UNL     1      -3.599   5.355  13.725  1.00  0.00     0.167 HD
ATOM     59  C   UNL     1      -0.682   3.324  14.501  1.00  0.00     0.074 A 
ATOM     60  C   UNL     1       0.639   3.269  15.100  1.00  0.00     0.031 C 
ATOM     61  C   UNL     1      -1.923   3.634  14.979  1.00  0.00     0.031 A 
BRANCH  48  62
ATOM     62  C   UNL     1      -6.894   4.976  11.597  1.00  0.00    -0.014 A 
ATOM     63  C   UNL     1      -7.730   4.112  12.329  1.00  0.00     0.009 A 
ATOM     64  C   UNL     1      -7.553   5.818  10.683  1.00  0.00     0.009 A 
ATOM     65  C   UNL     1      -9.118   4.060  12.120  1.00  0.00     0.001 A 
ATOM     66  C   UNL     1      -8.937   5.778  10.469  1.00  0.00     0.001 A 
ATOM     67  C   UNL     1      -9.720   4.887  11.181  1.00  0.00     0.000 A 
ENDBRANCH  48  62
BRANCH  49  68
ATOM     68  C   UNL     1       2.625   3.406  11.107  1.00  0.00    -0.014 A 
ATOM     69  C   UNL     1       3.537   2.723  10.279  1.00  0.00     0.009 A 
ATOM     70  C   UNL     1       2.704   4.803  11.182  1.00  0.00     0.009 A 
ATOM     71  C   UNL     1       4.435   3.426   9.470  1.00  0.00     0.001 A 
ATOM     72  C   UNL     1       3.609   5.502  10.375  1.00  0.00     0.001 A 
ATOM     73  C   UNL     1       4.450   4.817   9.498  1.00  0.00     0.000 A 
ENDBRANCH  49  68
BRANCH  61  74
ATOM     74  C   UNL     1      -2.227   4.195  16.349  1.00  0.00    -0.014 A 
ATOM     75  C   UNL     1      -1.304   4.885  17.148  1.00  0.00     0.009 A 
ATOM     76  C   UNL     1      -3.557   4.147  16.823  1.00  0.00     0.009 A 
ATOM     77  C   UNL     1      -1.679   5.452  18.376  1.00  0.00     0.001 A 
ATOM     78  C   UNL     1      -3.945   4.751  18.022  1.00  0.00     0.001 A 
ATOM     79  C   UNL     1      -3.000   5.394  18.807  1.00  0.00     0.000 A 
ENDBRANCH  61  74
ENDBRANCH  35  36
ENDBRANCH  27  30
ENDBRANCH  25  26
ENDBRANCH  24  25
ENDBRANCH  23  24
ENDBRANCH   3  23
TORSDOF 15
