REMARK SMILES Cc1ccccc1/C=C1\SC(=O)N(CC(=O)Nc2ccccc2C(=O)NCCCNC(=O)c2ccc(-c3c4nc(c(-c5ccccc5)c5ccc([nH]5)c(-c5ccccc5)c5nc(c(-c6ccccc6)c6ccc3[nH]6)C=C5)C=C4)cc2)C1=O
REMARK SMILES IDX 27 1 26 2 24 3 25 4 23 6 18 7 19 8 20 9 22 10 21 11 17 12
REMARK SMILES IDX 15 13 16 14 14 16 13 17 8 18 9 19 10 20 81 21 11 22 82 23
REMARK SMILES IDX 12 24 7 25 1 26 2 27 3 28 4 29 6 30 5 31 28 32 29 33 30 34
REMARK SMILES IDX 31 35 32 37 33 38 34 39 80 40 35 41 79 42 36 43 37 44 38 45
REMARK SMILES IDX 73 46 39 47 78 48 72 49 74 50 40 51 77 52 71 53 70 54 41 56
REMARK SMILES IDX 63 57 48 58 62 59 49 60 52 61 61 62 75 63 50 64 51 65 60 67
REMARK SMILES IDX 76 68 53 69 42 70 43 71 47 72 44 73 46 74 45 75 64 76 65 77
REMARK SMILES IDX 69 78 66 79 68 80 67 81 54 82 55 83 59 84 56 85 58 86 57 87
REMARK H PARENT 26 5 17 15 30 36 74 55 52 66
REMARK Flexibility Score: inf
ROOT
ATOM      1  C   UNL     1       1.771   0.964  -4.058  1.00  0.00     0.118 C 
ENDROOT
BRANCH   1   2
ATOM      2  N   UNL     1       1.639   2.188  -3.261  1.00  0.00    -0.352 N 
ATOM      3  C   UNL     1       1.611   3.553  -3.483  1.00  0.00     0.253 C 
ATOM      4  O   UNL     1       1.212   4.265  -2.562  1.00  0.00    -0.269 OA
ATOM      5  H   UNL     1       1.545   1.981  -2.303  1.00  0.00     0.163 HD
BRANCH   3   6
ATOM      6  C   UNL     1       2.013   4.228  -4.737  1.00  0.00     0.063 A 
ATOM      7  C   UNL     1       2.504   5.558  -4.800  1.00  0.00     0.054 A 
ATOM      8  C   UNL     1       2.641   6.160  -6.073  1.00  0.00     0.027 A 
ATOM      9  C   UNL     1       2.313   5.496  -7.253  1.00  0.00     0.002 A 
ATOM     10  C   UNL     1       1.598   3.624  -5.939  1.00  0.00     0.016 A 
ATOM     11  C   UNL     1       1.771   4.229  -7.183  1.00  0.00     0.001 A 
BRANCH   7  12
ATOM     12  N   UNL     1       2.651   6.508  -3.764  1.00  0.00    -0.324 N 
ATOM     13  C   UNL     1       3.237   6.615  -2.545  1.00  0.00     0.244 C 
ATOM     14  O   UNL     1       3.028   7.679  -1.942  1.00  0.00    -0.273 OA
ATOM     15  H   UNL     1       2.188   7.345  -3.998  1.00  0.00     0.170 HD
BRANCH  13  16
ATOM     16  C   UNL     1       4.273   5.653  -1.998  1.00  0.00     0.230 C 
BRANCH  16  17
ATOM     17  N   UNL     1       3.772   4.485  -1.331  1.00  0.00    -0.259 N 
ATOM     18  C   UNL     1       1.095   2.901   0.236  1.00  0.00     0.029 C 
ATOM     19  C   UNL     1       2.406   3.118  -0.011  1.00  0.00     0.083 C 
ATOM     20  S   UNL     1       3.647   2.075  -0.567  1.00  0.00    -0.022 SA
ATOM     21  C   UNL     1       2.884   4.523  -0.267  1.00  0.00     0.268 C 
ATOM     22  C   UNL     1       4.334   3.279  -1.605  1.00  0.00     0.294 C 
ATOM     23  O   UNL     1       2.518   5.504   0.357  1.00  0.00    -0.268 OA
ATOM     24  O   UNL     1       5.203   3.015  -2.426  1.00  0.00    -0.261 OA
BRANCH  18  25
ATOM     25  C   UNL     1       0.149   1.761  -0.027  1.00  0.00    -0.021 A 
ATOM     26  C   UNL     1       1.707  -0.278   0.004  1.00  0.00     0.045 C 
ATOM     27  C   UNL     1       0.429   0.408  -0.269  1.00  0.00    -0.044 A 
ATOM     28  C   UNL     1      -0.546  -0.467  -0.803  1.00  0.00     0.004 A 
ATOM     29  C   UNL     1      -1.850  -0.060  -0.986  1.00  0.00     0.000 A 
ATOM     30  C   UNL     1      -1.208   2.125  -0.168  1.00  0.00     0.008 A 
ATOM     31  C   UNL     1      -2.192   1.230  -0.623  1.00  0.00     0.001 A 
ENDBRANCH  18  25
ENDBRANCH  16  17
ENDBRANCH  13  16
ENDBRANCH   7  12
ENDBRANCH   3   6
ENDBRANCH   1   2
BRANCH   1  32
ATOM     32  C   UNL     1       3.172   0.379  -4.233  1.00  0.00     0.042 C 
BRANCH  32  33
ATOM     33  C   UNL     1       3.600  -0.669  -3.201  1.00  0.00     0.118 C 
BRANCH  33  34
ATOM     34  N   UNL     1       2.789  -1.891  -3.126  1.00  0.00    -0.352 N 
ATOM     35  C   UNL     1       2.782  -2.945  -2.221  1.00  0.00     0.251 C 
ATOM     36  H   UNL     1       2.129  -1.979  -3.851  1.00  0.00     0.163 HD
ATOM     37  O   UNL     1       2.014  -3.884  -2.427  1.00  0.00    -0.269 OA
BRANCH  35  38
ATOM     38  C   UNL     1       3.533  -2.901  -0.930  1.00  0.00     0.039 A 
ATOM     39  C   UNL     1       2.977  -3.559   0.187  1.00  0.00     0.014 A 
ATOM     40  C   UNL     1       4.577  -2.011  -0.736  1.00  0.00     0.014 A 
ATOM     41  C   UNL     1       3.258  -3.105   1.478  1.00  0.00     0.010 A 
ATOM     42  C   UNL     1       4.751  -1.468   0.519  1.00  0.00     0.010 A 
ATOM     43  C   UNL     1       4.033  -1.964   1.616  1.00  0.00    -0.014 A 
BRANCH  43  44
ATOM     44  C   UNL     1       4.249  -1.222   2.850  1.00  0.00     0.031 A 
ATOM     45  C   UNL     1       5.559  -1.423   3.499  1.00  0.00     0.074 A 
ATOM     46  C   UNL     1       3.388  -0.252   3.243  1.00  0.00     0.049 A 
ATOM     47  N   UNL     1       5.876  -0.973   4.658  1.00  0.00    -0.248 NA
ATOM     48  C   UNL     1       6.612  -2.251   2.901  1.00  0.00     0.031 C 
ATOM     49  C   UNL     1       3.652   0.903   4.100  1.00  0.00     0.029 A 
ATOM     50  N   UNL     1       2.001  -0.230   3.088  1.00  0.00    -0.354 N 
ATOM     51  C   UNL     1       7.221  -1.201   4.835  1.00  0.00     0.074 A 
ATOM     52  C   UNL     1       7.608  -2.088   3.772  1.00  0.00     0.031 C 
ATOM     53  C   UNL     1       2.486   1.379   4.575  1.00  0.00     0.029 A 
ATOM     54  C   UNL     1       1.453   0.428   4.197  1.00  0.00     0.049 A 
ATOM     55  H   UNL     1       1.496  -0.611   2.333  1.00  0.00     0.167 HD
ATOM     56  C   UNL     1       7.873  -0.496   5.795  1.00  0.00     0.031 A 
ATOM     57  C   UNL     1       0.603  -0.225   5.039  1.00  0.00     0.031 A 
ATOM     58  C   UNL     1       6.917   0.228   6.628  1.00  0.00     0.049 A 
ATOM     59  C   UNL     1       1.165  -0.266   6.429  1.00  0.00     0.074 A 
ATOM     60  C   UNL     1       6.437   1.525   6.580  1.00  0.00     0.029 A 
ATOM     61  N   UNL     1       6.029  -0.500   7.411  1.00  0.00    -0.354 N 
ATOM     62  N   UNL     1       2.442  -0.214   6.686  1.00  0.00    -0.248 NA
ATOM     63  C   UNL     1       0.342  -0.378   7.625  1.00  0.00     0.031 C 
ATOM     64  C   UNL     1       5.189   1.544   7.263  1.00  0.00     0.029 A 
ATOM     65  C   UNL     1       4.948   0.279   7.776  1.00  0.00     0.049 A 
ATOM     66  H   UNL     1       6.153  -1.442   7.671  1.00  0.00     0.167 HD
ATOM     67  C   UNL     1       2.627  -0.278   8.035  1.00  0.00     0.074 A 
ATOM     68  C   UNL     1       1.285  -0.375   8.582  1.00  0.00     0.031 C 
ATOM     69  C   UNL     1       3.872  -0.281   8.587  1.00  0.00     0.031 A 
BRANCH  56  70
ATOM     70  C   UNL     1       9.363  -0.264   5.839  1.00  0.00    -0.014 A 
ATOM     71  C   UNL     1       9.866   0.708   6.723  1.00  0.00     0.009 A 
ATOM     72  C   UNL     1      10.310  -0.866   4.991  1.00  0.00     0.009 A 
ATOM     73  C   UNL     1      11.218   1.079   6.733  1.00  0.00     0.001 A 
ATOM     74  C   UNL     1      11.665  -0.507   4.999  1.00  0.00     0.001 A 
ATOM     75  C   UNL     1      12.118   0.474   5.866  1.00  0.00     0.000 A 
ENDBRANCH  56  70
BRANCH  57  76
ATOM     76  C   UNL     1      -0.095  -1.373   4.382  1.00  0.00    -0.014 A 
ATOM     77  C   UNL     1      -1.047  -1.099   3.380  1.00  0.00     0.009 A 
ATOM     78  C   UNL     1       0.491  -2.649   4.418  1.00  0.00     0.009 A 
ATOM     79  C   UNL     1      -1.284  -2.022   2.355  1.00  0.00     0.001 A 
ATOM     80  C   UNL     1       0.243  -3.569   3.393  1.00  0.00     0.001 A 
ATOM     81  C   UNL     1      -0.603  -3.235   2.336  1.00  0.00     0.000 A 
ENDBRANCH  57  76
BRANCH  69  82
ATOM     82  C   UNL     1       4.169  -0.781   9.974  1.00  0.00    -0.014 A 
ATOM     83  C   UNL     1       3.299  -1.603  10.704  1.00  0.00     0.009 A 
ATOM     84  C   UNL     1       5.442  -0.549  10.534  1.00  0.00     0.009 A 
ATOM     85  C   UNL     1       3.647  -2.101  11.963  1.00  0.00     0.001 A 
ATOM     86  C   UNL     1       5.819  -1.099  11.759  1.00  0.00     0.001 A 
ATOM     87  C   UNL     1       4.911  -1.856  12.486  1.00  0.00     0.000 A 
ENDBRANCH  69  82
ENDBRANCH  43  44
ENDBRANCH  35  38
ENDBRANCH  33  34
ENDBRANCH  32  33
ENDBRANCH   1  32
TORSDOF 14
