REMARK SMILES CCc1ccc(S(=O)(=O)c2nnn(-c3ccc(C(=O)NCCCNC(=O)c4ccc(-c5c6nc(c(-c7ccccc7)c7ccc([nH]7)c(-c7ccccc7)c7nc(c(-c8ccccc8)c8ccc5[nH]8)C=C7)C=C6)cc4)cc3)c2C)cc1
REMARK SMILES IDX 21 1 20 2 18 3 19 4 17 6 14 7 15 8 76 9 16 10 75 11 13 12
REMARK SMILES IDX 10 13 11 14 77 15 12 16 78 17 7 18 8 19 9 20 6 21 3 22 4 23
REMARK SMILES IDX 80 24 5 25 79 26 2 27 1 28 22 29 23 30 24 31 25 32 26 34
REMARK SMILES IDX 27 35 28 36 74 37 29 38 73 39 30 40 31 41 32 42 67 43 33 44
REMARK SMILES IDX 72 45 66 46 68 47 34 48 71 49 65 50 64 51 35 53 57 54 42 55
REMARK SMILES IDX 56 56 43 57 46 58 55 59 69 60 44 61 45 62 54 64 70 65 47 66
REMARK SMILES IDX 36 67 37 68 41 69 38 70 40 71 39 72 58 73 59 74 63 75 60 76
REMARK SMILES IDX 62 77 61 78 48 79 49 80 53 81 50 82 52 83 51 84
REMARK H PARENT 20 5 24 33 68 52 46 63
REMARK Flexibility Score: inf
ROOT
ATOM      1  C   UNL     1       5.148  12.512  -2.170  1.00  0.00     0.118 C 
ENDROOT
BRANCH   1   2
ATOM      2  N   UNL     1       3.870  13.209  -2.111  1.00  0.00    -0.352 N 
ATOM      3  C   UNL     1       2.603  12.858  -2.517  1.00  0.00     0.251 C 
ATOM      4  O   UNL     1       1.683  13.629  -2.242  1.00  0.00    -0.269 OA
ATOM      5  H   UNL     1       3.923  14.102  -1.702  1.00  0.00     0.163 HD
BRANCH   3   6
ATOM      6  C   UNL     1       2.292  11.579  -3.220  1.00  0.00     0.039 A 
ATOM      7  C   UNL     1       1.647   9.087  -4.320  1.00  0.00     0.067 A 
ATOM      8  C   UNL     1       0.642   9.845  -3.719  1.00  0.00     0.029 A 
ATOM      9  C   UNL     1       2.929   9.610  -4.479  1.00  0.00     0.029 A 
ATOM     10  C   UNL     1       0.979  11.078  -3.143  1.00  0.00     0.016 A 
ATOM     11  C   UNL     1       3.228  10.865  -3.966  1.00  0.00     0.016 A 
BRANCH   7  12
ATOM     12  N   UNL     1       1.404   7.772  -4.751  1.00  0.00    -0.216 N 
ATOM     13  C   UNL     1       1.599   5.691  -5.329  1.00  0.00     0.205 A 
ATOM     14  N   UNL     1       0.420   6.176  -5.829  1.00  0.00    -0.117 NA
ATOM     15  C   UNL     1       2.206   6.663  -4.551  1.00  0.00     0.081 A 
ATOM     16  N   UNL     1       0.271   7.421  -5.392  1.00  0.00    -0.061 NA
ATOM     17  C   UNL     1       3.313   6.596  -3.563  1.00  0.00     0.070 C 
BRANCH  13  18
ATOM     18  S   UNL     1       2.057   4.031  -5.469  1.00  0.00     0.227 S 
ATOM     19  O   UNL     1       3.498   4.061  -5.546  1.00  0.00    -0.217 OA
ATOM     20  O   UNL     1       1.228   3.478  -6.530  1.00  0.00    -0.217 OA
BRANCH  18  21
ATOM     21  C   UNL     1       1.602   3.246  -3.947  1.00  0.00     0.073 A 
ATOM     22  C   UNL     1       0.993   1.950  -1.534  1.00  0.00    -0.048 A 
ATOM     23  C   UNL     1       1.755   1.304  -2.518  1.00  0.00     0.005 A 
ATOM     24  C   UNL     1       0.549   3.259  -1.778  1.00  0.00     0.005 A 
ATOM     25  C   UNL     1       2.067   1.950  -3.718  1.00  0.00     0.021 A 
ATOM     26  C   UNL     1       0.839   3.903  -2.980  1.00  0.00     0.021 A 
BRANCH  22  27
ATOM     27  C   UNL     1       0.600   1.313  -0.220  1.00  0.00     0.032 C 
ATOM     28  C   UNL     1       1.063  -0.116   0.018  1.00  0.00     0.009 C 
ENDBRANCH  22  27
ENDBRANCH  18  21
ENDBRANCH  13  18
ENDBRANCH   7  12
ENDBRANCH   3   6
ENDBRANCH   1   2
BRANCH   1  29
ATOM     29  C   UNL     1       5.951  12.889  -3.423  1.00  0.00     0.042 C 
BRANCH  29  30
ATOM     30  C   UNL     1       6.761  14.161  -3.243  1.00  0.00     0.118 C 
BRANCH  30  31
ATOM     31  N   UNL     1       7.906  13.957  -2.361  1.00  0.00    -0.352 N 
ATOM     32  C   UNL     1       8.782  14.900  -1.875  1.00  0.00     0.251 C 
ATOM     33  H   UNL     1       8.072  13.028  -2.080  1.00  0.00     0.163 HD
ATOM     34  O   UNL     1       9.884  14.568  -1.452  1.00  0.00    -0.269 OA
BRANCH  32  35
ATOM     35  C   UNL     1       8.385  16.317  -1.886  1.00  0.00     0.039 A 
ATOM     36  C   UNL     1       9.290  17.294  -2.306  1.00  0.00     0.014 A 
ATOM     37  C   UNL     1       7.087  16.658  -1.505  1.00  0.00     0.014 A 
ATOM     38  C   UNL     1       8.850  18.608  -2.431  1.00  0.00     0.010 A 
ATOM     39  C   UNL     1       6.623  17.935  -1.731  1.00  0.00     0.010 A 
ATOM     40  C   UNL     1       7.505  18.918  -2.172  1.00  0.00    -0.014 A 
BRANCH  40  41
ATOM     41  C   UNL     1       6.992  20.243  -2.510  1.00  0.00     0.031 A 
ATOM     42  C   UNL     1       7.205  20.654  -3.925  1.00  0.00     0.074 A 
ATOM     43  C   UNL     1       6.194  20.974  -1.704  1.00  0.00     0.049 A 
ATOM     44  N   UNL     1       7.967  21.601  -4.363  1.00  0.00    -0.248 NA
ATOM     45  C   UNL     1       6.584  19.848  -4.988  1.00  0.00     0.031 C 
ATOM     46  C   UNL     1       5.607  20.588  -0.417  1.00  0.00     0.029 A 
ATOM     47  N   UNL     1       5.637  22.195  -1.936  1.00  0.00    -0.354 N 
ATOM     48  C   UNL     1       7.781  21.642  -5.742  1.00  0.00     0.074 A 
ATOM     49  C   UNL     1       7.054  20.445  -6.085  1.00  0.00     0.031 C 
ATOM     50  C   UNL     1       4.603  21.439  -0.108  1.00  0.00     0.029 A 
ATOM     51  C   UNL     1       4.593  22.518  -1.080  1.00  0.00     0.049 A 
ATOM     52  H   UNL     1       5.949  22.798  -2.650  1.00  0.00     0.167 HD
ATOM     53  C   UNL     1       8.028  22.775  -6.458  1.00  0.00     0.031 A 
ATOM     54  C   UNL     1       3.759  23.581  -1.177  1.00  0.00     0.031 A 
ATOM     55  C   UNL     1       8.776  23.736  -5.689  1.00  0.00     0.049 A 
ATOM     56  C   UNL     1       4.412  24.584  -2.045  1.00  0.00     0.074 A 
ATOM     57  C   UNL     1      10.003  23.747  -5.056  1.00  0.00     0.029 A 
ATOM     58  N   UNL     1       8.068  24.789  -5.159  1.00  0.00    -0.354 N 
ATOM     59  N   UNL     1       5.471  25.255  -1.696  1.00  0.00    -0.248 NA
ATOM     60  C   UNL     1       4.133  24.557  -3.471  1.00  0.00     0.031 C 
ATOM     61  C   UNL     1       9.789  24.490  -3.857  1.00  0.00     0.029 A 
ATOM     62  C   UNL     1       8.470  24.948  -3.861  1.00  0.00     0.049 A 
ATOM     63  H   UNL     1       7.393  25.330  -5.629  1.00  0.00     0.167 HD
ATOM     64  C   UNL     1       6.229  25.335  -2.853  1.00  0.00     0.074 A 
ATOM     65  C   UNL     1       5.302  25.006  -3.934  1.00  0.00     0.031 C 
ATOM     66  C   UNL     1       7.593  25.377  -2.795  1.00  0.00     0.031 A 
BRANCH  53  67
ATOM     67  C   UNL     1       7.233  23.198  -7.673  1.00  0.00    -0.014 A 
ATOM     68  C   UNL     1       7.581  24.402  -8.316  1.00  0.00     0.009 A 
ATOM     69  C   UNL     1       5.990  22.637  -8.021  1.00  0.00     0.009 A 
ATOM     70  C   UNL     1       6.692  25.055  -9.178  1.00  0.00     0.001 A 
ATOM     71  C   UNL     1       5.119  23.263  -8.916  1.00  0.00     0.001 A 
ATOM     72  C   UNL     1       5.455  24.490  -9.468  1.00  0.00     0.000 A 
ENDBRANCH  53  67
BRANCH  54  73
ATOM     73  C   UNL     1       2.355  23.722  -0.743  1.00  0.00    -0.014 A 
ATOM     74  C   UNL     1       1.774  24.994  -0.609  1.00  0.00     0.009 A 
ATOM     75  C   UNL     1       1.500  22.606  -0.731  1.00  0.00     0.009 A 
ATOM     76  C   UNL     1       0.385  25.145  -0.519  1.00  0.00     0.001 A 
ATOM     77  C   UNL     1       0.112  22.756  -0.636  1.00  0.00     0.001 A 
ATOM     78  C   UNL     1      -0.446  24.028  -0.549  1.00  0.00     0.000 A 
ENDBRANCH  54  73
BRANCH  66  79
ATOM     79  C   UNL     1       8.239  25.637  -1.456  1.00  0.00    -0.014 A 
ATOM     80  C   UNL     1       8.047  24.817  -0.329  1.00  0.00     0.009 A 
ATOM     81  C   UNL     1       9.182  26.672  -1.371  1.00  0.00     0.009 A 
ATOM     82  C   UNL     1       8.750  25.055   0.857  1.00  0.00     0.001 A 
ATOM     83  C   UNL     1       9.902  26.893  -0.196  1.00  0.00     0.001 A 
ATOM     84  C   UNL     1       9.680  26.091   0.920  1.00  0.00     0.000 A 
ENDBRANCH  66  79
ENDBRANCH  40  41
ENDBRANCH  32  35
ENDBRANCH  30  31
ENDBRANCH  29  30
ENDBRANCH   1  29
TORSDOF 14
