REMARK SMILES Cc1cccc(CC(=O)NC2(CC(=O)NCCCNC(=O)c3ccc(-c4c5nc(c(-c6ccccc6)c6ccc([nH]6)c(-c6ccccc6)c6nc(c(-c7ccccc7)c7ccc4[nH]7)C=C6)C=C5)cc3)CCC2)c1
REMARK SMILES IDX 16 1 15 2 13 3 14 4 12 6 11 7 70 8 72 9 71 10 10 11 8 12
REMARK SMILES IDX 9 13 7 15 6 16 1 17 2 18 3 19 73 20 4 21 5 22 17 23 18 24
REMARK SMILES IDX 19 25 20 26 21 28 22 29 23 30 69 31 24 32 68 33 25 34 26 35
REMARK SMILES IDX 27 36 62 37 28 38 67 39 61 40 63 41 29 42 66 43 60 44 59 45
REMARK SMILES IDX 30 47 52 48 37 49 51 50 38 51 41 52 50 53 64 54 39 55 40 56
REMARK SMILES IDX 49 58 65 59 42 60 31 61 32 62 36 63 33 64 35 65 34 66 53 67
REMARK SMILES IDX 54 68 58 69 55 70 57 71 56 72 43 73 44 74 48 75 45 76 47 77
REMARK SMILES IDX 46 78
REMARK H PARENT 15 5 10 14 19 27 63 46 41 57
REMARK Flexibility Score: inf
ROOT
ATOM      1  C   UNL     1       0.329  -0.442  -4.536  1.00  0.00     0.117 C 
ENDROOT
BRANCH   1   2
ATOM      2  N   UNL     1      -0.967   0.092  -4.908  1.00  0.00    -0.356 N 
ATOM      3  C   UNL     1      -1.446   1.364  -4.839  1.00  0.00     0.222 C 
ATOM      4  O   UNL     1      -2.634   1.551  -5.116  1.00  0.00    -0.275 OA
ATOM      5  H   UNL     1      -1.601  -0.570  -5.267  1.00  0.00     0.163 HD
BRANCH   3   6
ATOM      6  C   UNL     1      -0.587   2.535  -4.398  1.00  0.00     0.128 C 
BRANCH   6   7
ATOM      7  C   UNL     1      -0.583   2.825  -2.878  1.00  0.00     0.049 C 
ATOM      8  C   UNL     1      -0.055   4.235  -2.487  1.00  0.00     0.029 C 
ATOM      9  C   UNL     1       0.677   2.221  -2.239  1.00  0.00     0.029 C 
ATOM     10  C   UNL     1       1.217   3.609  -1.909  1.00  0.00     0.005 C 
BRANCH   7  11
ATOM     11  N   UNL     1      -1.927   2.535  -2.306  1.00  0.00    -0.350 N 
ATOM     12  C   UNL     1      -2.463   2.424  -1.054  1.00  0.00     0.224 C 
ATOM     13  O   UNL     1      -3.675   2.183  -0.988  1.00  0.00    -0.275 OA
ATOM     14  H   UNL     1      -2.600   2.385  -3.008  1.00  0.00     0.164 HD
BRANCH  12  15
ATOM     15  C   UNL     1      -1.652   2.567   0.221  1.00  0.00     0.135 C 
BRANCH  15  16
ATOM     16  C   UNL     1      -1.067   1.259   0.701  1.00  0.00    -0.038 A 
ATOM     17  C   UNL     1       2.417  -0.205   1.046  1.00  0.00     0.044 C 
ATOM     18  C   UNL     1       0.924  -0.086   1.108  1.00  0.00    -0.051 A 
ATOM     19  C   UNL     1       0.122  -1.224   1.217  1.00  0.00     0.003 A 
ATOM     20  C   UNL     1       0.313   1.159   0.929  1.00  0.00     0.007 A 
ATOM     21  C   UNL     1      -1.267  -1.112   1.145  1.00  0.00     0.001 A 
ATOM     22  C   UNL     1      -1.859   0.117   0.860  1.00  0.00     0.004 A 
ENDBRANCH  15  16
ENDBRANCH  12  15
ENDBRANCH   7  11
ENDBRANCH   6   7
ENDBRANCH   3   6
ENDBRANCH   1   2
BRANCH   1  23
ATOM     23  C   UNL     1       0.389  -0.858  -3.066  1.00  0.00     0.042 C 
BRANCH  23  24
ATOM     24  C   UNL     1      -0.019  -2.302  -2.795  1.00  0.00     0.118 C 
BRANCH  24  25
ATOM     25  N   UNL     1       1.000  -3.029  -2.024  1.00  0.00    -0.352 N 
ATOM     26  C   UNL     1       0.919  -4.251  -1.379  1.00  0.00     0.251 C 
ATOM     27  H   UNL     1       1.872  -2.578  -1.957  1.00  0.00     0.163 HD
ATOM     28  O   UNL     1       1.908  -4.776  -0.897  1.00  0.00    -0.269 OA
BRANCH  26  29
ATOM     29  C   UNL     1      -0.376  -4.958  -1.391  1.00  0.00     0.039 A 
ATOM     30  C   UNL     1      -0.442  -6.199  -2.025  1.00  0.00     0.014 A 
ATOM     31  C   UNL     1      -1.530  -4.258  -1.060  1.00  0.00     0.014 A 
ATOM     32  C   UNL     1      -1.651  -6.596  -2.582  1.00  0.00     0.010 A 
ATOM     33  C   UNL     1      -2.706  -4.600  -1.690  1.00  0.00     0.010 A 
ATOM     34  C   UNL     1      -2.737  -5.722  -2.523  1.00  0.00    -0.014 A 
BRANCH  34  35
ATOM     35  C   UNL     1      -3.856  -5.795  -3.455  1.00  0.00     0.031 A 
ATOM     36  C   UNL     1      -5.197  -6.191  -3.001  1.00  0.00     0.074 A 
ATOM     37  C   UNL     1      -3.674  -5.435  -4.745  1.00  0.00     0.049 A 
ATOM     38  N   UNL     1      -6.091  -6.701  -3.778  1.00  0.00    -0.248 NA
ATOM     39  C   UNL     1      -5.624  -6.090  -1.612  1.00  0.00     0.031 C 
ATOM     40  C   UNL     1      -4.697  -5.182  -5.756  1.00  0.00     0.029 A 
ATOM     41  N   UNL     1      -2.478  -5.443  -5.461  1.00  0.00    -0.354 N 
ATOM     42  C   UNL     1      -7.276  -6.714  -3.087  1.00  0.00     0.074 A 
ATOM     43  C   UNL     1      -6.918  -6.407  -1.720  1.00  0.00     0.031 C 
ATOM     44  C   UNL     1      -4.142  -5.303  -6.972  1.00  0.00     0.029 A 
ATOM     45  C   UNL     1      -2.782  -5.780  -6.792  1.00  0.00     0.049 A 
ATOM     46  H   UNL     1      -1.583  -5.248  -5.100  1.00  0.00     0.167 HD
ATOM     47  C   UNL     1      -8.448  -6.853  -3.766  1.00  0.00     0.031 A 
ATOM     48  C   UNL     1      -2.267  -6.915  -7.350  1.00  0.00     0.031 A 
ATOM     49  C   UNL     1      -8.246  -7.060  -5.201  1.00  0.00     0.049 A 
ATOM     50  C   UNL     1      -3.303  -7.961  -7.720  1.00  0.00     0.074 A 
ATOM     51  C   UNL     1      -8.423  -6.282  -6.334  1.00  0.00     0.029 A 
ATOM     52  N   UNL     1      -7.521  -8.166  -5.614  1.00  0.00    -0.354 N 
ATOM     53  N   UNL     1      -4.587  -7.835  -7.527  1.00  0.00    -0.248 NA
ATOM     54  C   UNL     1      -2.951  -9.285  -8.240  1.00  0.00     0.031 C 
ATOM     55  C   UNL     1      -7.813  -6.949  -7.436  1.00  0.00     0.029 A 
ATOM     56  C   UNL     1      -7.274  -8.133  -6.971  1.00  0.00     0.049 A 
ATOM     57  H   UNL     1      -7.220  -8.886  -5.014  1.00  0.00     0.167 HD
ATOM     58  C   UNL     1      -5.207  -9.025  -7.799  1.00  0.00     0.074 A 
ATOM     59  C   UNL     1      -4.146  -9.900  -8.260  1.00  0.00     0.031 C 
ATOM     60  C   UNL     1      -6.536  -9.231  -7.569  1.00  0.00     0.031 A 
BRANCH  47  61
ATOM     61  C   UNL     1      -9.794  -6.567  -3.147  1.00  0.00    -0.014 A 
ATOM     62  C   UNL     1     -10.857  -6.130  -3.957  1.00  0.00     0.009 A 
ATOM     63  C   UNL     1     -10.071  -6.672  -1.774  1.00  0.00     0.009 A 
ATOM     64  C   UNL     1     -12.082  -5.718  -3.417  1.00  0.00     0.001 A 
ATOM     65  C   UNL     1     -11.276  -6.220  -1.219  1.00  0.00     0.001 A 
ATOM     66  C   UNL     1     -12.279  -5.730  -2.042  1.00  0.00     0.000 A 
ENDBRANCH  47  61
BRANCH  48  67
ATOM     67  C   UNL     1      -0.885  -7.219  -6.879  1.00  0.00    -0.014 A 
ATOM     68  C   UNL     1       0.152  -6.334  -7.237  1.00  0.00     0.009 A 
ATOM     69  C   UNL     1      -0.663  -8.121  -5.830  1.00  0.00     0.009 A 
ATOM     70  C   UNL     1       1.333  -6.276  -6.493  1.00  0.00     0.001 A 
ATOM     71  C   UNL     1       0.528  -8.068  -5.095  1.00  0.00     0.001 A 
ATOM     72  C   UNL     1       1.507  -7.124  -5.403  1.00  0.00     0.000 A 
ENDBRANCH  48  67
BRANCH  60  73
ATOM     73  C   UNL     1      -7.253 -10.522  -7.853  1.00  0.00    -0.014 A 
ATOM     74  C   UNL     1      -7.032 -11.271  -9.016  1.00  0.00     0.009 A 
ATOM     75  C   UNL     1      -8.287 -10.955  -6.998  1.00  0.00     0.009 A 
ATOM     76  C   UNL     1      -7.777 -12.428  -9.283  1.00  0.00     0.001 A 
ATOM     77  C   UNL     1      -9.047 -12.094  -7.271  1.00  0.00     0.001 A 
ATOM     78  C   UNL     1      -8.784 -12.838  -8.412  1.00  0.00     0.000 A 
ENDBRANCH  60  73
ENDBRANCH  34  35
ENDBRANCH  26  29
ENDBRANCH  24  25
ENDBRANCH  23  24
ENDBRANCH   1  23
TORSDOF 14
