REMARK SMILES COc1cc(C)cc2c1[C@@H](C)[C@@H](CC(=O)N[C@@H](Cc1c[nH]c3ccccc13)C(=O)NCCCNC(=O)c1ccc(-c3c4nc(c(-c5ccccc5)c5ccc([nH]5)c(-c5ccccc5)c5nc(c(-c6ccccc6)c6ccc3[nH]6)C=C5)C=C4)cc1)C(=O)O2
REMARK SMILES IDX 31 1 30 2 28 3 29 4 17 6 16 7 14 8 15 9 13 11 12 12 3 13
REMARK SMILES IDX 4 14 9 15 5 16 8 17 10 18 6 19 7 20 87 21 11 22 85 23 86 24
REMARK SMILES IDX 2 25 1 26 18 27 19 28 20 29 27 30 21 31 22 32 26 33 23 35
REMARK SMILES IDX 25 36 24 37 32 38 33 39 34 40 35 41 36 43 37 44 38 45 84 46
REMARK SMILES IDX 39 47 83 48 40 49 41 50 42 51 77 52 43 53 82 54 76 55 78 56
REMARK SMILES IDX 44 57 81 58 75 59 74 60 45 62 67 63 52 64 66 65 53 66 56 67
REMARK SMILES IDX 65 68 79 69 54 70 55 71 64 73 80 74 57 75 46 76 47 77 51 78
REMARK SMILES IDX 48 79 50 80 49 81 68 82 69 83 73 84 70 85 72 86 71 87 58 88
REMARK SMILES IDX 59 89 63 90 60 91 62 92 61 93
REMARK H PARENT 30 5 16 10 21 34 34 42 78 61 56 72
REMARK Flexibility Score: inf
ROOT
ATOM      1  C   UNL     1      -3.171  -4.280  -8.890  1.00  0.00     0.117 C 
ENDROOT
BRANCH   1   2
ATOM      2  N   UNL     1      -2.024  -3.503  -8.483  1.00  0.00    -0.354 N 
ATOM      3  C   UNL     1      -1.892  -2.626  -7.461  1.00  0.00     0.242 C 
ATOM      4  O   UNL     1      -0.913  -1.869  -7.521  1.00  0.00    -0.273 OA
ATOM      5  H   UNL     1      -1.217  -3.630  -9.032  1.00  0.00     0.163 HD
BRANCH   3   6
ATOM      6  C   UNL     1      -2.824  -2.572  -6.230  1.00  0.00     0.175 C 
BRANCH   6   7
ATOM      7  N   UNL     1      -3.309  -1.254  -5.857  1.00  0.00    -0.344 N 
ATOM      8  C   UNL     1      -3.361  -0.759  -4.582  1.00  0.00     0.221 C 
ATOM      9  O   UNL     1      -4.267   0.013  -4.273  1.00  0.00    -0.275 OA
ATOM     10  H   UNL     1      -3.626  -0.668  -6.582  1.00  0.00     0.164 HD
BRANCH   8  11
ATOM     11  C   UNL     1      -2.211  -1.062  -3.632  1.00  0.00     0.116 C 
BRANCH  11  12
ATOM     12  C   UNL     1      -2.365  -2.223  -2.618  1.00  0.00     0.116 C 
ATOM     13  C   UNL     1       1.097  -1.501  -1.274  1.00  0.00     0.126 A 
ATOM     14  C   UNL     1       2.357  -1.484  -1.899  1.00  0.00     0.050 A 
ATOM     15  C   UNL     1       0.010  -2.127  -1.885  1.00  0.00     0.041 A 
ATOM     16  C   UNL     1       2.555  -2.085  -3.151  1.00  0.00    -0.044 A 
ATOM     17  C   UNL     1       0.274  -2.835  -3.070  1.00  0.00     0.138 A 
ATOM     18  C   UNL     1      -1.431  -2.096  -1.383  1.00  0.00     0.038 C 
ATOM     19  C   UNL     1       3.892  -2.023  -3.827  1.00  0.00     0.044 C 
ATOM     20  C   UNL     1       1.506  -2.799  -3.720  1.00  0.00     0.051 A 
ATOM     21  O   UNL     1      -0.697  -3.660  -3.662  1.00  0.00    -0.426 OA
ATOM     22  C   UNL     1      -1.860  -0.898  -0.530  1.00  0.00     0.014 C 
ATOM     23  C   UNL     1      -1.976  -3.583  -3.150  1.00  0.00     0.315 C 
ATOM     24  O   UNL     1      -2.721  -4.557  -3.146  1.00  0.00    -0.251 OA
BRANCH  13  25
ATOM     25  O   UNL     1       0.938  -1.016  -0.005  1.00  0.00    -0.496 OA
ATOM     26  C   UNL     1       1.338   0.344   0.132  1.00  0.00     0.278 C 
ENDBRANCH  13  25
ENDBRANCH  11  12
ENDBRANCH   8  11
ENDBRANCH   6   7
BRANCH   6  27
ATOM     27  C   UNL     1      -3.796  -3.671  -5.837  1.00  0.00     0.072 C 
BRANCH  27  28
ATOM     28  C   UNL     1      -5.226  -3.867  -6.262  1.00  0.00    -0.020 A 
ATOM     29  C   UNL     1      -5.747  -5.153  -6.185  1.00  0.00     0.087 A 
ATOM     30  C   UNL     1      -6.345  -3.007  -6.576  1.00  0.00     0.003 A 
ATOM     31  N   UNL     1      -7.100  -5.064  -6.127  1.00  0.00    -0.361 N 
ATOM     32  C   UNL     1      -7.495  -3.808  -6.503  1.00  0.00     0.046 A 
ATOM     33  C   UNL     1      -6.562  -1.641  -6.868  1.00  0.00     0.010 A 
ATOM     34  H   UNL     1      -7.705  -5.791  -5.856  1.00  0.00     0.166 HD
ATOM     35  C   UNL     1      -8.796  -3.341  -6.726  1.00  0.00     0.026 A 
ATOM     36  C   UNL     1      -7.857  -1.163  -7.141  1.00  0.00     0.001 A 
ATOM     37  C   UNL     1      -8.958  -2.006  -7.078  1.00  0.00     0.002 A 
ENDBRANCH  27  28
ENDBRANCH   6  27
ENDBRANCH   3   6
ENDBRANCH   1   2
BRANCH   1  38
ATOM     38  C   UNL     1      -4.229  -3.377  -9.500  1.00  0.00     0.042 C 
BRANCH  38  39
ATOM     39  C   UNL     1      -3.827  -2.908 -10.889  1.00  0.00     0.118 C 
BRANCH  39  40
ATOM     40  N   UNL     1      -3.851  -4.001 -11.856  1.00  0.00    -0.352 N 
ATOM     41  C   UNL     1      -4.673  -4.187 -12.943  1.00  0.00     0.251 C 
ATOM     42  H   UNL     1      -3.181  -4.707 -11.708  1.00  0.00     0.163 HD
ATOM     43  O   UNL     1      -4.733  -5.269 -13.500  1.00  0.00    -0.269 OA
BRANCH  41  44
ATOM     44  C   UNL     1      -5.494  -3.052 -13.410  1.00  0.00     0.039 A 
ATOM     45  C   UNL     1      -4.936  -1.775 -13.477  1.00  0.00     0.014 A 
ATOM     46  C   UNL     1      -6.835  -3.260 -13.737  1.00  0.00     0.014 A 
ATOM     47  C   UNL     1      -5.763  -0.681 -13.666  1.00  0.00     0.010 A 
ATOM     48  C   UNL     1      -7.640  -2.164 -14.050  1.00  0.00     0.010 A 
ATOM     49  C   UNL     1      -7.122  -0.862 -13.964  1.00  0.00    -0.014 A 
BRANCH  49  50
ATOM     50  C   UNL     1      -7.973   0.330 -14.193  1.00  0.00     0.031 A 
ATOM     51  C   UNL     1      -9.139   0.628 -13.292  1.00  0.00     0.074 A 
ATOM     52  C   UNL     1      -7.648   1.176 -15.190  1.00  0.00     0.049 A 
ATOM     53  N   UNL     1      -9.983   1.628 -13.349  1.00  0.00    -0.248 NA
ATOM     54  C   UNL     1      -9.401  -0.312 -12.190  1.00  0.00     0.031 C 
ATOM     55  C   UNL     1      -6.518   0.999 -16.105  1.00  0.00     0.029 A 
ATOM     56  N   UNL     1      -8.209   2.364 -15.582  1.00  0.00    -0.354 N 
ATOM     57  C   UNL     1     -10.886   1.422 -12.314  1.00  0.00     0.074 A 
ATOM     58  C   UNL     1     -10.509   0.189 -11.661  1.00  0.00     0.031 C 
ATOM     59  C   UNL     1      -6.427   2.071 -16.903  1.00  0.00     0.029 A 
ATOM     60  C   UNL     1      -7.544   2.965 -16.622  1.00  0.00     0.049 A 
ATOM     61  H   UNL     1      -9.011   2.748 -15.159  1.00  0.00     0.167 HD
ATOM     62  C   UNL     1     -11.929   2.200 -11.942  1.00  0.00     0.031 A 
ATOM     63  C   UNL     1      -7.810   4.098 -17.298  1.00  0.00     0.031 A 
ATOM     64  C   UNL     1     -12.281   3.436 -12.592  1.00  0.00     0.049 A 
ATOM     65  C   UNL     1      -9.004   4.914 -16.900  1.00  0.00     0.074 A 
ATOM     66  C   UNL     1     -13.305   4.311 -12.271  1.00  0.00     0.029 A 
ATOM     67  N   UNL     1     -11.624   3.974 -13.689  1.00  0.00    -0.354 N 
ATOM     68  N   UNL     1      -9.846   4.708 -15.916  1.00  0.00    -0.248 NA
ATOM     69  C   UNL     1      -9.289   6.111 -17.700  1.00  0.00     0.031 C 
ATOM     70  C   UNL     1     -13.314   5.335 -13.218  1.00  0.00     0.029 A 
ATOM     71  C   UNL     1     -12.244   5.149 -14.079  1.00  0.00     0.049 A 
ATOM     72  H   UNL     1     -10.835   3.579 -14.124  1.00  0.00     0.167 HD
ATOM     73  C   UNL     1     -10.755   5.755 -15.970  1.00  0.00     0.074 A 
ATOM     74  C   UNL     1     -10.346   6.607 -17.069  1.00  0.00     0.031 C 
ATOM     75  C   UNL     1     -11.832   5.984 -15.180  1.00  0.00     0.031 A 
BRANCH  62  76
ATOM     76  C   UNL     1     -12.787   1.743 -10.792  1.00  0.00    -0.014 A 
ATOM     77  C   UNL     1     -14.130   1.398 -11.023  1.00  0.00     0.009 A 
ATOM     78  C   UNL     1     -12.310   1.748  -9.472  1.00  0.00     0.009 A 
ATOM     79  C   UNL     1     -14.979   1.087  -9.960  1.00  0.00     0.001 A 
ATOM     80  C   UNL     1     -13.153   1.404  -8.412  1.00  0.00     0.001 A 
ATOM     81  C   UNL     1     -14.489   1.086  -8.656  1.00  0.00     0.000 A 
ENDBRANCH  62  76
BRANCH  63  82
ATOM     82  C   UNL     1      -6.912   4.502 -18.413  1.00  0.00    -0.014 A 
ATOM     83  C   UNL     1      -6.817   3.712 -19.572  1.00  0.00     0.009 A 
ATOM     84  C   UNL     1      -6.077   5.620 -18.287  1.00  0.00     0.009 A 
ATOM     85  C   UNL     1      -5.875   4.007 -20.559  1.00  0.00     0.001 A 
ATOM     86  C   UNL     1      -5.160   5.934 -19.294  1.00  0.00     0.001 A 
ATOM     87  C   UNL     1      -5.049   5.120 -20.421  1.00  0.00     0.000 A 
ENDBRANCH  63  82
BRANCH  75  88
ATOM     88  C   UNL     1     -12.658   7.210 -15.457  1.00  0.00    -0.014 A 
ATOM     89  C   UNL     1     -12.696   8.251 -14.515  1.00  0.00     0.009 A 
ATOM     90  C   UNL     1     -13.488   7.283 -16.585  1.00  0.00     0.009 A 
ATOM     91  C   UNL     1     -13.566   9.328 -14.684  1.00  0.00     0.001 A 
ATOM     92  C   UNL     1     -14.333   8.379 -16.769  1.00  0.00     0.001 A 
ATOM     93  C   UNL     1     -14.381   9.393 -15.813  1.00  0.00     0.000 A 
ENDBRANCH  75  88
ENDBRANCH  49  50
ENDBRANCH  41  44
ENDBRANCH  39  40
ENDBRANCH  38  39
ENDBRANCH   1  38
TORSDOF 16
