REMARK SMILES C=CC[NH2+][C@@H](C(=O)NCCCNC(=O)c1ccc(-c2c3nc(c(-c4ccccc4)c4ccc([nH]4)c(-c4ccccc4)c4nc(c(-c5ccccc5)c5ccc2[nH]5)C=C4)C=C3)cc1)c1ccc(CC(C)C)cc1
REMARK SMILES IDX 9 1 8 2 6 3 7 4 5 6 4 7 3 10 2 11 1 12 63 13 64 14 72 15
REMARK SMILES IDX 65 16 71 17 66 18 67 19 68 20 69 21 70 22 10 23 11 24 12 25
REMARK SMILES IDX 13 26 14 28 15 29 16 30 62 31 17 32 61 33 18 34 19 35 20 36
REMARK SMILES IDX 55 37 21 38 60 39 54 40 56 41 22 42 59 43 53 44 52 45 23 47
REMARK SMILES IDX 45 48 30 49 44 50 31 51 34 52 43 53 57 54 32 55 33 56 42 58
REMARK SMILES IDX 58 59 35 60 24 61 25 62 29 63 26 64 28 65 27 66 46 67 47 68
REMARK SMILES IDX 51 69 48 70 50 71 49 72 36 73 37 74 41 75 38 76 40 77 39 78
REMARK H PARENT 8 5 4 8 4 9 12 27 56 46 34 57
REMARK Flexibility Score: inf
ROOT
ATOM      1  C   UNL     1      -3.034   0.894   0.737  1.00  0.00     0.118 C 
ENDROOT
BRANCH   1   2
ATOM      2  N   UNL     1      -3.349   0.172  -0.486  1.00  0.00    -0.351 N 
ATOM      3  C   UNL     1      -3.060  -1.102  -0.888  1.00  0.00     0.283 C 
ATOM      4  O   UNL     1      -3.096  -1.292  -2.110  1.00  0.00    -0.268 OA
ATOM      5  H   UNL     1      -3.864   0.694  -1.143  1.00  0.00     0.163 HD
BRANCH   3   6
ATOM      6  C   UNL     1      -2.697  -2.244   0.126  1.00  0.00     0.304 C 
BRANCH   6   7
ATOM      7  N   UNL     1      -1.229  -2.477   0.072  1.00  0.00    -0.329 N 
ATOM      8  H   UNL     1      -1.033  -3.395   0.473  1.00  0.00     0.347 HD
ATOM      9  H   UNL     1      -0.952  -2.415  -0.907  1.00  0.00     0.347 HD
BRANCH   7  10
ATOM     10  C   UNL     1      -0.461  -1.490   0.794  1.00  0.00     0.289 C 
BRANCH  10  11
ATOM     11  C   UNL     1       1.004  -1.713   0.610  1.00  0.00     0.025 C 
ATOM     12  C   UNL     1       1.821  -0.836   0.011  1.00  0.00     0.010 C 
ENDBRANCH  10  11
ENDBRANCH   7  10
ENDBRANCH   6   7
BRANCH   6  13
ATOM     13  C   UNL     1      -3.411  -3.573  -0.201  1.00  0.00     0.019 A 
ATOM     14  C   UNL     1      -4.592  -3.633  -0.956  1.00  0.00     0.011 A 
ATOM     15  C   UNL     1      -2.876  -4.793   0.256  1.00  0.00     0.011 A 
ATOM     16  C   UNL     1      -5.137  -4.862  -1.349  1.00  0.00     0.004 A 
ATOM     17  C   UNL     1      -3.430  -6.022  -0.121  1.00  0.00     0.004 A 
ATOM     18  C   UNL     1      -4.547  -6.069  -0.959  1.00  0.00    -0.048 A 
BRANCH  18  19
ATOM     19  C   UNL     1      -5.061  -7.390  -1.481  1.00  0.00     0.038 C 
BRANCH  19  20
ATOM     20  C   UNL     1      -6.260  -7.982  -0.717  1.00  0.00    -0.013 C 
ATOM     21  C   UNL     1      -7.543  -7.171  -0.920  1.00  0.00     0.008 C 
ATOM     22  C   UNL     1      -6.497  -9.423  -1.182  1.00  0.00     0.008 C 
ENDBRANCH  19  20
ENDBRANCH  18  19
ENDBRANCH   6  13
ENDBRANCH   3   6
ENDBRANCH   1   2
BRANCH   1  23
ATOM     23  C   UNL     1      -1.870   1.873   0.517  1.00  0.00     0.042 C 
BRANCH  23  24
ATOM     24  C   UNL     1      -2.180   3.030  -0.428  1.00  0.00     0.118 C 
BRANCH  24  25
ATOM     25  N   UNL     1      -2.587   4.229   0.281  1.00  0.00    -0.352 N 
ATOM     26  C   UNL     1      -1.904   5.391   0.546  1.00  0.00     0.251 C 
ATOM     27  H   UNL     1      -3.507   4.206   0.630  1.00  0.00     0.163 HD
ATOM     28  O   UNL     1      -2.390   6.191   1.343  1.00  0.00    -0.269 OA
BRANCH  26  29
ATOM     29  C   UNL     1      -0.592   5.702  -0.081  1.00  0.00     0.039 A 
ATOM     30  C   UNL     1       0.361   6.387   0.684  1.00  0.00     0.014 A 
ATOM     31  C   UNL     1      -0.309   5.418  -1.419  1.00  0.00     0.014 A 
ATOM     32  C   UNL     1       1.595   6.744   0.127  1.00  0.00     0.010 A 
ATOM     33  C   UNL     1       0.953   5.700  -1.951  1.00  0.00     0.010 A 
ATOM     34  C   UNL     1       1.915   6.383  -1.191  1.00  0.00    -0.014 A 
BRANCH  34  35
ATOM     35  C   UNL     1       3.223   6.753  -1.799  1.00  0.00     0.031 A 
ATOM     36  C   UNL     1       3.274   7.689  -2.981  1.00  0.00     0.074 A 
ATOM     37  C   UNL     1       4.369   6.231  -1.317  1.00  0.00     0.049 A 
ATOM     38  N   UNL     1       4.308   8.075  -3.687  1.00  0.00    -0.248 NA
ATOM     39  C   UNL     1       1.994   8.252  -3.439  1.00  0.00     0.031 C 
ATOM     40  C   UNL     1       4.473   5.304  -0.189  1.00  0.00     0.029 A 
ATOM     41  N   UNL     1       5.671   6.409  -1.720  1.00  0.00    -0.354 N 
ATOM     42  C   UNL     1       3.802   8.908  -4.678  1.00  0.00     0.074 A 
ATOM     43  C   UNL     1       2.365   8.936  -4.512  1.00  0.00     0.031 C 
ATOM     44  C   UNL     1       5.768   5.017   0.027  1.00  0.00     0.029 A 
ATOM     45  C   UNL     1       6.582   5.705  -0.971  1.00  0.00     0.049 A 
ATOM     46  H   UNL     1       5.926   6.987  -2.474  1.00  0.00     0.167 HD
ATOM     47  C   UNL     1       4.468   9.607  -5.628  1.00  0.00     0.031 A 
ATOM     48  C   UNL     1       7.922   5.615  -1.077  1.00  0.00     0.031 A 
ATOM     49  C   UNL     1       5.896   9.605  -5.792  1.00  0.00     0.049 A 
ATOM     50  C   UNL     1       8.634   6.380  -2.158  1.00  0.00     0.074 A 
ATOM     51  C   UNL     1       6.660  10.305  -6.711  1.00  0.00     0.029 A 
ATOM     52  N   UNL     1       6.778   8.876  -5.011  1.00  0.00    -0.354 N 
ATOM     53  N   UNL     1       8.139   7.186  -3.065  1.00  0.00    -0.248 NA
ATOM     54  C   UNL     1      10.096   6.226  -2.224  1.00  0.00     0.031 C 
ATOM     55  C   UNL     1       8.004   9.973  -6.507  1.00  0.00     0.029 A 
ATOM     56  C   UNL     1       8.077   9.102  -5.433  1.00  0.00     0.049 A 
ATOM     57  H   UNL     1       6.519   8.286  -4.267  1.00  0.00     0.167 HD
ATOM     58  C   UNL     1       9.228   7.659  -3.785  1.00  0.00     0.074 A 
ATOM     59  C   UNL     1      10.411   7.062  -3.204  1.00  0.00     0.031 C 
ATOM     60  C   UNL     1       9.246   8.514  -4.836  1.00  0.00     0.031 A 
BRANCH  47  61
ATOM     61  C   UNL     1       3.651  10.447  -6.570  1.00  0.00    -0.014 A 
ATOM     62  C   UNL     1       3.051  11.640  -6.137  1.00  0.00     0.009 A 
ATOM     63  C   UNL     1       3.522  10.070  -7.916  1.00  0.00     0.009 A 
ATOM     64  C   UNL     1       2.313  12.424  -7.026  1.00  0.00     0.001 A 
ATOM     65  C   UNL     1       2.806  10.869  -8.809  1.00  0.00     0.001 A 
ATOM     66  C   UNL     1       2.196  12.041  -8.362  1.00  0.00     0.000 A 
ENDBRANCH  47  61
BRANCH  48  67
ATOM     67  C   UNL     1       8.697   4.772  -0.128  1.00  0.00    -0.014 A 
ATOM     68  C   UNL     1       9.535   5.367   0.829  1.00  0.00     0.009 A 
ATOM     69  C   UNL     1       8.633   3.372  -0.198  1.00  0.00     0.009 A 
ATOM     70  C   UNL     1      10.319   4.576   1.672  1.00  0.00     0.001 A 
ATOM     71  C   UNL     1       9.396   2.585   0.666  1.00  0.00     0.001 A 
ATOM     72  C   UNL     1      10.247   3.187   1.592  1.00  0.00     0.000 A 
ENDBRANCH  48  67
BRANCH  60  73
ATOM     73  C   UNL     1      10.588   8.894  -5.392  1.00  0.00    -0.014 A 
ATOM     74  C   UNL     1      11.333   7.997  -6.172  1.00  0.00     0.009 A 
ATOM     75  C   UNL     1      11.093  10.183  -5.164  1.00  0.00     0.009 A 
ATOM     76  C   UNL     1      12.574   8.376  -6.688  1.00  0.00     0.001 A 
ATOM     77  C   UNL     1      12.322  10.567  -5.701  1.00  0.00     0.001 A 
ATOM     78  C   UNL     1      13.065   9.660  -6.456  1.00  0.00     0.000 A 
ENDBRANCH  60  73
ENDBRANCH  34  35
ENDBRANCH  26  29
ENDBRANCH  24  25
ENDBRANCH  23  24
ENDBRANCH   1  23
TORSDOF 16
