REMARK SMILES O=C(NCCCNC(=O)c1ccc(-c2c3nc(c(-c4ccccc4)c4ccc([nH]4)c(-c4ccccc4)c4nc(c(-c5ccccc5)c5ccc2[nH]5)C=C4)C=C3)cc1)c1ccc(/[NH+]=C2\S[C@@H](Cc3ccc(F)cc3)C(=O)N2Cc2ccccc2)cc1
REMARK SMILES IDX 4 1 3 2 1 3 2 4 58 6 59 7 85 8 60 9 84 10 61 11 62 12 63 13
REMARK SMILES IDX 64 15 76 16 65 17 74 18 75 19 77 20 78 21 79 22 83 23 80 24
REMARK SMILES IDX 82 25 81 26 66 27 67 28 68 29 73 30 69 31 72 32 70 33 71 34
REMARK SMILES IDX 5 35 6 36 7 37 8 38 9 40 10 41 11 42 57 43 12 44 56 45 13 46
REMARK SMILES IDX 14 47 15 48 50 49 16 50 55 51 49 52 51 53 17 54 54 55 48 56
REMARK SMILES IDX 47 57 18 59 40 60 25 61 39 62 26 63 29 64 38 65 52 66 27 67
REMARK SMILES IDX 28 68 37 70 53 71 30 72 19 73 20 74 24 75 21 76 23 77 22 78
REMARK SMILES IDX 41 79 42 80 46 81 43 82 45 83 44 84 31 85 32 86 36 87 33 88
REMARK SMILES IDX 35 89 34 90
REMARK H PARENT 3 5 62 14 7 39 51 58 29 69
REMARK Flexibility Score: inf
ROOT
ATOM      1  C   UNL     1       4.401   1.266  -0.588  1.00  0.00     0.118 C 
ENDROOT
BRANCH   1   2
ATOM      2  N   UNL     1       2.960   1.118  -0.423  1.00  0.00    -0.352 N 
ATOM      3  O   UNL     1       0.999   0.048  -0.118  1.00  0.00    -0.269 OA
ATOM      4  C   UNL     1       2.222   0.043   0.010  1.00  0.00     0.251 C 
ATOM      5  H   UNL     1       2.432   1.915  -0.658  1.00  0.00     0.163 HD
BRANCH   4   6
ATOM      6  C   UNL     1       2.892  -1.124   0.619  1.00  0.00     0.040 A 
ATOM      7  C   UNL     1       3.891  -0.940   1.572  1.00  0.00     0.018 A 
ATOM      8  C   UNL     1       2.498  -2.419   0.263  1.00  0.00     0.018 A 
ATOM      9  C   UNL     1       4.593  -2.039   2.047  1.00  0.00     0.052 A 
ATOM     10  C   UNL     1       3.173  -3.526   0.793  1.00  0.00     0.052 A 
ATOM     11  C   UNL     1       4.260  -3.337   1.649  1.00  0.00     0.125 A 
BRANCH  11  12
ATOM     12  N   UNL     1       4.997  -4.373   2.225  1.00  0.00    -0.235 N 
ATOM     13  C   UNL     1       5.801  -5.124   1.553  1.00  0.00     0.320 C 
ATOM     14  H   UNL     1       4.898  -4.538   3.190  1.00  0.00     0.313 HD
ATOM     15  S   UNL     1       5.982  -5.225  -0.177  1.00  0.00    -0.022 SA
ATOM     16  N   UNL     1       6.691  -5.955   2.180  1.00  0.00    -0.186 N 
ATOM     17  C   UNL     1       6.955  -6.766  -0.059  1.00  0.00     0.178 C 
ATOM     18  C   UNL     1       7.458  -6.774   1.378  1.00  0.00     0.324 C 
ATOM     19  O   UNL     1       8.378  -7.476   1.784  1.00  0.00    -0.245 OA
BRANCH  16  20
ATOM     20  C   UNL     1       6.890  -5.927   3.626  1.00  0.00     0.283 C 
BRANCH  20  21
ATOM     21  C   UNL     1       7.710  -4.740   4.098  1.00  0.00    -0.006 A 
ATOM     22  C   UNL     1       9.104  -4.816   4.213  1.00  0.00     0.008 A 
ATOM     23  C   UNL     1       7.080  -3.530   4.430  1.00  0.00     0.008 A 
ATOM     24  C   UNL     1       9.842  -3.708   4.642  1.00  0.00     0.000 A 
ATOM     25  C   UNL     1       7.818  -2.413   4.822  1.00  0.00     0.000 A 
ATOM     26  C   UNL     1       9.201  -2.503   4.933  1.00  0.00     0.000 A 
ENDBRANCH  20  21
ENDBRANCH  16  20
BRANCH  17  27
ATOM     27  C   UNL     1       8.046  -6.805  -1.129  1.00  0.00     0.063 C 
BRANCH  27  28
ATOM     28  C   UNL     1       8.810  -8.111  -1.197  1.00  0.00    -0.046 A 
ATOM     29  C   UNL     1      10.195  -8.120  -0.959  1.00  0.00     0.007 A 
ATOM     30  C   UNL     1       8.164  -9.321  -1.498  1.00  0.00     0.007 A 
ATOM     31  C   UNL     1      10.914  -9.315  -0.998  1.00  0.00     0.039 A 
ATOM     32  C   UNL     1       8.886 -10.516  -1.531  1.00  0.00     0.039 A 
ATOM     33  C   UNL     1      10.252 -10.503  -1.277  1.00  0.00     0.123 A 
ATOM     34  F   UNL     1      10.941 -11.651  -1.305  1.00  0.00    -0.207 F 
ENDBRANCH  27  28
ENDBRANCH  17  27
ENDBRANCH  11  12
ENDBRANCH   4   6
ENDBRANCH   1   2
BRANCH   1  35
ATOM     35  C   UNL     1       4.824   1.259  -2.049  1.00  0.00     0.042 C 
BRANCH  35  36
ATOM     36  C   UNL     1       4.282   2.432  -2.853  1.00  0.00     0.118 C 
BRANCH  36  37
ATOM     37  N   UNL     1       4.772   3.720  -2.378  1.00  0.00    -0.352 N 
ATOM     38  C   UNL     1       5.588   4.644  -2.981  1.00  0.00     0.251 C 
ATOM     39  H   UNL     1       4.466   3.968  -1.475  1.00  0.00     0.163 HD
ATOM     40  O   UNL     1       6.022   5.590  -2.329  1.00  0.00    -0.269 OA
BRANCH  38  41
ATOM     41  C   UNL     1       5.973   4.495  -4.401  1.00  0.00     0.039 A 
ATOM     42  C   UNL     1       7.293   4.764  -4.776  1.00  0.00     0.014 A 
ATOM     43  C   UNL     1       5.042   4.102  -5.364  1.00  0.00     0.014 A 
ATOM     44  C   UNL     1       7.696   4.553  -6.097  1.00  0.00     0.010 A 
ATOM     45  C   UNL     1       5.463   3.806  -6.655  1.00  0.00     0.010 A 
ATOM     46  C   UNL     1       6.796   4.024  -7.035  1.00  0.00    -0.014 A 
BRANCH  46  47
ATOM     47  C   UNL     1       7.219   3.683  -8.416  1.00  0.00     0.031 A 
ATOM     48  C   UNL     1       6.592   4.382  -9.591  1.00  0.00     0.074 A 
ATOM     49  C   UNL     1       8.103   2.686  -8.618  1.00  0.00     0.049 A 
ATOM     50  N   UNL     1       6.739   4.142 -10.870  1.00  0.00    -0.248 NA
ATOM     51  C   UNL     1       5.658   5.479  -9.289  1.00  0.00     0.031 C 
ATOM     52  C   UNL     1       8.764   1.909  -7.566  1.00  0.00     0.029 A 
ATOM     53  N   UNL     1       8.589   2.147  -9.783  1.00  0.00    -0.354 N 
ATOM     54  C   UNL     1       5.904   5.041 -11.520  1.00  0.00     0.074 A 
ATOM     55  C   UNL     1       5.218   5.799 -10.497  1.00  0.00     0.031 C 
ATOM     56  C   UNL     1       9.587   1.012  -8.134  1.00  0.00     0.029 A 
ATOM     57  C   UNL     1       9.476   1.116  -9.584  1.00  0.00     0.049 A 
ATOM     58  H   UNL     1       8.328   2.469 -10.676  1.00  0.00     0.167 HD
ATOM     59  C   UNL     1       5.736   5.233 -12.850  1.00  0.00     0.031 A 
ATOM     60  C   UNL     1      10.116   0.331 -10.471  1.00  0.00     0.031 A 
ATOM     61  C   UNL     1       6.427   4.490 -13.869  1.00  0.00     0.049 A 
ATOM     62  C   UNL     1       9.884   0.541 -11.941  1.00  0.00     0.074 A 
ATOM     63  C   UNL     1       6.360   4.644 -15.243  1.00  0.00     0.029 A 
ATOM     64  N   UNL     1       7.313   3.453 -13.624  1.00  0.00    -0.354 N 
ATOM     65  N   UNL     1       9.127   1.428 -12.540  1.00  0.00    -0.248 NA
ATOM     66  C   UNL     1      10.597  -0.361 -12.858  1.00  0.00     0.031 C 
ATOM     67  C   UNL     1       7.173   3.671 -15.832  1.00  0.00     0.029 A 
ATOM     68  C   UNL     1       7.783   2.943 -14.822  1.00  0.00     0.049 A 
ATOM     69  H   UNL     1       7.570   3.128 -12.732  1.00  0.00     0.167 HD
ATOM     70  C   UNL     1       9.293   1.209 -13.901  1.00  0.00     0.074 A 
ATOM     71  C   UNL     1      10.232   0.115 -14.040  1.00  0.00     0.031 C 
ATOM     72  C   UNL     1       8.720   1.857 -14.943  1.00  0.00     0.031 A 
BRANCH  59  73
ATOM     73  C   UNL     1       4.761   6.294 -13.277  1.00  0.00    -0.014 A 
ATOM     74  C   UNL     1       5.053   7.656 -13.106  1.00  0.00     0.009 A 
ATOM     75  C   UNL     1       3.553   5.929 -13.891  1.00  0.00     0.009 A 
ATOM     76  C   UNL     1       4.139   8.631 -13.510  1.00  0.00     0.001 A 
ATOM     77  C   UNL     1       2.653   6.907 -14.318  1.00  0.00     0.001 A 
ATOM     78  C   UNL     1       2.943   8.256 -14.119  1.00  0.00     0.000 A 
ENDBRANCH  59  73
BRANCH  60  79
ATOM     79  C   UNL     1      11.046  -0.727  -9.998  1.00  0.00    -0.014 A 
ATOM     80  C   UNL     1      12.429  -0.592 -10.190  1.00  0.00     0.009 A 
ATOM     81  C   UNL     1      10.557  -1.883  -9.370  1.00  0.00     0.009 A 
ATOM     82  C   UNL     1      13.302  -1.605  -9.787  1.00  0.00     0.001 A 
ATOM     83  C   UNL     1      11.435  -2.882  -8.942  1.00  0.00     0.001 A 
ATOM     84  C   UNL     1      12.805  -2.746  -9.160  1.00  0.00     0.000 A 
ENDBRANCH  60  79
BRANCH  72  85
ATOM     85  C   UNL     1       9.117   1.424 -16.324  1.00  0.00    -0.014 A 
ATOM     86  C   UNL     1       8.643   0.223 -16.873  1.00  0.00     0.009 A 
ATOM     87  C   UNL     1       9.937   2.255 -17.104  1.00  0.00     0.009 A 
ATOM     88  C   UNL     1       9.005  -0.150 -18.169  1.00  0.00     0.001 A 
ATOM     89  C   UNL     1      10.275   1.892 -18.407  1.00  0.00     0.001 A 
ATOM     90  C   UNL     1       9.816   0.687 -18.936  1.00  0.00     0.000 A 
ENDBRANCH  72  85
ENDBRANCH  46  47
ENDBRANCH  38  41
ENDBRANCH  36  37
ENDBRANCH  35  36
ENDBRANCH   1  35
TORSDOF 15
