REMARK SMILES O=C(NCCCNC(=O)[C@H]1[C@H]2C[C@@H]3[C@@H](OC(=O)[C@@H]31)[C@@H]2Sc1ccccc1)c1ccc(-c2c3nc(c(-c4ccccc4)c4ccc([nH]4)c(-c4ccccc4)c4nc(c(-c5ccccc5)c5ccc2[nH]5)C=C4)C=C3)cc1
REMARK SMILES IDX 5 1 4 2 3 3 1 4 2 5 27 7 28 8 74 9 29 10 73 11 30 12 31 13
REMARK SMILES IDX 32 14 67 15 33 16 72 17 66 18 68 19 34 20 71 21 65 22 64 23
REMARK SMILES IDX 35 25 57 26 42 27 56 28 43 29 46 30 55 31 69 32 44 33 45 34
REMARK SMILES IDX 54 36 70 37 47 38 36 39 37 40 41 41 38 42 40 43 39 44 58 45
REMARK SMILES IDX 59 46 63 47 60 48 62 49 61 50 48 51 49 52 53 53 50 54 52 55
REMARK SMILES IDX 51 56 6 57 7 58 8 59 9 61 10 62 11 63 18 64 12 65 19 66
REMARK SMILES IDX 13 67 16 68 14 69 15 70 17 71 20 72 21 73 22 74 26 75 23 76
REMARK SMILES IDX 25 77 24 78
REMARK H PARENT 3 6 68 24 46 35 7 60
REMARK Flexibility Score: inf
ROOT
ATOM      1  C   UNL     1       5.048   0.018  -1.960  1.00  0.00     0.042 C 
ENDROOT
BRANCH   1   2
ATOM      2  C   UNL     1       4.544   1.052  -0.976  1.00  0.00     0.118 C 
BRANCH   2   3
ATOM      3  N   UNL     1       3.100   0.928  -0.747  1.00  0.00    -0.352 N 
ATOM      4  O   UNL     1       1.182   0.033   0.034  1.00  0.00    -0.269 OA
ATOM      5  C   UNL     1       2.386   0.214   0.188  1.00  0.00     0.251 C 
ATOM      6  H   UNL     1       2.545   1.447  -1.373  1.00  0.00     0.163 HD
BRANCH   5   7
ATOM      7  C   UNL     1       3.075  -0.349   1.365  1.00  0.00     0.039 A 
ATOM      8  C   UNL     1       4.138   0.347   1.923  1.00  0.00     0.014 A 
ATOM      9  C   UNL     1       2.674  -1.565   1.925  1.00  0.00     0.014 A 
ATOM     10  C   UNL     1       4.970  -0.279   2.826  1.00  0.00     0.010 A 
ATOM     11  C   UNL     1       3.397  -2.104   2.996  1.00  0.00     0.010 A 
ATOM     12  C   UNL     1       4.576  -1.480   3.429  1.00  0.00    -0.014 A 
BRANCH  12  13
ATOM     13  C   UNL     1       5.387  -1.962   4.574  1.00  0.00     0.031 A 
ATOM     14  C   UNL     1       6.050  -3.309   4.560  1.00  0.00     0.074 A 
ATOM     15  C   UNL     1       5.593  -1.107   5.598  1.00  0.00     0.049 A 
ATOM     16  N   UNL     1       6.840  -3.837   5.461  1.00  0.00    -0.248 NA
ATOM     17  C   UNL     1       5.792  -4.180   3.403  1.00  0.00     0.031 C 
ATOM     18  C   UNL     1       4.997   0.231   5.715  1.00  0.00     0.029 A 
ATOM     19  N   UNL     1       6.397  -1.200   6.703  1.00  0.00    -0.354 N 
ATOM     20  C   UNL     1       7.158  -5.105   4.991  1.00  0.00     0.074 A 
ATOM     21  C   UNL     1       6.451  -5.281   3.741  1.00  0.00     0.031 C 
ATOM     22  C   UNL     1       5.528   0.864   6.767  1.00  0.00     0.029 A 
ATOM     23  C   UNL     1       6.405  -0.059   7.469  1.00  0.00     0.049 A 
ATOM     24  H   UNL     1       6.917  -2.006   6.927  1.00  0.00     0.167 HD
ATOM     25  C   UNL     1       7.971  -6.032   5.552  1.00  0.00     0.031 A 
ATOM     26  C   UNL     1       7.021   0.212   8.632  1.00  0.00     0.031 A 
ATOM     27  C   UNL     1       8.661  -5.847   6.804  1.00  0.00     0.049 A 
ATOM     28  C   UNL     1       7.867  -0.856   9.252  1.00  0.00     0.074 A 
ATOM     29  C   UNL     1       9.501  -6.727   7.464  1.00  0.00     0.029 A 
ATOM     30  N   UNL     1       8.591  -4.702   7.585  1.00  0.00    -0.354 N 
ATOM     31  N   UNL     1       8.157  -2.048   8.791  1.00  0.00    -0.248 NA
ATOM     32  C   UNL     1       8.467  -0.543  10.553  1.00  0.00     0.031 C 
ATOM     33  C   UNL     1       9.895  -6.137   8.669  1.00  0.00     0.029 A 
ATOM     34  C   UNL     1       9.357  -4.861   8.729  1.00  0.00     0.049 A 
ATOM     35  H   UNL     1       8.073  -3.896   7.360  1.00  0.00     0.167 HD
ATOM     36  C   UNL     1       8.987  -2.625   9.740  1.00  0.00     0.074 A 
ATOM     37  C   UNL     1       9.181  -1.635  10.781  1.00  0.00     0.031 C 
ATOM     38  C   UNL     1       9.532  -3.865   9.755  1.00  0.00     0.031 A 
BRANCH  25  39
ATOM     39  C   UNL     1       8.138  -7.342   4.831  1.00  0.00    -0.014 A 
ATOM     40  C   UNL     1       8.853  -7.426   3.625  1.00  0.00     0.009 A 
ATOM     41  C   UNL     1       7.617  -8.519   5.391  1.00  0.00     0.009 A 
ATOM     42  C   UNL     1       9.016  -8.656   2.982  1.00  0.00     0.001 A 
ATOM     43  C   UNL     1       7.807  -9.751   4.762  1.00  0.00     0.001 A 
ATOM     44  C   UNL     1       8.499  -9.818   3.554  1.00  0.00     0.000 A 
ENDBRANCH  25  39
BRANCH  26  45
ATOM     45  C   UNL     1       6.802   1.519   9.307  1.00  0.00    -0.014 A 
ATOM     46  C   UNL     1       7.857   2.423   9.497  1.00  0.00     0.009 A 
ATOM     47  C   UNL     1       5.522   1.865   9.775  1.00  0.00     0.009 A 
ATOM     48  C   UNL     1       7.642   3.626  10.173  1.00  0.00     0.001 A 
ATOM     49  C   UNL     1       5.302   3.086  10.412  1.00  0.00     0.001 A 
ATOM     50  C   UNL     1       6.365   3.959  10.625  1.00  0.00     0.000 A 
ENDBRANCH  26  45
BRANCH  38  51
ATOM     51  C   UNL     1      10.422  -4.193  10.920  1.00  0.00    -0.014 A 
ATOM     52  C   UNL     1       9.902  -4.358  12.214  1.00  0.00     0.009 A 
ATOM     53  C   UNL     1      11.802  -4.338  10.716  1.00  0.00     0.009 A 
ATOM     54  C   UNL     1      10.756  -4.612  13.289  1.00  0.00     0.001 A 
ATOM     55  C   UNL     1      12.648  -4.630  11.786  1.00  0.00     0.001 A 
ATOM     56  C   UNL     1      12.127  -4.752  13.073  1.00  0.00     0.000 A 
ENDBRANCH  38  51
ENDBRANCH  12  13
ENDBRANCH   5   7
ENDBRANCH   2   3
ENDBRANCH   1   2
BRANCH   1  57
ATOM     57  C   UNL     1       4.486   0.280  -3.337  1.00  0.00     0.117 C 
BRANCH  57  58
ATOM     58  N   UNL     1       5.197   1.336  -4.046  1.00  0.00    -0.356 N 
ATOM     59  C   UNL     1       5.793   1.445  -5.257  1.00  0.00     0.224 C 
ATOM     60  H   UNL     1       5.258   2.167  -3.520  1.00  0.00     0.163 HD
ATOM     61  O   UNL     1       6.149   2.584  -5.580  1.00  0.00    -0.275 OA
BRANCH  59  62
ATOM     62  C   UNL     1       6.055   0.293  -6.221  1.00  0.00     0.097 C 
ATOM     63  C   UNL     1       5.705  -1.139  -5.774  1.00  0.00     0.020 C 
ATOM     64  C   UNL     1       5.223   0.433  -7.525  1.00  0.00     0.119 C 
ATOM     65  C   UNL     1       4.198  -1.163  -6.103  1.00  0.00     0.014 C 
ATOM     66  C   UNL     1       6.314  -2.112  -6.806  1.00  0.00     0.097 C 
ATOM     67  C   UNL     1       4.389  -0.849  -7.555  1.00  0.00     0.047 C 
ATOM     68  C   UNL     1       6.060   0.230  -8.754  1.00  0.00     0.310 C 
ATOM     69  C   UNL     1       5.424  -1.853  -8.048  1.00  0.00     0.194 C 
ATOM     70  O   UNL     1       6.138  -1.110  -9.044  1.00  0.00    -0.461 OA
ATOM     71  O   UNL     1       6.622   1.105  -9.393  1.00  0.00    -0.252 OA
BRANCH  66  72
ATOM     72  S   UNL     1       6.524  -3.869  -6.275  1.00  0.00    -0.119 SA
BRANCH  72  73
ATOM     73  C   UNL     1       5.080  -4.255  -5.307  1.00  0.00     0.008 A 
ATOM     74  C   UNL     1       5.165  -4.359  -3.912  1.00  0.00     0.015 A 
ATOM     75  C   UNL     1       3.863  -4.541  -5.934  1.00  0.00     0.015 A 
ATOM     76  C   UNL     1       4.036  -4.691  -3.155  1.00  0.00     0.001 A 
ATOM     77  C   UNL     1       2.728  -4.842  -5.176  1.00  0.00     0.001 A 
ATOM     78  C   UNL     1       2.814  -4.916  -3.787  1.00  0.00     0.000 A 
ENDBRANCH  72  73
ENDBRANCH  66  72
ENDBRANCH  59  62
ENDBRANCH  57  58
ENDBRANCH   1  57
TORSDOF 12
