REMARK SMILES O=C(NCCCNC(=O)[C@H]1CCCCN1C(=O)CSCc1ccccc1)c1ccc(-c2c3nc(c(-c4ccccc4)c4ccc([nH]4)c(-c4ccccc4)c4nc(c(-c5ccccc5)c5ccc2[nH]5)C=C4)C=C3)cc1
REMARK SMILES IDX 7 1 8 2 9 3 6 5 5 6 4 7 3 8 1 9 2 10 27 12 28 13 74 14 29 15
REMARK SMILES IDX 73 16 30 17 31 18 32 19 67 20 33 21 72 22 66 23 68 24 34 25
REMARK SMILES IDX 71 26 65 27 64 28 35 30 57 31 42 32 56 33 43 34 46 35 55 36
REMARK SMILES IDX 69 37 44 38 45 39 54 41 70 42 47 43 36 44 37 45 41 46 38 47
REMARK SMILES IDX 40 48 39 49 58 50 59 51 63 52 60 53 62 54 61 55 48 56 49 57
REMARK SMILES IDX 53 58 50 59 52 60 51 61 10 62 11 63 15 64 12 65 14 66 13 67
REMARK SMILES IDX 16 68 17 69 18 70 19 71 20 72 21 73 22 74 26 75 23 76 25 77
REMARK SMILES IDX 24 78
REMARK H PARENT 7 4 3 11 68 29 46 40
REMARK Flexibility Score: inf
ROOT
ATOM      1  N   UNL     1       4.889   1.420  -7.869  1.00  0.00    -0.354 N 
ATOM      2  C   UNL     1       5.594   2.030  -6.881  1.00  0.00     0.242 C 
ATOM      3  O   UNL     1       5.587   3.267  -6.926  1.00  0.00    -0.273 OA
ATOM      4  H   UNL     1       4.374   2.040  -8.435  1.00  0.00     0.163 HD
ENDROOT
BRANCH   1   5
ATOM      5  C   UNL     1       4.753   0.032  -8.242  1.00  0.00     0.117 C 
BRANCH   5   6
ATOM      6  C   UNL     1       3.303  -0.404  -8.277  1.00  0.00     0.042 C 
BRANCH   6   7
ATOM      7  C   UNL     1       2.653  -0.015  -9.594  1.00  0.00     0.118 C 
BRANCH   7   8
ATOM      8  N   UNL     1       3.075  -0.890 -10.688  1.00  0.00    -0.352 N 
ATOM      9  O   UNL     1       3.115  -2.729 -11.985  1.00  0.00    -0.269 OA
ATOM     10  C   UNL     1       2.468  -1.991 -11.246  1.00  0.00     0.251 C 
ATOM     11  H   UNL     1       3.939  -0.649 -11.094  1.00  0.00     0.163 HD
BRANCH  10  12
ATOM     12  C   UNL     1       1.053  -2.302 -10.949  1.00  0.00     0.039 A 
ATOM     13  C   UNL     1       0.131  -1.273 -10.792  1.00  0.00     0.014 A 
ATOM     14  C   UNL     1       0.626  -3.631 -10.856  1.00  0.00     0.014 A 
ATOM     15  C   UNL     1      -1.139  -1.552 -10.319  1.00  0.00     0.010 A 
ATOM     16  C   UNL     1      -0.709  -3.916 -10.538  1.00  0.00     0.010 A 
ATOM     17  C   UNL     1      -1.595  -2.876 -10.228  1.00  0.00    -0.014 A 
BRANCH  17  18
ATOM     18  C   UNL     1      -3.026  -3.091  -9.884  1.00  0.00     0.031 A 
ATOM     19  C   UNL     1      -3.440  -3.848  -8.654  1.00  0.00     0.074 A 
ATOM     20  C   UNL     1      -3.957  -2.488 -10.653  1.00  0.00     0.049 A 
ATOM     21  N   UNL     1      -4.644  -4.018  -8.166  1.00  0.00    -0.248 NA
ATOM     22  C   UNL     1      -2.382  -4.508  -7.874  1.00  0.00     0.031 C 
ATOM     23  C   UNL     1      -3.675  -1.739 -11.884  1.00  0.00     0.029 A 
ATOM     24  N   UNL     1      -5.309  -2.345 -10.486  1.00  0.00    -0.354 N 
ATOM     25  C   UNL     1      -4.493  -4.823  -7.045  1.00  0.00     0.074 A 
ATOM     26  C   UNL     1      -3.082  -5.124  -6.931  1.00  0.00     0.031 C 
ATOM     27  C   UNL     1      -4.792  -1.123 -12.291  1.00  0.00     0.029 A 
ATOM     28  C   UNL     1      -5.887  -1.509 -11.412  1.00  0.00     0.049 A 
ATOM     29  H   UNL     1      -5.817  -2.795  -9.773  1.00  0.00     0.167 HD
ATOM     30  C   UNL     1      -5.444  -5.268  -6.189  1.00  0.00     0.031 A 
ATOM     31  C   UNL     1      -7.160  -1.099 -11.552  1.00  0.00     0.031 A 
ATOM     32  C   UNL     1      -6.846  -4.959  -6.302  1.00  0.00     0.049 A 
ATOM     33  C   UNL     1      -8.186  -1.596 -10.581  1.00  0.00     0.074 A 
ATOM     34  C   UNL     1      -7.890  -5.372  -5.490  1.00  0.00     0.029 A 
ATOM     35  N   UNL     1      -7.401  -4.153  -7.284  1.00  0.00    -0.354 N 
ATOM     36  N   UNL     1      -8.021  -2.367  -9.534  1.00  0.00    -0.248 NA
ATOM     37  C   UNL     1      -9.573  -1.178 -10.817  1.00  0.00     0.031 C 
ATOM     38  C   UNL     1      -9.080  -4.843  -6.002  1.00  0.00     0.029 A 
ATOM     39  C   UNL     1      -8.771  -4.062  -7.104  1.00  0.00     0.049 A 
ATOM     40  H   UNL     1      -6.895  -3.710  -8.003  1.00  0.00     0.167 HD
ATOM     41  C   UNL     1      -9.285  -2.536  -8.991  1.00  0.00     0.074 A 
ATOM     42  C   UNL     1     -10.197  -1.750  -9.798  1.00  0.00     0.031 C 
ATOM     43  C   UNL     1      -9.661  -3.289  -7.929  1.00  0.00     0.031 A 
BRANCH  30  44
ATOM     44  C   UNL     1      -5.003  -6.162  -5.064  1.00  0.00    -0.014 A 
ATOM     45  C   UNL     1      -4.314  -5.651  -3.953  1.00  0.00     0.009 A 
ATOM     46  C   UNL     1      -5.327  -7.528  -5.091  1.00  0.00     0.009 A 
ATOM     47  C   UNL     1      -3.937  -6.494  -2.905  1.00  0.00     0.001 A 
ATOM     48  C   UNL     1      -4.969  -8.364  -4.031  1.00  0.00     0.001 A 
ATOM     49  C   UNL     1      -4.269  -7.848  -2.942  1.00  0.00     0.000 A 
ENDBRANCH  30  44
BRANCH  31  50
ATOM     50  C   UNL     1      -7.530  -0.200 -12.675  1.00  0.00    -0.014 A 
ATOM     51  C   UNL     1      -7.926   1.124 -12.440  1.00  0.00     0.009 A 
ATOM     52  C   UNL     1      -7.466  -0.664 -14.000  1.00  0.00     0.009 A 
ATOM     53  C   UNL     1      -8.267   1.959 -13.507  1.00  0.00     0.001 A 
ATOM     54  C   UNL     1      -7.773   0.182 -15.065  1.00  0.00     0.001 A 
ATOM     55  C   UNL     1      -8.182   1.491 -14.818  1.00  0.00     0.000 A 
ENDBRANCH  31  50
BRANCH  43  56
ATOM     56  C   UNL     1     -11.123  -3.284  -7.592  1.00  0.00    -0.014 A 
ATOM     57  C   UNL     1     -12.050  -3.971  -8.392  1.00  0.00     0.009 A 
ATOM     58  C   UNL     1     -11.577  -2.586  -6.464  1.00  0.00     0.009 A 
ATOM     59  C   UNL     1     -13.411  -3.921  -8.092  1.00  0.00     0.001 A 
ATOM     60  C   UNL     1     -12.937  -2.559  -6.152  1.00  0.00     0.001 A 
ATOM     61  C   UNL     1     -13.853  -3.217  -6.972  1.00  0.00     0.000 A 
ENDBRANCH  43  56
ENDBRANCH  17  18
ENDBRANCH  10  12
ENDBRANCH   7   8
ENDBRANCH   6   7
ENDBRANCH   5   6
ENDBRANCH   1   5
BRANCH   2  62
ATOM     62  C   UNL     1       6.491   1.285  -5.855  1.00  0.00     0.174 C 
ATOM     63  C   UNL     1       6.031  -0.032  -5.220  1.00  0.00     0.035 C 
ATOM     64  N   UNL     1       7.877   1.187  -6.322  1.00  0.00    -0.330 N 
ATOM     65  C   UNL     1       6.671  -1.337  -5.731  1.00  0.00     0.004 C 
ATOM     66  C   UNL     1       8.114   0.137  -7.295  1.00  0.00     0.120 C 
ATOM     67  C   UNL     1       7.896  -1.224  -6.647  1.00  0.00     0.022 C 
BRANCH  64  68
ATOM     68  C   UNL     1       8.841   1.994  -5.736  1.00  0.00     0.233 C 
ATOM     69  O   UNL     1       8.547   2.822  -4.869  1.00  0.00    -0.274 OA
BRANCH  68  70
ATOM     70  C   UNL     1      10.300   1.847  -6.140  1.00  0.00     0.170 C 
BRANCH  70  71
ATOM     71  S   UNL     1      11.082   0.281  -5.618  1.00  0.00    -0.147 SA
BRANCH  71  72
ATOM     72  C   UNL     1      10.363   0.028  -3.963  1.00  0.00     0.105 C 
BRANCH  72  73
ATOM     73  C   UNL     1      11.157   0.681  -2.865  1.00  0.00    -0.038 A 
ATOM     74  C   UNL     1      12.070  -0.070  -2.110  1.00  0.00     0.004 A 
ATOM     75  C   UNL     1      10.994   2.040  -2.568  1.00  0.00     0.004 A 
ATOM     76  C   UNL     1      12.797   0.526  -1.079  1.00  0.00     0.000 A 
ATOM     77  C   UNL     1      11.730   2.638  -1.545  1.00  0.00     0.000 A 
ATOM     78  C   UNL     1      12.629   1.880  -0.799  1.00  0.00     0.000 A 
ENDBRANCH  72  73
ENDBRANCH  71  72
ENDBRANCH  70  71
ENDBRANCH  68  70
ENDBRANCH  64  68
ENDBRANCH   2  62
TORSDOF 15
