REMARK SMILES O=C(Cc1ccccc1C(=O)NCCCNC(=O)c1ccc(-c2c3nc(c(-c4ccccc4)c4ccc([nH]4)c(-c4ccccc4)c4nc(c(-c5ccccc5)c5ccc2[nH]5)C=C4)C=C3)cc1)Nc1cccc(OC[C@@H]2CCCO2)c1
REMARK SMILES IDX 10 1 11 2 12 3 9 5 4 6 5 7 6 8 8 9 7 10 3 11 2 12 1 13 67 14
REMARK SMILES IDX 68 16 69 17 80 18 70 19 72 20 71 21 73 22 74 23 75 24 76 25
REMARK SMILES IDX 79 26 77 27 78 28 13 29 14 30 15 31 16 32 17 33 18 35 19 36
REMARK SMILES IDX 20 37 66 38 21 39 65 40 22 41 23 42 24 43 59 44 25 45 64 46
REMARK SMILES IDX 58 47 60 48 26 49 63 50 57 51 56 52 27 54 49 55 34 56 48 57
REMARK SMILES IDX 35 58 38 59 47 60 61 61 36 62 37 63 46 65 62 66 39 67 28 68
REMARK SMILES IDX 29 69 33 70 30 71 32 72 31 73 50 74 51 75 55 76 52 77 54 78
REMARK SMILES IDX 53 79 40 80 41 81 45 82 42 83 44 84 43 85
REMARK H PARENT 12 4 67 15 16 34 60 53 38 64
REMARK Flexibility Score: inf
ROOT
ATOM      1  C   UNL     1       2.367   3.068  -1.895  1.00  0.00     0.251 C 
ATOM      2  O   UNL     1       1.730   4.108  -1.681  1.00  0.00    -0.269 OA
ATOM      3  N   UNL     1       1.833   2.280  -2.877  1.00  0.00    -0.352 N 
ATOM      4  H   UNL     1       1.092   2.730  -3.343  1.00  0.00     0.163 HD
ENDROOT
BRANCH   1   5
ATOM      5  C   UNL     1       3.671   2.896  -1.164  1.00  0.00     0.043 A 
ATOM      6  C   UNL     1       4.262   1.767  -0.557  1.00  0.00    -0.026 A 
ATOM      7  C   UNL     1       5.481   1.930   0.156  1.00  0.00     0.005 A 
ATOM      8  C   UNL     1       6.089   3.169   0.320  1.00  0.00     0.000 A 
ATOM      9  C   UNL     1       4.327   4.143  -0.983  1.00  0.00     0.014 A 
ATOM     10  C   UNL     1       5.505   4.284  -0.247  1.00  0.00     0.001 A 
BRANCH   6  11
ATOM     11  C   UNL     1       3.705   0.377  -0.480  1.00  0.00     0.136 C 
BRANCH  11  12
ATOM     12  C   UNL     1       2.803   0.131   0.704  1.00  0.00     0.228 C 
ATOM     13  O   UNL     1       1.602   0.363   0.638  1.00  0.00    -0.274 OA
ATOM     14  N   UNL     1       3.443  -0.393   1.817  1.00  0.00    -0.326 N 
ATOM     15  H   UNL     1       4.417  -0.281   1.904  1.00  0.00     0.169 HD
BRANCH  14  16
ATOM     16  C   UNL     1       2.742  -1.078   2.826  1.00  0.00     0.044 A 
ATOM     17  C   UNL     1       3.117  -0.925   4.157  1.00  0.00     0.026 A 
ATOM     18  C   UNL     1       1.673  -1.917   2.494  1.00  0.00     0.072 A 
ATOM     19  C   UNL     1       2.345  -1.522   5.155  1.00  0.00     0.006 A 
ATOM     20  C   UNL     1       0.889  -2.501   3.479  1.00  0.00     0.121 A 
ATOM     21  C   UNL     1       1.228  -2.291   4.815  1.00  0.00     0.046 A 
BRANCH  20  22
ATOM     22  O   UNL     1      -0.213  -3.274   3.272  1.00  0.00    -0.491 OA
BRANCH  22  23
ATOM     23  C   UNL     1      -0.715  -3.439   1.944  1.00  0.00     0.261 C 
BRANCH  23  24
ATOM     24  C   UNL     1      -1.609  -2.299   1.418  1.00  0.00     0.156 C 
ATOM     25  C   UNL     1      -1.043  -1.556   0.214  1.00  0.00     0.038 C 
ATOM     26  O   UNL     1      -1.929  -1.315   2.415  1.00  0.00    -0.375 OA
ATOM     27  C   UNL     1      -1.628  -0.176   0.373  1.00  0.00     0.031 C 
ATOM     28  C   UNL     1      -1.643  -0.018   1.877  1.00  0.00     0.161 C 
ENDBRANCH  23  24
ENDBRANCH  22  23
ENDBRANCH  20  22
ENDBRANCH  14  16
ENDBRANCH  11  12
ENDBRANCH   6  11
ENDBRANCH   1   5
BRANCH   3  29
ATOM     29  C   UNL     1       2.076   0.954  -3.408  1.00  0.00     0.118 C 
BRANCH  29  30
ATOM     30  C   UNL     1       1.103  -0.043  -2.760  1.00  0.00     0.042 C 
BRANCH  30  31
ATOM     31  C   UNL     1      -0.279  -0.090  -3.410  1.00  0.00     0.118 C 
BRANCH  31  32
ATOM     32  N   UNL     1      -0.325  -1.061  -4.492  1.00  0.00    -0.352 N 
ATOM     33  C   UNL     1      -0.909  -2.301  -4.579  1.00  0.00     0.251 C 
ATOM     34  H   UNL     1       0.147  -0.779  -5.308  1.00  0.00     0.163 HD
ATOM     35  O   UNL     1      -0.558  -3.039  -5.499  1.00  0.00    -0.269 OA
BRANCH  33  36
ATOM     36  C   UNL     1      -1.938  -2.791  -3.620  1.00  0.00     0.039 A 
ATOM     37  C   UNL     1      -2.023  -4.174  -3.397  1.00  0.00     0.014 A 
ATOM     38  C   UNL     1      -2.889  -1.960  -3.025  1.00  0.00     0.014 A 
ATOM     39  C   UNL     1      -3.029  -4.711  -2.583  1.00  0.00     0.010 A 
ATOM     40  C   UNL     1      -3.839  -2.489  -2.138  1.00  0.00     0.010 A 
ATOM     41  C   UNL     1      -3.942  -3.874  -1.926  1.00  0.00    -0.014 A 
BRANCH  41  42
ATOM     42  C   UNL     1      -5.035  -4.430  -1.071  1.00  0.00     0.031 A 
ATOM     43  C   UNL     1      -6.481  -4.170  -1.420  1.00  0.00     0.074 A 
ATOM     44  C   UNL     1      -4.753  -5.148   0.036  1.00  0.00     0.049 A 
ATOM     45  N   UNL     1      -7.566  -4.520  -0.771  1.00  0.00    -0.248 NA
ATOM     46  C   UNL     1      -6.744  -3.419  -2.657  1.00  0.00     0.031 C 
ATOM     47  C   UNL     1      -3.413  -5.504   0.499  1.00  0.00     0.029 A 
ATOM     48  N   UNL     1      -5.583  -5.692   0.989  1.00  0.00    -0.354 N 
ATOM     49  C   UNL     1      -8.631  -4.031  -1.518  1.00  0.00     0.074 A 
ATOM     50  C   UNL     1      -8.064  -3.303  -2.632  1.00  0.00     0.031 C 
ATOM     51  C   UNL     1      -3.508  -6.180   1.656  1.00  0.00     0.029 A 
ATOM     52  C   UNL     1      -4.913  -6.294   2.028  1.00  0.00     0.049 A 
ATOM     53  H   UNL     1      -6.565  -5.654   0.932  1.00  0.00     0.167 HD
ATOM     54  C   UNL     1      -9.961  -4.200  -1.325  1.00  0.00     0.031 A 
ATOM     55  C   UNL     1      -5.366  -6.867   3.159  1.00  0.00     0.031 A 
ATOM     56  C   UNL     1     -10.542  -4.932  -0.232  1.00  0.00     0.049 A 
ATOM     57  C   UNL     1      -6.846  -6.976   3.394  1.00  0.00     0.074 A 
ATOM     58  C   UNL     1     -11.879  -5.197   0.014  1.00  0.00     0.029 A 
ATOM     59  N   UNL     1      -9.823  -5.515   0.799  1.00  0.00    -0.354 N 
ATOM     60  N   UNL     1      -7.834  -6.567   2.637  1.00  0.00    -0.248 NA
ATOM     61  C   UNL     1      -7.272  -7.660   4.624  1.00  0.00     0.031 C 
ATOM     62  C   UNL     1     -11.972  -5.901   1.220  1.00  0.00     0.029 A 
ATOM     63  C   UNL     1     -10.690  -6.121   1.694  1.00  0.00     0.049 A 
ATOM     64  H   UNL     1      -8.842  -5.500   0.884  1.00  0.00     0.167 HD
ATOM     65  C   UNL     1      -8.995  -6.991   3.270  1.00  0.00     0.074 A 
ATOM     66  C   UNL     1      -8.589  -7.689   4.472  1.00  0.00     0.031 C 
ATOM     67  C   UNL     1     -10.282  -6.826   2.880  1.00  0.00     0.031 A 
BRANCH  54  68
ATOM     68  C   UNL     1     -10.889  -3.586  -2.338  1.00  0.00    -0.014 A 
ATOM     69  C   UNL     1     -10.986  -4.109  -3.638  1.00  0.00     0.009 A 
ATOM     70  C   UNL     1     -11.705  -2.503  -1.979  1.00  0.00     0.009 A 
ATOM     71  C   UNL     1     -11.855  -3.535  -4.569  1.00  0.00     0.001 A 
ATOM     72  C   UNL     1     -12.594  -1.950  -2.902  1.00  0.00     0.001 A 
ATOM     73  C   UNL     1     -12.662  -2.460  -4.198  1.00  0.00     0.000 A 
ENDBRANCH  54  68
BRANCH  55  74
ATOM     74  C   UNL     1      -4.407  -7.412   4.158  1.00  0.00    -0.014 A 
ATOM     75  C   UNL     1      -4.278  -8.798   4.342  1.00  0.00     0.009 A 
ATOM     76  C   UNL     1      -3.637  -6.548   4.952  1.00  0.00     0.009 A 
ATOM     77  C   UNL     1      -3.425  -9.306   5.325  1.00  0.00     0.001 A 
ATOM     78  C   UNL     1      -2.764  -7.060   5.915  1.00  0.00     0.001 A 
ATOM     79  C   UNL     1      -2.668  -8.437   6.109  1.00  0.00     0.000 A 
ENDBRANCH  55  74
BRANCH  67  80
ATOM     80  C   UNL     1     -11.346  -7.468   3.725  1.00  0.00    -0.014 A 
ATOM     81  C   UNL     1     -11.678  -6.970   4.994  1.00  0.00     0.009 A 
ATOM     82  C   UNL     1     -12.047  -8.578   3.225  1.00  0.00     0.009 A 
ATOM     83  C   UNL     1     -12.666  -7.593   5.760  1.00  0.00     0.001 A 
ATOM     84  C   UNL     1     -13.054  -9.179   3.980  1.00  0.00     0.001 A 
ATOM     85  C   UNL     1     -13.356  -8.693   5.251  1.00  0.00     0.000 A 
ENDBRANCH  67  80
ENDBRANCH  41  42
ENDBRANCH  33  36
ENDBRANCH  31  32
ENDBRANCH  30  31
ENDBRANCH  29  30
ENDBRANCH   3  29
TORSDOF 16
