REMARK SMILES CCOc1ccc(-c2cc(Cl)cc3c2O[C@H](C(F)(F)F)C(C(=O)NCCCNC(=O)c2ccc(-c4c5nc(c(-c6ccccc6)c6ccc([nH]6)c(-c6ccccc6)c6nc(c(-c7ccccc7)c7ccc4[nH]7)C=C6)C=C5)cc2)=C3)cc1
REMARK SMILES IDX 25 1 24 2 22 3 23 4 21 6 8 7 9 8 14 9 10 10 13 11 15 12
REMARK SMILES IDX 11 13 12 14 79 15 16 16 7 17 4 18 5 19 81 20 6 21 80 22 3 23
REMARK SMILES IDX 2 24 1 25 17 26 18 27 19 28 20 29 26 30 27 31 28 32 29 33
REMARK SMILES IDX 30 35 31 36 32 37 78 38 33 39 77 40 34 41 35 42 36 43 71 44
REMARK SMILES IDX 37 45 76 46 70 47 72 48 38 49 75 50 69 51 68 52 39 54 61 55
REMARK SMILES IDX 46 56 60 57 47 58 50 59 59 60 73 61 48 62 49 63 58 65 74 66
REMARK SMILES IDX 51 67 40 68 41 69 45 70 42 71 44 72 43 73 62 74 63 75 67 76
REMARK SMILES IDX 64 77 66 78 65 79 52 80 53 81 57 82 54 83 56 84 55 85
REMARK H PARENT 24 5 28 34 72 53 50 64
REMARK Flexibility Score: inf
ROOT
ATOM      1  C   UNL     1      13.256   3.451  -4.695  1.00  0.00     0.118 C 
ENDROOT
BRANCH   1   2
ATOM      2  N   UNL     1      12.550   4.059  -3.585  1.00  0.00    -0.352 N 
ATOM      3  C   UNL     1      11.221   3.958  -3.331  1.00  0.00     0.251 C 
ATOM      4  O   UNL     1      10.588   4.939  -2.961  1.00  0.00    -0.270 OA
ATOM      5  H   UNL     1      13.085   4.594  -2.955  1.00  0.00     0.163 HD
BRANCH   3   6
ATOM      6  C   UNL     1      10.629   2.590  -3.389  1.00  0.00     0.067 C 
ATOM      7  C   UNL     1       7.071   3.284  -1.537  1.00  0.00     0.026 A 
ATOM      8  C   UNL     1       7.313   4.035  -0.361  1.00  0.00     0.033 A 
ATOM      9  C   UNL     1       8.191   2.707  -2.156  1.00  0.00     0.135 A 
ATOM     10  C   UNL     1       8.569   4.084   0.245  1.00  0.00     0.042 A 
ATOM     11  C   UNL     1       9.430   2.675  -1.472  1.00  0.00     0.019 A 
ATOM     12  O   UNL     1       8.146   2.179  -3.437  1.00  0.00    -0.475 OA
ATOM     13  Cl  UNL     1       8.794   5.027   1.665  1.00  0.00    -0.084 Cl
ATOM     14  C   UNL     1       9.622   3.352  -0.273  1.00  0.00     0.032 A 
ATOM     15  C   UNL     1      10.574   2.035  -2.161  1.00  0.00     0.025 C 
ATOM     16  C   UNL     1       9.363   2.489  -4.233  1.00  0.00     0.314 C 
BRANCH   7  17
ATOM     17  C   UNL     1       5.649   3.014  -1.853  1.00  0.00    -0.014 A 
ATOM     18  C   UNL     1       2.910   2.430  -1.485  1.00  0.00     0.119 A 
ATOM     19  C   UNL     1       3.324   3.750  -1.638  1.00  0.00     0.047 A 
ATOM     20  C   UNL     1       3.828   1.398  -1.648  1.00  0.00     0.047 A 
ATOM     21  C   UNL     1       4.683   4.040  -1.827  1.00  0.00     0.013 A 
ATOM     22  C   UNL     1       5.185   1.687  -1.833  1.00  0.00     0.013 A 
BRANCH  18  23
ATOM     23  O   UNL     1       1.585   2.192  -1.246  1.00  0.00    -0.494 OA
BRANCH  23  24
ATOM     24  C   UNL     1       1.329   1.585   0.030  1.00  0.00     0.226 C 
ATOM     25  C   UNL     1       1.095   0.088  -0.111  1.00  0.00     0.049 C 
ENDBRANCH  23  24
ENDBRANCH  18  23
ENDBRANCH   7  17
BRANCH  16  26
ATOM     26  C   UNL     1       9.591   1.452  -5.354  1.00  0.00     0.429 C 
ATOM     27  F   UNL     1       8.774   0.381  -5.253  1.00  0.00    -0.167 F 
ATOM     28  F   UNL     1       9.392   2.005  -6.576  1.00  0.00    -0.167 F 
ATOM     29  F   UNL     1      10.861   0.968  -5.362  1.00  0.00    -0.167 F 
ENDBRANCH  16  26
ENDBRANCH   3   6
ENDBRANCH   1   2
BRANCH   1  30
ATOM     30  C   UNL     1      13.805   4.538  -5.621  1.00  0.00     0.042 C 
BRANCH  30  31
ATOM     31  C   UNL     1      14.836   5.459  -4.971  1.00  0.00     0.118 C 
BRANCH  31  32
ATOM     32  N   UNL     1      16.049   4.768  -4.562  1.00  0.00    -0.352 N 
ATOM     33  C   UNL     1      17.357   5.138  -4.767  1.00  0.00     0.251 C 
ATOM     34  H   UNL     1      15.916   3.924  -4.073  1.00  0.00     0.163 HD
ATOM     35  O   UNL     1      18.275   4.381  -4.468  1.00  0.00    -0.269 OA
BRANCH  33  36
ATOM     36  C   UNL     1      17.645   6.446  -5.387  1.00  0.00     0.039 A 
ATOM     37  C   UNL     1      18.492   6.499  -6.496  1.00  0.00     0.014 A 
ATOM     38  C   UNL     1      17.033   7.606  -4.905  1.00  0.00     0.014 A 
ATOM     39  C   UNL     1      18.663   7.707  -7.174  1.00  0.00     0.010 A 
ATOM     40  C   UNL     1      17.145   8.790  -5.625  1.00  0.00     0.010 A 
ATOM     41  C   UNL     1      17.956   8.851  -6.770  1.00  0.00    -0.014 A 
BRANCH  41  42
ATOM     42  C   UNL     1      18.028  10.122  -7.535  1.00  0.00     0.031 A 
ATOM     43  C   UNL     1      18.565  11.365  -6.883  1.00  0.00     0.074 A 
ATOM     44  C   UNL     1      17.516  10.183  -8.780  1.00  0.00     0.049 A 
ATOM     45  N   UNL     1      18.600  12.590  -7.341  1.00  0.00    -0.248 NA
ATOM     46  C   UNL     1      19.098  11.215  -5.520  1.00  0.00     0.031 C 
ATOM     47  C   UNL     1      16.918   9.063  -9.509  1.00  0.00     0.029 A 
ATOM     48  N   UNL     1      17.399  11.243  -9.644  1.00  0.00    -0.354 N 
ATOM     49  C   UNL     1      19.125  13.361  -6.312  1.00  0.00     0.074 A 
ATOM     50  C   UNL     1      19.351  12.473  -5.192  1.00  0.00     0.031 C 
ATOM     51  C   UNL     1      16.515   9.491 -10.716  1.00  0.00     0.029 A 
ATOM     52  C   UNL     1      16.785  10.920 -10.830  1.00  0.00     0.049 A 
ATOM     53  H   UNL     1      17.724  12.148  -9.435  1.00  0.00     0.167 HD
ATOM     54  C   UNL     1      19.408  14.685  -6.303  1.00  0.00     0.031 A 
ATOM     55  C   UNL     1      16.463  11.689 -11.887  1.00  0.00     0.031 A 
ATOM     56  C   UNL     1      19.201  15.564  -7.423  1.00  0.00     0.049 A 
ATOM     57  C   UNL     1      16.800  13.152 -11.864  1.00  0.00     0.074 A 
ATOM     58  C   UNL     1      19.527  16.904  -7.540  1.00  0.00     0.029 A 
ATOM     59  N   UNL     1      18.609  15.189  -8.620  1.00  0.00    -0.354 N 
ATOM     60  N   UNL     1      17.365  13.853 -10.911  1.00  0.00    -0.248 NA
ATOM     61  C   UNL     1      16.465  13.928 -13.066  1.00  0.00     0.031 C 
ATOM     62  C   UNL     1      19.087  17.352  -8.790  1.00  0.00     0.029 A 
ATOM     63  C   UNL     1      18.538  16.277  -9.473  1.00  0.00     0.049 A 
ATOM     64  H   UNL     1      18.287  14.283  -8.831  1.00  0.00     0.167 HD
ATOM     65  C   UNL     1      17.476  15.146 -11.406  1.00  0.00     0.074 A 
ATOM     66  C   UNL     1      16.931  15.128 -12.749  1.00  0.00     0.031 C 
ATOM     67  C   UNL     1      17.988  16.247 -10.804  1.00  0.00     0.031 A 
BRANCH  54  68
ATOM     68  C   UNL     1      19.957  15.261  -5.026  1.00  0.00    -0.014 A 
ATOM     69  C   UNL     1      21.241  14.928  -4.564  1.00  0.00     0.009 A 
ATOM     70  C   UNL     1      19.177  16.153  -4.273  1.00  0.00     0.009 A 
ATOM     71  C   UNL     1      21.710  15.433  -3.350  1.00  0.00     0.001 A 
ATOM     72  C   UNL     1      19.662  16.683  -3.076  1.00  0.00     0.001 A 
ATOM     73  C   UNL     1      20.922  16.311  -2.609  1.00  0.00     0.000 A 
ENDBRANCH  54  68
BRANCH  55  74
ATOM     74  C   UNL     1      15.799  11.076 -13.066  1.00  0.00    -0.014 A 
ATOM     75  C   UNL     1      16.512  10.872 -14.257  1.00  0.00     0.009 A 
ATOM     76  C   UNL     1      14.457  10.668 -12.999  1.00  0.00     0.009 A 
ATOM     77  C   UNL     1      15.891  10.285 -15.362  1.00  0.00     0.001 A 
ATOM     78  C   UNL     1      13.847  10.057 -14.097  1.00  0.00     0.001 A 
ATOM     79  C   UNL     1      14.562   9.872 -15.279  1.00  0.00     0.000 A 
ENDBRANCH  55  74
BRANCH  67  80
ATOM     80  C   UNL     1      18.012  17.520 -11.602  1.00  0.00    -0.014 A 
ATOM     81  C   UNL     1      16.837  18.243 -11.860  1.00  0.00     0.009 A 
ATOM     82  C   UNL     1      19.238  18.027 -12.060  1.00  0.00     0.009 A 
ATOM     83  C   UNL     1      16.888  19.434 -12.587  1.00  0.00     0.001 A 
ATOM     84  C   UNL     1      19.289  19.232 -12.762  1.00  0.00     0.001 A 
ATOM     85  C   UNL     1      18.113  19.930 -13.032  1.00  0.00     0.000 A 
ENDBRANCH  67  80
ENDBRANCH  41  42
ENDBRANCH  33  36
ENDBRANCH  31  32
ENDBRANCH  30  31
ENDBRANCH   1  30
TORSDOF 14
