REMARK SMILES O=C(CC[NH+]1CCC(n2nccc2NC(=O)c2ccccc2Cl)CC1)NCCCNC(=O)c1ccc(-c2c3nc(c(-c4ccccc4)c4ccc([nH]4)c(-c4ccccc4)c4nc(c(-c5ccccc5)c5ccc2[nH]5)C=C4)C=C3)cc1
REMARK SMILES IDX 1 1 2 2 26 3 3 5 4 6 5 7 6 8 25 9 7 11 24 12 8 13 9 14 10 15
REMARK SMILES IDX 13 16 11 17 12 18 14 19 15 20 16 22 17 23 18 24 22 25 19 26
REMARK SMILES IDX 21 27 23 28 20 29 27 30 28 31 29 32 30 33 31 34 32 36 33 37
REMARK SMILES IDX 34 38 80 39 35 40 79 41 36 42 37 43 38 44 73 45 39 46 78 47
REMARK SMILES IDX 72 48 74 49 40 50 77 51 71 52 70 53 41 55 63 56 48 57 62 58
REMARK SMILES IDX 49 59 52 60 61 61 75 62 50 63 51 64 60 66 76 67 53 68 42 69
REMARK SMILES IDX 43 70 47 71 44 72 46 73 45 74 64 75 65 76 69 77 66 78 68 79
REMARK SMILES IDX 67 80 54 81 55 82 59 83 56 84 58 85 57 86
REMARK H PARENT 26 4 5 10 14 21 30 35 74 54 52 65
REMARK Flexibility Score: inf
ROOT
ATOM      1  O   UNL     1       0.829  -0.955  -0.649  1.00  0.00    -0.275 OA
ATOM      2  C   UNL     1       1.641  -0.242  -0.066  1.00  0.00     0.225 C 
ATOM      3  N   UNL     1       1.737   1.120  -0.307  1.00  0.00    -0.356 N 
ATOM      4  H   UNL     1       2.219   1.702   0.324  1.00  0.00     0.163 HD
ENDROOT
BRANCH   2   5
ATOM      5  C   UNL     1       2.689  -0.824   0.874  1.00  0.00     0.161 C 
BRANCH   5   6
ATOM      6  C   UNL     1       3.597  -1.821   0.110  1.00  0.00     0.272 C 
BRANCH   6   7
ATOM      7  N   UNL     1       4.734  -1.298  -0.709  1.00  0.00    -0.334 N 
ATOM      8  C   UNL     1       4.940  -2.178  -1.880  1.00  0.00     0.264 C 
ATOM      9  C   UNL     1       4.564   0.085  -1.119  1.00  0.00     0.264 C 
ATOM     10  H   UNL     1       5.565  -1.307  -0.117  1.00  0.00     0.348 HD
ATOM     11  C   UNL     1       6.037  -1.687  -2.833  1.00  0.00     0.089 C 
ATOM     12  C   UNL     1       5.672   0.609  -2.013  1.00  0.00     0.089 C 
ATOM     13  C   UNL     1       5.797  -0.231  -3.274  1.00  0.00     0.121 C 
BRANCH  13  14
ATOM     14  N   UNL     1       6.788   0.227  -4.250  1.00  0.00    -0.246 N 
ATOM     15  N   UNL     1       6.910  -0.515  -5.376  1.00  0.00    -0.179 NA
ATOM     16  C   UNL     1       7.686   1.282  -4.236  1.00  0.00     0.131 A 
ATOM     17  C   UNL     1       7.994  -0.030  -5.976  1.00  0.00     0.137 A 
ATOM     18  C   UNL     1       8.560   1.041  -5.271  1.00  0.00     0.069 A 
BRANCH  16  19
ATOM     19  N   UNL     1       7.727   2.393  -3.404  1.00  0.00    -0.307 N 
ATOM     20  C   UNL     1       8.959   2.871  -2.888  1.00  0.00     0.258 C 
ATOM     21  H   UNL     1       6.890   2.855  -3.169  1.00  0.00     0.171 HD
ATOM     22  O   UNL     1       9.216   2.451  -1.773  1.00  0.00    -0.269 OA
BRANCH  20  23
ATOM     23  C   UNL     1       9.801   3.892  -3.555  1.00  0.00     0.058 A 
ATOM     24  C   UNL     1      10.963   4.254  -2.838  1.00  0.00     0.015 A 
ATOM     25  C   UNL     1       9.535   4.542  -4.766  1.00  0.00     0.053 A 
ATOM     26  C   UNL     1      11.866   5.186  -3.343  1.00  0.00     0.001 A 
ATOM     27  C   UNL     1      10.464   5.458  -5.281  1.00  0.00     0.021 A 
ATOM     28  Cl  UNL     1       8.090   4.351  -5.686  1.00  0.00    -0.083 Cl
ATOM     29  C   UNL     1      11.628   5.771  -4.579  1.00  0.00     0.002 A 
ENDBRANCH  20  23
ENDBRANCH  16  19
ENDBRANCH  13  14
ENDBRANCH   6   7
ENDBRANCH   5   6
ENDBRANCH   2   5
BRANCH   3  30
ATOM     30  C   UNL     1       1.115   1.686  -1.505  1.00  0.00     0.117 C 
BRANCH  30  31
ATOM     31  C   UNL     1       1.163   3.216  -1.631  1.00  0.00     0.042 C 
BRANCH  31  32
ATOM     32  C   UNL     1       2.572   3.776  -1.695  1.00  0.00     0.118 C 
BRANCH  32  33
ATOM     33  N   UNL     1       3.224   3.777  -2.998  1.00  0.00    -0.352 N 
ATOM     34  C   UNL     1       4.438   4.339  -3.347  1.00  0.00     0.251 C 
ATOM     35  H   UNL     1       2.739   3.318  -3.721  1.00  0.00     0.163 HD
ATOM     36  O   UNL     1       4.725   4.483  -4.534  1.00  0.00    -0.269 OA
BRANCH  34  37
ATOM     37  C   UNL     1       5.454   4.698  -2.323  1.00  0.00     0.039 A 
ATOM     38  C   UNL     1       6.493   5.586  -2.625  1.00  0.00     0.014 A 
ATOM     39  C   UNL     1       5.484   4.035  -1.099  1.00  0.00     0.014 A 
ATOM     40  C   UNL     1       7.545   5.747  -1.718  1.00  0.00     0.010 A 
ATOM     41  C   UNL     1       6.446   4.272  -0.158  1.00  0.00     0.010 A 
ATOM     42  C   UNL     1       7.532   5.043  -0.502  1.00  0.00    -0.014 A 
BRANCH  42  43
ATOM     43  C   UNL     1       8.557   5.220   0.518  1.00  0.00     0.031 A 
ATOM     44  C   UNL     1       8.673   6.632   0.918  1.00  0.00     0.074 A 
ATOM     45  C   UNL     1       9.135   4.218   1.219  1.00  0.00     0.049 A 
ATOM     46  N   UNL     1       9.635   7.448   0.653  1.00  0.00    -0.248 NA
ATOM     47  C   UNL     1       7.470   7.263   1.496  1.00  0.00     0.031 C 
ATOM     48  C   UNL     1       8.803   2.788   1.152  1.00  0.00     0.029 A 
ATOM     49  N   UNL     1      10.067   4.261   2.220  1.00  0.00    -0.354 N 
ATOM     50  C   UNL     1       9.264   8.625   1.289  1.00  0.00     0.074 A 
ATOM     51  C   UNL     1       7.846   8.541   1.526  1.00  0.00     0.031 C 
ATOM     52  C   UNL     1       9.388   2.128   2.170  1.00  0.00     0.029 A 
ATOM     53  C   UNL     1      10.221   3.058   2.905  1.00  0.00     0.049 A 
ATOM     54  H   UNL     1      10.582   5.071   2.438  1.00  0.00     0.167 HD
ATOM     55  C   UNL     1      10.193   9.361   1.953  1.00  0.00     0.031 A 
ATOM     56  C   UNL     1      10.959   2.808   4.013  1.00  0.00     0.031 A 
ATOM     57  C   UNL     1      11.533   8.986   1.584  1.00  0.00     0.049 A 
ATOM     58  C   UNL     1      11.954   3.889   4.152  1.00  0.00     0.074 A 
ATOM     59  C   UNL     1      12.344   9.137   0.482  1.00  0.00     0.029 A 
ATOM     60  N   UNL     1      12.066   7.984   2.353  1.00  0.00    -0.354 N 
ATOM     61  N   UNL     1      12.954   4.043   3.333  1.00  0.00    -0.248 NA
ATOM     62  C   UNL     1      11.666   5.034   5.008  1.00  0.00     0.031 C 
ATOM     63  C   UNL     1      13.303   8.084   0.543  1.00  0.00     0.029 A 
ATOM     64  C   UNL     1      13.071   7.329   1.690  1.00  0.00     0.049 A 
ATOM     65  H   UNL     1      11.767   7.764   3.265  1.00  0.00     0.167 HD
ATOM     66  C   UNL     1      13.123   5.411   3.259  1.00  0.00     0.074 A 
ATOM     67  C   UNL     1      12.446   5.950   4.429  1.00  0.00     0.031 C 
ATOM     68  C   UNL     1      13.495   6.004   2.090  1.00  0.00     0.031 A 
BRANCH  55  69
ATOM     69  C   UNL     1       9.905   9.999   3.293  1.00  0.00    -0.014 A 
ATOM     70  C   UNL     1      10.868  10.854   3.847  1.00  0.00     0.009 A 
ATOM     71  C   UNL     1       8.866   9.576   4.149  1.00  0.00     0.009 A 
ATOM     72  C   UNL     1      10.805  11.241   5.192  1.00  0.00     0.001 A 
ATOM     73  C   UNL     1       8.776   9.992   5.478  1.00  0.00     0.001 A 
ATOM     74  C   UNL     1       9.761  10.810   6.006  1.00  0.00     0.000 A 
ENDBRANCH  55  69
BRANCH  56  75
ATOM     75  C   UNL     1      10.799   1.740   5.022  1.00  0.00    -0.014 A 
ATOM     76  C   UNL     1      11.859   1.378   5.868  1.00  0.00     0.009 A 
ATOM     77  C   UNL     1       9.524   1.223   5.315  1.00  0.00     0.009 A 
ATOM     78  C   UNL     1      11.639   0.565   6.988  1.00  0.00     0.001 A 
ATOM     79  C   UNL     1       9.306   0.403   6.426  1.00  0.00     0.001 A 
ATOM     80  C   UNL     1      10.361   0.090   7.274  1.00  0.00     0.000 A 
ENDBRANCH  56  75
BRANCH  68  81
ATOM     81  C   UNL     1      14.229   5.156   1.092  1.00  0.00    -0.014 A 
ATOM     82  C   UNL     1      13.662   4.046   0.444  1.00  0.00     0.009 A 
ATOM     83  C   UNL     1      15.541   5.527   0.763  1.00  0.00     0.009 A 
ATOM     84  C   UNL     1      14.403   3.314  -0.490  1.00  0.00     0.001 A 
ATOM     85  C   UNL     1      16.272   4.809  -0.184  1.00  0.00     0.001 A 
ATOM     86  C   UNL     1      15.705   3.700  -0.806  1.00  0.00     0.000 A 
ENDBRANCH  68  81
ENDBRANCH  42  43
ENDBRANCH  34  37
ENDBRANCH  32  33
ENDBRANCH  31  32
ENDBRANCH  30  31
ENDBRANCH   3  30
TORSDOF 15
