REMARK SMILES Cn1nc(N2CCC(CC(=O)NCCCNC(=O)c3ccc(-c4c5nc(c(-c6ccccc6)c6ccc([nH]6)c(-c6ccccc6)c6nc(c(-c7ccccc7)c7ccc4[nH]7)C=C6)C=C5)cc3)CC2)c(=O)n(C)c1=O
REMARK SMILES IDX 14 1 13 2 12 3 10 4 11 5 9 7 8 8 5 9 6 10 68 11 7 12 67 13
REMARK SMILES IDX 4 14 1 15 2 16 3 17 73 18 71 19 74 20 69 21 72 22 70 23
REMARK SMILES IDX 15 24 16 25 17 26 18 28 19 29 20 30 66 31 21 32 65 33 22 34
REMARK SMILES IDX 23 35 24 36 59 37 25 38 64 39 58 40 60 41 26 42 63 43 57 44
REMARK SMILES IDX 56 45 27 47 49 48 34 49 48 50 35 51 38 52 47 53 61 54 36 55
REMARK SMILES IDX 37 56 46 58 62 59 39 60 28 61 29 62 33 63 30 64 32 65 31 66
REMARK SMILES IDX 50 67 51 68 55 69 52 70 54 71 53 72 40 73 41 74 45 75 42 76
REMARK SMILES IDX 44 77 43 78
REMARK H PARENT 12 6 16 27 60 46 38 57
REMARK Flexibility Score: inf
ROOT
ATOM      1  C   UNL     1       0.707  -4.473   4.553  1.00  0.00     0.042 C 
ENDROOT
BRANCH   1   2
ATOM      2  C   UNL     1      -0.734  -4.897   4.247  1.00  0.00     0.117 C 
BRANCH   2   3
ATOM      3  N   UNL     1      -1.561  -5.000   5.444  1.00  0.00    -0.356 N 
ATOM      4  C   UNL     1      -2.613  -4.252   5.887  1.00  0.00     0.220 C 
ATOM      5  O   UNL     1      -3.134  -4.568   6.959  1.00  0.00    -0.275 OA
ATOM      6  H   UNL     1      -1.316  -5.743   6.041  1.00  0.00     0.163 HD
BRANCH   4   7
ATOM      7  C   UNL     1      -3.120  -3.052   5.105  1.00  0.00     0.103 C 
BRANCH   7   8
ATOM      8  C   UNL     1      -2.525  -1.710   5.585  1.00  0.00     0.002 C 
ATOM      9  N   UNL     1      -1.016   0.591   4.716  1.00  0.00    -0.351 N 
ATOM     10  C   UNL     1      -0.330  -0.367   5.551  1.00  0.00     0.118 C 
ATOM     11  C   UNL     1      -2.422   0.792   5.031  1.00  0.00     0.118 C 
ATOM     12  C   UNL     1      -1.004  -1.716   5.412  1.00  0.00     0.025 C 
ATOM     13  C   UNL     1      -3.170  -0.531   4.824  1.00  0.00     0.025 C 
BRANCH   9  14
ATOM     14  C   UNL     1      -0.435   1.108   3.570  1.00  0.00     0.215 A 
ATOM     15  C   UNL     1       0.944   0.006   0.434  1.00  0.00     0.180 C 
ATOM     16  N   UNL     1       0.566   0.909   1.507  1.00  0.00    -0.216 N 
ATOM     17  N   UNL     1      -0.004   0.335   2.614  1.00  0.00    -0.145 NA
ATOM     18  C   UNL     1       0.845   2.266   1.359  1.00  0.00     0.346 A 
ATOM     19  N   UNL     1       0.437   3.088   2.388  1.00  0.00    -0.259 N 
ATOM     20  O   UNL     1       1.420   2.702   0.358  1.00  0.00    -0.246 OA
ATOM     21  C   UNL     1      -0.266   2.626   3.477  1.00  0.00     0.299 A 
ATOM     22  C   UNL     1       0.727   4.504   2.338  1.00  0.00     0.159 C 
ATOM     23  O   UNL     1      -0.720   3.335   4.372  1.00  0.00    -0.265 OA
ENDBRANCH   9  14
ENDBRANCH   7   8
ENDBRANCH   4   7
ENDBRANCH   2   3
ENDBRANCH   1   2
BRANCH   1  24
ATOM     24  C   UNL     1       1.511  -5.500   5.340  1.00  0.00     0.118 C 
BRANCH  24  25
ATOM     25  N   UNL     1       2.257  -6.375   4.457  1.00  0.00    -0.352 N 
ATOM     26  C   UNL     1       3.581  -6.332   4.091  1.00  0.00     0.251 C 
ATOM     27  H   UNL     1       1.738  -7.112   4.061  1.00  0.00     0.163 HD
ATOM     28  O   UNL     1       3.949  -6.974   3.110  1.00  0.00    -0.269 OA
BRANCH  26  29
ATOM     29  C   UNL     1       4.573  -5.528   4.848  1.00  0.00     0.039 A 
ATOM     30  C   UNL     1       5.600  -4.894   4.139  1.00  0.00     0.014 A 
ATOM     31  C   UNL     1       4.570  -5.473   6.245  1.00  0.00     0.014 A 
ATOM     32  C   UNL     1       6.602  -4.198   4.823  1.00  0.00     0.010 A 
ATOM     33  C   UNL     1       5.526  -4.713   6.923  1.00  0.00     0.010 A 
ATOM     34  C   UNL     1       6.571  -4.093   6.223  1.00  0.00    -0.014 A 
BRANCH  34  35
ATOM     35  C   UNL     1       7.658  -3.395   6.961  1.00  0.00     0.031 A 
ATOM     36  C   UNL     1       8.568  -4.171   7.880  1.00  0.00     0.074 A 
ATOM     37  C   UNL     1       7.827  -2.065   6.821  1.00  0.00     0.049 A 
ATOM     38  N   UNL     1       9.563  -3.739   8.614  1.00  0.00    -0.248 NA
ATOM     39  C   UNL     1       8.319  -5.617   8.006  1.00  0.00     0.031 C 
ATOM     40  C   UNL     1       7.003  -1.189   5.986  1.00  0.00     0.029 A 
ATOM     41  N   UNL     1       8.753  -1.216   7.378  1.00  0.00    -0.354 N 
ATOM     42  C   UNL     1      10.045  -4.852   9.292  1.00  0.00     0.074 A 
ATOM     43  C   UNL     1       9.207  -5.970   8.924  1.00  0.00     0.031 C 
ATOM     44  C   UNL     1       7.479   0.065   6.061  1.00  0.00     0.029 A 
ATOM     45  C   UNL     1       8.618   0.091   6.974  1.00  0.00     0.049 A 
ATOM     46  H   UNL     1       9.449  -1.517   8.006  1.00  0.00     0.167 HD
ATOM     47  C   UNL     1      11.107  -4.943  10.127  1.00  0.00     0.031 A 
ATOM     48  C   UNL     1       9.329   1.188   7.301  1.00  0.00     0.031 A 
ATOM     49  C   UNL     1      11.966  -3.843  10.471  1.00  0.00     0.049 A 
ATOM     50  C   UNL     1      10.495   1.060   8.244  1.00  0.00     0.074 A 
ATOM     51  C   UNL     1      13.104  -3.858  11.259  1.00  0.00     0.029 A 
ATOM     52  N   UNL     1      11.785  -2.538  10.048  1.00  0.00    -0.354 N 
ATOM     53  N   UNL     1      10.976  -0.015   8.821  1.00  0.00    -0.248 NA
ATOM     54  C   UNL     1      11.221   2.296   8.576  1.00  0.00     0.031 C 
ATOM     55  C   UNL     1      13.584  -2.550  11.354  1.00  0.00     0.029 A 
ATOM     56  C   UNL     1      12.774  -1.731  10.583  1.00  0.00     0.049 A 
ATOM     57  H   UNL     1      11.061  -2.229   9.456  1.00  0.00     0.167 HD
ATOM     58  C   UNL     1      12.067   0.412   9.567  1.00  0.00     0.074 A 
ATOM     59  C   UNL     1      12.193   1.838   9.354  1.00  0.00     0.031 C 
ATOM     60  C   UNL     1      12.888  -0.315  10.362  1.00  0.00     0.031 A 
BRANCH  47  61
ATOM     61  C   UNL     1      11.421  -6.285  10.725  1.00  0.00    -0.014 A 
ATOM     62  C   UNL     1      11.993  -7.305   9.949  1.00  0.00     0.009 A 
ATOM     63  C   UNL     1      11.232  -6.500  12.099  1.00  0.00     0.009 A 
ATOM     64  C   UNL     1      12.354  -8.520  10.534  1.00  0.00     0.001 A 
ATOM     65  C   UNL     1      11.618  -7.707  12.687  1.00  0.00     0.001 A 
ATOM     66  C   UNL     1      12.175  -8.716  11.903  1.00  0.00     0.000 A 
ENDBRANCH  47  61
BRANCH  48  67
ATOM     67  C   UNL     1       8.966   2.510   6.727  1.00  0.00    -0.014 A 
ATOM     68  C   UNL     1       9.803   3.135   5.789  1.00  0.00     0.009 A 
ATOM     69  C   UNL     1       7.787   3.161   7.122  1.00  0.00     0.009 A 
ATOM     70  C   UNL     1       9.477   4.394   5.277  1.00  0.00     0.001 A 
ATOM     71  C   UNL     1       7.449   4.406   6.587  1.00  0.00     0.001 A 
ATOM     72  C   UNL     1       8.299   5.026   5.673  1.00  0.00     0.000 A 
ENDBRANCH  48  67
BRANCH  60  73
ATOM     73  C   UNL     1      14.005   0.408  11.060  1.00  0.00    -0.014 A 
ATOM     74  C   UNL     1      13.749   1.234  12.164  1.00  0.00     0.009 A 
ATOM     75  C   UNL     1      15.334   0.187  10.665  1.00  0.00     0.009 A 
ATOM     76  C   UNL     1      14.803   1.839  12.850  1.00  0.00     0.001 A 
ATOM     77  C   UNL     1      16.387   0.771  11.370  1.00  0.00     0.001 A 
ATOM     78  C   UNL     1      16.120   1.600  12.459  1.00  0.00     0.000 A 
ENDBRANCH  60  73
ENDBRANCH  34  35
ENDBRANCH  26  29
ENDBRANCH  24  25
ENDBRANCH   1  24
TORSDOF 12
