REMARK SMILES C[C@H]1CC[C@@]1(C(=O)NCCCNC(=O)c1ccc(-c2c3nc(c(-c4ccccc4)c4ccc([nH]4)c(-c4ccccc4)c4nc(c(-c5ccccc5)c5ccc2[nH]5)C=C4)C=C3)cc1)c1cc(F)cc(F)c1
REMARK SMILES IDX 10 1 9 2 8 3 6 4 7 5 5 7 1 8 2 9 3 10 4 11 63 12 64 13 70 14
REMARK SMILES IDX 65 15 68 16 66 17 67 18 69 19 11 20 12 21 13 22 14 24 15 25
REMARK SMILES IDX 16 26 62 27 17 28 61 29 18 30 19 31 20 32 55 33 21 34 60 35
REMARK SMILES IDX 54 36 56 37 22 38 59 39 53 40 52 41 23 43 45 44 30 45 44 46
REMARK SMILES IDX 31 47 34 48 43 49 57 50 32 51 33 52 42 54 58 55 35 56 24 57
REMARK SMILES IDX 25 58 29 59 26 60 28 61 27 62 46 63 47 64 51 65 48 66 50 67
REMARK SMILES IDX 49 68 36 69 37 70 41 71 38 72 40 73 39 74
REMARK H PARENT 8 6 12 23 56 42 34 53
REMARK Flexibility Score: inf
ROOT
ATOM      1  C   UNL     1       3.771   3.421  -0.341  1.00  0.00     0.042 C 
ENDROOT
BRANCH   1   2
ATOM      2  C   UNL     1       3.510   1.964   0.024  1.00  0.00     0.117 C 
BRANCH   2   3
ATOM      3  N   UNL     1       2.737   1.801   1.241  1.00  0.00    -0.355 N 
ATOM      4  C   UNL     1       1.430   1.405   1.425  1.00  0.00     0.230 C 
ATOM      5  O   UNL     1       1.036   1.394   2.598  1.00  0.00    -0.274 OA
ATOM      6  H   UNL     1       3.226   2.007   2.070  1.00  0.00     0.163 HD
BRANCH   4   7
ATOM      7  C   UNL     1       0.522   1.017   0.159  1.00  0.00     0.077 C 
ATOM      8  C   UNL     1      -1.975   0.042  -0.316  1.00  0.00     0.009 C 
ATOM      9  C   UNL     1      -0.712   0.062   0.538  1.00  0.00     0.006 C 
ATOM     10  C   UNL     1       0.226  -1.136   0.271  1.00  0.00     0.006 C 
ATOM     11  C   UNL     1       1.050  -0.229  -0.657  1.00  0.00     0.022 C 
BRANCH   7  12
ATOM     12  C   UNL     1       0.123   2.395  -0.626  1.00  0.00    -0.026 A 
ATOM     13  C   UNL     1      -0.230   2.421  -1.992  1.00  0.00     0.044 A 
ATOM     14  C   UNL     1       0.089   3.655   0.021  1.00  0.00     0.044 A 
ATOM     15  C   UNL     1      -0.560   3.608  -2.655  1.00  0.00     0.126 A 
ATOM     16  C   UNL     1      -0.211   4.837  -0.660  1.00  0.00     0.126 A 
ATOM     17  F   UNL     1      -0.898   3.561  -3.950  1.00  0.00    -0.207 F 
ATOM     18  C   UNL     1      -0.538   4.826  -2.002  1.00  0.00     0.078 A 
ATOM     19  F   UNL     1      -0.164   6.003  -0.002  1.00  0.00    -0.207 F 
ENDBRANCH   7  12
ENDBRANCH   4   7
ENDBRANCH   2   3
ENDBRANCH   1   2
BRANCH   1  20
ATOM     20  C   UNL     1       4.418   4.258   0.755  1.00  0.00     0.118 C 
BRANCH  20  21
ATOM     21  N   UNL     1       5.758   3.805   1.097  1.00  0.00    -0.352 N 
ATOM     22  C   UNL     1       6.974   4.425   0.955  1.00  0.00     0.251 C 
ATOM     23  H   UNL     1       5.799   2.906   1.497  1.00  0.00     0.163 HD
ATOM     24  O   UNL     1       8.004   3.781   1.156  1.00  0.00    -0.269 OA
BRANCH  22  25
ATOM     25  C   UNL     1       7.072   5.842   0.540  1.00  0.00     0.039 A 
ATOM     26  C   UNL     1       8.078   6.207  -0.362  1.00  0.00     0.014 A 
ATOM     27  C   UNL     1       6.221   6.821   1.059  1.00  0.00     0.014 A 
ATOM     28  C   UNL     1       8.185   7.533  -0.792  1.00  0.00     0.010 A 
ATOM     29  C   UNL     1       6.280   8.127   0.574  1.00  0.00     0.010 A 
ATOM     30  C   UNL     1       7.264   8.498  -0.355  1.00  0.00    -0.014 A 
BRANCH  30  31
ATOM     31  C   UNL     1       7.318   9.896  -0.854  1.00  0.00     0.031 A 
ATOM     32  C   UNL     1       7.607  11.031   0.091  1.00  0.00     0.074 A 
ATOM     33  C   UNL     1       7.046  10.156  -2.148  1.00  0.00     0.049 A 
ATOM     34  N   UNL     1       7.617  12.319  -0.143  1.00  0.00    -0.248 NA
ATOM     35  C   UNL     1       7.903  10.672   1.488  1.00  0.00     0.031 C 
ATOM     36  C   UNL     1       6.715   9.155  -3.164  1.00  0.00     0.029 A 
ATOM     37  N   UNL     1       6.994  11.349  -2.827  1.00  0.00    -0.354 N 
ATOM     38  C   UNL     1       7.903  12.923   1.075  1.00  0.00     0.074 A 
ATOM     39  C   UNL     1       8.015  11.864   2.055  1.00  0.00     0.031 C 
ATOM     40  C   UNL     1       6.511   9.773  -4.339  1.00  0.00     0.029 A 
ATOM     41  C   UNL     1       6.658  11.213  -4.152  1.00  0.00     0.049 A 
ATOM     42  H   UNL     1       7.179  12.218  -2.404  1.00  0.00     0.167 HD
ATOM     43  C   UNL     1       8.077  14.237   1.353  1.00  0.00     0.031 A 
ATOM     44  C   UNL     1       6.478  12.143  -5.109  1.00  0.00     0.031 A 
ATOM     45  C   UNL     1       7.976  15.294   0.383  1.00  0.00     0.049 A 
ATOM     46  C   UNL     1       6.667  13.595  -4.774  1.00  0.00     0.074 A 
ATOM     47  C   UNL     1       8.173  16.653   0.563  1.00  0.00     0.029 A 
ATOM     48  N   UNL     1       7.654  15.111  -0.952  1.00  0.00    -0.354 N 
ATOM     49  N   UNL     1       6.985  14.143  -3.627  1.00  0.00    -0.248 NA
ATOM     50  C   UNL     1       6.481  14.556  -5.871  1.00  0.00     0.031 C 
ATOM     51  C   UNL     1       7.933  17.296  -0.656  1.00  0.00     0.029 A 
ATOM     52  C   UNL     1       7.633  16.332  -1.605  1.00  0.00     0.049 A 
ATOM     53  H   UNL     1       7.467  14.241  -1.375  1.00  0.00     0.167 HD
ATOM     54  C   UNL     1       7.062  15.508  -3.869  1.00  0.00     0.074 A 
ATOM     55  C   UNL     1       6.773  15.704  -5.275  1.00  0.00     0.031 C 
ATOM     56  C   UNL     1       7.346  16.511  -3.003  1.00  0.00     0.031 A 
BRANCH  43  57
ATOM     57  C   UNL     1       8.398  14.604   2.775  1.00  0.00    -0.014 A 
ATOM     58  C   UNL     1       9.655  14.316   3.329  1.00  0.00     0.009 A 
ATOM     59  C   UNL     1       7.447  15.276   3.558  1.00  0.00     0.009 A 
ATOM     60  C   UNL     1       9.941  14.662   4.651  1.00  0.00     0.001 A 
ATOM     61  C   UNL     1       7.745  15.645   4.871  1.00  0.00     0.001 A 
ATOM     62  C   UNL     1       8.988  15.330   5.419  1.00  0.00     0.000 A 
ENDBRANCH  43  57
BRANCH  44  63
ATOM     63  C   UNL     1       6.099  11.729  -6.485  1.00  0.00    -0.014 A 
ATOM     64  C   UNL     1       7.023  11.821  -7.537  1.00  0.00     0.009 A 
ATOM     65  C   UNL     1       4.808  11.249  -6.755  1.00  0.00     0.009 A 
ATOM     66  C   UNL     1       6.653  11.468  -8.836  1.00  0.00     0.001 A 
ATOM     67  C   UNL     1       4.449  10.872  -8.050  1.00  0.00     0.001 A 
ATOM     68  C   UNL     1       5.368  10.991  -9.091  1.00  0.00     0.000 A 
ENDBRANCH  44  63
BRANCH  56  69
ATOM     69  C   UNL     1       7.392  17.905  -3.560  1.00  0.00    -0.014 A 
ATOM     70  C   UNL     1       6.216  18.589  -3.905  1.00  0.00     0.009 A 
ATOM     71  C   UNL     1       8.627  18.554  -3.706  1.00  0.00     0.009 A 
ATOM     72  C   UNL     1       6.281  19.887  -4.415  1.00  0.00     0.001 A 
ATOM     73  C   UNL     1       8.687  19.861  -4.193  1.00  0.00     0.001 A 
ATOM     74  C   UNL     1       7.515  20.523  -4.555  1.00  0.00     0.000 A 
ENDBRANCH  56  69
ENDBRANCH  30  31
ENDBRANCH  22  25
ENDBRANCH  20  21
ENDBRANCH   1  20
TORSDOF 11
