REMARK SMILES CC[C@@](O)(C(=O)NCCCNC(=O)c1ccc(-c2c3nc(c(-c4ccccc4)c4ccc([nH]4)c(-c4ccccc4)c4nc(c(-c5ccccc5)c5ccc2[nH]5)C=C4)C=C3)cc1)[C@H]1CCc2ccc(OC)cc21
REMARK SMILES IDX 9 1 8 2 7 3 5 4 6 5 3 7 2 8 1 9 4 10 62 12 63 13 72 14 64 15
REMARK SMILES IDX 65 16 71 17 66 18 68 19 67 20 69 21 70 22 10 23 11 24 12 25
REMARK SMILES IDX 13 27 14 28 15 29 61 30 16 31 60 32 17 33 18 34 19 35 54 36
REMARK SMILES IDX 20 37 59 38 53 39 55 40 21 41 58 42 52 43 51 44 22 46 44 47
REMARK SMILES IDX 29 48 43 49 30 50 33 51 42 52 56 53 31 54 32 55 41 57 57 58
REMARK SMILES IDX 34 59 23 60 24 61 28 62 25 63 27 64 26 65 45 66 46 67 50 68
REMARK SMILES IDX 47 69 49 70 48 71 35 72 36 73 40 74 37 75 39 76 38 77
REMARK H PARENT 7 6 4 11 11 26 55 45 33 56
REMARK Flexibility Score: inf
ROOT
ATOM      1  C   UNL     1       5.097   1.445  -7.094  1.00  0.00     0.042 C 
ENDROOT
BRANCH   1   2
ATOM      2  C   UNL     1       3.674   1.679  -6.590  1.00  0.00     0.117 C 
BRANCH   2   3
ATOM      3  N   UNL     1       3.218   0.515  -5.861  1.00  0.00    -0.354 N 
ATOM      4  C   UNL     1       3.476   0.271  -4.542  1.00  0.00     0.252 C 
ATOM      5  O   UNL     1       3.892  -0.850  -4.247  1.00  0.00    -0.272 OA
ATOM      6  H   UNL     1       2.682  -0.149  -6.351  1.00  0.00     0.163 HD
BRANCH   4   7
ATOM      7  C   UNL     1       3.179   1.384  -3.490  1.00  0.00     0.149 C 
BRANCH   7   8
ATOM      8  C   UNL     1       4.541   1.993  -3.094  1.00  0.00     0.043 C 
ATOM      9  C   UNL     1       4.472   3.207  -2.178  1.00  0.00     0.007 C 
ENDBRANCH   7   8
BRANCH   7  10
ATOM     10  O   UNL     1       2.386   2.446  -4.058  1.00  0.00    -0.379 OA
ATOM     11  H   UNL     1       2.881   2.871  -4.776  1.00  0.00     0.212 HD
ENDBRANCH   7  10
BRANCH   7  12
ATOM     12  C   UNL     1       2.303   0.760  -2.347  1.00  0.00     0.061 C 
ATOM     13  C   UNL     1       1.067   0.004  -2.945  1.00  0.00     0.017 C 
ATOM     14  C   UNL     1       2.882  -0.287  -1.431  1.00  0.00    -0.035 A 
ATOM     15  C   UNL     1       0.735  -1.169  -2.023  1.00  0.00     0.036 C 
ATOM     16  C   UNL     1       2.038  -1.399  -1.333  1.00  0.00    -0.044 A 
ATOM     17  C   UNL     1       4.039  -0.229  -0.664  1.00  0.00     0.050 A 
ATOM     18  C   UNL     1       2.398  -2.513  -0.592  1.00  0.00     0.008 A 
ATOM     19  C   UNL     1       4.410  -1.335   0.106  1.00  0.00     0.119 A 
ATOM     20  C   UNL     1       3.607  -2.485   0.106  1.00  0.00     0.047 A 
BRANCH  19  21
ATOM     21  O   UNL     1       5.528  -1.415   0.892  1.00  0.00    -0.497 OA
ATOM     22  C   UNL     1       6.217  -0.195   1.140  1.00  0.00     0.278 C 
ENDBRANCH  19  21
ENDBRANCH   7  12
ENDBRANCH   4   7
ENDBRANCH   2   3
ENDBRANCH   1   2
BRANCH   1  23
ATOM     23  C   UNL     1       5.253   0.161  -7.903  1.00  0.00     0.118 C 
BRANCH  23  24
ATOM     24  N   UNL     1       4.380   0.136  -9.067  1.00  0.00    -0.352 N 
ATOM     25  C   UNL     1       4.704  -0.031 -10.388  1.00  0.00     0.251 C 
ATOM     26  H   UNL     1       3.421   0.257  -8.879  1.00  0.00     0.163 HD
ATOM     27  O   UNL     1       3.878   0.204 -11.262  1.00  0.00    -0.269 OA
BRANCH  25  28
ATOM     28  C   UNL     1       6.061  -0.481 -10.751  1.00  0.00     0.039 A 
ATOM     29  C   UNL     1       6.716   0.150 -11.809  1.00  0.00     0.014 A 
ATOM     30  C   UNL     1       6.679  -1.526 -10.057  1.00  0.00     0.014 A 
ATOM     31  C   UNL     1       8.010  -0.242 -12.145  1.00  0.00     0.010 A 
ATOM     32  C   UNL     1       7.999  -1.860 -10.340  1.00  0.00     0.010 A 
ATOM     33  C   UNL     1       8.671  -1.232 -11.397  1.00  0.00    -0.014 A 
BRANCH  33  34
ATOM     34  C   UNL     1      10.064  -1.617 -11.727  1.00  0.00     0.031 A 
ATOM     35  C   UNL     1      10.374  -3.002 -12.223  1.00  0.00     0.074 A 
ATOM     36  C   UNL     1      11.053  -0.719 -11.558  1.00  0.00     0.049 A 
ATOM     37  N   UNL     1      11.523  -3.502 -12.602  1.00  0.00    -0.248 NA
ATOM     38  C   UNL     1       9.255  -3.957 -12.282  1.00  0.00     0.031 C 
ATOM     39  C   UNL     1      10.885   0.637 -11.030  1.00  0.00     0.029 A 
ATOM     40  N   UNL     1      12.395  -0.809 -11.823  1.00  0.00    -0.354 N 
ATOM     41  C   UNL     1      11.265  -4.825 -12.937  1.00  0.00     0.074 A 
ATOM     42  C   UNL     1       9.867  -5.069 -12.660  1.00  0.00     0.031 C 
ATOM     43  C   UNL     1      12.071   1.266 -11.053  1.00  0.00     0.029 A 
ATOM     44  C   UNL     1      13.085   0.349 -11.563  1.00  0.00     0.049 A 
ATOM     45  H   UNL     1      12.824  -1.627 -12.166  1.00  0.00     0.167 HD
ATOM     46  C   UNL     1      12.110  -5.749 -13.454  1.00  0.00     0.031 A 
ATOM     47  C   UNL     1      14.388   0.643 -11.726  1.00  0.00     0.031 A 
ATOM     48  C   UNL     1      13.501  -5.505 -13.728  1.00  0.00     0.049 A 
ATOM     49  C   UNL     1      15.305  -0.398 -12.301  1.00  0.00     0.074 A 
ATOM     50  C   UNL     1      14.431  -6.359 -14.296  1.00  0.00     0.029 A 
ATOM     51  N   UNL     1      14.163  -4.319 -13.450  1.00  0.00    -0.354 N 
ATOM     52  N   UNL     1      15.029  -1.620 -12.689  1.00  0.00    -0.248 NA
ATOM     53  C   UNL     1      16.711  -0.012 -12.478  1.00  0.00     0.031 C 
ATOM     54  C   UNL     1      15.669  -5.705 -14.313  1.00  0.00     0.029 A 
ATOM     55  C   UNL     1      15.495  -4.425 -13.812  1.00  0.00     0.049 A 
ATOM     56  H   UNL     1      13.747  -3.520 -13.052  1.00  0.00     0.167 HD
ATOM     57  C   UNL     1      16.220  -2.140 -13.176  1.00  0.00     0.074 A 
ATOM     58  C   UNL     1      17.213  -1.092 -13.058  1.00  0.00     0.031 C 
ATOM     59  C   UNL     1      16.471  -3.376 -13.676  1.00  0.00     0.031 A 
BRANCH  46  60
ATOM     60  C   UNL     1      11.546  -7.111 -13.752  1.00  0.00    -0.014 A 
ATOM     61  C   UNL     1      10.626  -7.303 -14.797  1.00  0.00     0.009 A 
ATOM     62  C   UNL     1      11.957  -8.221 -12.999  1.00  0.00     0.009 A 
ATOM     63  C   UNL     1      10.102  -8.572 -15.056  1.00  0.00     0.001 A 
ATOM     64  C   UNL     1      11.454  -9.493 -13.280  1.00  0.00     0.001 A 
ATOM     65  C   UNL     1      10.521  -9.666 -14.300  1.00  0.00     0.000 A 
ENDBRANCH  46  60
BRANCH  47  66
ATOM     66  C   UNL     1      14.896   1.993 -11.366  1.00  0.00    -0.014 A 
ATOM     67  C   UNL     1      15.302   2.892 -12.364  1.00  0.00     0.009 A 
ATOM     68  C   UNL     1      14.979   2.388 -10.022  1.00  0.00     0.009 A 
ATOM     69  C   UNL     1      15.809   4.148 -12.021  1.00  0.00     0.001 A 
ATOM     70  C   UNL     1      15.457   3.656  -9.684  1.00  0.00     0.001 A 
ATOM     71  C   UNL     1      15.882   4.530 -10.683  1.00  0.00     0.000 A 
ENDBRANCH  47  66
BRANCH  59  72
ATOM     72  C   UNL     1      17.872  -3.645 -14.152  1.00  0.00    -0.014 A 
ATOM     73  C   UNL     1      18.938  -3.771 -13.248  1.00  0.00     0.009 A 
ATOM     74  C   UNL     1      18.122  -3.791 -15.525  1.00  0.00     0.009 A 
ATOM     75  C   UNL     1      20.235  -3.994 -13.713  1.00  0.00     0.001 A 
ATOM     76  C   UNL     1      19.415  -4.046 -15.985  1.00  0.00     0.001 A 
ATOM     77  C   UNL     1      20.471  -4.134 -15.081  1.00  0.00     0.000 A 
ENDBRANCH  59  72
ENDBRANCH  33  34
ENDBRANCH  25  28
ENDBRANCH  23  24
ENDBRANCH   1  23
TORSDOF 14
