REMARK SMILES CC(C)C[C@H](NC(=O)[C@H]1N2C(=O)c3ccccc3[C@@H]2SC1(C)C)C(=O)N[C@@H](C)C(=O)NCCCNC(=O)c1ccc(-c2c3nc(c(-c4ccccc4)c4ccc([nH]4)c(-c4ccccc4)c4nc(c(-c5ccccc5)c5ccc2[nH]5)C=C4)C=C3)cc1
REMARK SMILES IDX 32 1 31 2 29 3 30 4 27 6 28 7 26 8 24 9 25 10 5 12 4 13 2 14
REMARK SMILES IDX 1 15 3 16 6 17 7 18 8 20 9 21 10 22 21 23 11 24 19 25 20 26
REMARK SMILES IDX 22 27 23 28 12 29 13 30 18 31 14 32 17 33 15 34 16 35 33 36
REMARK SMILES IDX 34 37 35 38 36 39 37 41 38 42 39 43 85 44 40 45 84 46 41 47
REMARK SMILES IDX 42 48 43 49 78 50 44 51 83 52 77 53 79 54 45 55 82 56 76 57
REMARK SMILES IDX 75 58 46 60 68 61 53 62 67 63 54 64 57 65 66 66 80 67 55 68
REMARK SMILES IDX 56 69 65 71 81 72 58 73 47 74 48 75 52 76 49 77 51 78 50 79
REMARK SMILES IDX 69 80 70 81 74 82 71 83 73 84 72 85 59 86 60 87 64 88 61 89
REMARK SMILES IDX 63 90 62 91
REMARK H PARENT 31 5 26 11 6 19 35 40 79 59 57 70
REMARK Flexibility Score: inf
ROOT
ATOM      1  C   UNL     1      -6.623  -2.566   3.734  1.00  0.00     0.117 C 
ENDROOT
BRANCH   1   2
ATOM      2  N   UNL     1      -5.454  -3.348   4.086  1.00  0.00    -0.354 N 
ATOM      3  C   UNL     1      -4.212  -3.301   3.543  1.00  0.00     0.242 C 
ATOM      4  O   UNL     1      -3.609  -4.372   3.435  1.00  0.00    -0.273 OA
ATOM      5  H   UNL     1      -5.578  -3.997   4.815  1.00  0.00     0.163 HD
BRANCH   3   6
ATOM      6  C   UNL     1      -3.600  -1.993   3.029  1.00  0.00     0.168 C 
ATOM      7  C   UNL     1      -3.673  -0.853   4.037  1.00  0.00     0.041 C 
BRANCH   6   8
ATOM      8  N   UNL     1      -4.113  -1.603   1.723  1.00  0.00    -0.343 N 
ATOM      9  C   UNL     1      -3.488  -1.528   0.516  1.00  0.00     0.243 C 
ATOM     10  O   UNL     1      -4.186  -1.207  -0.451  1.00  0.00    -0.273 OA
ATOM     11  H   UNL     1      -5.066  -1.353   1.711  1.00  0.00     0.164 HD
BRANCH   9  12
ATOM     12  C   UNL     1      -1.996  -1.902   0.325  1.00  0.00     0.171 C 
BRANCH  12  13
ATOM     13  C   UNL     1      -1.731  -3.372  -0.003  1.00  0.00     0.038 C 
BRANCH  13  14
ATOM     14  C   UNL     1      -2.853  -4.420  -0.150  1.00  0.00    -0.015 C 
ATOM     15  C   UNL     1      -3.652  -4.277  -1.443  1.00  0.00     0.007 C 
ATOM     16  C   UNL     1      -2.223  -5.827  -0.149  1.00  0.00     0.007 C 
ENDBRANCH  13  14
ENDBRANCH  12  13
BRANCH  12  17
ATOM     17  N   UNL     1      -1.181  -1.216   1.382  1.00  0.00    -0.342 N 
ATOM     18  C   UNL     1      -0.082  -1.237   2.165  1.00  0.00     0.244 C 
ATOM     19  H   UNL     1      -1.659  -0.384   1.602  1.00  0.00     0.164 HD
ATOM     20  O   UNL     1       0.033  -0.161   2.785  1.00  0.00    -0.273 OA
BRANCH  18  21
ATOM     21  C   UNL     1       0.909  -2.377   2.552  1.00  0.00     0.191 C 
ATOM     22  N   UNL     1       0.307  -3.203   3.591  1.00  0.00    -0.309 N 
ATOM     23  C   UNL     1       1.571  -3.345   1.542  1.00  0.00     0.042 C 
ATOM     24  C   UNL     1       0.646  -3.267   4.931  1.00  0.00     0.256 C 
ATOM     25  C   UNL     1      -0.354  -4.383   3.132  1.00  0.00     0.176 C 
ATOM     26  S   UNL     1       0.783  -5.016   1.877  1.00  0.00    -0.123 SA
ATOM     27  C   UNL     1       1.518  -2.880   0.085  1.00  0.00     0.026 C 
ATOM     28  C   UNL     1       3.058  -3.585   1.880  1.00  0.00     0.026 C 
ATOM     29  O   UNL     1       1.345  -2.518   5.572  1.00  0.00    -0.269 OA
ATOM     30  C   UNL     1       0.015  -4.498   5.451  1.00  0.00     0.046 A 
ATOM     31  C   UNL     1      -0.571  -5.163   4.375  1.00  0.00    -0.002 A 
ATOM     32  C   UNL     1      -0.105  -4.948   6.753  1.00  0.00     0.014 A 
ATOM     33  C   UNL     1      -1.375  -6.271   4.587  1.00  0.00     0.007 A 
ATOM     34  C   UNL     1      -0.902  -6.076   6.971  1.00  0.00     0.001 A 
ATOM     35  C   UNL     1      -1.548  -6.720   5.899  1.00  0.00     0.000 A 
ENDBRANCH  18  21
ENDBRANCH  12  17
ENDBRANCH   9  12
ENDBRANCH   6   8
ENDBRANCH   3   6
ENDBRANCH   1   2
BRANCH   1  36
ATOM     36  C   UNL     1      -7.350  -3.192   2.547  1.00  0.00     0.042 C 
BRANCH  36  37
ATOM     37  C   UNL     1      -7.622  -4.684   2.722  1.00  0.00     0.118 C 
BRANCH  37  38
ATOM     38  N   UNL     1      -8.403  -4.974   3.920  1.00  0.00    -0.352 N 
ATOM     39  C   UNL     1      -9.741  -5.252   4.055  1.00  0.00     0.251 C 
ATOM     40  H   UNL     1      -7.891  -4.971   4.761  1.00  0.00     0.163 HD
ATOM     41  O   UNL     1     -10.269  -5.238   5.161  1.00  0.00    -0.269 OA
BRANCH  39  42
ATOM     42  C   UNL     1     -10.541  -5.532   2.850  1.00  0.00     0.039 A 
ATOM     43  C   UNL     1     -10.046  -6.398   1.876  1.00  0.00     0.014 A 
ATOM     44  C   UNL     1     -11.770  -4.894   2.673  1.00  0.00     0.014 A 
ATOM     45  C   UNL     1     -10.669  -6.459   0.639  1.00  0.00     0.010 A 
ATOM     46  C   UNL     1     -12.456  -5.048   1.466  1.00  0.00     0.010 A 
ATOM     47  C   UNL     1     -11.881  -5.784   0.418  1.00  0.00    -0.014 A 
BRANCH  47  48
ATOM     48  C   UNL     1     -12.517  -5.864  -0.920  1.00  0.00     0.031 A 
ATOM     49  C   UNL     1     -12.697  -4.630  -1.762  1.00  0.00     0.074 A 
ATOM     50  C   UNL     1     -12.869  -7.071  -1.403  1.00  0.00     0.049 A 
ATOM     51  N   UNL     1     -13.209  -4.524  -2.962  1.00  0.00    -0.248 NA
ATOM     52  C   UNL     1     -12.248  -3.349  -1.191  1.00  0.00     0.031 C 
ATOM     53  C   UNL     1     -12.712  -8.341  -0.689  1.00  0.00     0.029 A 
ATOM     54  N   UNL     1     -13.393  -7.436  -2.617  1.00  0.00    -0.354 N 
ATOM     55  C   UNL     1     -13.165  -3.172  -3.278  1.00  0.00     0.074 A 
ATOM     56  C   UNL     1     -12.602  -2.488  -2.135  1.00  0.00     0.031 C 
ATOM     57  C   UNL     1     -13.062  -9.347  -1.500  1.00  0.00     0.029 A 
ATOM     58  C   UNL     1     -13.550  -8.794  -2.759  1.00  0.00     0.049 A 
ATOM     59  H   UNL     1     -13.633  -6.788  -3.318  1.00  0.00     0.167 HD
ATOM     60  C   UNL     1     -13.548  -2.560  -4.423  1.00  0.00     0.031 A 
ATOM     61  C   UNL     1     -14.045  -9.519  -3.779  1.00  0.00     0.031 A 
ATOM     62  C   UNL     1     -14.091  -3.251  -5.563  1.00  0.00     0.049 A 
ATOM     63  C   UNL     1     -14.517  -8.809  -5.013  1.00  0.00     0.074 A 
ATOM     64  C   UNL     1     -14.493  -2.717  -6.775  1.00  0.00     0.029 A 
ATOM     65  N   UNL     1     -14.305  -4.618  -5.636  1.00  0.00    -0.354 N 
ATOM     66  N   UNL     1     -14.468  -7.530  -5.294  1.00  0.00    -0.248 NA
ATOM     67  C   UNL     1     -15.115  -9.637  -6.069  1.00  0.00     0.031 C 
ATOM     68  C   UNL     1     -15.011  -3.752  -7.556  1.00  0.00     0.029 A 
ATOM     69  C   UNL     1     -14.862  -4.942  -6.861  1.00  0.00     0.049 A 
ATOM     70  H   UNL     1     -14.092  -5.263  -4.923  1.00  0.00     0.167 HD
ATOM     71  C   UNL     1     -15.017  -7.399  -6.562  1.00  0.00     0.074 A 
ATOM     72  C   UNL     1     -15.371  -8.732  -7.005  1.00  0.00     0.031 C 
ATOM     73  C   UNL     1     -15.212  -6.272  -7.289  1.00  0.00     0.031 A 
BRANCH  60  74
ATOM     74  C   UNL     1     -13.414  -1.064  -4.512  1.00  0.00    -0.014 A 
ATOM     75  C   UNL     1     -14.569  -0.266  -4.582  1.00  0.00     0.009 A 
ATOM     76  C   UNL     1     -12.159  -0.449  -4.633  1.00  0.00     0.009 A 
ATOM     77  C   UNL     1     -14.471   1.111  -4.790  1.00  0.00     0.001 A 
ATOM     78  C   UNL     1     -12.063   0.934  -4.811  1.00  0.00     0.001 A 
ATOM     79  C   UNL     1     -13.218   1.710  -4.901  1.00  0.00     0.000 A 
ENDBRANCH  60  74
BRANCH  61  80
ATOM     80  C   UNL     1     -14.112 -10.999  -3.652  1.00  0.00    -0.014 A 
ATOM     81  C   UNL     1     -14.958 -11.596  -2.702  1.00  0.00     0.009 A 
ATOM     82  C   UNL     1     -13.282 -11.821  -4.428  1.00  0.00     0.009 A 
ATOM     83  C   UNL     1     -14.944 -12.977  -2.504  1.00  0.00     0.001 A 
ATOM     84  C   UNL     1     -13.296 -13.207  -4.253  1.00  0.00     0.001 A 
ATOM     85  C   UNL     1     -14.116 -13.782  -3.283  1.00  0.00     0.000 A 
ENDBRANCH  61  80
BRANCH  73  86
ATOM     86  C   UNL     1     -15.829  -6.414  -8.652  1.00  0.00    -0.014 A 
ATOM     87  C   UNL     1     -15.062  -6.135  -9.795  1.00  0.00     0.009 A 
ATOM     88  C   UNL     1     -17.192  -6.710  -8.802  1.00  0.00     0.009 A 
ATOM     89  C   UNL     1     -15.653  -6.126 -11.059  1.00  0.00     0.001 A 
ATOM     90  C   UNL     1     -17.773  -6.732 -10.072  1.00  0.00     0.001 A 
ATOM     91  C   UNL     1     -17.006  -6.428 -11.197  1.00  0.00     0.000 A 
ENDBRANCH  73  86
ENDBRANCH  47  48
ENDBRANCH  39  42
ENDBRANCH  37  38
ENDBRANCH  36  37
ENDBRANCH   1  36
TORSDOF 16
