REMARK SMILES COC[C@@H](C)CC(=O)N1CC(CC(=O)NCCCNC(=O)c2ccc(-c3c4nc(c(-c5ccccc5)c5ccc([nH]5)c(-c5ccccc5)c5nc(c(-c6ccccc6)c6ccc3[nH]6)C=C5)C=C4)cc2)C1
REMARK SMILES IDX 13 1 14 2 15 3 12 5 11 6 7 7 8 8 9 9 10 10 70 11 6 12 4 13
REMARK SMILES IDX 5 14 3 15 2 16 1 17 16 18 17 19 18 20 19 21 20 22 21 24
REMARK SMILES IDX 22 25 23 26 69 27 24 28 68 29 25 30 26 31 27 32 62 33 28 34
REMARK SMILES IDX 67 35 61 36 63 37 29 38 66 39 60 40 59 41 30 43 52 44 37 45
REMARK SMILES IDX 51 46 38 47 41 48 50 49 64 50 39 51 40 52 49 54 65 55 42 56
REMARK SMILES IDX 31 57 32 58 36 59 33 60 35 61 34 62 53 63 54 64 58 65 55 66
REMARK SMILES IDX 57 67 56 68 43 69 44 70 48 71 45 72 47 73 46 74
REMARK H PARENT 15 4 19 23 63 42 41 53
REMARK Flexibility Score: inf
ROOT
ATOM      1  C   UNL     1       0.318   1.733  -6.241  1.00  0.00     0.220 C 
ATOM      2  O   UNL     1      -0.641   1.845  -7.007  1.00  0.00    -0.275 OA
ATOM      3  N   UNL     1       0.593   0.492  -5.750  1.00  0.00    -0.356 N 
ATOM      4  H   UNL     1       0.012  -0.220  -6.104  1.00  0.00     0.163 HD
ENDROOT
BRANCH   1   5
ATOM      5  C   UNL     1       1.121   2.959  -5.835  1.00  0.00     0.107 C 
BRANCH   5   6
ATOM      6  C   UNL     1       0.412   3.781  -4.762  1.00  0.00     0.037 C 
ATOM      7  C   UNL     1       0.568   5.024  -1.684  1.00  0.00     0.222 C 
ATOM      8  O   UNL     1      -0.123   6.038  -1.627  1.00  0.00    -0.275 OA
ATOM      9  N   UNL     1       0.984   4.467  -2.872  1.00  0.00    -0.342 N 
ATOM     10  C   UNL     1       1.026   5.075  -4.203  1.00  0.00     0.125 C 
ATOM     11  C   UNL     1       0.567   3.175  -3.377  1.00  0.00     0.125 C 
BRANCH   7  12
ATOM     12  C   UNL     1       1.176   4.395  -0.428  1.00  0.00     0.106 C 
BRANCH  12  13
ATOM     13  C   UNL     1       0.436   3.226   0.257  1.00  0.00     0.021 C 
ATOM     14  C   UNL     1       0.875   3.134   1.724  1.00  0.00     0.010 C 
BRANCH  13  15
ATOM     15  C   UNL     1       0.691   1.895  -0.464  1.00  0.00     0.163 C 
BRANCH  15  16
ATOM     16  O   UNL     1       0.337   0.740   0.285  1.00  0.00    -0.384 OA
ATOM     17  C   UNL     1       1.452  -0.024   0.722  1.00  0.00     0.194 C 
ENDBRANCH  15  16
ENDBRANCH  13  15
ENDBRANCH  12  13
ENDBRANCH   7  12
ENDBRANCH   5   6
ENDBRANCH   1   5
BRANCH   3  18
ATOM     18  C   UNL     1       1.590   0.028  -4.796  1.00  0.00     0.117 C 
BRANCH  18  19
ATOM     19  C   UNL     1       0.991  -0.209  -3.409  1.00  0.00     0.042 C 
BRANCH  19  20
ATOM     20  C   UNL     1       0.239  -1.522  -3.218  1.00  0.00     0.118 C 
BRANCH  20  21
ATOM     21  N   UNL     1       1.121  -2.655  -2.994  1.00  0.00    -0.352 N 
ATOM     22  C   UNL     1       1.251  -3.516  -1.927  1.00  0.00     0.251 C 
ATOM     23  H   UNL     1       1.736  -2.841  -3.740  1.00  0.00     0.163 HD
ATOM     24  O   UNL     1       2.186  -4.312  -1.937  1.00  0.00    -0.269 OA
BRANCH  22  25
ATOM     25  C   UNL     1       0.333  -3.495  -0.755  1.00  0.00     0.039 A 
ATOM     26  C   UNL     1       0.866  -3.808   0.505  1.00  0.00     0.014 A 
ATOM     27  C   UNL     1      -1.033  -3.226  -0.859  1.00  0.00     0.014 A 
ATOM     28  C   UNL     1       0.061  -3.773   1.652  1.00  0.00     0.010 A 
ATOM     29  C   UNL     1      -1.825  -3.131   0.291  1.00  0.00     0.010 A 
ATOM     30  C   UNL     1      -1.288  -3.407   1.558  1.00  0.00    -0.014 A 
BRANCH  30  31
ATOM     31  C   UNL     1      -2.161  -3.355   2.763  1.00  0.00     0.031 A 
ATOM     32  C   UNL     1      -3.270  -4.358   2.933  1.00  0.00     0.074 A 
ATOM     33  C   UNL     1      -2.001  -2.383   3.682  1.00  0.00     0.049 A 
ATOM     34  N   UNL     1      -4.162  -4.452   3.888  1.00  0.00    -0.248 NA
ATOM     35  C   UNL     1      -3.408  -5.378   1.881  1.00  0.00     0.031 C 
ATOM     36  C   UNL     1      -0.997  -1.322   3.628  1.00  0.00     0.029 A 
ATOM     37  N   UNL     1      -2.699  -2.120   4.838  1.00  0.00    -0.354 N 
ATOM     38  C   UNL     1      -4.975  -5.524   3.542  1.00  0.00     0.074 A 
ATOM     39  C   UNL     1      -4.495  -6.026   2.273  1.00  0.00     0.031 C 
ATOM     40  C   UNL     1      -1.137  -0.527   4.702  1.00  0.00     0.029 A 
ATOM     41  C   UNL     1      -2.259  -1.003   5.506  1.00  0.00     0.049 A 
ATOM     42  H   UNL     1      -3.443  -2.680   5.156  1.00  0.00     0.167 HD
ATOM     43  C   UNL     1      -6.018  -6.054   4.223  1.00  0.00     0.031 A 
ATOM     44  C   UNL     1      -2.714  -0.419   6.633  1.00  0.00     0.031 A 
ATOM     45  C   UNL     1      -6.494  -5.574   5.492  1.00  0.00     0.049 A 
ATOM     46  C   UNL     1      -3.880  -1.024   7.367  1.00  0.00     0.074 A 
ATOM     47  C   UNL     1      -7.498  -6.098   6.289  1.00  0.00     0.029 A 
ATOM     48  N   UNL     1      -6.007  -4.455   6.146  1.00  0.00    -0.354 N 
ATOM     49  N   UNL     1      -4.578  -2.094   7.072  1.00  0.00    -0.248 NA
ATOM     50  C   UNL     1      -4.312  -0.347   8.600  1.00  0.00     0.031 C 
ATOM     51  C   UNL     1      -7.651  -5.266   7.403  1.00  0.00     0.029 A 
ATOM     52  C   UNL     1      -6.708  -4.255   7.323  1.00  0.00     0.049 A 
ATOM     53  H   UNL     1      -5.271  -3.886   5.822  1.00  0.00     0.167 HD
ATOM     54  C   UNL     1      -5.508  -2.233   8.094  1.00  0.00     0.074 A 
ATOM     55  C   UNL     1      -5.278  -1.149   9.025  1.00  0.00     0.031 C 
ATOM     56  C   UNL     1      -6.468  -3.178   8.247  1.00  0.00     0.031 A 
BRANCH  43  57
ATOM     57  C   UNL     1      -6.729  -7.222   3.599  1.00  0.00    -0.014 A 
ATOM     58  C   UNL     1      -6.133  -8.491   3.546  1.00  0.00     0.009 A 
ATOM     59  C   UNL     1      -8.029  -7.058   3.098  1.00  0.00     0.009 A 
ATOM     60  C   UNL     1      -6.813  -9.567   2.972  1.00  0.00     0.001 A 
ATOM     61  C   UNL     1      -8.717  -8.141   2.548  1.00  0.00     0.001 A 
ATOM     62  C   UNL     1      -8.105  -9.392   2.478  1.00  0.00     0.000 A 
ENDBRANCH  43  57
BRANCH  44  63
ATOM     63  C   UNL     1      -2.068   0.817   7.148  1.00  0.00    -0.014 A 
ATOM     64  C   UNL     1      -1.302   0.785   8.324  1.00  0.00     0.009 A 
ATOM     65  C   UNL     1      -2.243   2.042   6.485  1.00  0.00     0.009 A 
ATOM     66  C   UNL     1      -0.752   1.960   8.842  1.00  0.00     0.001 A 
ATOM     67  C   UNL     1      -1.668   3.210   6.991  1.00  0.00     0.001 A 
ATOM     68  C   UNL     1      -0.933   3.170   8.174  1.00  0.00     0.000 A 
ENDBRANCH  44  63
BRANCH  56  69
ATOM     69  C   UNL     1      -7.318  -3.108   9.484  1.00  0.00    -0.014 A 
ATOM     70  C   UNL     1      -8.310  -2.127   9.633  1.00  0.00     0.009 A 
ATOM     71  C   UNL     1      -7.153  -4.068  10.494  1.00  0.00     0.009 A 
ATOM     72  C   UNL     1      -9.101  -2.093  10.783  1.00  0.00     0.001 A 
ATOM     73  C   UNL     1      -7.963  -4.048  11.630  1.00  0.00     0.001 A 
ATOM     74  C   UNL     1      -8.931  -3.056  11.778  1.00  0.00     0.000 A 
ENDBRANCH  56  69
ENDBRANCH  30  31
ENDBRANCH  22  25
ENDBRANCH  20  21
ENDBRANCH  19  20
ENDBRANCH  18  19
ENDBRANCH   3  18
TORSDOF 15
