REMARK SMILES O=C(NCCCNC(=O)c1ccc(-c2c3nc(c(-c4ccccc4)c4ccc([nH]4)c(-c4ccccc4)c4nc(c(-c5ccccc5)c5ccc2[nH]5)C=C4)C=C3)cc1)c1ccc(NC(=O)[C@@H]2CC=CC[C@H]2C(=O)Nc2cccc([N+](=O)[O-])c2)cc1
REMARK SMILES IDX 1 1 2 2 3 3 58 5 59 6 84 7 60 8 83 9 61 10 62 11 63 12 64 14
REMARK SMILES IDX 65 15 66 16 70 17 67 18 69 19 68 20 71 21 72 22 73 23 74 25
REMARK SMILES IDX 75 26 82 27 76 28 78 29 77 30 79 31 80 32 81 33 4 34 5 35
REMARK SMILES IDX 6 36 7 37 8 38 9 40 10 41 11 42 57 43 12 44 56 45 13 46
REMARK SMILES IDX 14 47 15 48 50 49 16 50 55 51 49 52 51 53 17 54 54 55 48 56
REMARK SMILES IDX 47 57 18 59 40 60 25 61 39 62 26 63 29 64 38 65 52 66 27 67
REMARK SMILES IDX 28 68 37 70 53 71 30 72 19 73 20 74 24 75 21 76 23 77 22 78
REMARK SMILES IDX 41 79 42 80 46 81 43 82 45 83 44 84 31 85 32 86 36 87 33 88
REMARK SMILES IDX 35 89 34 90
REMARK H PARENT 3 4 62 13 73 24 7 39 51 58 29 69
REMARK Flexibility Score: inf
ROOT
ATOM      1  O   UNL     1      11.956  -8.259  -1.618  1.00  0.00    -0.269 OA
ATOM      2  C   UNL     1      10.917  -8.085  -0.988  1.00  0.00     0.251 C 
ATOM      3  N   UNL     1      10.207  -9.176  -0.517  1.00  0.00    -0.352 N 
ATOM      4  H   UNL     1      10.669 -10.039  -0.616  1.00  0.00     0.163 HD
ENDROOT
BRANCH   2   5
ATOM      5  C   UNL     1      10.435  -6.707  -0.728  1.00  0.00     0.039 A 
ATOM      6  C   UNL     1       9.798  -6.451   0.464  1.00  0.00     0.016 A 
ATOM      7  C   UNL     1      10.596  -5.649  -1.631  1.00  0.00     0.016 A 
ATOM      8  C   UNL     1       9.132  -5.257   0.630  1.00  0.00     0.027 A 
ATOM      9  C   UNL     1      10.063  -4.368  -1.333  1.00  0.00     0.027 A 
ATOM     10  C   UNL     1       9.310  -4.173  -0.172  1.00  0.00     0.041 A 
BRANCH  10  11
ATOM     11  N   UNL     1       8.881  -2.914   0.277  1.00  0.00    -0.326 N 
ATOM     12  C   UNL     1       8.287  -2.462   1.439  1.00  0.00     0.228 C 
ATOM     13  H   UNL     1       9.039  -2.197  -0.380  1.00  0.00     0.169 HD
ATOM     14  O   UNL     1       8.491  -1.257   1.654  1.00  0.00    -0.274 OA
BRANCH  12  15
ATOM     15  C   UNL     1       7.269  -3.258   2.365  1.00  0.00     0.095 C 
ATOM     16  C   UNL     1       6.314  -2.142   2.907  1.00  0.00     0.041 C 
ATOM     17  C   UNL     1       7.760  -4.175   3.555  1.00  0.00     0.095 C 
ATOM     18  C   UNL     1       5.317  -2.556   3.934  1.00  0.00    -0.030 C 
ATOM     19  C   UNL     1       6.857  -4.266   4.822  1.00  0.00     0.041 C 
ATOM     20  C   UNL     1       5.578  -3.516   4.819  1.00  0.00    -0.030 C 
BRANCH  17  21
ATOM     21  C   UNL     1       8.192  -5.663   3.422  1.00  0.00     0.228 C 
ATOM     22  O   UNL     1       9.348  -5.959   3.772  1.00  0.00    -0.274 OA
ATOM     23  N   UNL     1       7.429  -6.744   3.069  1.00  0.00    -0.326 N 
ATOM     24  H   UNL     1       7.902  -7.587   3.255  1.00  0.00     0.169 HD
BRANCH  23  25
ATOM     25  C   UNL     1       6.160  -6.986   2.514  1.00  0.00     0.048 A 
ATOM     26  C   UNL     1       5.574  -8.235   2.765  1.00  0.00     0.026 A 
ATOM     27  C   UNL     1       5.474  -6.123   1.679  1.00  0.00     0.111 A 
ATOM     28  C   UNL     1       4.281  -8.539   2.312  1.00  0.00     0.009 A 
ATOM     29  C   UNL     1       4.155  -6.386   1.275  1.00  0.00     0.271 A 
ATOM     30  C   UNL     1       3.546  -7.595   1.600  1.00  0.00     0.086 A 
BRANCH  29  31
ATOM     31  N   UNL     1       3.423  -5.366   0.512  1.00  0.00     0.062 N 
ATOM     32  O   UNL     1       2.216  -5.553   0.312  1.00  0.00    -0.258 OA
ATOM     33  O   UNL     1       4.056  -4.371   0.127  1.00  0.00    -0.258 OA
ENDBRANCH  29  31
ENDBRANCH  23  25
ENDBRANCH  17  21
ENDBRANCH  12  15
ENDBRANCH  10  11
ENDBRANCH   2   5
BRANCH   3  34
ATOM     34  C   UNL     1       8.883  -9.260   0.105  1.00  0.00     0.118 C 
BRANCH  34  35
ATOM     35  C   UNL     1       7.908 -10.126  -0.668  1.00  0.00     0.042 C 
BRANCH  35  36
ATOM     36  C   UNL     1       8.210 -11.608  -0.576  1.00  0.00     0.118 C 
BRANCH  36  37
ATOM     37  N   UNL     1       7.839 -12.187   0.711  1.00  0.00    -0.352 N 
ATOM     38  C   UNL     1       6.900 -13.147   1.014  1.00  0.00     0.251 C 
ATOM     39  H   UNL     1       8.338 -11.836   1.484  1.00  0.00     0.163 HD
ATOM     40  O   UNL     1       6.625 -13.376   2.190  1.00  0.00    -0.269 OA
BRANCH  38  41
ATOM     41  C   UNL     1       6.185 -13.867  -0.065  1.00  0.00     0.039 A 
ATOM     42  C   UNL     1       4.817 -14.118   0.075  1.00  0.00     0.014 A 
ATOM     43  C   UNL     1       6.847 -14.272  -1.225  1.00  0.00     0.014 A 
ATOM     44  C   UNL     1       4.098 -14.669  -0.991  1.00  0.00     0.010 A 
ATOM     45  C   UNL     1       6.115 -14.715  -2.321  1.00  0.00     0.010 A 
ATOM     46  C   UNL     1       4.731 -14.914  -2.220  1.00  0.00    -0.014 A 
BRANCH  46  47
ATOM     47  C   UNL     1       3.976 -15.362  -3.419  1.00  0.00     0.031 A 
ATOM     48  C   UNL     1       4.324 -16.665  -4.088  1.00  0.00     0.074 A 
ATOM     49  C   UNL     1       3.048 -14.553  -3.969  1.00  0.00     0.049 A 
ATOM     50  N   UNL     1       3.872 -17.163  -5.210  1.00  0.00    -0.248 NA
ATOM     51  C   UNL     1       5.339 -17.500  -3.425  1.00  0.00     0.031 C 
ATOM     52  C   UNL     1       2.644 -13.244  -3.451  1.00  0.00     0.029 A 
ATOM     53  N   UNL     1       2.285 -14.710  -5.100  1.00  0.00    -0.354 N 
ATOM     54  C   UNL     1       4.566 -18.352  -5.402  1.00  0.00     0.074 A 
ATOM     55  C   UNL     1       5.502 -18.477  -4.306  1.00  0.00     0.031 C 
ATOM     56  C   UNL     1       1.692 -12.730  -4.246  1.00  0.00     0.029 A 
ATOM     57  C   UNL     1       1.452 -13.647  -5.355  1.00  0.00     0.049 A 
ATOM     58  H   UNL     1       2.330 -15.509  -5.673  1.00  0.00     0.167 HD
ATOM     59  C   UNL     1       4.427 -19.267  -6.389  1.00  0.00     0.031 A 
ATOM     60  C   UNL     1       0.601 -13.425  -6.375  1.00  0.00     0.031 A 
ATOM     61  C   UNL     1       3.481 -19.159  -7.467  1.00  0.00     0.049 A 
ATOM     62  C   UNL     1       0.468 -14.454  -7.462  1.00  0.00     0.074 A 
ATOM     63  C   UNL     1       3.219 -20.069  -8.476  1.00  0.00     0.029 A 
ATOM     64  N   UNL     1       2.643 -18.076  -7.675  1.00  0.00    -0.354 N 
ATOM     65  N   UNL     1       1.086 -15.603  -7.591  1.00  0.00    -0.248 NA
ATOM     66  C   UNL     1      -0.487 -14.158  -8.540  1.00  0.00     0.031 C 
ATOM     67  C   UNL     1       2.253 -19.516  -9.323  1.00  0.00     0.029 A 
ATOM     68  C   UNL     1       1.877 -18.285  -8.810  1.00  0.00     0.049 A 
ATOM     69  H   UNL     1       2.597 -17.277  -7.101  1.00  0.00     0.167 HD
ATOM     70  C   UNL     1       0.576 -16.178  -8.748  1.00  0.00     0.074 A 
ATOM     71  C   UNL     1      -0.411 -15.259  -9.275  1.00  0.00     0.031 C 
ATOM     72  C   UNL     1       0.897 -17.363  -9.320  1.00  0.00     0.031 A 
BRANCH  59  73
ATOM     73  C   UNL     1       5.327 -20.470  -6.349  1.00  0.00    -0.014 A 
ATOM     74  C   UNL     1       5.165 -21.468  -5.375  1.00  0.00     0.009 A 
ATOM     75  C   UNL     1       6.330 -20.624  -7.318  1.00  0.00     0.009 A 
ATOM     76  C   UNL     1       6.013 -22.577  -5.350  1.00  0.00     0.001 A 
ATOM     77  C   UNL     1       7.158 -21.748  -7.309  1.00  0.00     0.001 A 
ATOM     78  C   UNL     1       7.005 -22.718  -6.319  1.00  0.00     0.000 A 
ENDBRANCH  59  73
BRANCH  60  79
ATOM     79  C   UNL     1      -0.204 -12.177  -6.414  1.00  0.00    -0.014 A 
ATOM     80  C   UNL     1      -1.587 -12.218  -6.176  1.00  0.00     0.009 A 
ATOM     81  C   UNL     1       0.400 -10.942  -6.694  1.00  0.00     0.009 A 
ATOM     82  C   UNL     1      -2.351 -11.051  -6.242  1.00  0.00     0.001 A 
ATOM     83  C   UNL     1      -0.362  -9.773  -6.732  1.00  0.00     0.001 A 
ATOM     84  C   UNL     1      -1.738  -9.829  -6.515  1.00  0.00     0.000 A 
ENDBRANCH  60  79
BRANCH  72  85
ATOM     85  C   UNL     1       0.148 -17.754 -10.562  1.00  0.00    -0.014 A 
ATOM     86  C   UNL     1       0.407 -17.137 -11.795  1.00  0.00     0.009 A 
ATOM     87  C   UNL     1      -0.796 -18.792 -10.504  1.00  0.00     0.009 A 
ATOM     88  C   UNL     1      -0.284 -17.534 -12.941  1.00  0.00     0.001 A 
ATOM     89  C   UNL     1      -1.466 -19.205 -11.656  1.00  0.00     0.001 A 
ATOM     90  C   UNL     1      -1.215 -18.570 -12.872  1.00  0.00     0.000 A 
ENDBRANCH  72  85
ENDBRANCH  46  47
ENDBRANCH  38  41
ENDBRANCH  36  37
ENDBRANCH  35  36
ENDBRANCH  34  35
ENDBRANCH   3  34
TORSDOF 15
