REMARK SMILES O=C(NCCCNC(=O)c1cc(N2C(=O)[C@H]3[C@@H]4C=C[C@@H]([C@@H]5C[C@H]45)[C@@H]3C2=O)ccc1Cl)c1ccc(-c2c3nc(c(-c4ccccc4)c4ccc([nH]4)c(-c4ccccc4)c4nc(c(-c5ccccc5)c5ccc2[nH]5)C=C4)C=C3)cc1
REMARK SMILES IDX 4 1 3 2 1 3 2 4 31 6 32 7 78 8 33 9 77 10 34 11 35 12 36 13
REMARK SMILES IDX 71 14 37 15 76 16 70 17 72 18 38 19 75 20 69 21 68 22 39 24
REMARK SMILES IDX 61 25 46 26 60 27 47 28 50 29 59 30 73 31 48 32 49 33 58 35
REMARK SMILES IDX 74 36 51 37 40 38 41 39 45 40 42 41 44 42 43 43 62 44 63 45
REMARK SMILES IDX 67 46 64 47 66 48 65 49 52 50 53 51 57 52 54 53 56 54 55 55
REMARK SMILES IDX 5 56 6 57 7 58 8 59 9 61 10 62 11 63 29 64 12 65 28 66 30 67
REMARK SMILES IDX 27 68 13 69 14 70 25 71 15 72 16 73 24 74 26 75 17 76 20 77
REMARK SMILES IDX 18 78 23 79 19 80 21 81 22 82
REMARK H PARENT 3 5 72 23 50 34 7 60
REMARK Flexibility Score: inf
ROOT
ATOM      1  C   UNL     1       4.501   1.155  -0.581  1.00  0.00     0.118 C 
ENDROOT
BRANCH   1   2
ATOM      2  N   UNL     1       3.062   0.979  -0.411  1.00  0.00    -0.352 N 
ATOM      3  O   UNL     1       1.123  -0.122  -0.054  1.00  0.00    -0.269 OA
ATOM      4  C   UNL     1       2.347  -0.115   0.017  1.00  0.00     0.251 C 
ATOM      5  H   UNL     1       2.517   1.767  -0.640  1.00  0.00     0.163 HD
BRANCH   4   6
ATOM      6  C   UNL     1       3.063  -1.297   0.539  1.00  0.00     0.039 A 
ATOM      7  C   UNL     1       4.164  -1.133   1.377  1.00  0.00     0.014 A 
ATOM      8  C   UNL     1       2.644  -2.582   0.180  1.00  0.00     0.014 A 
ATOM      9  C   UNL     1       4.969  -2.219   1.673  1.00  0.00     0.010 A 
ATOM     10  C   UNL     1       3.376  -3.695   0.607  1.00  0.00     0.010 A 
ATOM     11  C   UNL     1       4.566  -3.519   1.329  1.00  0.00    -0.014 A 
BRANCH  11  12
ATOM     12  C   UNL     1       5.368  -4.659   1.842  1.00  0.00     0.031 A 
ATOM     13  C   UNL     1       6.052  -5.628   0.920  1.00  0.00     0.074 A 
ATOM     14  C   UNL     1       5.525  -4.763   3.178  1.00  0.00     0.049 A 
ATOM     15  N   UNL     1       6.838  -6.630   1.226  1.00  0.00    -0.248 NA
ATOM     16  C   UNL     1       5.827  -5.464  -0.525  1.00  0.00     0.031 C 
ATOM     17  C   UNL     1       4.902  -3.881   4.172  1.00  0.00     0.029 A 
ATOM     18  N   UNL     1       6.284  -5.620   3.930  1.00  0.00    -0.354 N 
ATOM     19  C   UNL     1       7.191  -7.222   0.020  1.00  0.00     0.074 A 
ATOM     20  C   UNL     1       6.511  -6.486  -1.024  1.00  0.00     0.031 C 
ATOM     21  C   UNL     1       5.363  -4.192   5.390  1.00  0.00     0.029 A 
ATOM     22  C   UNL     1       6.237  -5.350   5.277  1.00  0.00     0.049 A 
ATOM     23  H   UNL     1       6.811  -6.356   3.545  1.00  0.00     0.167 HD
ATOM     24  C   UNL     1       8.013  -8.279  -0.193  1.00  0.00     0.031 A 
ATOM     25  C   UNL     1       6.812  -5.979   6.317  1.00  0.00     0.031 A 
ATOM     26  C   UNL     1       8.680  -9.012   0.853  1.00  0.00     0.049 A 
ATOM     27  C   UNL     1       7.674  -7.174   6.046  1.00  0.00     0.074 A 
ATOM     28  C   UNL     1       9.541 -10.090   0.735  1.00  0.00     0.029 A 
ATOM     29  N   UNL     1       8.560  -8.746   2.209  1.00  0.00    -0.354 N 
ATOM     30  N   UNL     1       8.018  -7.701   4.896  1.00  0.00    -0.248 NA
ATOM     31  C   UNL     1       8.226  -7.862   7.219  1.00  0.00     0.031 C 
ATOM     32  C   UNL     1       9.895 -10.512   2.021  1.00  0.00     0.029 A 
ATOM     33  C   UNL     1       9.310  -9.655   2.938  1.00  0.00     0.049 A 
ATOM     34  H   UNL     1       8.022  -8.018   2.596  1.00  0.00     0.167 HD
ATOM     35  C   UNL     1       8.839  -8.774   5.206  1.00  0.00     0.074 A 
ATOM     36  C   UNL     1       8.972  -8.796   6.649  1.00  0.00     0.031 C 
ATOM     37  C   UNL     1       9.424  -9.669   4.373  1.00  0.00     0.031 A 
BRANCH  24  38
ATOM     38  C   UNL     1       8.226  -8.729  -1.614  1.00  0.00    -0.014 A 
ATOM     39  C   UNL     1       8.995  -7.971  -2.511  1.00  0.00     0.009 A 
ATOM     40  C   UNL     1       7.718  -9.968  -2.037  1.00  0.00     0.009 A 
ATOM     41  C   UNL     1       9.232  -8.435  -3.808  1.00  0.00     0.001 A 
ATOM     42  C   UNL     1       7.981 -10.442  -3.324  1.00  0.00     0.001 A 
ATOM     43  C   UNL     1       8.732  -9.673  -4.210  1.00  0.00     0.000 A 
ENDBRANCH  24  38
BRANCH  25  44
ATOM     44  C   UNL     1       6.549  -5.520   7.707  1.00  0.00    -0.014 A 
ATOM     45  C   UNL     1       7.582  -5.008   8.505  1.00  0.00     0.009 A 
ATOM     46  C   UNL     1       5.257  -5.613   8.249  1.00  0.00     0.009 A 
ATOM     47  C   UNL     1       7.334  -4.638   9.829  1.00  0.00     0.001 A 
ATOM     48  C   UNL     1       5.003  -5.204   9.558  1.00  0.00     0.001 A 
ATOM     49  C   UNL     1       6.045  -4.732  10.352  1.00  0.00     0.000 A 
ENDBRANCH  25  44
BRANCH  37  50
ATOM     50  C   UNL     1      10.282 -10.723   5.013  1.00  0.00    -0.014 A 
ATOM     51  C   UNL     1       9.721 -11.746   5.795  1.00  0.00     0.009 A 
ATOM     52  C   UNL     1      11.674 -10.690   4.834  1.00  0.00     0.009 A 
ATOM     53  C   UNL     1      10.542 -12.683   6.426  1.00  0.00     0.001 A 
ATOM     54  C   UNL     1      12.488 -11.649   5.436  1.00  0.00     0.001 A 
ATOM     55  C   UNL     1      11.923 -12.635   6.243  1.00  0.00     0.000 A 
ENDBRANCH  37  50
ENDBRANCH  11  12
ENDBRANCH   4   6
ENDBRANCH   1   2
BRANCH   1  56
ATOM     56  C   UNL     1       4.921   1.300  -2.032  1.00  0.00     0.042 C 
BRANCH  56  57
ATOM     57  C   UNL     1       4.384   2.554  -2.694  1.00  0.00     0.118 C 
BRANCH  57  58
ATOM     58  N   UNL     1       4.815   3.763  -2.011  1.00  0.00    -0.352 N 
ATOM     59  C   UNL     1       5.549   4.816  -2.482  1.00  0.00     0.252 C 
ATOM     60  H   UNL     1       4.538   3.834  -1.069  1.00  0.00     0.163 HD
ATOM     61  O   UNL     1       5.920   5.701  -1.717  1.00  0.00    -0.269 OA
BRANCH  59  62
ATOM     62  C   UNL     1       5.947   4.876  -3.897  1.00  0.00     0.060 A 
ATOM     63  C   UNL     1       7.322   5.004  -4.155  1.00  0.00     0.042 A 
ATOM     64  C   UNL     1       5.019   4.894  -4.948  1.00  0.00     0.053 A 
ATOM     65  C   UNL     1       7.761   5.175  -5.466  1.00  0.00     0.053 A 
ATOM     66  C   UNL     1       5.475   4.957  -6.263  1.00  0.00     0.023 A 
ATOM     67  Cl  UNL     1       3.307   4.902  -4.714  1.00  0.00    -0.083 Cl
ATOM     68  C   UNL     1       6.835   5.122  -6.518  1.00  0.00     0.028 A 
BRANCH  65  69
ATOM     69  N   UNL     1       9.124   5.340  -5.768  1.00  0.00    -0.250 N 
ATOM     70  C   UNL     1      10.107   4.419  -5.369  1.00  0.00     0.238 C 
ATOM     71  C   UNL     1       9.574   6.195  -6.796  1.00  0.00     0.238 C 
ATOM     72  O   UNL     1      10.013   3.435  -4.657  1.00  0.00    -0.274 OA
ATOM     73  C   UNL     1      11.347   4.910  -6.047  1.00  0.00     0.100 C 
ATOM     74  C   UNL     1      10.716   5.424  -7.345  1.00  0.00     0.100 C 
ATOM     75  O   UNL     1       9.061   7.187  -7.273  1.00  0.00    -0.274 OA
ATOM     76  C   UNL     1      12.645   4.158  -6.383  1.00  0.00     0.028 C 
ATOM     77  C   UNL     1      11.798   5.626  -8.393  1.00  0.00     0.028 C 
ATOM     78  C   UNL     1      13.562   5.355  -6.736  1.00  0.00    -0.026 C 
ATOM     79  C   UNL     1      12.609   3.316  -7.673  1.00  0.00     0.001 C 
ATOM     80  C   UNL     1      13.087   6.139  -7.733  1.00  0.00    -0.026 C 
ATOM     81  C   UNL     1      12.128   4.160  -8.864  1.00  0.00     0.001 C 
ATOM     82  C   UNL     1      11.408   2.871  -8.455  1.00  0.00     0.009 C 
ENDBRANCH  65  69
ENDBRANCH  59  62
ENDBRANCH  57  58
ENDBRANCH  56  57
ENDBRANCH   1  56
TORSDOF 11
