REMARK SMILES COc1cccc(-c2ccc(=O)n(CC(=O)N[C@@H](C(=O)NCCCNC(=O)c3ccc(-c4c5nc(c(-c6ccccc6)c6ccc([nH]6)c(-c6ccccc6)c6nc(c(-c7ccccc7)c7ccc4[nH]7)C=C6)C=C5)cc3)C(C)C)n2)c1
REMARK SMILES IDX 19 1 20 2 21 3 18 5 17 6 15 7 16 8 14 10 13 11 8 12 9 13
REMARK SMILES IDX 79 14 10 15 11 16 12 17 7 18 3 19 4 20 80 21 5 22 6 23 2 24
REMARK SMILES IDX 1 25 76 26 77 27 78 28 22 29 23 30 24 31 25 32 26 33 27 35
REMARK SMILES IDX 28 36 29 37 75 38 30 39 74 40 31 41 32 42 33 43 68 44 34 45
REMARK SMILES IDX 73 46 67 47 69 48 35 49 72 50 66 51 65 52 36 54 58 55 43 56
REMARK SMILES IDX 57 57 44 58 47 59 56 60 70 61 45 62 46 63 55 65 71 66 48 67
REMARK SMILES IDX 37 68 38 69 42 70 39 71 41 72 40 73 59 74 60 75 64 76 61 77
REMARK SMILES IDX 63 78 62 79 49 80 50 81 54 82 51 83 53 84 52 85
REMARK H PARENT 21 4 17 9 25 34 69 53 47 64
REMARK Flexibility Score: inf
ROOT
ATOM      1  C   UNL     1       5.422   7.773  -1.197  1.00  0.00     0.242 C 
ATOM      2  O   UNL     1       4.885   8.753  -1.718  1.00  0.00    -0.273 OA
ATOM      3  N   UNL     1       5.595   7.824   0.160  1.00  0.00    -0.354 N 
ATOM      4  H   UNL     1       5.429   8.693   0.591  1.00  0.00     0.163 HD
ENDROOT
BRANCH   1   5
ATOM      5  C   UNL     1       5.820   6.487  -1.998  1.00  0.00     0.173 C 
BRANCH   5   6
ATOM      6  N   UNL     1       7.251   6.228  -1.771  1.00  0.00    -0.342 N 
ATOM      7  C   UNL     1       7.925   5.093  -1.419  1.00  0.00     0.242 C 
ATOM      8  O   UNL     1       9.148   5.205  -1.280  1.00  0.00    -0.273 OA
ATOM      9  H   UNL     1       7.827   7.017  -1.896  1.00  0.00     0.164 HD
BRANCH   7  10
ATOM     10  C   UNL     1       7.240   3.722  -1.273  1.00  0.00     0.248 C 
BRANCH  10  11
ATOM     11  N   UNL     1       6.335   3.596  -0.131  1.00  0.00    -0.220 N 
ATOM     12  C   UNL     1       4.164   3.587   0.581  1.00  0.00     0.091 A 
ATOM     13  C   UNL     1       4.544   3.542   2.003  1.00  0.00     0.036 A 
ATOM     14  N   UNL     1       4.987   3.619  -0.415  1.00  0.00    -0.169 NA
ATOM     15  C   UNL     1       5.850   3.430   2.253  1.00  0.00     0.075 A 
ATOM     16  C   UNL     1       6.845   3.411   1.151  1.00  0.00     0.267 A 
ATOM     17  O   UNL     1       8.035   3.308   1.429  1.00  0.00    -0.268 OA
BRANCH  12  18
ATOM     18  C   UNL     1       2.724   3.547   0.302  1.00  0.00     0.006 A 
ATOM     19  C   UNL     1       0.816   2.200  -0.281  1.00  0.00     0.119 A 
ATOM     20  C   UNL     1       0.049   3.367  -0.366  1.00  0.00     0.046 A 
ATOM     21  C   UNL     1       2.165   2.295   0.040  1.00  0.00     0.056 A 
ATOM     22  C   UNL     1       0.617   4.620  -0.107  1.00  0.00     0.005 A 
ATOM     23  C   UNL     1       1.966   4.717   0.231  1.00  0.00     0.011 A 
BRANCH  19  24
ATOM     24  O   UNL     1       0.157   1.036  -0.564  1.00  0.00    -0.497 OA
ATOM     25  C   UNL     1       0.772  -0.158  -0.089  1.00  0.00     0.278 C 
ENDBRANCH  19  24
ENDBRANCH  12  18
ENDBRANCH  10  11
ENDBRANCH   7  10
ENDBRANCH   5   6
BRANCH   5  26
ATOM     26  C   UNL     1       5.486   6.671  -3.502  1.00  0.00     0.015 C 
ATOM     27  C   UNL     1       6.221   5.691  -4.420  1.00  0.00     0.010 C 
ATOM     28  C   UNL     1       3.974   6.522  -3.733  1.00  0.00     0.010 C 
ENDBRANCH   5  26
ENDBRANCH   1   5
BRANCH   3  29
ATOM     29  C   UNL     1       5.994   6.747   1.024  1.00  0.00     0.117 C 
BRANCH  29  30
ATOM     30  C   UNL     1       7.239   7.041   1.835  1.00  0.00     0.042 C 
BRANCH  30  31
ATOM     31  C   UNL     1       6.910   7.717   3.152  1.00  0.00     0.118 C 
BRANCH  31  32
ATOM     32  N   UNL     1       6.151   6.850   4.052  1.00  0.00    -0.352 N 
ATOM     33  C   UNL     1       6.404   6.491   5.356  1.00  0.00     0.251 C 
ATOM     34  H   UNL     1       5.332   6.464   3.666  1.00  0.00     0.163 HD
ATOM     35  O   UNL     1       5.750   5.603   5.879  1.00  0.00    -0.269 OA
BRANCH  33  36
ATOM     36  C   UNL     1       7.485   7.174   6.100  1.00  0.00     0.039 A 
ATOM     37  C   UNL     1       8.311   6.432   6.947  1.00  0.00     0.014 A 
ATOM     38  C   UNL     1       7.699   8.543   5.933  1.00  0.00     0.014 A 
ATOM     39  C   UNL     1       9.400   7.054   7.563  1.00  0.00     0.010 A 
ATOM     40  C   UNL     1       8.848   9.126   6.441  1.00  0.00     0.010 A 
ATOM     41  C   UNL     1       9.702   8.395   7.277  1.00  0.00    -0.014 A 
BRANCH  41  42
ATOM     42  C   UNL     1      10.884   9.079   7.857  1.00  0.00     0.031 A 
ATOM     43  C   UNL     1      10.691  10.307   8.706  1.00  0.00     0.074 A 
ATOM     44  C   UNL     1      12.125   8.653   7.553  1.00  0.00     0.049 A 
ATOM     45  N   UNL     1      11.589  11.111   9.217  1.00  0.00    -0.248 NA
ATOM     46  C   UNL     1       9.301  10.711   8.981  1.00  0.00     0.031 C 
ATOM     47  C   UNL     1      12.449   7.505   6.703  1.00  0.00     0.029 A 
ATOM     48  N   UNL     1      13.350   9.147   7.923  1.00  0.00    -0.354 N 
ATOM     49  C   UNL     1      10.872  12.123   9.843  1.00  0.00     0.074 A 
ATOM     50  C   UNL     1       9.472  11.874   9.588  1.00  0.00     0.031 C 
ATOM     51  C   UNL     1      13.782   7.356   6.655  1.00  0.00     0.029 A 
ATOM     52  C   UNL     1      14.407   8.424   7.428  1.00  0.00     0.049 A 
ATOM     53  H   UNL     1      13.461   9.944   8.490  1.00  0.00     0.167 HD
ATOM     54  C   UNL     1      11.333  13.153  10.592  1.00  0.00     0.031 A 
ATOM     55  C   UNL     1      15.732   8.603   7.580  1.00  0.00     0.031 A 
ATOM     56  C   UNL     1      12.724  13.387  10.863  1.00  0.00     0.049 A 
ATOM     57  C   UNL     1      16.223   9.758   8.408  1.00  0.00     0.074 A 
ATOM     58  C   UNL     1      13.298  14.368  11.651  1.00  0.00     0.029 A 
ATOM     59  N   UNL     1      13.763  12.623  10.352  1.00  0.00    -0.354 N 
ATOM     60  N   UNL     1      15.532  10.673   9.045  1.00  0.00    -0.248 NA
ATOM     61  C   UNL     1      17.679   9.896   8.548  1.00  0.00     0.031 C 
ATOM     62  C   UNL     1      14.688  14.225  11.580  1.00  0.00     0.029 A 
ATOM     63  C   UNL     1      14.976  13.120  10.796  1.00  0.00     0.049 A 
ATOM     64  H   UNL     1      13.653  11.843   9.761  1.00  0.00     0.167 HD
ATOM     65  C   UNL     1      16.466  11.473   9.690  1.00  0.00     0.074 A 
ATOM     66  C   UNL     1      17.771  10.927   9.376  1.00  0.00     0.031 C 
ATOM     67  C   UNL     1      16.263  12.559  10.476  1.00  0.00     0.031 A 
BRANCH  54  68
ATOM     68  C   UNL     1      10.309  14.095  11.166  1.00  0.00    -0.014 A 
ATOM     69  C   UNL     1       9.405  13.674  12.156  1.00  0.00     0.009 A 
ATOM     70  C   UNL     1      10.244  15.420  10.711  1.00  0.00     0.009 A 
ATOM     71  C   UNL     1       8.424  14.543  12.637  1.00  0.00     0.001 A 
ATOM     72  C   UNL     1       9.285  16.298  11.220  1.00  0.00     0.001 A 
ATOM     73  C   UNL     1       8.367  15.855  12.172  1.00  0.00     0.000 A 
ENDBRANCH  54  68
BRANCH  55  74
ATOM     74  C   UNL     1      16.690   7.642   6.973  1.00  0.00    -0.014 A 
ATOM     75  C   UNL     1      17.419   6.762   7.789  1.00  0.00     0.009 A 
ATOM     76  C   UNL     1      16.884   7.596   5.584  1.00  0.00     0.009 A 
ATOM     77  C   UNL     1      18.340   5.875   7.230  1.00  0.00     0.001 A 
ATOM     78  C   UNL     1      17.786   6.686   5.026  1.00  0.00     0.001 A 
ATOM     79  C   UNL     1      18.520   5.834   5.849  1.00  0.00     0.000 A 
ENDBRANCH  55  74
BRANCH  67  80
ATOM     80  C   UNL     1      17.477  13.195  11.092  1.00  0.00    -0.014 A 
ATOM     81  C   UNL     1      18.389  13.933  10.323  1.00  0.00     0.009 A 
ATOM     82  C   UNL     1      17.685  13.085  12.476  1.00  0.00     0.009 A 
ATOM     83  C   UNL     1      19.507  14.515  10.923  1.00  0.00     0.001 A 
ATOM     84  C   UNL     1      18.785  13.695  13.078  1.00  0.00     0.001 A 
ATOM     85  C   UNL     1      19.701  14.401  12.300  1.00  0.00     0.000 A 
ENDBRANCH  67  80
ENDBRANCH  41  42
ENDBRANCH  33  36
ENDBRANCH  31  32
ENDBRANCH  30  31
ENDBRANCH  29  30
ENDBRANCH   3  29
TORSDOF 16
