REMARK SMILES CC[N@@H+](C)Cc1cc2c(cc1Cl)C=C(C(=O)NCCCNC(=O)c1ccc(-c3c4nc(c(-c5ccccc5)c5ccc([nH]5)c(-c5ccccc5)c5nc(c(-c6ccccc6)c6ccc3[nH]6)C=C5)C=C4)cc1)[C@@H](C(F)(F)F)O2
REMARK SMILES IDX 18 1 17 2 15 3 16 4 14 6 6 7 7 8 11 9 8 10 10 11 12 12 9 13
REMARK SMILES IDX 77 14 13 15 72 16 5 17 3 18 4 19 2 21 1 22 73 23 74 24 75 25
REMARK SMILES IDX 76 26 19 27 20 28 21 29 22 30 23 32 24 33 25 34 71 35 26 36
REMARK SMILES IDX 70 37 27 38 28 39 29 40 64 41 30 42 69 43 63 44 65 45 31 46
REMARK SMILES IDX 68 47 62 48 61 49 32 51 54 52 39 53 53 54 40 55 43 56 52 57
REMARK SMILES IDX 66 58 41 59 42 60 51 62 67 63 44 64 33 65 34 66 38 67 35 68
REMARK SMILES IDX 37 69 36 70 55 71 56 72 60 73 57 74 59 75 58 76 45 77 46 78
REMARK SMILES IDX 50 79 47 80 49 81 48 82
REMARK H PARENT 17 5 3 20 21 31 65 50 43 61
REMARK Flexibility Score: inf
ROOT
ATOM      1  C   UNL     1       3.848   2.892  -7.835  1.00  0.00     0.118 C 
ENDROOT
BRANCH   1   2
ATOM      2  N   UNL     1       4.372   1.591  -8.222  1.00  0.00    -0.352 N 
ATOM      3  C   UNL     1       4.551   0.380  -7.643  1.00  0.00     0.251 C 
ATOM      4  O   UNL     1       5.075  -0.474  -8.365  1.00  0.00    -0.270 OA
ATOM      5  H   UNL     1       4.680   1.591  -9.157  1.00  0.00     0.163 HD
BRANCH   3   6
ATOM      6  C   UNL     1       4.169   0.033  -6.246  1.00  0.00     0.067 C 
ATOM      7  C   UNL     1       3.114  -2.319  -1.926  1.00  0.00     0.029 A 
ATOM      8  C   UNL     1       3.289  -0.977  -2.302  1.00  0.00     0.058 A 
ATOM      9  C   UNL     1       3.494  -3.313  -2.846  1.00  0.00     0.050 A 
ATOM     10  C   UNL     1       3.701  -0.646  -3.586  1.00  0.00     0.128 A 
ATOM     11  C   UNL     1       3.957  -2.971  -4.126  1.00  0.00     0.033 A 
ATOM     12  Cl  UNL     1       3.418  -4.998  -2.469  1.00  0.00    -0.084 Cl
ATOM     13  C   UNL     1       4.031  -1.633  -4.511  1.00  0.00     0.019 A 
ATOM     14  O   UNL     1       3.753   0.685  -3.893  1.00  0.00    -0.475 OA
ATOM     15  C   UNL     1       4.437  -1.229  -5.853  1.00  0.00     0.025 C 
ATOM     16  C   UNL     1       3.493   0.979  -5.294  1.00  0.00     0.314 C 
BRANCH   7  17
ATOM     17  C   UNL     1       2.488  -2.610  -0.574  1.00  0.00     0.300 C 
BRANCH  17  18
ATOM     18  N   UNL     1       1.014  -2.535  -0.496  1.00  0.00    -0.334 N 
ATOM     19  C   UNL     1       0.364  -3.555  -1.319  1.00  0.00     0.333 C 
ATOM     20  H   UNL     1       0.833  -2.724   0.490  1.00  0.00     0.348 HD
BRANCH  18  21
ATOM     21  C   UNL     1       0.415  -1.218  -0.741  1.00  0.00     0.258 C 
ATOM     22  C   UNL     1       0.795  -0.167   0.297  1.00  0.00     0.071 C 
ENDBRANCH  18  21
ENDBRANCH  17  18
ENDBRANCH   7  17
BRANCH  16  23
ATOM     23  C   UNL     1       1.972   1.090  -5.535  1.00  0.00     0.429 C 
ATOM     24  F   UNL     1       1.480   2.199  -4.926  1.00  0.00    -0.167 F 
ATOM     25  F   UNL     1       1.664   1.204  -6.848  1.00  0.00    -0.167 F 
ATOM     26  F   UNL     1       1.281   0.030  -5.063  1.00  0.00    -0.167 F 
ENDBRANCH  16  23
ENDBRANCH   3   6
ENDBRANCH   1   2
BRANCH   1  27
ATOM     27  C   UNL     1       4.959   3.872  -7.489  1.00  0.00     0.042 C 
BRANCH  27  28
ATOM     28  C   UNL     1       5.644   4.432  -8.729  1.00  0.00     0.118 C 
BRANCH  28  29
ATOM     29  N   UNL     1       4.758   5.296  -9.506  1.00  0.00    -0.352 N 
ATOM     30  C   UNL     1       4.808   6.650  -9.735  1.00  0.00     0.251 C 
ATOM     31  H   UNL     1       4.003   4.833  -9.936  1.00  0.00     0.163 HD
ATOM     32  O   UNL     1       3.843   7.222 -10.234  1.00  0.00    -0.269 OA
BRANCH  30  33
ATOM     33  C   UNL     1       6.011   7.420  -9.362  1.00  0.00     0.039 A 
ATOM     34  C   UNL     1       7.282   6.894  -9.590  1.00  0.00     0.014 A 
ATOM     35  C   UNL     1       5.869   8.681  -8.774  1.00  0.00     0.014 A 
ATOM     36  C   UNL     1       8.392   7.525  -9.049  1.00  0.00     0.010 A 
ATOM     37  C   UNL     1       7.002   9.369  -8.328  1.00  0.00     0.010 A 
ATOM     38  C   UNL     1       8.267   8.769  -8.411  1.00  0.00    -0.014 A 
BRANCH  38  39
ATOM     39  C   UNL     1       9.480   9.408  -7.840  1.00  0.00     0.031 A 
ATOM     40  C   UNL     1       9.603   9.642  -6.358  1.00  0.00     0.074 A 
ATOM     41  C   UNL     1      10.512   9.697  -8.657  1.00  0.00     0.049 A 
ATOM     42  N   UNL     1      10.613  10.136  -5.687  1.00  0.00    -0.248 NA
ATOM     43  C   UNL     1       8.449   9.278  -5.518  1.00  0.00     0.031 C 
ATOM     44  C   UNL     1      10.518   9.492 -10.108  1.00  0.00     0.029 A 
ATOM     45  N   UNL     1      11.767  10.178  -8.385  1.00  0.00    -0.354 N 
ATOM     46  C   UNL     1      10.209  10.165  -4.358  1.00  0.00     0.074 A 
ATOM     47  C   UNL     1       8.854   9.662  -4.315  1.00  0.00     0.031 C 
ATOM     48  C   UNL     1      11.741   9.763 -10.584  1.00  0.00     0.029 A 
ATOM     49  C   UNL     1      12.581  10.238  -9.491  1.00  0.00     0.049 A 
ATOM     50  H   UNL     1      12.057  10.453  -7.486  1.00  0.00     0.167 HD
ATOM     51  C   UNL     1      10.909  10.567  -3.271  1.00  0.00     0.031 A 
ATOM     52  C   UNL     1      13.861  10.636  -9.619  1.00  0.00     0.031 A 
ATOM     53  C   UNL     1      12.264  11.049  -3.315  1.00  0.00     0.049 A 
ATOM     54  C   UNL     1      14.602  11.108  -8.404  1.00  0.00     0.074 A 
ATOM     55  C   UNL     1      13.058  11.473  -2.264  1.00  0.00     0.029 A 
ATOM     56  N   UNL     1      13.026  11.164  -4.466  1.00  0.00    -0.354 N 
ATOM     57  N   UNL     1      14.198  11.142  -7.157  1.00  0.00    -0.248 NA
ATOM     58  C   UNL     1      15.968  11.606  -8.611  1.00  0.00     0.031 C 
ATOM     59  C   UNL     1      14.284  11.892  -2.785  1.00  0.00     0.029 A 
ATOM     60  C   UNL     1      14.276  11.671  -4.153  1.00  0.00     0.049 A 
ATOM     61  H   UNL     1      12.725  10.920  -5.372  1.00  0.00     0.167 HD
ATOM     62  C   UNL     1      15.260  11.658  -6.429  1.00  0.00     0.074 A 
ATOM     63  C   UNL     1      16.335  11.900  -7.370  1.00  0.00     0.031 C 
ATOM     64  C   UNL     1      15.333  11.912  -5.101  1.00  0.00     0.031 A 
BRANCH  51  65
ATOM     65  C   UNL     1      10.224  10.524  -1.933  1.00  0.00    -0.014 A 
ATOM     66  C   UNL     1       9.889  11.723  -1.284  1.00  0.00     0.009 A 
ATOM     67  C   UNL     1       9.991   9.307  -1.273  1.00  0.00     0.009 A 
ATOM     68  C   UNL     1       9.345  11.708   0.001  1.00  0.00     0.001 A 
ATOM     69  C   UNL     1       9.422   9.294   0.003  1.00  0.00     0.001 A 
ATOM     70  C   UNL     1       9.108  10.493   0.642  1.00  0.00     0.000 A 
ENDBRANCH  51  65
BRANCH  52  71
ATOM     71  C   UNL     1      14.505  10.594 -10.957  1.00  0.00    -0.014 A 
ATOM     72  C   UNL     1      14.074  11.453 -11.983  1.00  0.00     0.009 A 
ATOM     73  C   UNL     1      15.508   9.654 -11.238  1.00  0.00     0.009 A 
ATOM     74  C   UNL     1      14.608  11.349 -13.268  1.00  0.00     0.001 A 
ATOM     75  C   UNL     1      16.063   9.574 -12.517  1.00  0.00     0.001 A 
ATOM     76  C   UNL     1      15.605  10.412 -13.533  1.00  0.00     0.000 A 
ENDBRANCH  52  71
BRANCH  64  77
ATOM     77  C   UNL     1      16.619  12.476  -4.568  1.00  0.00    -0.014 A 
ATOM     78  C   UNL     1      17.443  11.682  -3.755  1.00  0.00     0.009 A 
ATOM     79  C   UNL     1      16.962  13.818  -4.786  1.00  0.00     0.009 A 
ATOM     80  C   UNL     1      18.581  12.226  -3.158  1.00  0.00     0.001 A 
ATOM     81  C   UNL     1      18.116  14.351  -4.209  1.00  0.00     0.001 A 
ATOM     82  C   UNL     1      18.918  13.558  -3.389  1.00  0.00     0.000 A 
ENDBRANCH  64  77
ENDBRANCH  38  39
ENDBRANCH  30  33
ENDBRANCH  28  29
ENDBRANCH  27  28
ENDBRANCH   1  27
TORSDOF 14
