REMARK SMILES CCCC(=O)Nc1cccc(C(=O)N[C@@H](C(=O)NCCCNC(=O)c2ccc(-c3c4nc(c(-c5ccccc5)c5ccc([nH]5)c(-c5ccccc5)c5nc(c(-c6ccccc6)c6ccc3[nH]6)C=C5)C=C4)cc2)C2=C(C)N=N[C@@H]2C)c1
REMARK SMILES IDX 16 1 17 2 18 3 15 5 14 6 12 7 13 8 11 10 7 11 8 12 80 13
REMARK SMILES IDX 9 14 10 15 6 16 4 17 5 18 3 20 2 21 1 22 73 23 74 24 78 25
REMARK SMILES IDX 75 26 76 27 77 28 79 29 19 30 20 31 21 32 22 33 23 34 24 36
REMARK SMILES IDX 25 37 26 38 72 39 27 40 71 41 28 42 29 43 30 44 65 45 31 46
REMARK SMILES IDX 70 47 64 48 66 49 32 50 69 51 63 52 62 53 33 55 55 56 40 57
REMARK SMILES IDX 54 58 41 59 44 60 53 61 67 62 42 63 43 64 52 66 68 67 45 68
REMARK SMILES IDX 34 69 35 70 39 71 36 72 38 73 37 74 56 75 57 76 61 77 58 78
REMARK SMILES IDX 60 79 59 80 46 81 47 82 51 83 48 84 50 85 49 86
REMARK H PARENT 18 4 14 9 6 19 22 35 66 54 44 65
REMARK Flexibility Score: inf
ROOT
ATOM      1  C   UNL     1      -2.047  -1.502  -1.062  1.00  0.00     0.247 C 
ATOM      2  O   UNL     1      -2.898  -2.338  -0.752  1.00  0.00    -0.272 OA
ATOM      3  N   UNL     1      -2.462  -0.477  -1.865  1.00  0.00    -0.354 N 
ATOM      4  H   UNL     1      -3.400  -0.524  -2.160  1.00  0.00     0.163 HD
ENDROOT
BRANCH   1   5
ATOM      5  C   UNL     1      -0.593  -1.507  -0.485  1.00  0.00     0.202 C 
BRANCH   5   6
ATOM      6  N   UNL     1       0.406  -1.486  -1.567  1.00  0.00    -0.337 N 
ATOM      7  C   UNL     1       1.364  -0.638  -2.076  1.00  0.00     0.252 C 
ATOM      8  O   UNL     1       1.862  -0.997  -3.148  1.00  0.00    -0.269 OA
ATOM      9  H   UNL     1       0.380  -2.326  -2.079  1.00  0.00     0.165 HD
BRANCH   7  10
ATOM     10  C   UNL     1       1.869   0.642  -1.478  1.00  0.00     0.041 A 
ATOM     11  C   UNL     1       1.912   2.414   0.190  1.00  0.00     0.041 A 
ATOM     12  C   UNL     1       3.048   2.979  -0.365  1.00  0.00     0.026 A 
ATOM     13  C   UNL     1       1.300   1.300  -0.395  1.00  0.00     0.040 A 
ATOM     14  C   UNL     1       3.618   2.366  -1.478  1.00  0.00     0.003 A 
ATOM     15  C   UNL     1       3.040   1.206  -2.020  1.00  0.00     0.014 A 
BRANCH  11  16
ATOM     16  N   UNL     1       1.356   2.935   1.365  1.00  0.00    -0.326 N 
ATOM     17  C   UNL     1       1.082   2.152   2.463  1.00  0.00     0.224 C 
ATOM     18  O   UNL     1       0.057   2.330   3.117  1.00  0.00    -0.275 OA
ATOM     19  H   UNL     1       1.152   3.897   1.406  1.00  0.00     0.169 HD
BRANCH  17  20
ATOM     20  C   UNL     1       2.137   1.119   2.861  1.00  0.00     0.100 C 
BRANCH  20  21
ATOM     21  C   UNL     1       1.824  -0.316   2.447  1.00  0.00     0.006 C 
ATOM     22  C   UNL     1       2.802  -0.934   1.454  1.00  0.00     0.004 C 
ENDBRANCH  20  21
ENDBRANCH  17  20
ENDBRANCH  11  16
ENDBRANCH   7  10
ENDBRANCH   5   6
BRANCH   5  23
ATOM     23  C   UNL     1      -0.422  -2.706   0.400  1.00  0.00     0.011 C 
ATOM     24  C   UNL     1      -0.702  -2.833   1.709  1.00  0.00     0.064 C 
ATOM     25  C   UNL     1      -0.142  -4.102  -0.056  1.00  0.00     0.156 C 
ATOM     26  C   UNL     1      -1.254  -1.837   2.675  1.00  0.00     0.069 C 
ATOM     27  N   UNL     1      -0.541  -4.117   2.162  1.00  0.00    -0.160 NA
ATOM     28  N   UNL     1      -0.232  -4.879   1.211  1.00  0.00    -0.181 NA
ATOM     29  C   UNL     1       1.230  -4.359  -0.664  1.00  0.00     0.040 C 
ENDBRANCH   5  23
ENDBRANCH   1   5
BRANCH   3  30
ATOM     30  C   UNL     1      -1.717   0.663  -2.339  1.00  0.00     0.117 C 
BRANCH  30  31
ATOM     31  C   UNL     1      -1.295   0.504  -3.791  1.00  0.00     0.042 C 
BRANCH  31  32
ATOM     32  C   UNL     1      -2.433   0.818  -4.744  1.00  0.00     0.118 C 
BRANCH  32  33
ATOM     33  N   UNL     1      -2.852   2.212  -4.650  1.00  0.00    -0.352 N 
ATOM     34  C   UNL     1      -3.052   3.130  -5.645  1.00  0.00     0.251 C 
ATOM     35  H   UNL     1      -3.014   2.542  -3.736  1.00  0.00     0.163 HD
ATOM     36  O   UNL     1      -3.207   4.316  -5.367  1.00  0.00    -0.269 OA
BRANCH  34  37
ATOM     37  C   UNL     1      -3.058   2.684  -7.048  1.00  0.00     0.039 A 
ATOM     38  C   UNL     1      -2.400   3.456  -8.006  1.00  0.00     0.014 A 
ATOM     39  C   UNL     1      -3.696   1.493  -7.407  1.00  0.00     0.014 A 
ATOM     40  C   UNL     1      -2.330   2.999  -9.320  1.00  0.00     0.010 A 
ATOM     41  C   UNL     1      -3.538   0.992  -8.689  1.00  0.00     0.010 A 
ATOM     42  C   UNL     1      -2.866   1.746  -9.660  1.00  0.00    -0.014 A 
BRANCH  42  43
ATOM     43  C   UNL     1      -2.749   1.206 -11.032  1.00  0.00     0.031 A 
ATOM     44  C   UNL     1      -3.990   0.935 -11.835  1.00  0.00     0.074 A 
ATOM     45  C   UNL     1      -1.534   0.896 -11.521  1.00  0.00     0.049 A 
ATOM     46  N   UNL     1      -4.102   0.397 -13.023  1.00  0.00    -0.248 NA
ATOM     47  C   UNL     1      -5.277   1.286 -11.211  1.00  0.00     0.031 C 
ATOM     48  C   UNL     1      -0.263   1.075 -10.814  1.00  0.00     0.029 A 
ATOM     49  N   UNL     1      -1.170   0.357 -12.727  1.00  0.00    -0.354 N 
ATOM     50  C   UNL     1      -5.466   0.330 -13.275  1.00  0.00     0.074 A 
ATOM     51  C   UNL     1      -6.144   0.823 -12.098  1.00  0.00     0.031 C 
ATOM     52  C   UNL     1       0.743   0.686 -11.614  1.00  0.00     0.029 A 
ATOM     53  C   UNL     1       0.186   0.183 -12.865  1.00  0.00     0.049 A 
ATOM     54  H   UNL     1      -1.818   0.117 -13.428  1.00  0.00     0.167 HD
ATOM     55  C   UNL     1      -6.097  -0.086 -14.398  1.00  0.00     0.031 A 
ATOM     56  C   UNL     1       0.897  -0.335 -13.883  1.00  0.00     0.031 A 
ATOM     57  C   UNL     1      -5.415  -0.570 -15.568  1.00  0.00     0.049 A 
ATOM     58  C   UNL     1       0.170  -0.816 -15.107  1.00  0.00     0.074 A 
ATOM     59  C   UNL     1      -5.956  -0.962 -16.779  1.00  0.00     0.029 A 
ATOM     60  N   UNL     1      -4.042  -0.732 -15.668  1.00  0.00    -0.354 N 
ATOM     61  N   UNL     1      -1.116  -0.804 -15.363  1.00  0.00    -0.248 NA
ATOM     62  C   UNL     1       0.995  -1.375 -16.186  1.00  0.00     0.031 C 
ATOM     63  C   UNL     1      -4.914  -1.421 -17.591  1.00  0.00     0.029 A 
ATOM     64  C   UNL     1      -3.719  -1.250 -16.910  1.00  0.00     0.049 A 
ATOM     65  H   UNL     1      -3.393  -0.511 -14.961  1.00  0.00     0.167 HD
ATOM     66  C   UNL     1      -1.253  -1.328 -16.641  1.00  0.00     0.074 A 
ATOM     67  C   UNL     1       0.083  -1.628 -17.115  1.00  0.00     0.031 C 
ATOM     68  C   UNL     1      -2.382  -1.544 -17.360  1.00  0.00     0.031 A 
BRANCH  55  69
ATOM     69  C   UNL     1      -7.600  -0.044 -14.405  1.00  0.00    -0.014 A 
ATOM     70  C   UNL     1      -8.297   1.176 -14.399  1.00  0.00     0.009 A 
ATOM     71  C   UNL     1      -8.331  -1.241 -14.445  1.00  0.00     0.009 A 
ATOM     72  C   UNL     1      -9.693   1.195 -14.394  1.00  0.00     0.001 A 
ATOM     73  C   UNL     1      -9.727  -1.219 -14.475  1.00  0.00     0.001 A 
ATOM     74  C   UNL     1     -10.406  -0.002 -14.438  1.00  0.00     0.000 A 
ENDBRANCH  55  69
BRANCH  56  75
ATOM     75  C   UNL     1       2.379  -0.420 -13.791  1.00  0.00    -0.014 A 
ATOM     76  C   UNL     1       3.191   0.380 -14.610  1.00  0.00     0.009 A 
ATOM     77  C   UNL     1       2.990  -1.306 -12.889  1.00  0.00     0.009 A 
ATOM     78  C   UNL     1       4.582   0.272 -14.550  1.00  0.00     0.001 A 
ATOM     79  C   UNL     1       4.381  -1.388 -12.808  1.00  0.00     0.001 A 
ATOM     80  C   UNL     1       5.176  -0.608 -13.646  1.00  0.00     0.000 A 
ENDBRANCH  56  75
BRANCH  68  81
ATOM     81  C   UNL     1      -2.217  -2.104 -18.745  1.00  0.00    -0.014 A 
ATOM     82  C   UNL     1      -1.821  -3.434 -18.953  1.00  0.00     0.009 A 
ATOM     83  C   UNL     1      -2.509  -1.298 -19.857  1.00  0.00     0.009 A 
ATOM     84  C   UNL     1      -1.686  -3.934 -20.249  1.00  0.00     0.001 A 
ATOM     85  C   UNL     1      -2.406  -1.811 -21.150  1.00  0.00     0.001 A 
ATOM     86  C   UNL     1      -1.985  -3.125 -21.345  1.00  0.00     0.000 A 
ENDBRANCH  68  81
ENDBRANCH  42  43
ENDBRANCH  34  37
ENDBRANCH  32  33
ENDBRANCH  31  32
ENDBRANCH  30  31
ENDBRANCH   3  30
TORSDOF 16
