REMARK SMILES [NH3+][C@@H]1CCCCC[C@H]1C(=O)NCC(=O)NCCCNC(=O)c1ccc(-c2c3nc(c(-c4ccccc4)c4ccc([nH]4)c(-c4ccccc4)c4nc(c(-c5ccccc5)c5ccc2[nH]5)C=C4)C=C3)cc1
REMARK SMILES IDX 13 1 14 2 15 3 12 5 11 6 9 7 10 8 8 10 2 11 1 12 3 16 7 18
REMARK SMILES IDX 6 19 5 20 4 21 16 23 17 24 18 25 19 26 20 27 21 29 22 30
REMARK SMILES IDX 23 31 69 32 24 33 68 34 25 35 26 36 27 37 62 38 28 39 67 40
REMARK SMILES IDX 61 41 63 42 29 43 66 44 60 45 59 46 30 48 52 49 37 50 51 51
REMARK SMILES IDX 38 52 41 53 50 54 64 55 39 56 40 57 49 59 65 60 42 61 31 62
REMARK SMILES IDX 32 63 36 64 33 65 35 66 34 67 53 68 54 69 58 70 55 71 57 72
REMARK SMILES IDX 56 73 43 74 44 75 48 76 45 77 47 78 46 79
REMARK H PARENT 15 4 11 9 1 13 1 14 1 15 19 28 63 47 41 58
REMARK Flexibility Score: 90.00
ROOT
ATOM      1  C   UNL     1       3.327  -0.407   3.604  1.00  0.00     0.239 C 
ATOM      2  O   UNL     1       3.846  -0.695   4.685  1.00  0.00    -0.273 OA
ATOM      3  N   UNL     1       3.163  -1.410   2.686  1.00  0.00    -0.355 N 
ATOM      4  H   UNL     1       3.634  -2.253   2.873  1.00  0.00     0.163 HD
ENDROOT
BRANCH   1   5
ATOM      5  C   UNL     1       2.740   0.997   3.352  1.00  0.00     0.216 C 
BRANCH   5   6
ATOM      6  N   UNL     1       3.158   1.602   2.092  1.00  0.00    -0.347 N 
ATOM      7  C   UNL     1       2.459   2.194   1.087  1.00  0.00     0.229 C 
ATOM      8  O   UNL     1       3.095   2.486   0.068  1.00  0.00    -0.275 OA
ATOM      9  H   UNL     1       4.130   1.577   1.940  1.00  0.00     0.164 HD
BRANCH   7  10
ATOM     10  C   UNL     1       0.945   2.466   1.141  1.00  0.00     0.136 C 
BRANCH  10  11
ATOM     11  C   UNL     1       0.107   1.174   0.989  1.00  0.00     0.193 C 
BRANCH  11  12
ATOM     12  N   UNL     1       0.284   0.582  -0.351  1.00  0.00    -0.354 N 
ATOM     13  H   UNL     1      -0.277  -0.266  -0.425  1.00  0.00     0.344 HD
ATOM     14  H   UNL     1       1.268   0.352  -0.494  1.00  0.00     0.344 HD
ATOM     15  H   UNL     1      -0.015   1.251  -1.061  1.00  0.00     0.344 HD
ENDBRANCH  11  12
BRANCH  11  16
ATOM     16  C   UNL     1      -1.405   1.266   1.239  1.00  0.00     0.066 CG0
ATOM     17  G   UNL     1      -1.737   1.599   2.689  1.00  0.00     0.000 G0
ENDBRANCH  11  16
ENDBRANCH  10  11
BRANCH  10  18
ATOM     18  C   UNL     1       0.625   3.390   2.325  1.00  0.00     0.020 C 
BRANCH  18  19
ATOM     19  C   UNL     1      -0.788   3.963   2.271  1.00  0.00     0.001 C 
BRANCH  19  20
ATOM     20  C   UNL     1      -1.829   3.093   2.969  1.00  0.00     0.000 C 
BRANCH  20  21
ATOM     21  C   UNL     1      -1.737   1.599   2.689  1.00  0.00     0.006 CG0
ATOM     22  G   UNL     1      -1.405   1.266   1.239  1.00  0.00     0.000 G0
ENDBRANCH  20  21
ENDBRANCH  19  20
ENDBRANCH  18  19
ENDBRANCH  10  18
ENDBRANCH   7  10
ENDBRANCH   5   6
ENDBRANCH   1   5
BRANCH   3  23
ATOM     23  C   UNL     1       2.377  -1.371   1.474  1.00  0.00     0.117 C 
BRANCH  23  24
ATOM     24  C   UNL     1       3.072  -1.934   0.256  1.00  0.00     0.042 C 
BRANCH  24  25
ATOM     25  C   UNL     1       3.056  -3.447   0.213  1.00  0.00     0.118 C 
BRANCH  25  26
ATOM     26  N   UNL     1       1.725  -4.001  -0.018  1.00  0.00    -0.352 N 
ATOM     27  C   UNL     1       1.204  -4.694  -1.089  1.00  0.00     0.251 C 
ATOM     28  H   UNL     1       1.089  -3.853   0.720  1.00  0.00     0.163 HD
ATOM     29  O   UNL     1       0.011  -4.955  -1.123  1.00  0.00    -0.269 OA
BRANCH  27  30
ATOM     30  C   UNL     1       2.078  -5.093  -2.216  1.00  0.00     0.039 A 
ATOM     31  C   UNL     1       1.587  -5.008  -3.522  1.00  0.00     0.014 A 
ATOM     32  C   UNL     1       3.380  -5.534  -1.993  1.00  0.00     0.014 A 
ATOM     33  C   UNL     1       2.438  -5.269  -4.600  1.00  0.00     0.010 A 
ATOM     34  C   UNL     1       4.259  -5.654  -3.059  1.00  0.00     0.010 A 
ATOM     35  C   UNL     1       3.797  -5.538  -4.377  1.00  0.00    -0.014 A 
BRANCH  35  36
ATOM     36  C   UNL     1       4.760  -5.726  -5.492  1.00  0.00     0.031 A 
ATOM     37  C   UNL     1       5.538  -7.010  -5.601  1.00  0.00     0.074 A 
ATOM     38  C   UNL     1       5.004  -4.714  -6.348  1.00  0.00     0.049 A 
ATOM     39  N   UNL     1       6.499  -7.328  -6.432  1.00  0.00    -0.248 NA
ATOM     40  C   UNL     1       5.223  -8.063  -4.620  1.00  0.00     0.031 C 
ATOM     41  C   UNL     1       4.353  -3.402  -6.326  1.00  0.00     0.029 A 
ATOM     42  N   UNL     1       5.875  -4.633  -7.405  1.00  0.00    -0.354 N 
ATOM     43  C   UNL     1       6.923  -8.595  -6.048  1.00  0.00     0.074 A 
ATOM     44  C   UNL     1       6.162  -8.960  -4.875  1.00  0.00     0.031 C 
ATOM     45  C   UNL     1       4.812  -2.666  -7.351  1.00  0.00     0.029 A 
ATOM     46  C   UNL     1       5.825  -3.431  -8.069  1.00  0.00     0.049 A 
ATOM     47  H   UNL     1       6.479  -5.366  -7.663  1.00  0.00     0.167 HD
ATOM     48  C   UNL     1       7.845  -9.396  -6.631  1.00  0.00     0.031 A 
ATOM     49  C   UNL     1       6.519  -2.995  -9.137  1.00  0.00     0.031 A 
ATOM     50  C   UNL     1       8.580  -9.045  -7.816  1.00  0.00     0.049 A 
ATOM     51  C   UNL     1       7.545  -3.897  -9.762  1.00  0.00     0.074 A 
ATOM     52  C   UNL     1       9.479  -9.814  -8.532  1.00  0.00     0.029 A 
ATOM     53  N   UNL     1       8.497  -7.819  -8.457  1.00  0.00    -0.354 N 
ATOM     54  N   UNL     1       7.884  -5.120  -9.431  1.00  0.00    -0.248 NA
ATOM     55  C   UNL     1       8.281  -3.358 -10.915  1.00  0.00     0.031 C 
ATOM     56  C   UNL     1       9.982  -9.033  -9.578  1.00  0.00     0.029 A 
ATOM     57  C   UNL     1       9.351  -7.799  -9.546  1.00  0.00     0.049 A 
ATOM     58  H   UNL     1       7.917  -7.074  -8.180  1.00  0.00     0.167 HD
ATOM     59  C   UNL     1       8.848  -5.508 -10.352  1.00  0.00     0.074 A 
ATOM     60  C   UNL     1       9.031  -4.394 -11.262  1.00  0.00     0.031 C 
ATOM     61  C   UNL     1       9.520  -6.682 -10.440  1.00  0.00     0.031 A 
BRANCH  48  62
ATOM     62  C   UNL     1       8.109 -10.728  -5.982  1.00  0.00    -0.014 A 
ATOM     63  C   UNL     1       7.136 -11.742  -5.969  1.00  0.00     0.009 A 
ATOM     64  C   UNL     1       9.350 -10.973  -5.375  1.00  0.00     0.009 A 
ATOM     65  C   UNL     1       7.381 -12.951  -5.315  1.00  0.00     0.001 A 
ATOM     66  C   UNL     1       9.605 -12.196  -4.752  1.00  0.00     0.001 A 
ATOM     67  C   UNL     1       8.616 -13.178  -4.710  1.00  0.00     0.000 A 
ENDBRANCH  48  62
BRANCH  49  68
ATOM     68  C   UNL     1       6.242  -1.651  -9.708  1.00  0.00    -0.014 A 
ATOM     69  C   UNL     1       5.595  -1.535 -10.949  1.00  0.00     0.009 A 
ATOM     70  C   UNL     1       6.615  -0.483  -9.026  1.00  0.00     0.009 A 
ATOM     71  C   UNL     1       5.349  -0.278 -11.505  1.00  0.00     0.001 A 
ATOM     72  C   UNL     1       6.342   0.773  -9.572  1.00  0.00     0.001 A 
ATOM     73  C   UNL     1       5.718   0.875 -10.814  1.00  0.00     0.000 A 
ENDBRANCH  49  68
BRANCH  61  74
ATOM     74  C   UNL     1      10.485  -6.837 -11.580  1.00  0.00    -0.014 A 
ATOM     75  C   UNL     1      11.711  -6.154 -11.597  1.00  0.00     0.009 A 
ATOM     76  C   UNL     1      10.178  -7.714 -12.632  1.00  0.00     0.009 A 
ATOM     77  C   UNL     1      12.597  -6.324 -12.663  1.00  0.00     0.001 A 
ATOM     78  C   UNL     1      11.079  -7.905 -13.681  1.00  0.00     0.001 A 
ATOM     79  C   UNL     1      12.283  -7.202 -13.700  1.00  0.00     0.000 A 
ENDBRANCH  61  74
ENDBRANCH  35  36
ENDBRANCH  27  30
ENDBRANCH  25  26
ENDBRANCH  24  25
ENDBRANCH  23  24
ENDBRANCH   3  23
TORSDOF 13
