REMARK SMILES CCC[NH2+][C@@]1(C(=O)NCCCNC(=O)c2ccc(-c3c4nc(c(-c5ccccc5)c5ccc([nH]5)c(-c5ccccc5)c5nc(c(-c6ccccc6)c6ccc3[nH]6)C=C5)C=C4)cc2)CC[C@@H](SC2CCCC2)C1
REMARK SMILES IDX 9 1 8 2 6 3 7 4 5 6 63 7 72 8 64 9 65 10 4 11 3 14 2 15 1 16
REMARK SMILES IDX 66 17 67 18 68 19 71 20 69 21 70 22 10 23 11 24 12 25 13 26
REMARK SMILES IDX 14 28 15 29 16 30 62 31 17 32 61 33 18 34 19 35 20 36 55 37
REMARK SMILES IDX 21 38 60 39 54 40 56 41 22 42 59 43 53 44 52 45 23 47 45 48
REMARK SMILES IDX 30 49 44 50 31 51 34 52 43 53 57 54 32 55 33 56 42 58 58 59
REMARK SMILES IDX 35 60 24 61 25 62 29 63 26 64 28 65 27 66 46 67 47 68 51 69
REMARK SMILES IDX 48 70 50 71 49 72 36 73 37 74 41 75 38 76 40 77 39 78
REMARK H PARENT 8 5 4 12 4 13 12 27 56 46 34 57
REMARK Flexibility Score: inf
ROOT
ATOM      1  C   UNL     1       3.330  -5.648  -3.397  1.00  0.00     0.118 C 
ENDROOT
BRANCH   1   2
ATOM      2  N   UNL     1       3.437  -4.305  -2.908  1.00  0.00    -0.351 N 
ATOM      3  C   UNL     1       2.582  -3.633  -2.096  1.00  0.00     0.281 C 
ATOM      4  O   UNL     1       3.126  -2.802  -1.352  1.00  0.00    -0.268 OA
ATOM      5  H   UNL     1       4.234  -3.805  -3.199  1.00  0.00     0.163 HD
BRANCH   3   6
ATOM      6  C   UNL     1       1.013  -3.866  -2.037  1.00  0.00     0.176 C 
ATOM      7  C   UNL     1       0.665  -5.022  -1.071  1.00  0.00     0.080 C 
ATOM      8  C   UNL     1       0.274  -4.223  -3.342  1.00  0.00     0.093 C 
ATOM      9  C   UNL     1       0.348  -6.254  -1.913  1.00  0.00     0.022 C 
ATOM     10  C   UNL     1      -0.069  -5.724  -3.281  1.00  0.00     0.054 C 
BRANCH   6  11
ATOM     11  N   UNL     1       0.431  -2.623  -1.425  1.00  0.00    -0.334 N 
ATOM     12  H   UNL     1      -0.571  -2.769  -1.304  1.00  0.00     0.347 HD
ATOM     13  H   UNL     1       0.927  -2.478  -0.546  1.00  0.00     0.347 HD
BRANCH  11  14
ATOM     14  C   UNL     1       0.622  -1.396  -2.215  1.00  0.00     0.261 C 
BRANCH  14  15
ATOM     15  C   UNL     1       0.158  -0.151  -1.442  1.00  0.00     0.058 C 
ATOM     16  C   UNL     1       0.846   0.046  -0.095  1.00  0.00     0.010 C 
ENDBRANCH  14  15
ENDBRANCH  11  14
ENDBRANCH   6  11
BRANCH  10  17
ATOM     17  S   UNL     1      -1.704  -6.244  -3.932  1.00  0.00    -0.155 SA
BRANCH  17  18
ATOM     18  C   UNL     1      -2.968  -5.869  -2.666  1.00  0.00     0.047 C 
ATOM     19  C   UNL     1      -2.838  -6.460  -1.271  1.00  0.00     0.014 C 
ATOM     20  C   UNL     1      -3.256  -4.399  -2.404  1.00  0.00     0.014 C 
ATOM     21  C   UNL     1      -3.962  -5.789  -0.501  1.00  0.00     0.001 C 
ATOM     22  C   UNL     1      -4.073  -4.390  -1.107  1.00  0.00     0.001 C 
ENDBRANCH  17  18
ENDBRANCH  10  17
ENDBRANCH   3   6
ENDBRANCH   1   2
BRANCH   1  23
ATOM     23  C   UNL     1       3.358  -5.774  -4.901  1.00  0.00     0.042 C 
BRANCH  23  24
ATOM     24  C   UNL     1       4.775  -5.801  -5.432  1.00  0.00     0.118 C 
BRANCH  24  25
ATOM     25  N   UNL     1       5.536  -6.936  -4.908  1.00  0.00    -0.352 N 
ATOM     26  C   UNL     1       6.037  -8.040  -5.547  1.00  0.00     0.251 C 
ATOM     27  H   UNL     1       5.717  -6.901  -3.941  1.00  0.00     0.163 HD
ATOM     28  O   UNL     1       6.429  -9.004  -4.895  1.00  0.00    -0.269 OA
BRANCH  26  29
ATOM     29  C   UNL     1       6.096  -8.061  -7.018  1.00  0.00     0.039 A 
ATOM     30  C   UNL     1       5.825  -9.245  -7.705  1.00  0.00     0.014 A 
ATOM     31  C   UNL     1       6.411  -6.895  -7.717  1.00  0.00     0.014 A 
ATOM     32  C   UNL     1       5.801  -9.235  -9.098  1.00  0.00     0.010 A 
ATOM     33  C   UNL     1       6.245  -6.852  -9.089  1.00  0.00     0.010 A 
ATOM     34  C   UNL     1       5.968  -8.028  -9.797  1.00  0.00    -0.014 A 
BRANCH  34  35
ATOM     35  C   UNL     1       5.903  -7.963 -11.274  1.00  0.00     0.031 A 
ATOM     36  C   UNL     1       7.096  -7.471 -12.047  1.00  0.00     0.074 A 
ATOM     37  C   UNL     1       4.753  -8.267 -11.903  1.00  0.00     0.049 A 
ATOM     38  N   UNL     1       7.216  -7.259 -13.332  1.00  0.00    -0.248 NA
ATOM     39  C   UNL     1       8.304  -7.134 -11.271  1.00  0.00     0.031 C 
ATOM     40  C   UNL     1       3.514  -8.703 -11.252  1.00  0.00     0.029 A 
ATOM     41  N   UNL     1       4.438  -8.252 -13.237  1.00  0.00    -0.354 N 
ATOM     42  C   UNL     1       8.493  -6.742 -13.509  1.00  0.00     0.074 A 
ATOM     43  C   UNL     1       9.085  -6.605 -12.199  1.00  0.00     0.031 C 
ATOM     44  C   UNL     1       2.589  -8.955 -12.191  1.00  0.00     0.029 A 
ATOM     45  C   UNL     1       3.151  -8.651 -13.502  1.00  0.00     0.049 A 
ATOM     46  H   UNL     1       5.074  -7.982 -13.938  1.00  0.00     0.167 HD
ATOM     47  C   UNL     1       9.131  -6.438 -14.663  1.00  0.00     0.031 A 
ATOM     48  C   UNL     1       2.499  -8.756 -14.674  1.00  0.00     0.031 A 
ATOM     49  C   UNL     1       8.543  -6.599 -15.964  1.00  0.00     0.049 A 
ATOM     50  C   UNL     1       3.227  -8.407 -15.942  1.00  0.00     0.074 A 
ATOM     51  C   UNL     1       9.119  -6.382 -17.202  1.00  0.00     0.029 A 
ATOM     52  N   UNL     1       7.242  -7.019 -16.191  1.00  0.00    -0.354 N 
ATOM     53  N   UNL     1       4.461  -7.991 -16.100  1.00  0.00    -0.248 NA
ATOM     54  C   UNL     1       2.474  -8.553 -17.195  1.00  0.00     0.031 C 
ATOM     55  C   UNL     1       8.147  -6.616 -18.179  1.00  0.00     0.029 A 
ATOM     56  C   UNL     1       6.987  -7.043 -17.551  1.00  0.00     0.049 A 
ATOM     57  H   UNL     1       6.596  -7.264 -15.490  1.00  0.00     0.167 HD
ATOM     58  C   UNL     1       4.642  -7.855 -17.470  1.00  0.00     0.074 A 
ATOM     59  C   UNL     1       3.397  -8.251 -18.097  1.00  0.00     0.031 C 
ATOM     60  C   UNL     1       5.739  -7.442 -18.150  1.00  0.00     0.031 A 
BRANCH  47  61
ATOM     61  C   UNL     1      10.532  -5.902 -14.560  1.00  0.00    -0.014 A 
ATOM     62  C   UNL     1      11.592  -6.707 -14.110  1.00  0.00     0.009 A 
ATOM     63  C   UNL     1      10.802  -4.577 -14.937  1.00  0.00     0.009 A 
ATOM     64  C   UNL     1      12.882  -6.185 -14.001  1.00  0.00     0.001 A 
ATOM     65  C   UNL     1      12.100  -4.068 -14.860  1.00  0.00     0.001 A 
ATOM     66  C   UNL     1      13.136  -4.868 -14.381  1.00  0.00     0.000 A 
ENDBRANCH  47  61
BRANCH  48  67
ATOM     67  C   UNL     1       1.091  -9.231 -14.706  1.00  0.00    -0.014 A 
ATOM     68  C   UNL     1       0.774 -10.484 -15.254  1.00  0.00     0.009 A 
ATOM     69  C   UNL     1       0.054  -8.436 -14.192  1.00  0.00     0.009 A 
ATOM     70  C   UNL     1      -0.553 -10.916 -15.315  1.00  0.00     0.001 A 
ATOM     71  C   UNL     1      -1.268  -8.885 -14.225  1.00  0.00     0.001 A 
ATOM     72  C   UNL     1      -1.572 -10.119 -14.797  1.00  0.00     0.000 A 
ENDBRANCH  48  67
BRANCH  60  73
ATOM     73  C   UNL     1       5.654  -7.435 -19.650  1.00  0.00    -0.014 A 
ATOM     74  C   UNL     1       4.869  -6.494 -20.334  1.00  0.00     0.009 A 
ATOM     75  C   UNL     1       6.409  -8.359 -20.389  1.00  0.00     0.009 A 
ATOM     76  C   UNL     1       4.815  -6.504 -21.729  1.00  0.00     0.001 A 
ATOM     77  C   UNL     1       6.380  -8.344 -21.783  1.00  0.00     0.001 A 
ATOM     78  C   UNL     1       5.574  -7.424 -22.451  1.00  0.00     0.000 A 
ENDBRANCH  60  73
ENDBRANCH  34  35
ENDBRANCH  26  29
ENDBRANCH  24  25
ENDBRANCH  23  24
ENDBRANCH   1  23
TORSDOF 15
