REMARK SMILES C[C@H]1CCN1c1cc(C(=O)NCCCNC(=O)c2ccc(-c3c4nc(c(-c5ccccc5)c5ccc([nH]5)c(-c5ccccc5)c5nc(c(-c6ccccc6)c6ccc3[nH]6)C=C5)C=C4)cc2)ccc1Cl
REMARK SMILES IDX 13 1 12 2 11 3 9 4 10 5 8 7 6 8 7 9 68 10 67 11 69 12 66 13
REMARK SMILES IDX 5 14 1 15 2 16 3 17 4 18 14 19 15 20 16 21 17 23 18 24 19 25
REMARK SMILES IDX 65 26 20 27 64 28 21 29 22 30 23 31 58 32 24 33 63 34 57 35
REMARK SMILES IDX 59 36 25 37 62 38 56 39 55 40 26 42 48 43 33 44 47 45 34 46
REMARK SMILES IDX 37 47 46 48 60 49 35 50 36 51 45 53 61 54 38 55 27 56 28 57
REMARK SMILES IDX 32 58 29 59 31 60 30 61 49 62 50 63 54 64 51 65 53 66 52 67
REMARK SMILES IDX 39 68 40 69 44 70 41 71 43 72 42 73
REMARK H PARENT 11 6 15 22 59 41 37 52
REMARK Flexibility Score: inf
ROOT
ATOM      1  C   UNL     1       5.516   1.837   7.795  1.00  0.00     0.042 C 
ENDROOT
BRANCH   1   2
ATOM      2  C   UNL     1       4.138   1.211   7.576  1.00  0.00     0.118 C 
BRANCH   2   3
ATOM      3  N   UNL     1       3.147   2.228   7.279  1.00  0.00    -0.352 N 
ATOM      4  C   UNL     1       2.576   2.670   6.116  1.00  0.00     0.251 C 
ATOM      5  O   UNL     1       1.724   3.555   6.218  1.00  0.00    -0.269 OA
ATOM      6  H   UNL     1       2.817   2.696   8.080  1.00  0.00     0.163 HD
BRANCH   4   7
ATOM      7  C   UNL     1       2.891   2.125   4.764  1.00  0.00     0.041 A 
ATOM      8  C   UNL     1       2.064   1.824   2.456  1.00  0.00     0.057 A 
ATOM      9  C   UNL     1       1.903   2.286   3.777  1.00  0.00     0.041 A 
ATOM     10  C   UNL     1       3.264   1.175   2.134  1.00  0.00     0.064 A 
ATOM     11  C   UNL     1       4.271   1.039   3.098  1.00  0.00     0.023 A 
ATOM     12  Cl  UNL     1       3.647   0.623   0.543  1.00  0.00    -0.082 Cl
ATOM     13  C   UNL     1       4.096   1.532   4.396  1.00  0.00     0.015 A 
BRANCH   8  14
ATOM     14  N   UNL     1       1.019   2.110   1.560  1.00  0.00    -0.367 N 
ATOM     15  C   UNL     1      -0.898   0.754   0.933  1.00  0.00     0.031 C 
ATOM     16  C   UNL     1       0.406   1.396   0.484  1.00  0.00     0.081 C 
ATOM     17  C   UNL     1       0.265   2.737  -0.250  1.00  0.00     0.046 C 
ATOM     18  C   UNL     1       0.691   3.409   1.052  1.00  0.00     0.119 C 
ENDBRANCH   8  14
ENDBRANCH   4   7
ENDBRANCH   2   3
ENDBRANCH   1   2
BRANCH   1  19
ATOM     19  C   UNL     1       5.644   2.570   9.131  1.00  0.00     0.118 C 
BRANCH  19  20
ATOM     20  N   UNL     1       5.656   1.649  10.259  1.00  0.00    -0.352 N 
ATOM     21  C   UNL     1       6.606   1.441  11.226  1.00  0.00     0.251 C 
ATOM     22  H   UNL     1       4.853   1.085  10.340  1.00  0.00     0.163 HD
ATOM     23  O   UNL     1       6.519   0.458  11.955  1.00  0.00    -0.269 OA
BRANCH  21  24
ATOM     24  C   UNL     1       7.737   2.381  11.399  1.00  0.00     0.039 A 
ATOM     25  C   UNL     1       9.001   1.861  11.697  1.00  0.00     0.014 A 
ATOM     26  C   UNL     1       7.550   3.764  11.338  1.00  0.00     0.014 A 
ATOM     27  C   UNL     1      10.084   2.723  11.884  1.00  0.00     0.010 A 
ATOM     28  C   UNL     1       8.642   4.621  11.461  1.00  0.00     0.010 A 
ATOM     29  C   UNL     1       9.918   4.110  11.743  1.00  0.00    -0.014 A 
BRANCH  29  30
ATOM     30  C   UNL     1      11.065   5.040  11.890  1.00  0.00     0.031 A 
ATOM     31  C   UNL     1      11.101   6.031  13.020  1.00  0.00     0.074 A 
ATOM     32  C   UNL     1      12.048   5.037  10.969  1.00  0.00     0.049 A 
ATOM     33  N   UNL     1      11.985   6.963  13.275  1.00  0.00    -0.248 NA
ATOM     34  C   UNL     1       9.984   5.983  13.976  1.00  0.00     0.031 C 
ATOM     35  C   UNL     1      12.119   4.146   9.809  1.00  0.00     0.029 A 
ATOM     36  N   UNL     1      13.173   5.814  10.862  1.00  0.00    -0.354 N 
ATOM     37  C   UNL     1      11.521   7.624  14.405  1.00  0.00     0.074 A 
ATOM     38  C   UNL     1      10.257   7.016  14.760  1.00  0.00     0.031 C 
ATOM     39  C   UNL     1      13.243   4.407   9.124  1.00  0.00     0.029 A 
ATOM     40  C   UNL     1      13.950   5.508   9.771  1.00  0.00     0.049 A 
ATOM     41  H   UNL     1      13.402   6.523  11.505  1.00  0.00     0.167 HD
ATOM     42  C   UNL     1      12.100   8.636  15.095  1.00  0.00     0.031 A 
ATOM     43  C   UNL     1      15.101   6.054   9.338  1.00  0.00     0.031 A 
ATOM     44  C   UNL     1      13.361   9.237  14.749  1.00  0.00     0.049 A 
ATOM     45  C   UNL     1      15.716   7.187  10.108  1.00  0.00     0.074 A 
ATOM     46  C   UNL     1      14.057  10.230  15.416  1.00  0.00     0.029 A 
ATOM     47  N   UNL     1      14.113   8.901  13.633  1.00  0.00    -0.354 N 
ATOM     48  N   UNL     1      15.292   7.765  11.206  1.00  0.00    -0.248 NA
ATOM     49  C   UNL     1      16.972   7.738   9.581  1.00  0.00     0.031 C 
ATOM     50  C   UNL     1      15.209  10.527  14.678  1.00  0.00     0.029 A 
ATOM     51  C   UNL     1      15.254   9.684  13.580  1.00  0.00     0.049 A 
ATOM     52  H   UNL     1      13.871   8.209  12.976  1.00  0.00     0.167 HD
ATOM     53  C   UNL     1      16.242   8.729  11.516  1.00  0.00     0.074 A 
ATOM     54  C   UNL     1      17.269   8.650  10.496  1.00  0.00     0.031 C 
ATOM     55  C   UNL     1      16.263   9.599  12.555  1.00  0.00     0.031 A 
BRANCH  42  56
ATOM     56  C   UNL     1      11.355   9.165  16.291  1.00  0.00    -0.014 A 
ATOM     57  C   UNL     1      11.219   8.400  17.461  1.00  0.00     0.009 A 
ATOM     58  C   UNL     1      10.789  10.448  16.250  1.00  0.00     0.009 A 
ATOM     59  C   UNL     1      10.489   8.890  18.546  1.00  0.00     0.001 A 
ATOM     60  C   UNL     1      10.086  10.948  17.348  1.00  0.00     0.001 A 
ATOM     61  C   UNL     1       9.925  10.164  18.489  1.00  0.00     0.000 A 
ENDBRANCH  42  56
BRANCH  43  62
ATOM     62  C   UNL     1      15.763   5.511   8.124  1.00  0.00    -0.014 A 
ATOM     63  C   UNL     1      16.930   4.742   8.242  1.00  0.00     0.009 A 
ATOM     64  C   UNL     1      15.225   5.741   6.849  1.00  0.00     0.009 A 
ATOM     65  C   UNL     1      17.555   4.226   7.105  1.00  0.00     0.001 A 
ATOM     66  C   UNL     1      15.838   5.203   5.716  1.00  0.00     0.001 A 
ATOM     67  C   UNL     1      17.005   4.451   5.844  1.00  0.00     0.000 A 
ENDBRANCH  43  62
BRANCH  55  68
ATOM     68  C   UNL     1      17.449  10.515  12.656  1.00  0.00    -0.014 A 
ATOM     69  C   UNL     1      17.604  11.604  11.786  1.00  0.00     0.009 A 
ATOM     70  C   UNL     1      18.406  10.303  13.661  1.00  0.00     0.009 A 
ATOM     71  C   UNL     1      18.712  12.446  11.901  1.00  0.00     0.001 A 
ATOM     72  C   UNL     1      19.499  11.162  13.790  1.00  0.00     0.001 A 
ATOM     73  C   UNL     1      19.655  12.227  12.905  1.00  0.00     0.000 A 
ENDBRANCH  55  68
ENDBRANCH  29  30
ENDBRANCH  21  24
ENDBRANCH  19  20
ENDBRANCH   1  19
TORSDOF 11
