REMARK SMILES Cc1cc([C@@H](C)NC(=O)N[C@H]2C=C[C@@H](C(=O)NCCCNC(=O)c3ccc(-c4c5nc(c(-c6ccccc6)c6ccc([nH]6)c(-c6ccccc6)c6nc(c(-c7ccccc7)c7ccc4[nH]7)C=C6)C=C5)cc3)C2)c(C)s1
REMARK SMILES IDX 18 1 17 2 15 3 16 4 14 6 11 7 12 8 72 9 13 10 10 11 7 12
REMARK SMILES IDX 8 13 9 15 5 17 6 18 4 19 1 20 2 21 3 22 75 23 73 24 74 25
REMARK SMILES IDX 19 26 20 27 21 28 22 29 23 31 24 32 25 33 71 34 26 35 70 36
REMARK SMILES IDX 27 37 28 38 29 39 64 40 30 41 69 42 63 43 65 44 31 45 68 46
REMARK SMILES IDX 62 47 61 48 32 50 54 51 39 52 53 53 40 54 43 55 52 56 66 57
REMARK SMILES IDX 41 58 42 59 51 61 67 62 44 63 33 64 34 65 38 66 35 67 37 68
REMARK SMILES IDX 36 69 55 70 56 71 60 72 57 73 59 74 58 75 45 76 46 77 50 78
REMARK SMILES IDX 47 79 49 80 48 81
REMARK H PARENT 17 5 7 14 10 16 21 30 65 49 43 60
REMARK Flexibility Score: inf
ROOT
ATOM      1  C   UNL     1      -1.995  -4.818   3.442  1.00  0.00     0.117 C 
ENDROOT
BRANCH   1   2
ATOM      2  N   UNL     1      -3.017  -4.204   2.620  1.00  0.00    -0.356 N 
ATOM      3  C   UNL     1      -3.242  -4.293   1.283  1.00  0.00     0.227 C 
ATOM      4  O   UNL     1      -4.221  -3.687   0.835  1.00  0.00    -0.274 OA
ATOM      5  H   UNL     1      -3.650  -3.629   3.108  1.00  0.00     0.163 HD
BRANCH   3   6
ATOM      6  C   UNL     1      -2.288  -5.015   0.327  1.00  0.00     0.103 C 
ATOM      7  C   UNL     1       0.189  -5.201   0.307  1.00  0.00     0.107 C 
ATOM      8  C   UNL     1      -0.492  -6.499   0.628  1.00  0.00    -0.006 C 
ATOM      9  C   UNL     1      -0.988  -4.235   0.154  1.00  0.00     0.047 C 
ATOM     10  C   UNL     1      -1.828  -6.395   0.661  1.00  0.00    -0.016 C 
BRANCH   7  11
ATOM     11  N   UNL     1       1.070  -4.858   1.403  1.00  0.00    -0.332 N 
ATOM     12  N   UNL     1       2.146  -2.813   0.853  1.00  0.00    -0.332 N 
ATOM     13  C   UNL     1       1.916  -3.855   1.654  1.00  0.00     0.315 C 
ATOM     14  H   UNL     1       2.793  -2.185   1.247  1.00  0.00     0.165 HD
ATOM     15  O   UNL     1       2.529  -3.894   2.725  1.00  0.00    -0.249 OA
ATOM     16  H   UNL     1       1.039  -5.518   2.133  1.00  0.00     0.165 HD
BRANCH  12  17
ATOM     17  C   UNL     1       1.684  -2.366  -0.452  1.00  0.00     0.112 C 
ATOM     18  C   UNL     1       2.823  -2.335  -1.465  1.00  0.00     0.036 C 
BRANCH  17  19
ATOM     19  C   UNL     1       0.962  -1.040  -0.269  1.00  0.00    -0.012 A 
ATOM     20  C   UNL     1      -2.387   0.759  -0.058  1.00  0.00     0.056 C 
ATOM     21  C   UNL     1      -0.961   0.329  -0.101  1.00  0.00     0.002 A 
ATOM     22  C   UNL     1      -0.464  -0.908  -0.436  1.00  0.00     0.021 A 
ATOM     23  S   UNL     1       0.295   1.408   0.272  1.00  0.00    -0.146 S 
ATOM     24  C   UNL     1       1.502   0.197   0.074  1.00  0.00     0.007 A 
ATOM     25  C   UNL     1       2.922   0.612   0.279  1.00  0.00     0.057 C 
ENDBRANCH  17  19
ENDBRANCH  12  17
ENDBRANCH   7  11
ENDBRANCH   3   6
ENDBRANCH   1   2
BRANCH   1  26
ATOM     26  C   UNL     1      -1.219  -3.809   4.272  1.00  0.00     0.042 C 
BRANCH  26  27
ATOM     27  C   UNL     1      -2.054  -3.112   5.335  1.00  0.00     0.118 C 
BRANCH  27  28
ATOM     28  N   UNL     1      -2.667  -4.048   6.270  1.00  0.00    -0.352 N 
ATOM     29  C   UNL     1      -2.494  -4.191   7.620  1.00  0.00     0.251 C 
ATOM     30  H   UNL     1      -3.306  -4.678   5.866  1.00  0.00     0.163 HD
ATOM     31  O   UNL     1      -2.941  -5.194   8.185  1.00  0.00    -0.269 OA
BRANCH  29  32
ATOM     32  C   UNL     1      -1.788  -3.163   8.407  1.00  0.00     0.039 A 
ATOM     33  C   UNL     1      -0.975  -3.561   9.472  1.00  0.00     0.014 A 
ATOM     34  C   UNL     1      -1.968  -1.804   8.138  1.00  0.00     0.014 A 
ATOM     35  C   UNL     1      -0.321  -2.599  10.243  1.00  0.00     0.010 A 
ATOM     36  C   UNL     1      -1.241  -0.852   8.842  1.00  0.00     0.010 A 
ATOM     37  C   UNL     1      -0.436  -1.237   9.923  1.00  0.00    -0.014 A 
BRANCH  37  38
ATOM     38  C   UNL     1       0.219  -0.192  10.746  1.00  0.00     0.031 A 
ATOM     39  C   UNL     1      -0.623   0.810  11.489  1.00  0.00     0.074 A 
ATOM     40  C   UNL     1       1.562  -0.113  10.787  1.00  0.00     0.049 A 
ATOM     41  N   UNL     1      -0.245   1.828  12.221  1.00  0.00    -0.248 NA
ATOM     42  C   UNL     1      -2.084   0.670  11.370  1.00  0.00     0.031 C 
ATOM     43  C   UNL     1       2.488  -0.999  10.079  1.00  0.00     0.029 A 
ATOM     44  N   UNL     1       2.382   0.759  11.456  1.00  0.00    -0.354 N 
ATOM     45  C   UNL     1      -1.417   2.458  12.623  1.00  0.00     0.074 A 
ATOM     46  C   UNL     1      -2.515   1.746  12.009  1.00  0.00     0.031 C 
ATOM     47  C   UNL     1       3.749  -0.646  10.379  1.00  0.00     0.029 A 
ATOM     48  C   UNL     1       3.719   0.511  11.268  1.00  0.00     0.049 A 
ATOM     49  H   UNL     1       2.043   1.494  12.018  1.00  0.00     0.167 HD
ATOM     50  C   UNL     1      -1.571   3.518  13.451  1.00  0.00     0.031 A 
ATOM     51  C   UNL     1       4.799   1.143  11.762  1.00  0.00     0.031 A 
ATOM     52  C   UNL     1      -0.481   4.213  14.079  1.00  0.00     0.049 A 
ATOM     53  C   UNL     1       4.603   2.310  12.691  1.00  0.00     0.074 A 
ATOM     54  C   UNL     1      -0.528   5.270  14.971  1.00  0.00     0.029 A 
ATOM     55  N   UNL     1       0.859   3.913  13.883  1.00  0.00    -0.354 N 
ATOM     56  N   UNL     1       3.487   2.858  13.108  1.00  0.00    -0.248 NA
ATOM     57  C   UNL     1       5.819   2.929  13.234  1.00  0.00     0.031 C 
ATOM     58  C   UNL     1       0.786   5.635  15.284  1.00  0.00     0.029 A 
ATOM     59  C   UNL     1       1.648   4.769  14.631  1.00  0.00     0.049 A 
ATOM     60  H   UNL     1       1.198   3.197  13.298  1.00  0.00     0.167 HD
ATOM     61  C   UNL     1       3.865   3.860  13.992  1.00  0.00     0.074 A 
ATOM     62  C   UNL     1       5.312   3.834  14.059  1.00  0.00     0.031 C 
ATOM     63  C   UNL     1       3.086   4.722  14.690  1.00  0.00     0.031 A 
BRANCH  50  64
ATOM     64  C   UNL     1      -2.976   3.986  13.718  1.00  0.00    -0.014 A 
ATOM     65  C   UNL     1      -3.874   3.206  14.465  1.00  0.00     0.009 A 
ATOM     66  C   UNL     1      -3.405   5.229  13.227  1.00  0.00     0.009 A 
ATOM     67  C   UNL     1      -5.185   3.640  14.677  1.00  0.00     0.001 A 
ATOM     68  C   UNL     1      -4.706   5.675  13.467  1.00  0.00     0.001 A 
ATOM     69  C   UNL     1      -5.598   4.876  14.181  1.00  0.00     0.000 A 
ENDBRANCH  50  64
BRANCH  51  70
ATOM     70  C   UNL     1       6.164   0.664  11.424  1.00  0.00    -0.014 A 
ATOM     71  C   UNL     1       6.957   0.034  12.397  1.00  0.00     0.009 A 
ATOM     72  C   UNL     1       6.686   0.840  10.134  1.00  0.00     0.009 A 
ATOM     73  C   UNL     1       8.256  -0.379  12.094  1.00  0.00     0.001 A 
ATOM     74  C   UNL     1       7.975   0.399   9.825  1.00  0.00     0.001 A 
ATOM     75  C   UNL     1       8.762  -0.200  10.808  1.00  0.00     0.000 A 
ENDBRANCH  51  70
BRANCH  63  76
ATOM     76  C   UNL     1       3.783   5.665  15.630  1.00  0.00    -0.014 A 
ATOM     77  C   UNL     1       4.556   6.737  15.159  1.00  0.00     0.009 A 
ATOM     78  C   UNL     1       3.641   5.485  17.015  1.00  0.00     0.009 A 
ATOM     79  C   UNL     1       5.212   7.581  16.058  1.00  0.00     0.001 A 
ATOM     80  C   UNL     1       4.271   6.349  17.911  1.00  0.00     0.001 A 
ATOM     81  C   UNL     1       5.067   7.388  17.431  1.00  0.00     0.000 A 
ENDBRANCH  63  76
ENDBRANCH  37  38
ENDBRANCH  29  32
ENDBRANCH  27  28
ENDBRANCH  26  27
ENDBRANCH   1  26
TORSDOF 13
