REMARK SMILES Cc1cc([C@@H]2[C@H](C(=O)NCCCNC(=O)c3ccc(-c4c5nc(c(-c6ccccc6)c6ccc([nH]6)c(-c6ccccc6)c6nc(c(-c7ccccc7)c7ccc4[nH]7)C=C6)C=C5)cc3)CCCC(=O)N2C)ccc1Br
REMARK SMILES IDX 10 1 9 2 7 3 8 4 6 6 5 7 4 8 1 9 2 10 3 11 73 12 72 13 74 14
REMARK SMILES IDX 71 15 69 16 70 17 67 18 68 19 66 20 64 22 65 23 11 25 12 26
REMARK SMILES IDX 13 27 14 28 15 30 16 31 17 32 63 33 18 34 62 35 19 36 20 37
REMARK SMILES IDX 21 38 56 39 22 40 61 41 55 42 57 43 23 44 60 45 54 46 53 47
REMARK SMILES IDX 24 49 46 50 31 51 45 52 32 53 35 54 44 55 58 56 33 57 34 58
REMARK SMILES IDX 43 60 59 61 36 62 25 63 26 64 30 65 27 66 29 67 28 68 47 69
REMARK SMILES IDX 48 70 52 71 49 72 51 73 50 74 37 75 38 76 42 77 39 78 41 79
REMARK SMILES IDX 40 80
REMARK H PARENT 9 5 13 29 57 48 35 59
REMARK Flexibility Score: 90.00
ROOT
ATOM      1  C   UNL     1       6.520  -2.717   0.654  1.00  0.00     0.117 C 
ENDROOT
BRANCH   1   2
ATOM      2  N   UNL     1       5.450  -2.869  -0.301  1.00  0.00    -0.356 N 
ATOM      3  C   UNL     1       5.018  -2.049  -1.290  1.00  0.00     0.225 C 
ATOM      4  O   UNL     1       4.405  -2.614  -2.206  1.00  0.00    -0.275 OA
ATOM      5  H   UNL     1       4.949  -3.713  -0.222  1.00  0.00     0.163 HD
BRANCH   3   6
ATOM      6  C   UNL     1       5.177  -0.523  -1.335  1.00  0.00     0.105 C 
BRANCH   6   7
ATOM      7  C   UNL     1       4.605   0.331  -0.187  1.00  0.00     0.127 C 
BRANCH   7   8
ATOM      8  C   UNL     1       3.060   0.273  -0.140  1.00  0.00    -0.024 A 
ATOM      9  C   UNL     1       0.227  -2.295  -0.015  1.00  0.00     0.045 C 
ATOM     10  C   UNL     1       0.929  -0.964  -0.044  1.00  0.00    -0.037 A 
ATOM     11  C   UNL     1       2.337  -0.934  -0.072  1.00  0.00     0.010 A 
ATOM     12  C   UNL     1       0.235   0.251  -0.051  1.00  0.00     0.020 A 
ATOM     13  C   UNL     1       0.931   1.460  -0.093  1.00  0.00     0.016 A 
ATOM     14  Br  UNL     1      -1.662   0.327   0.005  1.00  0.00    -0.051 Br
ATOM     15  C   UNL     1       2.328   1.471  -0.141  1.00  0.00     0.007 A 
ENDBRANCH   7   8
BRANCH   7  16
ATOM     16  N   UNL     1       5.267   0.248   1.127  1.00  0.00    -0.338 N 
ATOM     17  C   UNL     1       4.405   0.217   2.318  1.00  0.00     0.147 C 
BRANCH  16  18
ATOM     18  C   UNL     1       6.575   0.639   1.366  1.00  0.00     0.222 C 
ATOM     19  O   UNL     1       6.908   1.021   2.498  1.00  0.00    -0.275 OA
BRANCH  18  20
ATOM     20  C   UNL     1       7.695   0.624   0.325  1.00  0.00     0.100 CG0
ATOM     21  G   UNL     1       7.717  -0.066  -1.030  1.00  0.00     0.000 G0
ENDBRANCH  18  20
ENDBRANCH  16  18
ENDBRANCH   7  16
ENDBRANCH   6   7
BRANCH   6  22
ATOM     22  C   UNL     1       6.489   0.018  -1.898  1.00  0.00     0.016 C 
BRANCH  22  23
ATOM     23  C   UNL     1       7.717  -0.066  -1.030  1.00  0.00     0.011 CG0
ATOM     24  G   UNL     1       7.695   0.624   0.325  1.00  0.00     0.000 G0
ENDBRANCH  22  23
ENDBRANCH   6  22
ENDBRANCH   3   6
ENDBRANCH   1   2
BRANCH   1  25
ATOM     25  C   UNL     1       6.092  -2.733   2.105  1.00  0.00     0.042 C 
BRANCH  25  26
ATOM     26  C   UNL     1       6.362  -4.052   2.795  1.00  0.00     0.118 C 
BRANCH  26  27
ATOM     27  N   UNL     1       7.785  -4.348   2.932  1.00  0.00    -0.352 N 
ATOM     28  C   UNL     1       8.549  -4.575   4.056  1.00  0.00     0.251 C 
ATOM     29  H   UNL     1       8.280  -4.393   2.082  1.00  0.00     0.163 HD
ATOM     30  O   UNL     1       9.763  -4.671   3.955  1.00  0.00    -0.269 OA
BRANCH  28  31
ATOM     31  C   UNL     1       7.905  -4.676   5.385  1.00  0.00     0.039 A 
ATOM     32  C   UNL     1       8.550  -4.135   6.500  1.00  0.00     0.014 A 
ATOM     33  C   UNL     1       6.664  -5.293   5.534  1.00  0.00     0.014 A 
ATOM     34  C   UNL     1       7.910  -4.149   7.743  1.00  0.00     0.010 A 
ATOM     35  C   UNL     1       5.971  -5.174   6.729  1.00  0.00     0.010 A 
ATOM     36  C   UNL     1       6.596  -4.630   7.858  1.00  0.00    -0.014 A 
BRANCH  36  37
ATOM     37  C   UNL     1       5.865  -4.626   9.150  1.00  0.00     0.031 A 
ATOM     38  C   UNL     1       5.350  -5.924   9.720  1.00  0.00     0.074 A 
ATOM     39  C   UNL     1       5.601  -3.462   9.774  1.00  0.00     0.049 A 
ATOM     40  N   UNL     1       4.615  -6.128  10.784  1.00  0.00    -0.248 NA
ATOM     41  C   UNL     1       5.667  -7.154   8.971  1.00  0.00     0.031 C 
ATOM     42  C   UNL     1       5.997  -2.133   9.301  1.00  0.00     0.029 A 
ATOM     43  N   UNL     1       4.931  -3.210  10.944  1.00  0.00    -0.354 N 
ATOM     44  C   UNL     1       4.363  -7.494  10.810  1.00  0.00     0.074 A 
ATOM     45  C   UNL     1       4.955  -8.060   9.621  1.00  0.00     0.031 C 
ATOM     46  C   UNL     1       5.603  -1.212  10.196  1.00  0.00     0.029 A 
ATOM     47  C   UNL     1       4.885  -1.877  11.277  1.00  0.00     0.049 A 
ATOM     48  H   UNL     1       4.522  -3.917  11.494  1.00  0.00     0.167 HD
ATOM     49  C   UNL     1       3.725  -8.223  11.755  1.00  0.00     0.031 A 
ATOM     50  C   UNL     1       4.324  -1.262  12.335  1.00  0.00     0.031 A 
ATOM     51  C   UNL     1       3.163  -7.663  12.953  1.00  0.00     0.049 A 
ATOM     52  C   UNL     1       3.619  -2.091  13.373  1.00  0.00     0.074 A 
ATOM     53  C   UNL     1       2.549  -8.319  14.005  1.00  0.00     0.029 A 
ATOM     54  N   UNL     1       3.151  -6.311  13.258  1.00  0.00    -0.354 N 
ATOM     55  N   UNL     1       3.447  -3.390  13.416  1.00  0.00    -0.248 NA
ATOM     56  C   UNL     1       3.042  -1.368  14.515  1.00  0.00     0.031 C 
ATOM     57  C   UNL     1       2.118  -7.356  14.924  1.00  0.00     0.029 A 
ATOM     58  C   UNL     1       2.521  -6.109  14.473  1.00  0.00     0.049 A 
ATOM     59  H   UNL     1       3.535  -5.601  12.694  1.00  0.00     0.167 HD
ATOM     60  C   UNL     1       2.769  -3.644  14.602  1.00  0.00     0.074 A 
ATOM     61  C   UNL     1       2.579  -2.365  15.256  1.00  0.00     0.031 C 
ATOM     62  C   UNL     1       2.343  -4.827  15.106  1.00  0.00     0.031 A 
BRANCH  49  63
ATOM     63  C   UNL     1       3.611  -9.706  11.526  1.00  0.00    -0.014 A 
ATOM     64  C   UNL     1       4.743 -10.538  11.549  1.00  0.00     0.009 A 
ATOM     65  C   UNL     1       2.352 -10.284  11.303  1.00  0.00     0.009 A 
ATOM     66  C   UNL     1       4.623 -11.908  11.307  1.00  0.00     0.001 A 
ATOM     67  C   UNL     1       2.230 -11.660  11.096  1.00  0.00     0.001 A 
ATOM     68  C   UNL     1       3.366 -12.468  11.086  1.00  0.00     0.000 A 
ENDBRANCH  49  63
BRANCH  50  69
ATOM     69  C   UNL     1       4.426   0.215  12.481  1.00  0.00    -0.014 A 
ATOM     70  C   UNL     1       5.219   0.777  13.494  1.00  0.00     0.009 A 
ATOM     71  C   UNL     1       3.732   1.072  11.612  1.00  0.00     0.009 A 
ATOM     72  C   UNL     1       5.291   2.164  13.651  1.00  0.00     0.001 A 
ATOM     73  C   UNL     1       3.832   2.458  11.752  1.00  0.00     0.001 A 
ATOM     74  C   UNL     1       4.602   3.002  12.778  1.00  0.00     0.000 A 
ENDBRANCH  50  69
BRANCH  62  75
ATOM     75  C   UNL     1       1.663  -4.800  16.446  1.00  0.00    -0.014 A 
ATOM     76  C   UNL     1       0.375  -4.267  16.602  1.00  0.00     0.009 A 
ATOM     77  C   UNL     1       2.309  -5.360  17.560  1.00  0.00     0.009 A 
ATOM     78  C   UNL     1      -0.239  -4.264  17.856  1.00  0.00     0.001 A 
ATOM     79  C   UNL     1       1.679  -5.386  18.805  1.00  0.00     0.001 A 
ATOM     80  C   UNL     1       0.410  -4.829  18.954  1.00  0.00     0.000 A 
ENDBRANCH  62  75
ENDBRANCH  36  37
ENDBRANCH  28  31
ENDBRANCH  26  27
ENDBRANCH  25  26
ENDBRANCH   1  25
TORSDOF 11
