REMARK SMILES COCC[C@@]1(C(=O)NCCCNC(=O)c2ccc(-c3c4nc(c(-c5ccccc5)c5ccc([nH]5)c(-c5ccccc5)c5nc(c(-c6ccccc6)c6ccc3[nH]6)C=C5)C=C4)cc2)CCC[N@@H+](Cc2cccc3c2OC(C)(C)C3)C1
REMARK SMILES IDX 9 1 8 2 6 3 7 4 5 6 63 7 79 8 64 9 66 10 65 11 4 13 3 14
REMARK SMILES IDX 2 15 1 16 67 17 68 18 69 19 73 20 70 21 72 22 74 23 71 24
REMARK SMILES IDX 78 25 75 26 76 27 77 28 10 29 11 30 12 31 13 32 14 34 15 35
REMARK SMILES IDX 16 36 62 37 17 38 61 39 18 40 19 41 20 42 55 43 21 44 60 45
REMARK SMILES IDX 54 46 56 47 22 48 59 49 53 50 52 51 23 53 45 54 30 55 44 56
REMARK SMILES IDX 31 57 34 58 43 59 57 60 32 61 33 62 42 64 58 65 35 66 24 67
REMARK SMILES IDX 25 68 29 69 26 70 28 71 27 72 46 73 47 74 51 75 48 76 50 77
REMARK SMILES IDX 49 78 36 79 37 80 41 81 38 82 40 83 39 84
REMARK H PARENT 8 5 66 12 12 33 56 52 34 63
REMARK Flexibility Score: inf
ROOT
ATOM      1  C   UNL     1       0.228   1.256   5.238  1.00  0.00     0.117 C 
ENDROOT
BRANCH   1   2
ATOM      2  N   UNL     1      -0.349   1.288   3.921  1.00  0.00    -0.355 N 
ATOM      3  C   UNL     1      -0.037   0.672   2.763  1.00  0.00     0.232 C 
ATOM      4  O   UNL     1      -0.681   1.119   1.799  1.00  0.00    -0.274 OA
ATOM      5  H   UNL     1      -1.132   1.880   3.851  1.00  0.00     0.163 HD
BRANCH   3   6
ATOM      6  C   UNL     1       1.079  -0.405   2.536  1.00  0.00     0.100 C 
ATOM      7  C   UNL     1       1.313  -1.436   3.677  1.00  0.00     0.029 C 
ATOM      8  C   UNL     1       2.378   0.406   2.180  1.00  0.00     0.279 C 
ATOM      9  C   UNL     1       2.476  -1.217   4.639  1.00  0.00     0.063 C 
ATOM     10  N   UNL     1       3.210   0.786   3.339  1.00  0.00    -0.330 N 
ATOM     11  C   UNL     1       3.628  -0.394   4.094  1.00  0.00     0.262 C 
ATOM     12  H   UNL     1       2.610   1.334   3.955  1.00  0.00     0.348 HD
BRANCH   6  13
ATOM     13  C   UNL     1       0.465  -1.289   1.337  1.00  0.00     0.051 C 
BRANCH  13  14
ATOM     14  C   UNL     1       1.252  -1.497   0.049  1.00  0.00     0.161 C 
BRANCH  14  15
ATOM     15  O   UNL     1       2.013  -2.703   0.079  1.00  0.00    -0.385 OA
ATOM     16  C   UNL     1       3.303  -2.544   0.632  1.00  0.00     0.194 C 
ENDBRANCH  14  15
ENDBRANCH  13  14
ENDBRANCH   6  13
BRANCH  10  17
ATOM     17  C   UNL     1       4.325   1.754   3.028  1.00  0.00     0.303 C 
BRANCH  17  18
ATOM     18  C   UNL     1       5.720   1.162   2.854  1.00  0.00     0.049 A 
ATOM     19  C   UNL     1       6.457   0.767   3.975  1.00  0.00     0.013 A 
ATOM     20  C   UNL     1       6.113   0.595   1.660  1.00  0.00     0.132 A 
ATOM     21  C   UNL     1       7.274  -0.372   3.906  1.00  0.00     0.001 A 
ATOM     22  C   UNL     1       6.714  -0.641   1.607  1.00  0.00    -0.001 A 
ATOM     23  O   UNL     1       6.351   1.298   0.500  1.00  0.00    -0.487 OA
ATOM     24  C   UNL     1       7.310  -1.151   2.741  1.00  0.00     0.008 A 
ATOM     25  C   UNL     1       6.686  -1.095   0.198  1.00  0.00     0.087 C 
ATOM     26  C   UNL     1       6.742   0.288  -0.487  1.00  0.00     0.108 C 
ATOM     27  C   UNL     1       8.169   0.420  -1.052  1.00  0.00     0.057 C 
ATOM     28  C   UNL     1       5.726   0.565  -1.594  1.00  0.00     0.057 C 
ENDBRANCH  17  18
ENDBRANCH  10  17
ENDBRANCH   3   6
ENDBRANCH   1   2
BRANCH   1  29
ATOM     29  C   UNL     1       1.396   2.220   5.364  1.00  0.00     0.042 C 
BRANCH  29  30
ATOM     30  C   UNL     1       1.039   3.528   6.038  1.00  0.00     0.118 C 
BRANCH  30  31
ATOM     31  N   UNL     1       0.609   3.345   7.415  1.00  0.00    -0.352 N 
ATOM     32  C   UNL     1       1.062   3.899   8.574  1.00  0.00     0.251 C 
ATOM     33  H   UNL     1      -0.137   2.713   7.529  1.00  0.00     0.163 HD
ATOM     34  O   UNL     1       0.636   3.444   9.649  1.00  0.00    -0.269 OA
BRANCH  32  35
ATOM     35  C   UNL     1       2.034   5.011   8.592  1.00  0.00     0.039 A 
ATOM     36  C   UNL     1       2.861   5.151   9.712  1.00  0.00     0.014 A 
ATOM     37  C   UNL     1       2.100   5.960   7.570  1.00  0.00     0.014 A 
ATOM     38  C   UNL     1       3.732   6.235   9.805  1.00  0.00     0.010 A 
ATOM     39  C   UNL     1       3.064   6.960   7.598  1.00  0.00     0.010 A 
ATOM     40  C   UNL     1       3.843   7.147   8.745  1.00  0.00    -0.014 A 
BRANCH  40  41
ATOM     41  C   UNL     1       4.677   8.366   8.866  1.00  0.00     0.031 A 
ATOM     42  C   UNL     1       4.023   9.725   8.795  1.00  0.00     0.074 A 
ATOM     43  C   UNL     1       6.009   8.255   9.021  1.00  0.00     0.049 A 
ATOM     44  N   UNL     1       4.572  10.911   8.864  1.00  0.00    -0.248 NA
ATOM     45  C   UNL     1       2.564   9.758   8.586  1.00  0.00     0.031 C 
ATOM     46  C   UNL     1       6.759   6.997   9.060  1.00  0.00     0.029 A 
ATOM     47  N   UNL     1       6.969   9.220   9.186  1.00  0.00    -0.354 N 
ATOM     48  C   UNL     1       3.534  11.817   8.677  1.00  0.00     0.074 A 
ATOM     49  C   UNL     1       2.337  11.051   8.424  1.00  0.00     0.031 C 
ATOM     50  C   UNL     1       8.055   7.267   9.283  1.00  0.00     0.029 A 
ATOM     51  C   UNL     1       8.232   8.712   9.363  1.00  0.00     0.049 A 
ATOM     52  H   UNL     1       6.771  10.184   9.177  1.00  0.00     0.167 HD
ATOM     53  C   UNL     1       3.563  13.169   8.744  1.00  0.00     0.031 A 
ATOM     54  C   UNL     1       9.400   9.347   9.574  1.00  0.00     0.031 A 
ATOM     55  C   UNL     1       4.749  13.926   9.034  1.00  0.00     0.049 A 
ATOM     56  C   UNL     1       9.403  10.848   9.666  1.00  0.00     0.074 A 
ATOM     57  C   UNL     1       4.885  15.294   9.184  1.00  0.00     0.029 A 
ATOM     58  N   UNL     1       6.005  13.372   9.228  1.00  0.00    -0.354 N 
ATOM     59  N   UNL     1       8.401  11.687   9.552  1.00  0.00    -0.248 NA
ATOM     60  C   UNL     1      10.697  11.486   9.941  1.00  0.00     0.031 C 
ATOM     61  C   UNL     1       6.234  15.572   9.421  1.00  0.00     0.029 A 
ATOM     62  C   UNL     1       6.925  14.372   9.483  1.00  0.00     0.049 A 
ATOM     63  H   UNL     1       6.211  12.410   9.190  1.00  0.00     0.167 HD
ATOM     64  C   UNL     1       8.937  12.948   9.778  1.00  0.00     0.074 A 
ATOM     65  C   UNL     1      10.346  12.759  10.054  1.00  0.00     0.031 C 
ATOM     66  C   UNL     1       8.321  14.156   9.762  1.00  0.00     0.031 A 
BRANCH  53  67
ATOM     67  C   UNL     1       2.275  13.908   8.503  1.00  0.00    -0.014 A 
ATOM     68  C   UNL     1       1.208  13.835   9.414  1.00  0.00     0.009 A 
ATOM     69  C   UNL     1       2.134  14.711   7.361  1.00  0.00     0.009 A 
ATOM     70  C   UNL     1       0.015  14.519   9.167  1.00  0.00     0.001 A 
ATOM     71  C   UNL     1       0.953  15.421   7.133  1.00  0.00     0.001 A 
ATOM     72  C   UNL     1      -0.109  15.316   8.030  1.00  0.00     0.000 A 
ENDBRANCH  53  67
BRANCH  54  73
ATOM     73  C   UNL     1      10.656   8.569   9.746  1.00  0.00    -0.014 A 
ATOM     74  C   UNL     1      11.306   8.525  10.989  1.00  0.00     0.009 A 
ATOM     75  C   UNL     1      11.221   7.878   8.662  1.00  0.00     0.009 A 
ATOM     76  C   UNL     1      12.515   7.841  11.133  1.00  0.00     0.001 A 
ATOM     77  C   UNL     1      12.413   7.167   8.818  1.00  0.00     0.001 A 
ATOM     78  C   UNL     1      13.066   7.160  10.049  1.00  0.00     0.000 A 
ENDBRANCH  54  73
BRANCH  66  79
ATOM     79  C   UNL     1       9.159  15.355  10.106  1.00  0.00    -0.014 A 
ATOM     80  C   UNL     1      10.158  15.827   9.241  1.00  0.00     0.009 A 
ATOM     81  C   UNL     1       8.924  16.036  11.311  1.00  0.00     0.009 A 
ATOM     82  C   UNL     1      10.937  16.928   9.599  1.00  0.00     0.001 A 
ATOM     83  C   UNL     1       9.679  17.158  11.650  1.00  0.00     0.001 A 
ATOM     84  C   UNL     1      10.694  17.594  10.801  1.00  0.00     0.000 A 
ENDBRANCH  66  79
ENDBRANCH  40  41
ENDBRANCH  32  35
ENDBRANCH  30  31
ENDBRANCH  29  30
ENDBRANCH   1  29
TORSDOF 15
