REMARK SMILES Cc1ccc([C@@H](Cc2cccs2)C(=O)NCCCNC(=O)c2ccc(-c3c4nc(c(-c5ccccc5)c5ccc([nH]5)c(-c5ccccc5)c5nc(c(-c6ccccc6)c6ccc3[nH]6)C=C5)C=C4)cc2)cc1
REMARK SMILES IDX 17 1 16 2 15 3 13 4 14 5 6 7 5 8 1 9 2 10 3 11 71 12 4 13
REMARK SMILES IDX 70 14 7 15 8 16 9 17 12 18 10 19 11 20 18 21 19 22 20 23
REMARK SMILES IDX 21 25 22 26 23 27 69 28 24 29 68 30 25 31 26 32 27 33 62 34
REMARK SMILES IDX 28 35 67 36 61 37 63 38 29 39 66 40 60 41 59 42 30 44 52 45
REMARK SMILES IDX 37 46 51 47 38 48 41 49 50 50 64 51 39 52 40 53 49 55 65 56
REMARK SMILES IDX 42 57 31 58 32 59 36 60 33 61 35 62 34 63 53 64 54 65 58 66
REMARK SMILES IDX 55 67 57 68 56 69 43 70 44 71 48 72 45 73 47 74 46 75
REMARK H PARENT 15 6 19 24 63 43 41 54
REMARK Flexibility Score: inf
ROOT
ATOM      1  C   UNL     1      -1.853  -3.213   1.400  1.00  0.00     0.042 C 
ENDROOT
BRANCH   1   2
ATOM      2  C   UNL     1      -3.295  -2.923   1.036  1.00  0.00     0.117 C 
BRANCH   2   3
ATOM      3  N   UNL     1      -3.742  -1.604   1.434  1.00  0.00    -0.355 N 
ATOM      4  C   UNL     1      -3.732  -0.390   0.833  1.00  0.00     0.227 C 
ATOM      5  O   UNL     1      -4.288   0.515   1.475  1.00  0.00    -0.274 OA
ATOM      6  H   UNL     1      -4.139  -1.586   2.335  1.00  0.00     0.163 HD
BRANCH   4   7
ATOM      7  C   UNL     1      -3.076  -0.052  -0.517  1.00  0.00     0.113 C 
BRANCH   7   8
ATOM      8  C   UNL     1      -1.563   0.144  -0.418  1.00  0.00    -0.035 A 
ATOM      9  C   UNL     1       2.712   0.741   0.077  1.00  0.00     0.044 C 
ATOM     10  C   UNL     1       1.236   0.558  -0.108  1.00  0.00    -0.051 A 
ATOM     11  C   UNL     1       0.731  -0.695  -0.444  1.00  0.00     0.004 A 
ATOM     12  C   UNL     1       0.337   1.609   0.085  1.00  0.00     0.004 A 
ATOM     13  C   UNL     1      -0.645  -0.886  -0.606  1.00  0.00     0.005 A 
ATOM     14  C   UNL     1      -1.042   1.401  -0.062  1.00  0.00     0.005 A 
ENDBRANCH   7   8
BRANCH   7  15
ATOM     15  C   UNL     1      -3.743  -0.600  -1.806  1.00  0.00     0.065 C 
BRANCH  15  16
ATOM     16  C   UNL     1      -3.443  -1.994  -2.286  1.00  0.00     0.006 A 
ATOM     17  C   UNL     1      -2.301  -2.487  -2.890  1.00  0.00     0.015 A 
ATOM     18  S   UNL     1      -4.681  -3.199  -2.296  1.00  0.00    -0.149 S 
ATOM     19  C   UNL     1      -2.328  -3.904  -3.028  1.00  0.00     0.012 A 
ATOM     20  C   UNL     1      -3.557  -4.427  -2.697  1.00  0.00     0.065 A 
ENDBRANCH  15  16
ENDBRANCH   7  15
ENDBRANCH   4   7
ENDBRANCH   2   3
ENDBRANCH   1   2
BRANCH   1  21
ATOM     21  C   UNL     1      -1.654  -4.546   2.092  1.00  0.00     0.118 C 
BRANCH  21  22
ATOM     22  N   UNL     1      -1.396  -5.671   1.190  1.00  0.00    -0.352 N 
ATOM     23  C   UNL     1      -1.017  -6.977   1.518  1.00  0.00     0.251 C 
ATOM     24  H   UNL     1      -1.504  -5.484   0.229  1.00  0.00     0.163 HD
ATOM     25  O   UNL     1      -0.888  -7.829   0.684  1.00  0.00    -0.269 OA
BRANCH  23  26
ATOM     26  C   UNL     1      -0.921  -7.302   2.969  1.00  0.00     0.039 A 
ATOM     27  C   UNL     1      -1.898  -8.165   3.467  1.00  0.00     0.014 A 
ATOM     28  C   UNL     1      -0.239  -6.428   3.807  1.00  0.00     0.014 A 
ATOM     29  C   UNL     1      -2.426  -7.910   4.725  1.00  0.00     0.010 A 
ATOM     30  C   UNL     1      -0.858  -6.083   4.993  1.00  0.00     0.010 A 
ATOM     31  C   UNL     1      -2.010  -6.767   5.406  1.00  0.00    -0.014 A 
BRANCH  31  32
ATOM     32  C   UNL     1      -2.826  -6.132   6.440  1.00  0.00     0.031 A 
ATOM     33  C   UNL     1      -2.317  -6.030   7.823  1.00  0.00     0.074 A 
ATOM     34  C   UNL     1      -4.046  -5.622   6.146  1.00  0.00     0.049 A 
ATOM     35  N   UNL     1      -3.072  -5.873   8.858  1.00  0.00    -0.248 NA
ATOM     36  C   UNL     1      -0.908  -6.205   8.165  1.00  0.00     0.031 C 
ATOM     37  C   UNL     1      -4.864  -4.736   6.974  1.00  0.00     0.029 A 
ATOM     38  N   UNL     1      -4.902  -6.006   5.113  1.00  0.00    -0.354 N 
ATOM     39  C   UNL     1      -2.253  -5.617   9.929  1.00  0.00     0.074 A 
ATOM     40  C   UNL     1      -0.931  -5.971   9.479  1.00  0.00     0.031 C 
ATOM     41  C   UNL     1      -6.144  -4.830   6.584  1.00  0.00     0.029 A 
ATOM     42  C   UNL     1      -6.221  -5.879   5.583  1.00  0.00     0.049 A 
ATOM     43  H   UNL     1      -4.631  -6.311   4.217  1.00  0.00     0.167 HD
ATOM     44  C   UNL     1      -2.769  -4.992  11.022  1.00  0.00     0.031 A 
ATOM     45  C   UNL     1      -7.063  -6.951   5.644  1.00  0.00     0.031 A 
ATOM     46  C   UNL     1      -4.233  -4.965  10.989  1.00  0.00     0.049 A 
ATOM     47  C   UNL     1      -7.531  -7.292   7.044  1.00  0.00     0.074 A 
ATOM     48  C   UNL     1      -5.171  -3.972  10.768  1.00  0.00     0.029 A 
ATOM     49  N   UNL     1      -4.924  -6.173  10.946  1.00  0.00    -0.354 N 
ATOM     50  N   UNL     1      -7.006  -6.799   8.132  1.00  0.00    -0.248 NA
ATOM     51  C   UNL     1      -8.589  -8.258   7.330  1.00  0.00     0.031 C 
ATOM     52  C   UNL     1      -6.423  -4.600  10.515  1.00  0.00     0.029 A 
ATOM     53  C   UNL     1      -6.249  -5.969  10.620  1.00  0.00     0.049 A 
ATOM     54  H   UNL     1      -4.521  -7.053  11.125  1.00  0.00     0.167 HD
ATOM     55  C   UNL     1      -7.583  -7.383   9.230  1.00  0.00     0.074 A 
ATOM     56  C   UNL     1      -8.592  -8.268   8.675  1.00  0.00     0.031 C 
ATOM     57  C   UNL     1      -7.154  -7.108  10.497  1.00  0.00     0.031 A 
BRANCH  44  58
ATOM     58  C   UNL     1      -1.937  -4.189  12.002  1.00  0.00    -0.014 A 
ATOM     59  C   UNL     1      -2.581  -3.350  12.931  1.00  0.00     0.009 A 
ATOM     60  C   UNL     1      -0.531  -4.114  11.996  1.00  0.00     0.009 A 
ATOM     61  C   UNL     1      -1.869  -2.469  13.761  1.00  0.00     0.001 A 
ATOM     62  C   UNL     1       0.189  -3.247  12.828  1.00  0.00     0.001 A 
ATOM     63  C   UNL     1      -0.482  -2.413  13.704  1.00  0.00     0.000 A 
ENDBRANCH  44  58
BRANCH  45  64
ATOM     64  C   UNL     1      -6.844  -7.943   4.557  1.00  0.00    -0.014 A 
ATOM     65  C   UNL     1      -7.161  -7.563   3.237  1.00  0.00     0.009 A 
ATOM     66  C   UNL     1      -6.014  -9.055   4.752  1.00  0.00     0.009 A 
ATOM     67  C   UNL     1      -6.565  -8.200   2.146  1.00  0.00     0.001 A 
ATOM     68  C   UNL     1      -5.425  -9.697   3.654  1.00  0.00     0.001 A 
ATOM     69  C   UNL     1      -5.671  -9.246   2.357  1.00  0.00     0.000 A 
ENDBRANCH  45  64
BRANCH  57  70
ATOM     70  C   UNL     1      -7.552  -7.841  11.760  1.00  0.00    -0.014 A 
ATOM     71  C   UNL     1      -8.108  -9.127  11.799  1.00  0.00     0.009 A 
ATOM     72  C   UNL     1      -7.236  -7.259  13.010  1.00  0.00     0.009 A 
ATOM     73  C   UNL     1      -8.373  -9.775  13.016  1.00  0.00     0.001 A 
ATOM     74  C   UNL     1      -7.454  -7.918  14.223  1.00  0.00     0.001 A 
ATOM     75  C   UNL     1      -8.036  -9.176  14.226  1.00  0.00     0.000 A 
ENDBRANCH  57  70
ENDBRANCH  31  32
ENDBRANCH  23  26
ENDBRANCH  21  22
ENDBRANCH   1  21
TORSDOF 13
