REMARK SMILES CC[C@@H](C)N(C)C(=O)N1[C@@H](C(=O)NCCCNC(=O)c2ccc(-c3c4nc(c(-c5ccccc5)c5ccc([nH]5)c(-c5ccccc5)c5nc(c(-c6ccccc6)c6ccc3[nH]6)C=C5)C=C4)cc2)CC[C@H]2CCCC[C@H]21
REMARK SMILES IDX 14 1 13 2 11 3 12 4 10 6 9 7 75 8 68 9 70 10 74 11 69 12
REMARK SMILES IDX 71 13 73 14 72 15 7 16 8 17 5 18 6 19 3 20 4 21 2 22 1 23
REMARK SMILES IDX 15 24 16 25 17 26 18 27 19 29 20 30 21 31 67 32 22 33 66 34
REMARK SMILES IDX 23 35 24 36 25 37 60 38 26 39 65 40 59 41 61 42 27 43 64 44
REMARK SMILES IDX 58 45 57 46 28 48 50 49 35 50 49 51 36 52 39 53 48 54 62 55
REMARK SMILES IDX 37 56 38 57 47 59 63 60 40 61 29 62 30 63 34 64 31 65 33 66
REMARK SMILES IDX 32 67 51 68 52 69 56 70 53 71 55 72 54 73 41 74 42 75 46 76
REMARK SMILES IDX 43 77 45 78 44 79
REMARK H PARENT 13 5 17 28 61 47 39 58
REMARK Flexibility Score: inf
ROOT
ATOM      1  C   UNL     1      -1.823  -5.396   2.855  1.00  0.00     0.117 C 
ENDROOT
BRANCH   1   2
ATOM      2  N   UNL     1      -0.636  -6.181   2.573  1.00  0.00    -0.354 N 
ATOM      3  C   UNL     1      -0.222  -6.712   1.389  1.00  0.00     0.242 C 
ATOM      4  O   UNL     1       0.749  -7.474   1.414  1.00  0.00    -0.273 OA
ATOM      5  H   UNL     1      -0.049  -6.355   3.344  1.00  0.00     0.163 HD
BRANCH   3   6
ATOM      6  C   UNL     1      -1.031  -6.515   0.087  1.00  0.00     0.176 C 
ATOM      7  N   UNL     1      -1.454  -5.130  -0.229  1.00  0.00    -0.309 N 
ATOM      8  C   UNL     1      -2.437  -4.982  -1.317  1.00  0.00     0.091 C 
ATOM      9  C   UNL     1      -2.237  -7.481   0.196  1.00  0.00     0.036 C 
ATOM     10  C   UNL     1      -3.677  -5.862  -1.127  1.00  0.00     0.012 C 
ATOM     11  C   UNL     1      -2.891  -3.566  -1.706  1.00  0.00     0.025 C 
ATOM     12  C   UNL     1      -3.267  -7.321  -0.915  1.00  0.00     0.008 C 
ATOM     13  C   UNL     1      -4.641  -5.346  -0.047  1.00  0.00     0.006 C 
ATOM     14  C   UNL     1      -3.995  -2.959  -0.838  1.00  0.00     0.002 C 
ATOM     15  C   UNL     1      -4.562  -3.852   0.260  1.00  0.00     0.000 C 
BRANCH   7  16
ATOM     16  C   UNL     1      -0.872  -3.994   0.287  1.00  0.00     0.320 C 
ATOM     17  O   UNL     1      -1.605  -3.125   0.764  1.00  0.00    -0.248 OA
BRANCH  16  18
ATOM     18  N   UNL     1       0.493  -3.808   0.241  1.00  0.00    -0.325 N 
ATOM     19  C   UNL     1       1.456  -4.696  -0.395  1.00  0.00     0.149 C 
BRANCH  18  20
ATOM     20  C   UNL     1       1.026  -2.490   0.681  1.00  0.00     0.083 C 
ATOM     21  C   UNL     1       0.718  -2.168   2.150  1.00  0.00     0.031 C 
BRANCH  20  22
ATOM     22  C   UNL     1       0.574  -1.385  -0.305  1.00  0.00     0.021 C 
ATOM     23  C   UNL     1       1.099   0.005   0.008  1.00  0.00     0.006 C 
ENDBRANCH  20  22
ENDBRANCH  18  20
ENDBRANCH  16  18
ENDBRANCH   7  16
ENDBRANCH   3   6
ENDBRANCH   1   2
BRANCH   1  24
ATOM     24  C   UNL     1      -2.712  -6.058   3.888  1.00  0.00     0.042 C 
BRANCH  24  25
ATOM     25  C   UNL     1      -2.066  -6.143   5.255  1.00  0.00     0.118 C 
BRANCH  25  26
ATOM     26  N   UNL     1      -1.777  -4.833   5.819  1.00  0.00    -0.352 N 
ATOM     27  C   UNL     1      -2.165  -4.295   7.019  1.00  0.00     0.251 C 
ATOM     28  H   UNL     1      -1.222  -4.247   5.256  1.00  0.00     0.163 HD
ATOM     29  O   UNL     1      -1.980  -3.107   7.252  1.00  0.00    -0.269 OA
BRANCH  27  30
ATOM     30  C   UNL     1      -2.819  -5.154   8.026  1.00  0.00     0.039 A 
ATOM     31  C   UNL     1      -3.882  -4.633   8.767  1.00  0.00     0.014 A 
ATOM     32  C   UNL     1      -2.378  -6.461   8.251  1.00  0.00     0.014 A 
ATOM     33  C   UNL     1      -4.517  -5.436   9.713  1.00  0.00     0.010 A 
ATOM     34  C   UNL     1      -3.086  -7.293   9.106  1.00  0.00     0.010 A 
ATOM     35  C   UNL     1      -4.135  -6.777   9.877  1.00  0.00    -0.014 A 
BRANCH  35  36
ATOM     36  C   UNL     1      -4.771  -7.635  10.904  1.00  0.00     0.031 A 
ATOM     37  C   UNL     1      -3.943  -8.182  12.037  1.00  0.00     0.074 A 
ATOM     38  C   UNL     1      -6.078  -7.943  10.805  1.00  0.00     0.049 A 
ATOM     39  N   UNL     1      -4.308  -8.953  13.030  1.00  0.00    -0.248 NA
ATOM     40  C   UNL     1      -2.509  -7.845  12.039  1.00  0.00     0.031 C 
ATOM     41  C   UNL     1      -6.975  -7.511   9.731  1.00  0.00     0.029 A 
ATOM     42  N   UNL     1      -6.880  -8.690  11.628  1.00  0.00    -0.354 N 
ATOM     43  C   UNL     1      -3.150  -9.203  13.756  1.00  0.00     0.074 A 
ATOM     44  C   UNL     1      -2.061  -8.564  13.055  1.00  0.00     0.031 C 
ATOM     45  C   UNL     1      -8.213  -7.964   9.985  1.00  0.00     0.029 A 
ATOM     46  C   UNL     1      -8.188  -8.747  11.216  1.00  0.00     0.049 A 
ATOM     47  H   UNL     1      -6.549  -9.142  12.438  1.00  0.00     0.167 HD
ATOM     48  C   UNL     1      -3.007  -9.877  14.921  1.00  0.00     0.031 A 
ATOM     49  C   UNL     1      -9.249  -9.358  11.774  1.00  0.00     0.031 A 
ATOM     50  C   UNL     1      -4.094 -10.500  15.625  1.00  0.00     0.049 A 
ATOM     51  C   UNL     1      -9.066 -10.102  13.068  1.00  0.00     0.074 A 
ATOM     52  C   UNL     1      -4.069 -11.167  16.837  1.00  0.00     0.029 A 
ATOM     53  N   UNL     1      -5.406 -10.528  15.178  1.00  0.00    -0.354 N 
ATOM     54  N   UNL     1      -7.977 -10.273  13.779  1.00  0.00    -0.248 NA
ATOM     55  C   UNL     1     -10.267 -10.718  13.647  1.00  0.00     0.031 C 
ATOM     56  C   UNL     1      -5.357 -11.646  17.097  1.00  0.00     0.029 A 
ATOM     57  C   UNL     1      -6.197 -11.217  16.082  1.00  0.00     0.049 A 
ATOM     58  H   UNL     1      -5.728 -10.120  14.342  1.00  0.00     0.167 HD
ATOM     59  C   UNL     1      -8.369 -10.981  14.908  1.00  0.00     0.074 A 
ATOM     60  C   UNL     1      -9.798 -11.192  14.792  1.00  0.00     0.031 C 
ATOM     61  C   UNL     1      -7.618 -11.415  15.950  1.00  0.00     0.031 A 
BRANCH  48  62
ATOM     62  C   UNL     1      -1.620  -9.976  15.496  1.00  0.00    -0.014 A 
ATOM     63  C   UNL     1      -0.953  -8.844  15.994  1.00  0.00     0.009 A 
ATOM     64  C   UNL     1      -0.976 -11.221  15.557  1.00  0.00     0.009 A 
ATOM     65  C   UNL     1       0.345  -8.950  16.498  1.00  0.00     0.001 A 
ATOM     66  C   UNL     1       0.309 -11.330  16.094  1.00  0.00     0.001 A 
ATOM     67  C   UNL     1       0.972 -10.193  16.553  1.00  0.00     0.000 A 
ENDBRANCH  48  62
BRANCH  49  68
ATOM     68  C   UNL     1     -10.588  -9.265  11.133  1.00  0.00    -0.014 A 
ATOM     69  C   UNL     1     -11.618  -8.527  11.737  1.00  0.00     0.009 A 
ATOM     70  C   UNL     1     -10.848  -9.924   9.922  1.00  0.00     0.009 A 
ATOM     71  C   UNL     1     -12.890  -8.482  11.161  1.00  0.00     0.001 A 
ATOM     72  C   UNL     1     -12.111  -9.850   9.331  1.00  0.00     0.001 A 
ATOM     73  C   UNL     1     -13.134  -9.140   9.957  1.00  0.00     0.000 A 
ENDBRANCH  49  68
BRANCH  61  74
ATOM     74  C   UNL     1      -8.339 -12.109  17.072  1.00  0.00    -0.014 A 
ATOM     75  C   UNL     1      -8.907 -13.382  16.908  1.00  0.00     0.009 A 
ATOM     76  C   UNL     1      -8.435 -11.478  18.323  1.00  0.00     0.009 A 
ATOM     77  C   UNL     1      -9.601 -13.985  17.959  1.00  0.00     0.001 A 
ATOM     78  C   UNL     1      -9.097 -12.099  19.382  1.00  0.00     0.001 A 
ATOM     79  C   UNL     1      -9.692 -13.345  19.195  1.00  0.00     0.000 A 
ENDBRANCH  61  74
ENDBRANCH  35  36
ENDBRANCH  27  30
ENDBRANCH  25  26
ENDBRANCH  24  25
ENDBRANCH   1  24
TORSDOF 14
