REMARK SMILES N#C/C(=C/c1cccc(OCC(=O)NCCCNC(=O)c2ccc(-c3c4nc(c(-c5ccccc5)c5ccc([nH]5)c(-c5ccccc5)c5nc(c(-c6ccccc6)c6ccc3[nH]6)C=C5)C=C4)cc2)c1)c1nc2ccccc2[nH]1
REMARK SMILES IDX 15 1 14 2 12 3 13 4 11 6 10 7 9 8 5 9 6 10 69 11 7 12 8 13
REMARK SMILES IDX 4 14 3 15 2 16 1 17 70 18 71 19 78 20 72 21 77 22 73 24
REMARK SMILES IDX 76 25 74 26 75 27 16 28 17 29 18 30 19 31 20 33 21 34 22 35
REMARK SMILES IDX 68 36 23 37 67 38 24 39 25 40 26 41 61 42 27 43 66 44 60 45
REMARK SMILES IDX 62 46 28 47 65 48 59 49 58 50 29 52 51 53 36 54 50 55 37 56
REMARK SMILES IDX 40 57 49 58 63 59 38 60 39 61 48 63 64 64 41 65 30 66 31 67
REMARK SMILES IDX 35 68 32 69 34 70 33 71 52 72 53 73 57 74 54 75 56 76 55 77
REMARK SMILES IDX 42 78 43 79 47 80 44 81 46 82 45 83
REMARK H PARENT 14 5 78 23 18 32 62 51 40 62
REMARK Flexibility Score: inf
ROOT
ATOM      1  C   UNL     1      10.153   0.913   3.058  1.00  0.00     0.117 C 
ENDROOT
BRANCH   1   2
ATOM      2  N   UNL     1       8.712   0.834   3.203  1.00  0.00    -0.353 N 
ATOM      3  C   UNL     1       7.925  -0.285   3.128  1.00  0.00     0.257 C 
ATOM      4  O   UNL     1       6.771  -0.251   3.562  1.00  0.00    -0.271 OA
ATOM      5  H   UNL     1       8.245   1.683   3.376  1.00  0.00     0.163 HD
BRANCH   3   6
ATOM      6  C   UNL     1       8.498  -1.577   2.538  1.00  0.00     0.329 C 
BRANCH   6   7
ATOM      7  O   UNL     1       9.006  -1.478   1.217  1.00  0.00    -0.484 OA
BRANCH   7   8
ATOM      8  C   UNL     1       8.115  -1.271   0.198  1.00  0.00     0.120 A 
ATOM      9  C   UNL     1       5.926  -0.928  -0.814  1.00  0.00    -0.021 A 
ATOM     10  C   UNL     1       6.534  -0.761  -2.061  1.00  0.00     0.008 A 
ATOM     11  C   UNL     1       6.723  -1.210   0.309  1.00  0.00     0.054 A 
ATOM     12  C   UNL     1       7.920  -0.849  -2.183  1.00  0.00     0.004 A 
ATOM     13  C   UNL     1       8.704  -1.098  -1.056  1.00  0.00     0.046 A 
BRANCH   9  14
ATOM     14  C   UNL     1       4.461  -0.811  -0.704  1.00  0.00     0.031 C 
ATOM     15  C   UNL     1       3.791   0.091   0.041  1.00  0.00     0.095 C 
BRANCH  15  16
ATOM     16  C   UNL     1       2.271   0.091   0.041  1.00  0.00     0.103 C 
ATOM     17  N   UNL     1       1.010   0.091   0.041  1.00  0.00    -0.192 NA
ENDBRANCH  15  16
BRANCH  15  18
ATOM     18  C   UNL     1       4.455   1.104   0.789  1.00  0.00     0.149 A 
ATOM     19  N   UNL     1       5.330   2.019   0.414  1.00  0.00    -0.228 NA
ATOM     20  N   UNL     1       4.208   1.200   2.142  1.00  0.00    -0.337 N 
ATOM     21  C   UNL     1       5.682   2.692   1.558  1.00  0.00     0.089 A 
ATOM     22  C   UNL     1       5.000   2.194   2.659  1.00  0.00     0.066 A 
ATOM     23  H   UNL     1       3.571   0.649   2.651  1.00  0.00     0.168 HD
ATOM     24  C   UNL     1       6.598   3.735   1.739  1.00  0.00     0.030 A 
ATOM     25  C   UNL     1       5.196   2.661   3.960  1.00  0.00     0.028 A 
ATOM     26  C   UNL     1       6.832   4.212   3.037  1.00  0.00     0.002 A 
ATOM     27  C   UNL     1       6.143   3.678   4.128  1.00  0.00     0.002 A 
ENDBRANCH  15  18
ENDBRANCH   9  14
ENDBRANCH   7   8
ENDBRANCH   6   7
ENDBRANCH   3   6
ENDBRANCH   1   2
BRANCH   1  28
ATOM     28  C   UNL     1      10.638   1.620   1.796  1.00  0.00     0.042 C 
BRANCH  28  29
ATOM     29  C   UNL     1      10.332   3.112   1.683  1.00  0.00     0.118 C 
BRANCH  29  30
ATOM     30  N   UNL     1      10.730   3.918   2.827  1.00  0.00    -0.352 N 
ATOM     31  C   UNL     1      11.136   5.236   2.862  1.00  0.00     0.251 C 
ATOM     32  H   UNL     1      10.706   3.459   3.698  1.00  0.00     0.163 HD
ATOM     33  O   UNL     1      11.442   5.760   3.921  1.00  0.00    -0.269 OA
BRANCH  31  34
ATOM     34  C   UNL     1      11.244   6.002   1.601  1.00  0.00     0.039 A 
ATOM     35  C   UNL     1      12.464   6.612   1.295  1.00  0.00     0.014 A 
ATOM     36  C   UNL     1      10.167   6.096   0.717  1.00  0.00     0.014 A 
ATOM     37  C   UNL     1      12.637   7.230   0.054  1.00  0.00     0.010 A 
ATOM     38  C   UNL     1      10.352   6.680  -0.536  1.00  0.00     0.010 A 
ATOM     39  C   UNL     1      11.598   7.222  -0.890  1.00  0.00    -0.014 A 
BRANCH  39  40
ATOM     40  C   UNL     1      11.824   7.685  -2.283  1.00  0.00     0.031 A 
ATOM     41  C   UNL     1      11.154   8.920  -2.807  1.00  0.00     0.074 A 
ATOM     42  C   UNL     1      12.578   6.929  -3.106  1.00  0.00     0.049 A 
ATOM     43  N   UNL     1      11.176   9.416  -4.019  1.00  0.00    -0.248 NA
ATOM     44  C   UNL     1      10.344   9.690  -1.853  1.00  0.00     0.031 C 
ATOM     45  C   UNL     1      13.262   5.690  -2.729  1.00  0.00     0.029 A 
ATOM     46  N   UNL     1      12.880   7.084  -4.436  1.00  0.00    -0.354 N 
ATOM     47  C   UNL     1      10.375  10.549  -3.978  1.00  0.00     0.074 A 
ATOM     48  C   UNL     1       9.860  10.651  -2.628  1.00  0.00     0.031 C 
ATOM     49  C   UNL     1      13.912   5.205  -3.799  1.00  0.00     0.029 A 
ATOM     50  C   UNL     1      13.660   6.074  -4.943  1.00  0.00     0.049 A 
ATOM     51  H   UNL     1      12.569   7.847  -4.974  1.00  0.00     0.167 HD
ATOM     52  C   UNL     1      10.101  11.428  -4.972  1.00  0.00     0.031 A 
ATOM     53  C   UNL     1      14.112   5.859  -6.193  1.00  0.00     0.031 A 
ATOM     54  C   UNL     1      10.606  11.328  -6.316  1.00  0.00     0.049 A 
ATOM     55  C   UNL     1      13.765   6.831  -7.283  1.00  0.00     0.074 A 
ATOM     56  C   UNL     1      10.415  12.199  -7.375  1.00  0.00     0.029 A 
ATOM     57  N   UNL     1      11.394  10.291  -6.788  1.00  0.00    -0.354 N 
ATOM     58  N   UNL     1      13.054   7.929  -7.213  1.00  0.00    -0.248 NA
ATOM     59  C   UNL     1      14.289   6.535  -8.625  1.00  0.00     0.031 C 
ATOM     60  C   UNL     1      11.055  11.667  -8.501  1.00  0.00     0.029 A 
ATOM     61  C   UNL     1      11.680  10.489  -8.129  1.00  0.00     0.049 A 
ATOM     62  H   UNL     1      11.706   9.527  -6.250  1.00  0.00     0.167 HD
ATOM     63  C   UNL     1      13.067   8.470  -8.492  1.00  0.00     0.074 A 
ATOM     64  C   UNL     1      13.862   7.584  -9.316  1.00  0.00     0.031 C 
ATOM     65  C   UNL     1      12.474   9.603  -8.939  1.00  0.00     0.031 A 
BRANCH  52  66
ATOM     66  C   UNL     1       9.194  12.579  -4.641  1.00  0.00    -0.014 A 
ATOM     67  C   UNL     1       9.642  13.649  -3.851  1.00  0.00     0.009 A 
ATOM     68  C   UNL     1       7.890  12.613  -5.160  1.00  0.00     0.009 A 
ATOM     69  C   UNL     1       8.790  14.717  -3.561  1.00  0.00     0.001 A 
ATOM     70  C   UNL     1       7.049  13.693  -4.886  1.00  0.00     0.001 A 
ATOM     71  C   UNL     1       7.496  14.739  -4.081  1.00  0.00     0.000 A 
ENDBRANCH  52  66
BRANCH  53  72
ATOM     72  C   UNL     1      14.951   4.669  -6.482  1.00  0.00    -0.014 A 
ATOM     73  C   UNL     1      16.325   4.814  -6.723  1.00  0.00     0.009 A 
ATOM     74  C   UNL     1      14.384   3.386  -6.520  1.00  0.00     0.009 A 
ATOM     75  C   UNL     1      17.112   3.698  -7.018  1.00  0.00     0.001 A 
ATOM     76  C   UNL     1      15.178   2.270  -6.791  1.00  0.00     0.001 A 
ATOM     77  C   UNL     1      16.539   2.428  -7.048  1.00  0.00     0.000 A 
ENDBRANCH  53  72
BRANCH  65  78
ATOM     78  C   UNL     1      12.693   9.970 -10.378  1.00  0.00    -0.014 A 
ATOM     79  C   UNL     1      12.022   9.297 -11.410  1.00  0.00     0.009 A 
ATOM     80  C   UNL     1      13.547  11.036 -10.700  1.00  0.00     0.009 A 
ATOM     81  C   UNL     1      12.222   9.671 -12.741  1.00  0.00     0.001 A 
ATOM     82  C   UNL     1      13.728  11.422 -12.029  1.00  0.00     0.001 A 
ATOM     83  C   UNL     1      13.070  10.735 -13.048  1.00  0.00     0.000 A 
ENDBRANCH  65  78
ENDBRANCH  39  40
ENDBRANCH  31  34
ENDBRANCH  29  30
ENDBRANCH  28  29
ENDBRANCH   1  28
TORSDOF 15
