REMARK SMILES CCC(CC)(NC(=O)Nc1cc(Cl)cc(Cl)c1)C(=O)NCCCNC(=O)c1ccc(-c2c3nc(c(-c4ccccc4)c4ccc([nH]4)c(-c4ccccc4)c4nc(c(-c5ccccc5)c5ccc2[nH]5)C=C4)C=C3)cc1
REMARK SMILES IDX 22 1 21 2 20 3 18 4 19 5 3 7 2 8 1 9 4 10 5 11 6 12 7 13
REMARK SMILES IDX 8 15 9 16 10 18 11 19 17 20 12 21 15 22 13 23 14 24 16 25
REMARK SMILES IDX 23 26 24 27 25 28 26 30 27 31 28 32 74 33 29 34 73 35 30 36
REMARK SMILES IDX 31 37 32 38 67 39 33 40 72 41 66 42 68 43 34 44 71 45 65 46
REMARK SMILES IDX 64 47 35 49 57 50 42 51 56 52 43 53 46 54 55 55 69 56 44 57
REMARK SMILES IDX 45 58 54 60 70 61 47 62 36 63 37 64 41 65 38 66 40 67 39 68
REMARK SMILES IDX 58 69 59 70 63 71 60 72 62 73 61 74 48 75 49 76 53 77 50 78
REMARK SMILES IDX 52 79 51 80
REMARK H PARENT 20 6 6 14 9 17 24 29 68 48 46 59
REMARK Flexibility Score: inf
ROOT
ATOM      1  C   UNL     1       2.443   6.524  -0.381  1.00  0.00     0.042 C 
ENDROOT
BRANCH   1   2
ATOM      2  C   UNL     1       1.889   5.443  -1.322  1.00  0.00     0.117 C 
BRANCH   2   3
ATOM      3  N   UNL     1       2.494   4.141  -1.074  1.00  0.00    -0.354 N 
ATOM      4  C   UNL     1       1.908   2.879  -1.121  1.00  0.00     0.245 C 
ATOM      5  O   UNL     1       2.178   2.077  -2.009  1.00  0.00    -0.272 OA
ATOM      6  H   UNL     1       3.450   4.155  -0.840  1.00  0.00     0.163 HD
BRANCH   4   7
ATOM      7  C   UNL     1       0.829   2.618  -0.032  1.00  0.00     0.120 C 
BRANCH   7   8
ATOM      8  C   UNL     1       0.688   1.257   0.680  1.00  0.00     0.035 C 
ATOM      9  C   UNL     1       0.766  -0.005  -0.149  1.00  0.00     0.007 C 
ENDBRANCH   7   8
BRANCH   7  10
ATOM     10  C   UNL     1      -0.440   2.907  -0.930  1.00  0.00     0.035 C 
ATOM     11  C   UNL     1      -1.851   2.688  -0.427  1.00  0.00     0.007 C 
ENDBRANCH   7  10
BRANCH   7  12
ATOM     12  N   UNL     1       1.096   3.605   1.049  1.00  0.00    -0.323 N 
ATOM     13  C   UNL     1       2.123   3.822   1.894  1.00  0.00     0.320 C 
ATOM     14  H   UNL     1       0.356   4.242   1.175  1.00  0.00     0.166 HD
ATOM     15  O   UNL     1       1.910   4.635   2.803  1.00  0.00    -0.248 OA
ATOM     16  N   UNL     1       3.382   3.317   1.847  1.00  0.00    -0.308 N 
ATOM     17  H   UNL     1       3.976   3.824   2.446  1.00  0.00     0.171 HD
BRANCH  16  18
ATOM     18  C   UNL     1       4.103   2.283   1.199  1.00  0.00     0.045 A 
ATOM     19  C   UNL     1       4.624   2.349  -0.099  1.00  0.00     0.046 A 
ATOM     20  C   UNL     1       4.588   1.250   2.005  1.00  0.00     0.046 A 
ATOM     21  C   UNL     1       5.342   1.286  -0.660  1.00  0.00     0.044 A 
ATOM     22  C   UNL     1       5.369   0.218   1.464  1.00  0.00     0.044 A 
ATOM     23  Cl  UNL     1       5.822   1.353  -2.313  1.00  0.00    -0.084 Cl
ATOM     24  C   UNL     1       5.698   0.198   0.115  1.00  0.00     0.041 A 
ATOM     25  Cl  UNL     1       5.959  -1.029   2.492  1.00  0.00    -0.084 Cl
ENDBRANCH  16  18
ENDBRANCH   7  12
ENDBRANCH   4   7
ENDBRANCH   2   3
ENDBRANCH   1   2
BRANCH   1  26
ATOM     26  C   UNL     1       3.959   6.559  -0.204  1.00  0.00     0.118 C 
BRANCH  26  27
ATOM     27  N   UNL     1       4.665   6.754  -1.451  1.00  0.00    -0.352 N 
ATOM     28  C   UNL     1       5.475   7.788  -1.848  1.00  0.00     0.251 C 
ATOM     29  H   UNL     1       4.545   6.038  -2.115  1.00  0.00     0.163 HD
ATOM     30  O   UNL     1       5.843   7.860  -3.014  1.00  0.00    -0.269 OA
BRANCH  28  31
ATOM     31  C   UNL     1       5.888   8.835  -0.885  1.00  0.00     0.039 A 
ATOM     32  C   UNL     1       5.862  10.165  -1.311  1.00  0.00     0.014 A 
ATOM     33  C   UNL     1       6.351   8.524   0.398  1.00  0.00     0.014 A 
ATOM     34  C   UNL     1       6.270  11.181  -0.445  1.00  0.00     0.010 A 
ATOM     35  C   UNL     1       6.685   9.548   1.288  1.00  0.00     0.010 A 
ATOM     36  C   UNL     1       6.671  10.887   0.869  1.00  0.00    -0.014 A 
BRANCH  36  37
ATOM     37  C   UNL     1       7.104  11.979   1.782  1.00  0.00     0.031 A 
ATOM     38  C   UNL     1       8.526  12.048   2.276  1.00  0.00     0.074 A 
ATOM     39  C   UNL     1       6.221  12.921   2.167  1.00  0.00     0.049 A 
ATOM     40  N   UNL     1       9.097  12.959   3.025  1.00  0.00    -0.248 NA
ATOM     41  C   UNL     1       9.419  10.943   1.895  1.00  0.00     0.031 C 
ATOM     42  C   UNL     1       4.805  12.957   1.796  1.00  0.00     0.029 A 
ATOM     43  N   UNL     1       6.388  14.040   2.946  1.00  0.00    -0.354 N 
ATOM     44  C   UNL     1      10.408  12.534   3.208  1.00  0.00     0.074 A 
ATOM     45  C   UNL     1      10.531  11.256   2.543  1.00  0.00     0.031 C 
ATOM     46  C   UNL     1       4.244  14.064   2.310  1.00  0.00     0.029 A 
ATOM     47  C   UNL     1       5.249  14.797   3.075  1.00  0.00     0.049 A 
ATOM     48  H   UNL     1       7.244  14.276   3.373  1.00  0.00     0.167 HD
ATOM     49  C   UNL     1      11.426  13.158   3.848  1.00  0.00     0.031 A 
ATOM     50  C   UNL     1       5.036  15.956   3.727  1.00  0.00     0.031 A 
ATOM     51  C   UNL     1      11.311  14.431   4.511  1.00  0.00     0.049 A 
ATOM     52  C   UNL     1       6.179  16.624   4.440  1.00  0.00     0.074 A 
ATOM     53  C   UNL     1      12.297  15.163   5.151  1.00  0.00     0.029 A 
ATOM     54  N   UNL     1      10.137  15.159   4.624  1.00  0.00    -0.354 N 
ATOM     55  N   UNL     1       7.429  16.242   4.541  1.00  0.00    -0.248 NA
ATOM     56  C   UNL     1       5.882  17.898   5.111  1.00  0.00     0.031 C 
ATOM     57  C   UNL     1      11.708  16.307   5.699  1.00  0.00     0.029 A 
ATOM     58  C   UNL     1      10.370  16.323   5.340  1.00  0.00     0.049 A 
ATOM     59  H   UNL     1       9.267  14.890   4.251  1.00  0.00     0.167 HD
ATOM     60  C   UNL     1       8.075  17.248   5.251  1.00  0.00     0.074 A 
ATOM     61  C   UNL     1       7.082  18.261   5.540  1.00  0.00     0.031 C 
ATOM     62  C   UNL     1       9.377  17.326   5.624  1.00  0.00     0.031 A 
BRANCH  49  63
ATOM     63  C   UNL     1      12.760  12.461   3.870  1.00  0.00    -0.014 A 
ATOM     64  C   UNL     1      13.523  12.309   2.700  1.00  0.00     0.009 A 
ATOM     65  C   UNL     1      13.278  11.978   5.082  1.00  0.00     0.009 A 
ATOM     66  C   UNL     1      14.755  11.651   2.737  1.00  0.00     0.001 A 
ATOM     67  C   UNL     1      14.525  11.351   5.122  1.00  0.00     0.001 A 
ATOM     68  C   UNL     1      15.257  11.177   3.948  1.00  0.00     0.000 A 
ENDBRANCH  49  63
BRANCH  50  69
ATOM     69  C   UNL     1       3.687  16.583   3.714  1.00  0.00    -0.014 A 
ATOM     70  C   UNL     1       3.462  17.785   3.025  1.00  0.00     0.009 A 
ATOM     71  C   UNL     1       2.620  15.993   4.410  1.00  0.00     0.009 A 
ATOM     72  C   UNL     1       2.209  18.401   3.063  1.00  0.00     0.001 A 
ATOM     73  C   UNL     1       1.360  16.593   4.419  1.00  0.00     0.001 A 
ATOM     74  C   UNL     1       1.158  17.803   3.756  1.00  0.00     0.000 A 
ENDBRANCH  50  69
BRANCH  62  75
ATOM     75  C   UNL     1       9.814  18.578   6.337  1.00  0.00    -0.014 A 
ATOM     76  C   UNL     1       9.385  18.875   7.640  1.00  0.00     0.009 A 
ATOM     77  C   UNL     1      10.686  19.470   5.692  1.00  0.00     0.009 A 
ATOM     78  C   UNL     1       9.779  20.063   8.261  1.00  0.00     0.001 A 
ATOM     79  C   UNL     1      11.107  20.638   6.328  1.00  0.00     0.001 A 
ATOM     80  C   UNL     1      10.641  20.941   7.606  1.00  0.00     0.000 A 
ENDBRANCH  62  75
ENDBRANCH  36  37
ENDBRANCH  28  31
ENDBRANCH  26  27
ENDBRANCH   1  26
TORSDOF 14
