REMARK SMILES CC1(C)S[C@@H](c2ccsc2)[NH2+][C@@H]1C(=O)NCCCNC(=O)c1ccc(-c2c3nc(c(-c4ccccc4)c4ccc([nH]4)c(-c4ccccc4)c4nc(c(-c5ccccc5)c5ccc2[nH]5)C=C4)C=C3)cc1
REMARK SMILES IDX 17 1 16 2 15 3 13 4 14 5 12 7 1 8 2 9 3 10 4 11 5 12 11 13
REMARK SMILES IDX 6 16 7 17 10 18 8 19 9 20 18 21 19 22 20 23 21 25 22 26
REMARK SMILES IDX 23 27 69 28 24 29 68 30 25 31 26 32 27 33 62 34 28 35 67 36
REMARK SMILES IDX 61 37 63 38 29 39 66 40 60 41 59 42 30 44 52 45 37 46 51 47
REMARK SMILES IDX 38 48 41 49 50 50 64 51 39 52 40 53 49 55 65 56 42 57 31 58
REMARK SMILES IDX 32 59 36 60 33 61 35 62 34 63 53 64 54 65 58 66 55 67 57 68
REMARK SMILES IDX 56 69 43 70 44 71 48 72 45 73 47 74 46 75
REMARK H PARENT 15 6 11 14 11 15 19 24 63 43 41 54
REMARK Flexibility Score: inf
ROOT
ATOM      1  C   UNL     1      -3.177   3.334  -2.533  1.00  0.00     0.042 C 
ENDROOT
BRANCH   1   2
ATOM      2  C   UNL     1      -2.751   1.996  -1.954  1.00  0.00     0.118 C 
BRANCH   2   3
ATOM      3  N   UNL     1      -1.505   1.519  -2.534  1.00  0.00    -0.351 N 
ATOM      4  C   UNL     1      -0.304   1.172  -1.992  1.00  0.00     0.279 C 
ATOM      5  O   UNL     1       0.586   0.943  -2.818  1.00  0.00    -0.268 OA
ATOM      6  H   UNL     1      -1.536   1.429  -3.514  1.00  0.00     0.163 HD
BRANCH   4   7
ATOM      7  C   UNL     1      -0.024   1.182  -0.462  1.00  0.00     0.289 C 
ATOM      8  C   UNL     1       1.579   0.576   1.429  1.00  0.00     0.030 C 
ATOM      9  C   UNL     1       1.005   0.137   0.066  1.00  0.00     0.077 C 
ATOM     10  C   UNL     1       2.176  -0.213  -0.852  1.00  0.00     0.030 C 
ATOM     11  S   UNL     1      -0.019  -1.355   0.377  1.00  0.00    -0.081 SA
ATOM     12  C   UNL     1      -1.574  -0.453   0.267  1.00  0.00     0.275 C 
ATOM     13  N   UNL     1      -1.258   0.973   0.337  1.00  0.00    -0.320 N 
ATOM     14  H   UNL     1      -1.100   1.250   1.306  1.00  0.00     0.348 HD
ATOM     15  H   UNL     1      -2.027   1.536  -0.027  1.00  0.00     0.348 HD
BRANCH  12  16
ATOM     16  C   UNL     1      -2.551  -0.763   1.364  1.00  0.00     0.031 A 
ATOM     17  C   UNL     1      -2.301  -0.649   2.779  1.00  0.00     0.022 A 
ATOM     18  C   UNL     1      -3.860  -1.161   1.144  1.00  0.00     0.075 A 
ATOM     19  C   UNL     1      -3.407  -0.942   3.545  1.00  0.00     0.065 A 
ATOM     20  S   UNL     1      -4.751  -1.376   2.587  1.00  0.00    -0.152 S 
ENDBRANCH  12  16
ENDBRANCH   4   7
ENDBRANCH   2   3
ENDBRANCH   1   2
BRANCH   1  21
ATOM     21  C   UNL     1      -3.418   3.318  -4.033  1.00  0.00     0.118 C 
BRANCH  21  22
ATOM     22  N   UNL     1      -4.510   2.436  -4.425  1.00  0.00    -0.352 N 
ATOM     23  C   UNL     1      -5.724   2.732  -4.994  1.00  0.00     0.251 C 
ATOM     24  H   UNL     1      -4.353   1.479  -4.255  1.00  0.00     0.163 HD
ATOM     25  O   UNL     1      -6.588   1.862  -5.081  1.00  0.00    -0.269 OA
BRANCH  23  26
ATOM     26  C   UNL     1      -6.006   4.100  -5.475  1.00  0.00     0.039 A 
ATOM     27  C   UNL     1      -7.258   4.664  -5.222  1.00  0.00     0.014 A 
ATOM     28  C   UNL     1      -5.039   4.830  -6.170  1.00  0.00     0.014 A 
ATOM     29  C   UNL     1      -7.510   5.985  -5.597  1.00  0.00     0.010 A 
ATOM     30  C   UNL     1      -5.252   6.176  -6.445  1.00  0.00     0.010 A 
ATOM     31  C   UNL     1      -6.493   6.767  -6.170  1.00  0.00    -0.014 A 
BRANCH  31  32
ATOM     32  C   UNL     1      -6.707   8.200  -6.493  1.00  0.00     0.031 A 
ATOM     33  C   UNL     1      -6.591   8.680  -7.914  1.00  0.00     0.074 A 
ATOM     34  C   UNL     1      -6.945   9.079  -5.500  1.00  0.00     0.049 A 
ATOM     35  N   UNL     1      -6.692   9.898  -8.385  1.00  0.00    -0.248 NA
ATOM     36  C   UNL     1      -6.296   7.665  -8.939  1.00  0.00     0.031 C 
ATOM     37  C   UNL     1      -7.040   8.749  -4.076  1.00  0.00     0.029 A 
ATOM     38  N   UNL     1      -7.149  10.436  -5.539  1.00  0.00    -0.354 N 
ATOM     39  C   UNL     1      -6.459   9.795  -9.750  1.00  0.00     0.074 A 
ATOM     40  C   UNL     1      -6.151   8.409 -10.024  1.00  0.00     0.031 C 
ATOM     41  C   UNL     1      -7.323   9.864  -3.384  1.00  0.00     0.029 A 
ATOM     42  C   UNL     1      -7.382  10.994  -4.305  1.00  0.00     0.049 A 
ATOM     43  H   UNL     1      -7.131  10.960  -6.372  1.00  0.00     0.167 HD
ATOM     44  C   UNL     1      -6.520  10.760 -10.698  1.00  0.00     0.031 A 
ATOM     45  C   UNL     1      -7.611  12.273  -3.953  1.00  0.00     0.031 A 
ATOM     46  C   UNL     1      -6.832  12.138 -10.427  1.00  0.00     0.049 A 
ATOM     47  C   UNL     1      -7.646  13.331  -5.020  1.00  0.00     0.074 A 
ATOM     48  C   UNL     1      -6.967  13.183 -11.323  1.00  0.00     0.029 A 
ATOM     49  N   UNL     1      -7.055  12.662  -9.163  1.00  0.00    -0.354 N 
ATOM     50  N   UNL     1      -7.490  13.205  -6.316  1.00  0.00    -0.248 NA
ATOM     51  C   UNL     1      -7.899  14.708  -4.575  1.00  0.00     0.031 C 
ATOM     52  C   UNL     1      -7.213  14.352 -10.596  1.00  0.00     0.029 A 
ATOM     53  C   UNL     1      -7.299  14.022  -9.253  1.00  0.00     0.049 A 
ATOM     54  H   UNL     1      -7.041  12.144  -8.325  1.00  0.00     0.167 HD
ATOM     55  C   UNL     1      -7.657  14.479  -6.843  1.00  0.00     0.074 A 
ATOM     56  C   UNL     1      -7.945  15.359  -5.729  1.00  0.00     0.031 C 
ATOM     57  C   UNL     1      -7.581  14.884  -8.134  1.00  0.00     0.031 A 
BRANCH  44  58
ATOM     58  C   UNL     1      -6.237  10.355 -12.119  1.00  0.00    -0.014 A 
ATOM     59  C   UNL     1      -7.120   9.526 -12.830  1.00  0.00     0.009 A 
ATOM     60  C   UNL     1      -5.087  10.832 -12.767  1.00  0.00     0.009 A 
ATOM     61  C   UNL     1      -6.838   9.153 -14.146  1.00  0.00     0.001 A 
ATOM     62  C   UNL     1      -4.824  10.484 -14.093  1.00  0.00     0.001 A 
ATOM     63  C   UNL     1      -5.694   9.637 -14.778  1.00  0.00     0.000 A 
ENDBRANCH  44  58
BRANCH  45  64
ATOM     64  C   UNL     1      -7.845  12.626  -2.527  1.00  0.00    -0.014 A 
ATOM     65  C   UNL     1      -9.111  13.053  -2.098  1.00  0.00     0.009 A 
ATOM     66  C   UNL     1      -6.803  12.549  -1.590  1.00  0.00     0.009 A 
ATOM     67  C   UNL     1      -9.321  13.425  -0.768  1.00  0.00     0.001 A 
ATOM     68  C   UNL     1      -7.024  12.891  -0.254  1.00  0.00     0.001 A 
ATOM     69  C   UNL     1      -8.279  13.339   0.153  1.00  0.00     0.000 A 
ENDBRANCH  45  64
BRANCH  57  70
ATOM     70  C   UNL     1      -7.852  16.336  -8.416  1.00  0.00    -0.014 A 
ATOM     71  C   UNL     1      -6.945  17.338  -8.036  1.00  0.00     0.009 A 
ATOM     72  C   UNL     1      -9.018  16.702  -9.107  1.00  0.00     0.009 A 
ATOM     73  C   UNL     1      -7.221  18.680  -8.308  1.00  0.00     0.001 A 
ATOM     74  C   UNL     1      -9.275  18.040  -9.407  1.00  0.00     0.001 A 
ATOM     75  C   UNL     1      -8.382  19.029  -8.998  1.00  0.00     0.000 A 
ENDBRANCH  57  70
ENDBRANCH  31  32
ENDBRANCH  23  26
ENDBRANCH  21  22
ENDBRANCH   1  21
TORSDOF 11
