REMARK SMILES O=C(NCCCNC(=O)[C@H]1Cc2c([nH]c3ccccc23)[C@@H](c2ccc(OC(F)(F)F)cc2)[NH2+]1)c1ccc(-c2c3nc(c(-c4ccccc4)c4ccc([nH]4)c(-c4ccccc4)c4nc(c(-c5ccccc5)c5ccc2[nH]5)C=C4)C=C3)cc1
REMARK SMILES IDX 5 1 4 2 3 3 1 4 2 5 34 7 35 8 81 9 36 10 80 11 37 12 38 13
REMARK SMILES IDX 39 14 74 15 40 16 79 17 73 18 75 19 41 20 78 21 72 22 71 23
REMARK SMILES IDX 42 25 64 26 49 27 63 28 50 29 53 30 62 31 76 32 51 33 52 34
REMARK SMILES IDX 61 36 77 37 54 38 43 39 44 40 48 41 45 42 47 43 46 44 65 45
REMARK SMILES IDX 66 46 70 47 67 48 69 49 68 50 55 51 56 52 60 53 57 54 59 55
REMARK SMILES IDX 58 56 6 57 7 58 8 59 9 61 10 62 11 63 33 64 12 65 21 66
REMARK SMILES IDX 13 69 20 70 14 71 15 72 19 73 16 75 18 76 17 77 22 78 23 79
REMARK SMILES IDX 32 80 24 81 31 82 25 83 26 84 27 85 28 86 29 87 30 88
REMARK H PARENT 3 6 75 24 53 35 7 60 33 67 33 68 14 74
REMARK Flexibility Score: inf
ROOT
ATOM      1  C   UNL     1       4.766   2.287   0.379  1.00  0.00     0.042 C 
ENDROOT
BRANCH   1   2
ATOM      2  C   UNL     1       4.493   0.898   0.921  1.00  0.00     0.118 C 
BRANCH   2   3
ATOM      3  N   UNL     1       3.065   0.586   0.875  1.00  0.00    -0.352 N 
ATOM      4  O   UNL     1       1.170  -0.215  -0.045  1.00  0.00    -0.269 OA
ATOM      5  C   UNL     1       2.387  -0.291   0.068  1.00  0.00     0.251 C 
ATOM      6  H   UNL     1       2.508   1.078   1.521  1.00  0.00     0.163 HD
BRANCH   5   7
ATOM      7  C   UNL     1       3.142  -1.334  -0.647  1.00  0.00     0.039 A 
ATOM      8  C   UNL     1       4.211  -1.965  -0.008  1.00  0.00     0.014 A 
ATOM      9  C   UNL     1       2.761  -1.714  -1.935  1.00  0.00     0.014 A 
ATOM     10  C   UNL     1       4.995  -2.864  -0.704  1.00  0.00     0.010 A 
ATOM     11  C   UNL     1       3.470  -2.723  -2.588  1.00  0.00     0.010 A 
ATOM     12  C   UNL     1       4.593  -3.299  -1.973  1.00  0.00    -0.014 A 
BRANCH  12  13
ATOM     13  C   UNL     1       5.276  -4.477  -2.547  1.00  0.00     0.031 A 
ATOM     14  C   UNL     1       6.060  -4.386  -3.818  1.00  0.00     0.074 A 
ATOM     15  C   UNL     1       5.188  -5.635  -1.861  1.00  0.00     0.049 A 
ATOM     16  N   UNL     1       6.720  -5.332  -4.435  1.00  0.00    -0.248 NA
ATOM     17  C   UNL     1       6.111  -3.078  -4.490  1.00  0.00     0.031 C 
ATOM     18  C   UNL     1       4.439  -5.822  -0.611  1.00  0.00     0.029 A 
ATOM     19  N   UNL     1       5.744  -6.864  -2.095  1.00  0.00    -0.354 N 
ATOM     20  C   UNL     1       7.242  -4.745  -5.579  1.00  0.00     0.074 A 
ATOM     21  C   UNL     1       6.816  -3.362  -5.579  1.00  0.00     0.031 C 
ATOM     22  C   UNL     1       4.628  -7.070  -0.163  1.00  0.00     0.029 A 
ATOM     23  C   UNL     1       5.428  -7.796  -1.137  1.00  0.00     0.049 A 
ATOM     24  H   UNL     1       6.313  -7.060  -2.874  1.00  0.00     0.167 HD
ATOM     25  C   UNL     1       8.003  -5.321  -6.538  1.00  0.00     0.031 A 
ATOM     26  C   UNL     1       5.716  -9.107  -1.068  1.00  0.00     0.031 A 
ATOM     27  C   UNL     1       8.417  -6.701  -6.517  1.00  0.00     0.049 A 
ATOM     28  C   UNL     1       6.520  -9.716  -2.175  1.00  0.00     0.074 A 
ATOM     29  C   UNL     1       9.229  -7.367  -7.418  1.00  0.00     0.029 A 
ATOM     30  N   UNL     1       8.042  -7.626  -5.555  1.00  0.00    -0.354 N 
ATOM     31  N   UNL     1       7.055  -9.134  -3.221  1.00  0.00    -0.248 NA
ATOM     32  C   UNL     1       6.752 -11.163  -2.099  1.00  0.00     0.031 C 
ATOM     33  C   UNL     1       9.288  -8.711  -7.040  1.00  0.00     0.029 A 
ATOM     34  C   UNL     1       8.569  -8.869  -5.866  1.00  0.00     0.049 A 
ATOM     35  H   UNL     1       7.484  -7.430  -4.768  1.00  0.00     0.167 HD
ATOM     36  C   UNL     1       7.698 -10.142  -3.923  1.00  0.00     0.074 A 
ATOM     37  C   UNL     1       7.517 -11.363  -3.163  1.00  0.00     0.031 C 
ATOM     38  C   UNL     1       8.368 -10.069  -5.097  1.00  0.00     0.031 A 
BRANCH  25  39
ATOM     39  C   UNL     1       8.414  -4.485  -7.716  1.00  0.00    -0.014 A 
ATOM     40  C   UNL     1       9.401  -3.494  -7.605  1.00  0.00     0.009 A 
ATOM     41  C   UNL     1       7.870  -4.764  -8.981  1.00  0.00     0.009 A 
ATOM     42  C   UNL     1       9.827  -2.793  -8.737  1.00  0.00     0.001 A 
ATOM     43  C   UNL     1       8.316  -4.079 -10.113  1.00  0.00     0.001 A 
ATOM     44  C   UNL     1       9.292  -3.093  -9.989  1.00  0.00     0.000 A 
ENDBRANCH  25  39
BRANCH  26  45
ATOM     45  C   UNL     1       5.183  -9.934   0.046  1.00  0.00    -0.014 A 
ATOM     46  C   UNL     1       6.045 -10.545   0.968  1.00  0.00     0.009 A 
ATOM     47  C   UNL     1       3.799 -10.136   0.177  1.00  0.00     0.009 A 
ATOM     48  C   UNL     1       5.535 -11.372   1.971  1.00  0.00     0.001 A 
ATOM     49  C   UNL     1       3.288 -10.929   1.205  1.00  0.00     0.001 A 
ATOM     50  C   UNL     1       4.158 -11.560   2.091  1.00  0.00     0.000 A 
ENDBRANCH  26  45
BRANCH  38  51
ATOM     51  C   UNL     1       8.967 -11.346  -5.612  1.00  0.00    -0.014 A 
ATOM     52  C   UNL     1       8.156 -12.376  -6.114  1.00  0.00     0.009 A 
ATOM     53  C   UNL     1      10.360 -11.510  -5.613  1.00  0.00     0.009 A 
ATOM     54  C   UNL     1       8.730 -13.562  -6.574  1.00  0.00     0.001 A 
ATOM     55  C   UNL     1      10.932 -12.683  -6.106  1.00  0.00     0.001 A 
ATOM     56  C   UNL     1      10.116 -13.712  -6.575  1.00  0.00     0.000 A 
ENDBRANCH  38  51
ENDBRANCH  12  13
ENDBRANCH   5   7
ENDBRANCH   2   3
ENDBRANCH   1   2
BRANCH   1  57
ATOM     57  C   UNL     1       4.158   3.340   1.288  1.00  0.00     0.118 C 
BRANCH  57  58
ATOM     58  N   UNL     1       5.042   3.656   2.400  1.00  0.00    -0.351 N 
ATOM     59  C   UNL     1       5.924   4.649   2.678  1.00  0.00     0.278 C 
ATOM     60  H   UNL     1       4.986   2.990   3.123  1.00  0.00     0.163 HD
ATOM     61  O   UNL     1       6.557   4.513   3.738  1.00  0.00    -0.268 OA
BRANCH  59  62
ATOM     62  C   UNL     1       6.167   5.914   1.822  1.00  0.00     0.277 C 
ATOM     63  C   UNL     1       5.359   5.987   0.536  1.00  0.00     0.114 C 
ATOM     64  N   UNL     1       5.874   7.088   2.689  1.00  0.00    -0.325 N 
ATOM     65  C   UNL     1       5.488   7.296  -0.115  1.00  0.00    -0.006 A 
ATOM     66  C   UNL     1       6.138   8.419   2.095  1.00  0.00     0.262 C 
ATOM     67  H   UNL     1       6.444   7.003   3.530  1.00  0.00     0.347 HD
ATOM     68  H   UNL     1       4.869   7.058   2.859  1.00  0.00     0.347 HD
ATOM     69  C   UNL     1       5.842   8.406   0.614  1.00  0.00     0.083 A 
ATOM     70  C   UNL     1       5.073   7.693  -1.400  1.00  0.00     0.003 A 
ATOM     71  N   UNL     1       5.810   9.472  -0.254  1.00  0.00    -0.353 N 
ATOM     72  C   UNL     1       5.247   9.074  -1.458  1.00  0.00     0.046 A 
ATOM     73  C   UNL     1       4.489   7.011  -2.484  1.00  0.00     0.010 A 
ATOM     74  H   UNL     1       6.136  10.379  -0.052  1.00  0.00     0.166 HD
ATOM     75  C   UNL     1       4.846   9.816  -2.575  1.00  0.00     0.026 A 
ATOM     76  C   UNL     1       4.073   7.739  -3.597  1.00  0.00     0.001 A 
ATOM     77  C   UNL     1       4.247   9.121  -3.637  1.00  0.00     0.002 A 
BRANCH  66  78
ATOM     78  C   UNL     1       5.318   9.431   2.902  1.00  0.00     0.016 A 
ATOM     79  C   UNL     1       4.140  10.020   2.420  1.00  0.00     0.014 A 
ATOM     80  C   UNL     1       5.690   9.718   4.229  1.00  0.00     0.014 A 
ATOM     81  C   UNL     1       3.406  10.912   3.206  1.00  0.00     0.047 A 
ATOM     82  C   UNL     1       4.930  10.582   5.031  1.00  0.00     0.047 A 
ATOM     83  C   UNL     1       3.792  11.198   4.515  1.00  0.00     0.129 A 
BRANCH  83  84
ATOM     84  O   UNL     1       2.974  12.079   5.159  1.00  0.00    -0.406 OA
BRANCH  84  85
ATOM     85  C   UNL     1       3.209  12.316   6.535  1.00  0.00     0.573 C 
ATOM     86  F   UNL     1       3.070  11.183   7.255  1.00  0.00    -0.132 F 
ATOM     87  F   UNL     1       4.439  12.835   6.742  1.00  0.00    -0.132 F 
ATOM     88  F   UNL     1       2.299  13.211   6.980  1.00  0.00    -0.132 F 
ENDBRANCH  84  85
ENDBRANCH  83  84
ENDBRANCH  66  78
ENDBRANCH  59  62
ENDBRANCH  57  58
ENDBRANCH   1  57
TORSDOF 13
