REMARK SMILES CC1=C(C(=O)OCC(C)C)[C@@H](c2ccc(C(=O)NCCCNC(=O)c3ccc(-c4c5nc(c(-c6ccccc6)c6ccc([nH]6)c(-c6ccccc6)c6nc(c(-c7ccccc7)c7ccc4[nH]7)C=C6)C=C5)cc3)cc2)c2c(n(C)c(=O)n(C)c2=O)N1
REMARK SMILES IDX 16 1 17 2 18 3 15 5 12 6 13 7 74 8 14 9 73 10 11 11 1 12
REMARK SMILES IDX 2 13 3 14 85 15 76 16 75 18 77 19 83 20 78 21 79 22 81 23
REMARK SMILES IDX 84 24 80 25 82 26 4 27 5 28 6 29 7 30 8 31 9 32 10 33 19 34
REMARK SMILES IDX 20 35 21 36 22 37 23 38 24 40 25 41 26 42 72 43 27 44 71 45
REMARK SMILES IDX 28 46 29 47 30 48 65 49 31 50 70 51 64 52 66 53 32 54 69 55
REMARK SMILES IDX 63 56 62 57 33 59 55 60 40 61 54 62 41 63 44 64 53 65 67 66
REMARK SMILES IDX 42 67 43 68 52 70 68 71 45 72 34 73 35 74 39 75 36 76 38 77
REMARK SMILES IDX 37 78 56 79 57 80 61 81 58 82 60 83 59 84 46 85 47 86 51 87
REMARK SMILES IDX 48 88 50 89 49 90
REMARK H PARENT 18 4 85 17 22 39 66 58 44 69
REMARK Flexibility Score: inf
ROOT
ATOM      1  C   UNL     1       0.725  -2.511  -7.613  1.00  0.00     0.251 C 
ATOM      2  O   UNL     1       1.849  -2.098  -7.906  1.00  0.00    -0.269 OA
ATOM      3  N   UNL     1      -0.040  -3.007  -8.634  1.00  0.00    -0.352 N 
ATOM      4  H   UNL     1       0.404  -2.979  -9.512  1.00  0.00     0.163 HD
ENDROOT
BRANCH   1   5
ATOM      5  C   UNL     1       0.296  -2.498  -6.186  1.00  0.00     0.039 A 
ATOM      6  C   UNL     1      -0.307  -2.577  -3.425  1.00  0.00    -0.035 A 
ATOM      7  C   UNL     1       1.025  -2.520  -3.863  1.00  0.00     0.005 A 
ATOM      8  C   UNL     1      -1.329  -2.536  -4.379  1.00  0.00     0.005 A 
ATOM      9  C   UNL     1       1.319  -2.491  -5.227  1.00  0.00     0.014 A 
ATOM     10  C   UNL     1      -1.028  -2.469  -5.743  1.00  0.00     0.014 A 
BRANCH   6  11
ATOM     11  C   UNL     1      -0.658  -2.664  -1.937  1.00  0.00     0.098 C 
ATOM     12  C   UNL     1       1.158  -0.078   0.416  1.00  0.00     0.065 C 
ATOM     13  C   UNL     1       0.674  -1.306  -0.315  1.00  0.00     0.025 C 
ATOM     14  C   UNL     1      -0.304  -1.347  -1.248  1.00  0.00     0.068 C 
ATOM     15  N   UNL     1       1.304  -2.488   0.061  1.00  0.00    -0.344 N 
ATOM     16  C   UNL     1       0.962  -3.763  -0.362  1.00  0.00     0.123 A 
ATOM     17  H   UNL     1       2.062  -2.412   0.685  1.00  0.00     0.168 HD
ATOM     18  C   UNL     1       0.009  -3.876  -1.303  1.00  0.00     0.071 A 
ATOM     19  N   UNL     1       1.561  -4.906   0.144  1.00  0.00    -0.282 N 
ATOM     20  C   UNL     1      -0.434  -5.208  -1.758  1.00  0.00     0.262 A 
ATOM     21  C   UNL     1       2.539  -4.793   1.219  1.00  0.00     0.157 C 
ATOM     22  C   UNL     1       1.288  -6.186  -0.339  1.00  0.00     0.332 A 
ATOM     23  N   UNL     1       0.327  -6.274  -1.333  1.00  0.00    -0.263 N 
ATOM     24  O   UNL     1      -1.434  -5.321  -2.464  1.00  0.00    -0.269 OA
ATOM     25  O   UNL     1       1.855  -7.190   0.098  1.00  0.00    -0.247 OA
ATOM     26  C   UNL     1       0.037  -7.594  -1.860  1.00  0.00     0.158 C 
BRANCH  14  27
ATOM     27  C   UNL     1      -1.182  -0.220  -1.659  1.00  0.00     0.336 C 
ATOM     28  O   UNL     1      -2.376  -0.364  -1.870  1.00  0.00    -0.246 OA
BRANCH  27  29
ATOM     29  O   UNL     1      -0.480   0.922  -1.835  1.00  0.00    -0.462 OA
BRANCH  29  30
ATOM     30  C   UNL     1      -1.227   2.084  -2.238  1.00  0.00     0.236 C 
BRANCH  30  31
ATOM     31  C   UNL     1      -0.886   2.450  -3.688  1.00  0.00     0.021 C 
ATOM     32  C   UNL     1      -1.323   1.357  -4.663  1.00  0.00     0.011 C 
ATOM     33  C   UNL     1      -1.528   3.783  -4.067  1.00  0.00     0.011 C 
ENDBRANCH  30  31
ENDBRANCH  29  30
ENDBRANCH  27  29
ENDBRANCH  14  27
ENDBRANCH   6  11
ENDBRANCH   1   5
BRANCH   3  34
ATOM     34  C   UNL     1      -1.378  -3.564  -8.675  1.00  0.00     0.118 C 
BRANCH  34  35
ATOM     35  C   UNL     1      -2.393  -2.497  -9.079  1.00  0.00     0.042 C 
BRANCH  35  36
ATOM     36  C   UNL     1      -2.300  -2.122 -10.556  1.00  0.00     0.118 C 
BRANCH  36  37
ATOM     37  N   UNL     1      -2.689  -3.230 -11.416  1.00  0.00    -0.352 N 
ATOM     38  C   UNL     1      -3.760  -3.354 -12.261  1.00  0.00     0.251 C 
ATOM     39  H   UNL     1      -2.090  -4.011 -11.386  1.00  0.00     0.163 HD
ATOM     40  O   UNL     1      -4.077  -4.461 -12.686  1.00  0.00    -0.269 OA
BRANCH  38  41
ATOM     41  C   UNL     1      -4.529  -2.161 -12.670  1.00  0.00     0.039 A 
ATOM     42  C   UNL     1      -5.918  -2.261 -12.789  1.00  0.00     0.014 A 
ATOM     43  C   UNL     1      -3.878  -0.968 -12.998  1.00  0.00     0.014 A 
ATOM     44  C   UNL     1      -6.657  -1.152 -13.202  1.00  0.00     0.010 A 
ATOM     45  C   UNL     1      -4.622   0.157 -13.336  1.00  0.00     0.010 A 
ATOM     46  C   UNL     1      -6.015   0.070 -13.459  1.00  0.00    -0.014 A 
BRANCH  46  47
ATOM     47  C   UNL     1      -6.782   1.262 -13.894  1.00  0.00     0.031 A 
ATOM     48  C   UNL     1      -6.569   1.829 -15.270  1.00  0.00     0.074 A 
ATOM     49  C   UNL     1      -7.637   1.851 -13.038  1.00  0.00     0.049 A 
ATOM     50  N   UNL     1      -7.105   2.890 -15.816  1.00  0.00    -0.248 NA
ATOM     51  C   UNL     1      -5.615   1.121 -16.142  1.00  0.00     0.031 C 
ATOM     52  C   UNL     1      -7.917   1.399 -11.674  1.00  0.00     0.029 A 
ATOM     53  N   UNL     1      -8.433   2.958 -13.192  1.00  0.00    -0.354 N 
ATOM     54  C   UNL     1      -6.551   2.979 -17.087  1.00  0.00     0.074 A 
ATOM     55  C   UNL     1      -5.595   1.901 -17.212  1.00  0.00     0.031 C 
ATOM     56  C   UNL     1      -8.848   2.198 -11.129  1.00  0.00     0.029 A 
ATOM     57  C   UNL     1      -9.196   3.244 -12.086  1.00  0.00     0.049 A 
ATOM     58  H   UNL     1      -8.456   3.495 -14.017  1.00  0.00     0.167 HD
ATOM     59  C   UNL     1      -6.833   3.864 -18.071  1.00  0.00     0.031 A 
ATOM     60  C   UNL     1     -10.075   4.240 -11.867  1.00  0.00     0.031 A 
ATOM     61  C   UNL     1      -7.787   4.932 -17.944  1.00  0.00     0.049 A 
ATOM     62  C   UNL     1     -10.330   5.241 -12.959  1.00  0.00     0.074 A 
ATOM     63  C   UNL     1      -8.165   5.865 -18.893  1.00  0.00     0.029 A 
ATOM     64  N   UNL     1      -8.515   5.207 -16.797  1.00  0.00    -0.354 N 
ATOM     65  N   UNL     1      -9.829   5.289 -14.170  1.00  0.00    -0.248 NA
ATOM     66  C   UNL     1     -11.279   6.322 -12.656  1.00  0.00     0.031 C 
ATOM     67  C   UNL     1      -9.082   6.739 -18.302  1.00  0.00     0.029 A 
ATOM     68  C   UNL     1      -9.322   6.311 -17.006  1.00  0.00     0.049 A 
ATOM     69  H   UNL     1      -8.465   4.692 -15.959  1.00  0.00     0.167 HD
ATOM     70  C   UNL     1     -10.417   6.388 -14.781  1.00  0.00     0.074 A 
ATOM     71  C   UNL     1     -11.328   6.967 -13.814  1.00  0.00     0.031 C 
ATOM     72  C   UNL     1     -10.219   6.876 -16.030  1.00  0.00     0.031 A 
BRANCH  59  73
ATOM     73  C   UNL     1      -6.103   3.711 -19.377  1.00  0.00    -0.014 A 
ATOM     74  C   UNL     1      -6.373   2.633 -20.235  1.00  0.00     0.009 A 
ATOM     75  C   UNL     1      -5.179   4.686 -19.783  1.00  0.00     0.009 A 
ATOM     76  C   UNL     1      -5.714   2.521 -21.461  1.00  0.00     0.001 A 
ATOM     77  C   UNL     1      -4.544   4.588 -21.023  1.00  0.00     0.001 A 
ATOM     78  C   UNL     1      -4.806   3.502 -21.858  1.00  0.00     0.000 A 
ENDBRANCH  59  73
BRANCH  60  79
ATOM     79  C   UNL     1     -10.795   4.322 -10.569  1.00  0.00    -0.014 A 
ATOM     80  C   UNL     1     -12.172   4.059 -10.505  1.00  0.00     0.009 A 
ATOM     81  C   UNL     1     -10.112   4.645  -9.386  1.00  0.00     0.009 A 
ATOM     82  C   UNL     1     -12.853   4.136  -9.288  1.00  0.00     0.001 A 
ATOM     83  C   UNL     1     -10.789   4.691  -8.166  1.00  0.00     0.001 A 
ATOM     84  C   UNL     1     -12.160   4.445  -8.119  1.00  0.00     0.000 A 
ENDBRANCH  60  79
BRANCH  72  85
ATOM     85  C   UNL     1     -11.014   8.085 -16.435  1.00  0.00    -0.014 A 
ATOM     86  C   UNL     1     -10.730   9.352 -15.903  1.00  0.00     0.009 A 
ATOM     87  C   UNL     1     -12.013   7.966 -17.415  1.00  0.00     0.009 A 
ATOM     88  C   UNL     1     -11.448  10.472 -16.326  1.00  0.00     0.001 A 
ATOM     89  C   UNL     1     -12.707   9.092 -17.859  1.00  0.00     0.001 A 
ATOM     90  C   UNL     1     -12.430  10.342 -17.309  1.00  0.00     0.000 A 
ENDBRANCH  72  85
ENDBRANCH  46  47
ENDBRANCH  38  41
ENDBRANCH  36  37
ENDBRANCH  35  36
ENDBRANCH  34  35
ENDBRANCH   3  34
TORSDOF 15
