REMARK SMILES C=CCn1c(=S)[nH]c2cc(C(=O)NCCCNC(=O)c3ccc(-c4c5nc(c(-c6ccccc6)c6ccc([nH]6)c(-c6ccccc6)c6nc(c(-c7ccccc7)c7ccc4[nH]7)C=C6)C=C5)cc3)ccc2c1=O
REMARK SMILES IDX 15 1 14 2 13 3 11 4 12 5 10 7 4 8 5 9 71 10 6 11 7 12 70 13
REMARK SMILES IDX 72 14 8 15 69 17 9 18 68 19 3 20 2 21 1 22 16 23 17 24 18 25
REMARK SMILES IDX 19 27 20 28 21 29 67 30 22 31 66 32 23 33 24 34 25 35 60 36
REMARK SMILES IDX 26 37 65 38 59 39 61 40 27 41 64 42 58 43 57 44 28 46 50 47
REMARK SMILES IDX 35 48 49 49 36 50 39 51 48 52 62 53 37 54 38 55 47 57 63 58
REMARK SMILES IDX 40 59 29 60 30 61 34 62 31 63 33 64 32 65 51 66 52 67 56 68
REMARK SMILES IDX 53 69 55 70 54 71 41 72 42 73 46 74 43 75 45 76 44 77
REMARK H PARENT 13 6 7 16 17 26 61 45 39 56
REMARK Flexibility Score: inf
ROOT
ATOM      1  C   UNL     1      -0.961  10.134  -1.273  1.00  0.00     0.042 C 
ENDROOT
BRANCH   1   2
ATOM      2  C   UNL     1      -0.702   9.612   0.139  1.00  0.00     0.118 C 
BRANCH   2   3
ATOM      3  N   UNL     1      -1.945   9.285   0.815  1.00  0.00    -0.352 N 
ATOM      4  C   UNL     1      -2.640   8.113   0.965  1.00  0.00     0.251 C 
ATOM      5  O   UNL     1      -3.659   8.147   1.656  1.00  0.00    -0.269 OA
ATOM      6  H   UNL     1      -2.373  10.057   1.250  1.00  0.00     0.163 HD
BRANCH   4   7
ATOM      7  C   UNL     1      -2.221   6.809   0.375  1.00  0.00     0.041 A 
ATOM      8  N   UNL     1      -1.665   1.827  -0.358  1.00  0.00    -0.281 N 
ATOM      9  C   UNL     1      -2.535   1.955   0.725  1.00  0.00     0.180 A 
ATOM     10  C   UNL     1      -1.216   2.925  -1.106  1.00  0.00     0.262 A 
ATOM     11  S   UNL     1      -3.245   0.722   1.614  1.00  0.00    -0.040 S 
ATOM     12  N   UNL     1      -2.861   3.231   1.112  1.00  0.00    -0.332 N 
ATOM     13  C   UNL     1      -1.554   4.265  -0.608  1.00  0.00     0.064 A 
ATOM     14  O   UNL     1      -0.568   2.841  -2.149  1.00  0.00    -0.269 OA
ATOM     15  C   UNL     1      -2.372   4.382   0.501  1.00  0.00     0.054 A 
ATOM     16  H   UNL     1      -3.479   3.338   1.871  1.00  0.00     0.169 HD
ATOM     17  C   UNL     1      -1.080   5.407  -1.251  1.00  0.00     0.017 A 
ATOM     18  C   UNL     1      -2.709   5.644   0.996  1.00  0.00     0.040 A 
ATOM     19  C   UNL     1      -1.429   6.670  -0.770  1.00  0.00     0.015 A 
BRANCH   8  20
ATOM     20  C   UNL     1      -1.217   0.520  -0.854  1.00  0.00     0.155 C 
BRANCH  20  21
ATOM     21  C   UNL     1       0.262   0.360  -0.609  1.00  0.00    -0.013 C 
ATOM     22  C   UNL     1       0.822  -0.441   0.306  1.00  0.00     0.006 C 
ENDBRANCH  20  21
ENDBRANCH   8  20
ENDBRANCH   4   7
ENDBRANCH   2   3
ENDBRANCH   1   2
BRANCH   1  23
ATOM     23  C   UNL     1      -1.472  11.568  -1.299  1.00  0.00     0.118 C 
BRANCH  23  24
ATOM     24  N   UNL     1      -0.423  12.534  -1.001  1.00  0.00    -0.352 N 
ATOM     25  C   UNL     1       0.059  13.570  -1.767  1.00  0.00     0.251 C 
ATOM     26  H   UNL     1       0.004  12.429  -0.120  1.00  0.00     0.163 HD
ATOM     27  O   UNL     1       1.080  14.155  -1.433  1.00  0.00    -0.269 OA
BRANCH  25  28
ATOM     28  C   UNL     1      -0.644  13.956  -3.011  1.00  0.00     0.039 A 
ATOM     29  C   UNL     1      -2.035  14.054  -3.043  1.00  0.00     0.014 A 
ATOM     30  C   UNL     1       0.104  14.216  -4.163  1.00  0.00     0.014 A 
ATOM     31  C   UNL     1      -2.685  14.239  -4.258  1.00  0.00     0.010 A 
ATOM     32  C   UNL     1      -0.549  14.489  -5.368  1.00  0.00     0.010 A 
ATOM     33  C   UNL     1      -1.951  14.452  -5.435  1.00  0.00    -0.014 A 
BRANCH  33  34
ATOM     34  C   UNL     1      -2.669  14.617  -6.725  1.00  0.00     0.031 A 
ATOM     35  C   UNL     1      -2.526  13.590  -7.817  1.00  0.00     0.074 A 
ATOM     36  C   UNL     1      -3.509  15.659  -6.885  1.00  0.00     0.049 A 
ATOM     37  N   UNL     1      -3.099  13.556  -8.994  1.00  0.00    -0.248 NA
ATOM     38  C   UNL     1      -1.631  12.450  -7.557  1.00  0.00     0.031 C 
ATOM     39  C   UNL     1      -3.762  16.696  -5.882  1.00  0.00     0.029 A 
ATOM     40  N   UNL     1      -4.331  15.998  -7.929  1.00  0.00    -0.354 N 
ATOM     41  C   UNL     1      -2.628  12.405  -9.614  1.00  0.00     0.074 A 
ATOM     42  C   UNL     1      -1.698  11.782  -8.701  1.00  0.00     0.031 C 
ATOM     43  C   UNL     1      -4.725  17.514  -6.332  1.00  0.00     0.029 A 
ATOM     44  C   UNL     1      -5.105  17.107  -7.681  1.00  0.00     0.049 A 
ATOM     45  H   UNL     1      -4.364  15.496  -8.775  1.00  0.00     0.167 HD
ATOM     46  C   UNL     1      -2.955  11.907 -10.830  1.00  0.00     0.031 A 
ATOM     47  C   UNL     1      -6.013  17.734  -8.452  1.00  0.00     0.031 A 
ATOM     48  C   UNL     1      -3.889  12.525 -11.733  1.00  0.00     0.049 A 
ATOM     49  C   UNL     1      -6.296  17.202  -9.828  1.00  0.00     0.074 A 
ATOM     50  C   UNL     1      -4.279  12.094 -12.990  1.00  0.00     0.029 A 
ATOM     51  N   UNL     1      -4.583  13.697 -11.477  1.00  0.00    -0.354 N 
ATOM     52  N   UNL     1      -5.830  16.121 -10.403  1.00  0.00    -0.248 NA
ATOM     53  C   UNL     1      -7.224  17.978 -10.663  1.00  0.00     0.031 C 
ATOM     54  C   UNL     1      -5.166  13.034 -13.517  1.00  0.00     0.029 A 
ATOM     55  C   UNL     1      -5.382  14.015 -12.562  1.00  0.00     0.049 A 
ATOM     56  H   UNL     1      -4.518  14.223 -10.648  1.00  0.00     0.167 HD
ATOM     57  C   UNL     1      -6.420  16.075 -11.659  1.00  0.00     0.074 A 
ATOM     58  C   UNL     1      -7.293  17.227 -11.755  1.00  0.00     0.031 C 
ATOM     59  C   UNL     1      -6.250  15.161 -12.644  1.00  0.00     0.031 A 
BRANCH  46  60
ATOM     60  C   UNL     1      -2.302  10.627 -11.274  1.00  0.00    -0.014 A 
ATOM     61  C   UNL     1      -1.386  10.643 -12.338  1.00  0.00     0.009 A 
ATOM     62  C   UNL     1      -2.677   9.394 -10.720  1.00  0.00     0.009 A 
ATOM     63  C   UNL     1      -0.874   9.451 -12.852  1.00  0.00     0.001 A 
ATOM     64  C   UNL     1      -2.142   8.203 -11.218  1.00  0.00     0.001 A 
ATOM     65  C   UNL     1      -1.251   8.232 -12.291  1.00  0.00     0.000 A 
ENDBRANCH  46  60
BRANCH  47  66
ATOM     66  C   UNL     1      -6.723  18.931  -7.928  1.00  0.00    -0.014 A 
ATOM     67  C   UNL     1      -6.025  20.122  -7.668  1.00  0.00     0.009 A 
ATOM     68  C   UNL     1      -8.096  18.878  -7.647  1.00  0.00     0.009 A 
ATOM     69  C   UNL     1      -6.679  21.223  -7.112  1.00  0.00     0.001 A 
ATOM     70  C   UNL     1      -8.755  19.993  -7.122  1.00  0.00     0.001 A 
ATOM     71  C   UNL     1      -8.045  21.160  -6.844  1.00  0.00     0.000 A 
ENDBRANCH  47  66
BRANCH  59  72
ATOM     72  C   UNL     1      -7.031  15.341 -13.914  1.00  0.00    -0.014 A 
ATOM     73  C   UNL     1      -8.051  14.431 -14.237  1.00  0.00     0.009 A 
ATOM     74  C   UNL     1      -6.686  16.335 -14.841  1.00  0.00     0.009 A 
ATOM     75  C   UNL     1      -8.698  14.502 -15.472  1.00  0.00     0.001 A 
ATOM     76  C   UNL     1      -7.356  16.422 -16.063  1.00  0.00     0.001 A 
ATOM     77  C   UNL     1      -8.353  15.500 -16.381  1.00  0.00     0.000 A 
ENDBRANCH  59  72
ENDBRANCH  33  34
ENDBRANCH  25  28
ENDBRANCH  23  24
ENDBRANCH   1  23
TORSDOF 12
