REMARK SMILES O=C(COc1ccccc1/C=C1/SC(=O)N(c2ccc(F)cc2)C1=O)NCCCNC(=O)c1ccc(-c2c3nc(c(-c4ccccc4)c4ccc([nH]4)c(-c4ccccc4)c4nc(c(-c5ccccc5)c5ccc2[nH]5)C=C4)C=C3)cc1
REMARK SMILES IDX 27 1 26 2 1 3 2 4 3 6 4 7 5 8 6 9 10 10 7 11 9 12 8 13 11 14
REMARK SMILES IDX 12 15 13 16 24 17 14 18 16 19 25 20 15 21 17 22 18 23 23 24
REMARK SMILES IDX 19 25 22 26 20 27 21 28 28 29 29 30 30 31 31 32 32 34 33 35
REMARK SMILES IDX 34 36 80 37 35 38 79 39 36 40 37 41 38 42 73 43 39 44 78 45
REMARK SMILES IDX 72 46 74 47 40 48 77 49 71 50 70 51 41 53 63 54 48 55 62 56
REMARK SMILES IDX 49 57 52 58 61 59 75 60 50 61 51 62 60 64 76 65 53 66 42 67
REMARK SMILES IDX 43 68 47 69 44 70 46 71 45 72 64 73 65 74 69 75 66 76 68 77
REMARK SMILES IDX 67 78 54 79 55 80 59 81 56 82 58 83 57 84
REMARK H PARENT 26 5 30 33 74 52 52 63
REMARK Flexibility Score: inf
ROOT
ATOM      1  C   UNL     1       2.597  -2.591   0.219  1.00  0.00     0.117 C 
ENDROOT
BRANCH   1   2
ATOM      2  N   UNL     1       2.985  -0.522   0.074  1.00  0.00    -0.353 N 
ATOM      3  O   UNL     1       1.896   1.212  -1.275  1.00  0.00    -0.271 OA
ATOM      4  C   UNL     1       2.615   0.848  -0.351  1.00  0.00     0.257 C 
ATOM      5  H   UNL     1       3.859  -0.410   0.514  1.00  0.00     0.163 HD
BRANCH   4   6
ATOM      6  C   UNL     1       3.270   1.909   0.541  1.00  0.00     0.329 C 
BRANCH   6   7
ATOM      7  O   UNL     1       3.799   1.370   1.738  1.00  0.00    -0.483 OA
BRANCH   7   8
ATOM      8  C   UNL     1       2.990   1.423   2.851  1.00  0.00     0.127 A 
ATOM      9  C   UNL     1       3.603   2.069   3.929  1.00  0.00     0.047 A 
ATOM     10  C   UNL     1       1.783   0.702   3.044  1.00  0.00     0.018 A 
ATOM     11  C   UNL     1       3.058   1.984   5.206  1.00  0.00     0.004 A 
ATOM     12  C   UNL     1       1.260   0.616   4.342  1.00  0.00     0.012 A 
ATOM     13  C   UNL     1       1.901   1.239   5.415  1.00  0.00     0.001 A 
BRANCH  10  14
ATOM     14  C   UNL     1       1.054  -0.041   2.002  1.00  0.00     0.033 C 
ATOM     15  C   UNL     1       1.651  -1.070   1.374  1.00  0.00     0.084 C 
ATOM     16  S   UNL     1       1.156  -1.292  -0.842  1.00  0.00    -0.022 SA
ATOM     17  C   UNL     1       3.544  -1.475   1.718  1.00  0.00     0.272 C 
ATOM     18  C   UNL     1       3.420  -1.593  -1.395  1.00  0.00     0.298 C 
ATOM     19  N   UNL     1       4.395  -1.740   0.132  1.00  0.00    -0.236 N 
ATOM     20  O   UNL     1       4.021  -1.605   2.835  1.00  0.00    -0.268 OA
ATOM     21  O   UNL     1       3.756  -1.630  -2.568  1.00  0.00    -0.260 OA
BRANCH  19  22
ATOM     22  C   UNL     1       5.801  -2.005   0.127  1.00  0.00     0.053 A 
ATOM     23  C   UNL     1       6.444  -2.443   1.297  1.00  0.00     0.030 A 
ATOM     24  C   UNL     1       6.566  -1.855  -1.034  1.00  0.00     0.030 A 
ATOM     25  C   UNL     1       7.809  -2.743   1.308  1.00  0.00     0.041 A 
ATOM     26  C   UNL     1       7.939  -2.140  -1.019  1.00  0.00     0.041 A 
ATOM     27  C   UNL     1       8.546  -2.588   0.148  1.00  0.00     0.123 A 
ATOM     28  F   UNL     1       9.854  -2.873   0.152  1.00  0.00    -0.207 F 
ENDBRANCH  19  22
ENDBRANCH  10  14
ENDBRANCH   7   8
ENDBRANCH   6   7
ENDBRANCH   4   6
ENDBRANCH   1   2
BRANCH   1  29
ATOM     29  C   UNL     1       2.537  -3.797  -0.977  1.00  0.00     0.042 C 
BRANCH  29  30
ATOM     30  C   UNL     1       3.830  -4.510  -1.371  1.00  0.00     0.118 C 
BRANCH  30  31
ATOM     31  N   UNL     1       4.588  -5.082  -0.272  1.00  0.00    -0.352 N 
ATOM     32  C   UNL     1       5.541  -6.069  -0.380  1.00  0.00     0.251 C 
ATOM     33  H   UNL     1       4.403  -4.733   0.630  1.00  0.00     0.163 HD
ATOM     34  O   UNL     1       6.117  -6.518   0.602  1.00  0.00    -0.269 OA
BRANCH  32  35
ATOM     35  C   UNL     1       5.812  -6.597  -1.726  1.00  0.00     0.039 A 
ATOM     36  C   UNL     1       5.434  -7.906  -2.027  1.00  0.00     0.014 A 
ATOM     37  C   UNL     1       6.291  -5.733  -2.714  1.00  0.00     0.014 A 
ATOM     38  C   UNL     1       5.494  -8.341  -3.349  1.00  0.00     0.010 A 
ATOM     39  C   UNL     1       6.277  -6.145  -4.038  1.00  0.00     0.010 A 
ATOM     40  C   UNL     1       5.887  -7.453  -4.365  1.00  0.00    -0.014 A 
BRANCH  40  41
ATOM     41  C   UNL     1       5.922  -7.880  -5.782  1.00  0.00     0.031 A 
ATOM     42  C   UNL     1       7.242  -7.939  -6.496  1.00  0.00     0.074 A 
ATOM     43  C   UNL     1       4.771  -8.143  -6.429  1.00  0.00     0.049 A 
ATOM     44  N   UNL     1       7.492  -8.221  -7.748  1.00  0.00    -0.248 NA
ATOM     45  C   UNL     1       8.438  -7.604  -5.704  1.00  0.00     0.031 C 
ATOM     46  C   UNL     1       3.432  -8.073  -5.840  1.00  0.00     0.029 A 
ATOM     47  N   UNL     1       4.543  -8.518  -7.728  1.00  0.00    -0.354 N 
ATOM     48  C   UNL     1       8.866  -8.076  -7.895  1.00  0.00     0.074 A 
ATOM     49  C   UNL     1       9.387  -7.625  -6.625  1.00  0.00     0.031 C 
ATOM     50  C   UNL     1       2.525  -8.423  -6.767  1.00  0.00     0.029 A 
ATOM     51  C   UNL     1       3.213  -8.701  -8.023  1.00  0.00     0.049 A 
ATOM     52  H   UNL     1       5.263  -8.645  -8.386  1.00  0.00     0.167 HD
ATOM     53  C   UNL     1       9.627  -8.322  -8.986  1.00  0.00     0.031 A 
ATOM     54  C   UNL     1       2.621  -9.049  -9.180  1.00  0.00     0.031 A 
ATOM     55  C   UNL     1       9.094  -8.778 -10.240  1.00  0.00     0.049 A 
ATOM     56  C   UNL     1       3.487  -9.304 -10.383  1.00  0.00     0.074 A 
ATOM     57  C   UNL     1       9.773  -9.113 -11.397  1.00  0.00     0.029 A 
ATOM     58  N   UNL     1       7.742  -8.962 -10.497  1.00  0.00    -0.354 N 
ATOM     59  N   UNL     1       4.794  -9.239 -10.488  1.00  0.00    -0.248 NA
ATOM     60  C   UNL     1       2.801  -9.690 -11.623  1.00  0.00     0.031 C 
ATOM     61  C   UNL     1       8.827  -9.444 -12.373  1.00  0.00     0.029 A 
ATOM     62  C   UNL     1       7.564  -9.378 -11.804  1.00  0.00     0.049 A 
ATOM     63  H   UNL     1       7.018  -8.817  -9.846  1.00  0.00     0.167 HD
ATOM     64  C   UNL     1       5.088  -9.599 -11.797  1.00  0.00     0.074 A 
ATOM     65  C   UNL     1       3.824  -9.902 -12.439  1.00  0.00     0.031 C 
ATOM     66  C   UNL     1       6.292  -9.671 -12.415  1.00  0.00     0.031 A 
BRANCH  53  67
ATOM     67  C   UNL     1      11.108  -8.088  -8.865  1.00  0.00    -0.014 A 
ATOM     68  C   UNL     1      11.910  -8.893  -8.038  1.00  0.00     0.009 A 
ATOM     69  C   UNL     1      11.716  -7.055  -9.596  1.00  0.00     0.009 A 
ATOM     70  C   UNL     1      13.277  -8.639  -7.910  1.00  0.00     0.001 A 
ATOM     71  C   UNL     1      13.089  -6.825  -9.492  1.00  0.00     0.001 A 
ATOM     72  C   UNL     1      13.867  -7.609  -8.641  1.00  0.00     0.000 A 
ENDBRANCH  53  67
BRANCH  54  73
ATOM     73  C   UNL     1       1.141  -9.191  -9.255  1.00  0.00    -0.014 A 
ATOM     74  C   UNL     1       0.553 -10.453  -9.432  1.00  0.00     0.009 A 
ATOM     75  C   UNL     1       0.306  -8.068  -9.148  1.00  0.00     0.009 A 
ATOM     76  C   UNL     1      -0.835 -10.584  -9.529  1.00  0.00     0.001 A 
ATOM     77  C   UNL     1      -1.083  -8.204  -9.213  1.00  0.00     0.001 A 
ATOM     78  C   UNL     1      -1.652  -9.460  -9.414  1.00  0.00     0.000 A 
ENDBRANCH  54  73
BRANCH  66  79
ATOM     79  C   UNL     1       6.301 -10.119 -13.848  1.00  0.00    -0.014 A 
ATOM     80  C   UNL     1       5.833  -9.284 -14.875  1.00  0.00     0.009 A 
ATOM     81  C   UNL     1       6.840 -11.372 -14.179  1.00  0.00     0.009 A 
ATOM     82  C   UNL     1       5.879  -9.710 -16.203  1.00  0.00     0.001 A 
ATOM     83  C   UNL     1       6.915 -11.780 -15.511  1.00  0.00     0.001 A 
ATOM     84  C   UNL     1       6.427 -10.953 -16.520  1.00  0.00     0.000 A 
ENDBRANCH  66  79
ENDBRANCH  40  41
ENDBRANCH  32  35
ENDBRANCH  30  31
ENDBRANCH  29  30
ENDBRANCH   1  29
TORSDOF 14
