REMARK SMILES CC1=C(C)C[C@@H](C(=O)NCCCNC(=O)c2ccc(-c3c4nc(c(-c5ccccc5)c5ccc([nH]5)c(-c5ccccc5)c5nc(c(-c6ccccc6)c6ccc3[nH]6)C=C5)C=C4)cc2)[C@@H](C(=O)NCC[NH+]2CCOCC2)C1
REMARK SMILES IDX 10 1 9 2 7 3 8 4 6 6 1 7 2 8 3 9 76 10 4 11 5 12 64 13 65 14
REMARK SMILES IDX 66 15 67 16 68 18 69 19 70 20 71 21 75 22 72 24 74 25 73 26
REMARK SMILES IDX 11 27 12 28 13 29 14 30 15 32 16 33 17 34 63 35 18 36 62 37
REMARK SMILES IDX 19 38 20 39 21 40 56 41 22 42 61 43 55 44 57 45 23 46 60 47
REMARK SMILES IDX 54 48 53 49 24 51 46 52 31 53 45 54 32 55 35 56 44 57 58 58
REMARK SMILES IDX 33 59 34 60 43 62 59 63 36 64 25 65 26 66 30 67 27 68 29 69
REMARK SMILES IDX 28 70 47 71 48 72 52 73 49 74 51 75 50 76 37 77 38 78 42 79
REMARK SMILES IDX 39 80 41 81 40 82
REMARK H PARENT 9 5 67 17 70 23 13 31 57 50 35 61
REMARK Flexibility Score: inf
ROOT
ATOM      1  C   UNL     1      -2.558   1.373  -1.189  1.00  0.00     0.117 C 
ENDROOT
BRANCH   1   2
ATOM      2  N   UNL     1      -2.639   2.278  -2.314  1.00  0.00    -0.356 N 
ATOM      3  C   UNL     1      -1.762   2.656  -3.264  1.00  0.00     0.224 C 
ATOM      4  O   UNL     1      -2.246   3.307  -4.196  1.00  0.00    -0.275 OA
ATOM      5  H   UNL     1      -3.520   2.708  -2.405  1.00  0.00     0.163 HD
BRANCH   3   6
ATOM      6  C   UNL     1      -0.273   2.325  -3.296  1.00  0.00     0.095 C 
ATOM      7  C   UNL     1       1.304  -0.086   0.064  1.00  0.00     0.039 C 
ATOM      8  C   UNL     1       0.910   0.637  -1.202  1.00  0.00    -0.074 C 
ATOM      9  C   UNL     1       0.441   0.041  -2.318  1.00  0.00    -0.074 C 
ATOM     10  C   UNL     1       1.023   2.142  -1.066  1.00  0.00     0.045 C 
ATOM     11  C   UNL     1       0.237  -1.443  -2.503  1.00  0.00     0.039 C 
ATOM     12  C   UNL     1       0.002   0.839  -3.520  1.00  0.00     0.045 C 
ATOM     13  C   UNL     1       0.632   3.019  -2.273  1.00  0.00     0.095 C 
BRANCH  13  14
ATOM     14  C   UNL     1       0.069   4.368  -1.805  1.00  0.00     0.224 C 
ATOM     15  O   UNL     1      -0.431   4.525  -0.690  1.00  0.00    -0.275 OA
ATOM     16  N   UNL     1       0.096   5.456  -2.618  1.00  0.00    -0.350 N 
ATOM     17  H   UNL     1      -0.317   6.258  -2.224  1.00  0.00     0.163 HD
BRANCH  16  18
ATOM     18  C   UNL     1       0.618   5.660  -3.956  1.00  0.00     0.177 C 
BRANCH  18  19
ATOM     19  C   UNL     1      -0.457   5.975  -5.023  1.00  0.00     0.283 C 
BRANCH  19  20
ATOM     20  N   UNL     1      -1.255   7.190  -4.748  1.00  0.00    -0.330 N 
ATOM     21  C   UNL     1      -2.474   6.914  -3.942  1.00  0.00     0.291 C 
ATOM     22  C   UNL     1      -1.703   7.829  -6.013  1.00  0.00     0.291 C 
ATOM     23  H   UNL     1      -0.635   7.805  -4.221  1.00  0.00     0.348 HD
ATOM     24  C   UNL     1      -3.643   6.250  -4.698  1.00  0.00     0.221 C 
ATOM     25  C   UNL     1      -2.832   7.074  -6.735  1.00  0.00     0.221 C 
ATOM     26  O   UNL     1      -3.982   6.970  -5.889  1.00  0.00    -0.370 OA
ENDBRANCH  19  20
ENDBRANCH  18  19
ENDBRANCH  16  18
ENDBRANCH  13  14
ENDBRANCH   3   6
ENDBRANCH   1   2
BRANCH   1  27
ATOM     27  C   UNL     1      -2.572   2.075   0.160  1.00  0.00     0.042 C 
BRANCH  27  28
ATOM     28  C   UNL     1      -3.793   2.955   0.388  1.00  0.00     0.118 C 
BRANCH  28  29
ATOM     29  N   UNL     1      -5.011   2.167   0.513  1.00  0.00    -0.352 N 
ATOM     30  C   UNL     1      -5.818   1.975   1.606  1.00  0.00     0.251 C 
ATOM     31  H   UNL     1      -5.298   1.704  -0.307  1.00  0.00     0.163 HD
ATOM     32  O   UNL     1      -6.652   1.075   1.597  1.00  0.00    -0.269 OA
BRANCH  30  33
ATOM     33  C   UNL     1      -5.691   2.846   2.794  1.00  0.00     0.039 A 
ATOM     34  C   UNL     1      -5.781   2.272   4.065  1.00  0.00     0.014 A 
ATOM     35  C   UNL     1      -5.545   4.230   2.660  1.00  0.00     0.014 A 
ATOM     36  C   UNL     1      -5.689   3.081   5.201  1.00  0.00     0.010 A 
ATOM     37  C   UNL     1      -5.386   5.027   3.791  1.00  0.00     0.010 A 
ATOM     38  C   UNL     1      -5.477   4.462   5.071  1.00  0.00    -0.014 A 
BRANCH  38  39
ATOM     39  C   UNL     1      -5.392   5.340   6.264  1.00  0.00     0.031 A 
ATOM     40  C   UNL     1      -6.463   6.364   6.520  1.00  0.00     0.074 A 
ATOM     41  C   UNL     1      -4.333   5.250   7.090  1.00  0.00     0.049 A 
ATOM     42  N   UNL     1      -6.544   7.253   7.479  1.00  0.00    -0.248 NA
ATOM     43  C   UNL     1      -7.578   6.413   5.561  1.00  0.00     0.031 C 
ATOM     44  C   UNL     1      -3.209   4.325   6.933  1.00  0.00     0.029 A 
ATOM     45  N   UNL     1      -4.029   5.955   8.227  1.00  0.00    -0.354 N 
ATOM     46  C   UNL     1      -7.702   7.977   7.223  1.00  0.00     0.074 A 
ATOM     47  C   UNL     1      -8.270   7.454   6.001  1.00  0.00     0.031 C 
ATOM     48  C   UNL     1      -2.351   4.502   7.951  1.00  0.00     0.029 A 
ATOM     49  C   UNL     1      -2.848   5.571   8.812  1.00  0.00     0.049 A 
ATOM     50  H   UNL     1      -4.603   6.669   8.588  1.00  0.00     0.167 HD
ATOM     51  C   UNL     1      -8.254   8.977   7.950  1.00  0.00     0.031 A 
ATOM     52  C   UNL     1      -2.235   6.028   9.920  1.00  0.00     0.031 A 
ATOM     53  C   UNL     1      -7.707   9.485   9.178  1.00  0.00     0.049 A 
ATOM     54  C   UNL     1      -2.873   7.131  10.715  1.00  0.00     0.074 A 
ATOM     55  C   UNL     1      -8.225  10.456  10.018  1.00  0.00     0.029 A 
ATOM     56  N   UNL     1      -6.518   9.057   9.745  1.00  0.00    -0.354 N 
ATOM     57  N   UNL     1      -3.998   7.766  10.491  1.00  0.00    -0.248 NA
ATOM     58  C   UNL     1      -2.161   7.572  11.923  1.00  0.00     0.031 C 
ATOM     59  C   UNL     1      -7.330  10.639  11.078  1.00  0.00     0.029 A 
ATOM     60  C   UNL     1      -6.276   9.754  10.916  1.00  0.00     0.049 A 
ATOM     61  H   UNL     1      -5.931   8.361   9.370  1.00  0.00     0.167 HD
ATOM     62  C   UNL     1      -4.140   8.664  11.540  1.00  0.00     0.074 A 
ATOM     63  C   UNL     1      -2.993   8.483  12.407  1.00  0.00     0.031 C 
ATOM     64  C   UNL     1      -5.131   9.559  11.765  1.00  0.00     0.031 A 
BRANCH  51  65
ATOM     65  C   UNL     1      -9.522   9.589   7.425  1.00  0.00    -0.014 A 
ATOM     66  C   UNL     1     -10.739   8.891   7.480  1.00  0.00     0.009 A 
ATOM     67  C   UNL     1      -9.504  10.886   6.891  1.00  0.00     0.009 A 
ATOM     68  C   UNL     1     -11.907   9.467   6.977  1.00  0.00     0.001 A 
ATOM     69  C   UNL     1     -10.679  11.469   6.412  1.00  0.00     0.001 A 
ATOM     70  C   UNL     1     -11.877  10.757   6.447  1.00  0.00     0.000 A 
ENDBRANCH  51  65
BRANCH  52  71
ATOM     71  C   UNL     1      -0.953   5.423  10.360  1.00  0.00    -0.014 A 
ATOM     72  C   UNL     1      -0.919   4.572  11.475  1.00  0.00     0.009 A 
ATOM     73  C   UNL     1       0.240   5.694   9.673  1.00  0.00     0.009 A 
ATOM     74  C   UNL     1       0.289   4.020  11.906  1.00  0.00     0.001 A 
ATOM     75  C   UNL     1       1.443   5.122  10.093  1.00  0.00     0.001 A 
ATOM     76  C   UNL     1       1.468   4.293  11.213  1.00  0.00     0.000 A 
ENDBRANCH  52  71
BRANCH  64  77
ATOM     77  C   UNL     1      -5.032  10.389  13.012  1.00  0.00    -0.014 A 
ATOM     78  C   UNL     1      -4.133  11.462  13.098  1.00  0.00     0.009 A 
ATOM     79  C   UNL     1      -5.877  10.115  14.098  1.00  0.00     0.009 A 
ATOM     80  C   UNL     1      -4.061  12.228  14.262  1.00  0.00     0.001 A 
ATOM     81  C   UNL     1      -5.819  10.897  15.252  1.00  0.00     0.001 A 
ATOM     82  C   UNL     1      -4.906  11.948  15.336  1.00  0.00     0.000 A 
ENDBRANCH  64  77
ENDBRANCH  38  39
ENDBRANCH  30  33
ENDBRANCH  28  29
ENDBRANCH  27  28
ENDBRANCH   1  27
TORSDOF 14
