REMARK SMILES O=C(NCCCNC(=O)[C@H](CO)NC(=O)[C@H](CS)NC(=O)c1ccc(F)cc1)c1ccc(-c2c3nc(c(-c4ccccc4)c4ccc([nH]4)c(-c4ccccc4)c4nc(c(-c5ccccc5)c5ccc2[nH]5)C=C4)C=C3)cc1
REMARK SMILES IDX 6 1 5 2 4 3 3 4 1 5 2 6 29 8 30 9 76 10 31 11 75 12 32 13
REMARK SMILES IDX 33 14 34 15 69 16 35 17 74 18 68 19 70 20 36 21 73 22 67 23
REMARK SMILES IDX 66 24 37 26 59 27 44 28 58 29 45 30 48 31 57 32 71 33 46 34
REMARK SMILES IDX 47 35 56 37 72 38 49 39 38 40 39 41 43 42 40 43 42 44 41 45
REMARK SMILES IDX 60 46 61 47 65 48 62 49 64 50 63 51 50 52 51 53 55 54 52 55
REMARK SMILES IDX 54 56 53 57 7 58 8 59 9 61 10 62 13 63 14 64 15 66 16 67
REMARK SMILES IDX 19 68 20 69 21 71 22 72 23 73 28 74 24 75 27 76 25 77 26 78
REMARK SMILES IDX 17 79 18 80 11 82 12 83
REMARK H PARENT 3 7 70 25 48 36 7 60 13 65 19 70 18 81 12 84
REMARK Flexibility Score: inf
ROOT
ATOM      1  C   UNL     1       1.965  -9.340  -8.081  1.00  0.00     0.117 C 
ENDROOT
BRANCH   1   2
ATOM      2  C   UNL     1       0.775  -8.792  -8.864  1.00  0.00     0.042 C 
BRANCH   2   3
ATOM      3  C   UNL     1       0.642  -9.347 -10.277  1.00  0.00     0.118 C 
BRANCH   3   4
ATOM      4  N   UNL     1       0.127 -10.705 -10.302  1.00  0.00    -0.352 N 
ATOM      5  O   UNL     1      -1.393 -12.351 -10.489  1.00  0.00    -0.269 OA
ATOM      6  C   UNL     1      -1.087 -11.186 -10.733  1.00  0.00     0.251 C 
ATOM      7  H   UNL     1       0.745 -11.389  -9.957  1.00  0.00     0.163 HD
BRANCH   6   8
ATOM      8  C   UNL     1      -2.042 -10.315 -11.458  1.00  0.00     0.039 A 
ATOM      9  C   UNL     1      -1.611  -9.425 -12.444  1.00  0.00     0.014 A 
ATOM     10  C   UNL     1      -3.408 -10.422 -11.174  1.00  0.00     0.014 A 
ATOM     11  C   UNL     1      -2.514  -8.536 -13.021  1.00  0.00     0.010 A 
ATOM     12  C   UNL     1      -4.328  -9.592 -11.825  1.00  0.00     0.010 A 
ATOM     13  C   UNL     1      -3.885  -8.612 -12.725  1.00  0.00    -0.014 A 
BRANCH  13  14
ATOM     14  C   UNL     1      -4.829  -7.682 -13.401  1.00  0.00     0.031 A 
ATOM     15  C   UNL     1      -5.614  -6.663 -12.620  1.00  0.00     0.074 A 
ATOM     16  C   UNL     1      -4.944  -7.729 -14.743  1.00  0.00     0.049 A 
ATOM     17  N   UNL     1      -6.422  -5.731 -13.064  1.00  0.00    -0.248 NA
ATOM     18  C   UNL     1      -5.487  -6.694 -11.155  1.00  0.00     0.031 C 
ATOM     19  C   UNL     1      -4.249  -8.678 -15.617  1.00  0.00     0.029 A 
ATOM     20  N   UNL     1      -5.659  -6.943 -15.610  1.00  0.00    -0.354 N 
ATOM     21  C   UNL     1      -6.917  -5.086 -11.938  1.00  0.00     0.074 A 
ATOM     22  C   UNL     1      -6.336  -5.744 -10.787  1.00  0.00     0.031 C 
ATOM     23  C   UNL     1      -4.519  -8.376 -16.896  1.00  0.00     0.029 A 
ATOM     24  C   UNL     1      -5.447  -7.252 -16.931  1.00  0.00     0.049 A 
ATOM     25  H   UNL     1      -6.266  -6.227 -15.313  1.00  0.00     0.167 HD
ATOM     26  C   UNL     1      -7.773  -4.038 -11.865  1.00  0.00     0.031 A 
ATOM     27  C   UNL     1      -5.940  -6.694 -18.052  1.00  0.00     0.031 A 
ATOM     28  C   UNL     1      -8.344  -3.369 -13.005  1.00  0.00     0.049 A 
ATOM     29  C   UNL     1      -6.887  -5.536 -17.942  1.00  0.00     0.074 A 
ATOM     30  C   UNL     1      -9.188  -2.272 -13.029  1.00  0.00     0.029 A 
ATOM     31  N   UNL     1      -8.130  -3.736 -14.324  1.00  0.00    -0.354 N 
ATOM     32  N   UNL     1      -7.309  -4.915 -16.869  1.00  0.00    -0.248 NA
ATOM     33  C   UNL     1      -7.422  -5.002 -19.202  1.00  0.00     0.031 C 
ATOM     34  C   UNL     1      -9.519  -2.001 -14.361  1.00  0.00     0.029 A 
ATOM     35  C   UNL     1      -8.842  -2.901 -15.169  1.00  0.00     0.049 A 
ATOM     36  H   UNL     1      -7.556  -4.481 -14.618  1.00  0.00     0.167 HD
ATOM     37  C   UNL     1      -8.146  -3.905 -17.323  1.00  0.00     0.074 A 
ATOM     38  C   UNL     1      -8.155  -3.985 -18.770  1.00  0.00     0.031 C 
ATOM     39  C   UNL     1      -8.846  -2.994 -16.605  1.00  0.00     0.031 A 
BRANCH  26  40
ATOM     40  C   UNL     1      -8.171  -3.561 -10.495  1.00  0.00    -0.014 A 
ATOM     41  C   UNL     1      -7.280  -2.839  -9.685  1.00  0.00     0.009 A 
ATOM     42  C   UNL     1      -9.472  -3.801 -10.027  1.00  0.00     0.009 A 
ATOM     43  C   UNL     1      -7.676  -2.396  -8.421  1.00  0.00     0.001 A 
ATOM     44  C   UNL     1      -9.873  -3.336  -8.774  1.00  0.00     0.001 A 
ATOM     45  C   UNL     1      -8.972  -2.642  -7.968  1.00  0.00     0.000 A 
ENDBRANCH  26  40
BRANCH  27  46
ATOM     46  C   UNL     1      -5.534  -7.221 -19.380  1.00  0.00    -0.014 A 
ATOM     47  C   UNL     1      -4.688  -6.473 -20.213  1.00  0.00     0.009 A 
ATOM     48  C   UNL     1      -5.982  -8.477 -19.816  1.00  0.00     0.009 A 
ATOM     49  C   UNL     1      -4.314  -6.966 -21.465  1.00  0.00     0.001 A 
ATOM     50  C   UNL     1      -5.585  -8.979 -21.056  1.00  0.00     0.001 A 
ATOM     51  C   UNL     1      -4.758  -8.220 -21.882  1.00  0.00     0.000 A 
ENDBRANCH  27  46
BRANCH  39  52
ATOM     52  C   UNL     1      -9.654  -1.994 -17.380  1.00  0.00    -0.014 A 
ATOM     53  C   UNL     1     -10.847  -2.362 -18.020  1.00  0.00     0.009 A 
ATOM     54  C   UNL     1      -9.221  -0.660 -17.456  1.00  0.00     0.009 A 
ATOM     55  C   UNL     1     -11.573  -1.421 -18.753  1.00  0.00     0.001 A 
ATOM     56  C   UNL     1      -9.962   0.283 -18.169  1.00  0.00     0.001 A 
ATOM     57  C   UNL     1     -11.131  -0.100 -18.825  1.00  0.00     0.000 A 
ENDBRANCH  39  52
ENDBRANCH  13  14
ENDBRANCH   6   8
ENDBRANCH   3   4
ENDBRANCH   2   3
ENDBRANCH   1   2
BRANCH   1  58
ATOM     58  N   UNL     1       3.230  -8.990  -8.700  1.00  0.00    -0.354 N 
ATOM     59  C   UNL     1       4.120  -7.998  -8.414  1.00  0.00     0.244 C 
ATOM     60  H   UNL     1       3.490  -9.566  -9.455  1.00  0.00     0.163 HD
ATOM     61  O   UNL     1       5.101  -7.905  -9.155  1.00  0.00    -0.273 OA
BRANCH  59  62
ATOM     62  C   UNL     1       3.891  -7.035  -7.229  1.00  0.00     0.197 C 
BRANCH  62  63
ATOM     63  N   UNL     1       5.139  -6.303  -6.973  1.00  0.00    -0.340 N 
ATOM     64  C   UNL     1       6.079  -6.461  -6.001  1.00  0.00     0.244 C 
ATOM     65  H   UNL     1       5.326  -5.577  -7.611  1.00  0.00     0.164 HD
ATOM     66  O   UNL     1       7.101  -5.776  -6.055  1.00  0.00    -0.273 OA
BRANCH  64  67
ATOM     67  C   UNL     1       5.818  -7.445  -4.848  1.00  0.00     0.181 C 
BRANCH  67  68
ATOM     68  N   UNL     1       7.096  -7.907  -4.302  1.00  0.00    -0.339 N 
ATOM     69  C   UNL     1       7.699  -9.131  -4.406  1.00  0.00     0.251 C 
ATOM     70  H   UNL     1       7.597  -7.237  -3.783  1.00  0.00     0.164 HD
ATOM     71  O   UNL     1       8.756  -9.369  -3.832  1.00  0.00    -0.269 OA
BRANCH  69  72
ATOM     72  C   UNL     1       7.034 -10.200  -5.175  1.00  0.00     0.040 A 
ATOM     73  C   UNL     1       6.782 -10.046  -6.545  1.00  0.00     0.017 A 
ATOM     74  C   UNL     1       6.671 -11.376  -4.509  1.00  0.00     0.017 A 
ATOM     75  C   UNL     1       6.106 -11.054  -7.234  1.00  0.00     0.040 A 
ATOM     76  C   UNL     1       6.001 -12.381  -5.206  1.00  0.00     0.040 A 
ATOM     77  C   UNL     1       5.715 -12.206  -6.558  1.00  0.00     0.123 A 
ATOM     78  F   UNL     1       5.049 -13.161  -7.219  1.00  0.00    -0.207 F 
ENDBRANCH  69  72
ENDBRANCH  67  68
BRANCH  67  79
ATOM     79  C   UNL     1       4.892  -6.835  -3.785  1.00  0.00     0.101 C 
BRANCH  79  80
ATOM     80  S   UNL     1       5.679  -5.641  -2.658  1.00  0.00    -0.177 SA
ATOM     81  H   UNL     1       6.645  -6.270  -1.935  1.00  0.00     0.102 HD
ENDBRANCH  79  80
ENDBRANCH  67  79
ENDBRANCH  64  67
ENDBRANCH  62  63
BRANCH  62  82
ATOM     82  C   UNL     1       2.765  -6.028  -7.486  1.00  0.00     0.191 C 
BRANCH  82  83
ATOM     83  O   UNL     1       2.969  -5.249  -8.660  1.00  0.00    -0.394 OA
ATOM     84  H   UNL     1       3.782  -4.728  -8.565  1.00  0.00     0.210 HD
ENDBRANCH  82  83
ENDBRANCH  62  82
ENDBRANCH  59  62
ENDBRANCH   1  58
TORSDOF 18
