REMARK SMILES CCCCCCNC(=O)Oc1cccc(-c2ccc([C@@H](C)C(=O)NCCCNC(=O)c3ccc(-c4c5nc(c(-c6ccccc6)c6ccc([nH]6)c(-c6ccccc6)c6nc(c(-c7ccccc7)c7ccc4[nH]7)C=C6)C=C5)cc3)cc2C(F)(F)F)c1
REMARK SMILES IDX 16 1 17 2 18 3 19 4 79 5 80 6 15 7 11 8 12 9 85 10 13 11
REMARK SMILES IDX 14 12 10 13 8 14 7 15 9 17 6 18 5 19 4 20 3 21 2 22 1 23
REMARK SMILES IDX 81 24 82 25 83 26 84 27 20 28 21 29 22 30 23 31 24 32 25 34
REMARK SMILES IDX 26 35 27 36 28 37 29 38 30 40 31 41 32 42 78 43 33 44 77 45
REMARK SMILES IDX 34 46 35 47 36 48 71 49 37 50 76 51 70 52 72 53 38 54 75 55
REMARK SMILES IDX 69 56 68 57 39 59 61 60 46 61 60 62 47 63 50 64 59 65 73 66
REMARK SMILES IDX 48 67 49 68 58 70 74 71 51 72 40 73 41 74 45 75 42 76 44 77
REMARK SMILES IDX 43 78 62 79 63 80 67 81 64 82 66 83 65 84 52 85 53 86 57 87
REMARK SMILES IDX 54 88 56 89 55 90
REMARK H PARENT 7 16 24 33 28 39 72 58 50 69
REMARK Flexibility Score: inf
ROOT
ATOM      1  C   UNL     1      -5.129  -6.258   7.261  1.00  0.00    -0.006 A 
ATOM      2  C   UNL     1      -5.552  -7.407   7.956  1.00  0.00     0.009 A 
ATOM      3  C   UNL     1      -5.447  -7.518   9.345  1.00  0.00     0.005 A 
ATOM      4  C   UNL     1      -4.816  -6.531  10.095  1.00  0.00    -0.035 A 
ATOM      5  C   UNL     1      -4.435  -5.361   9.423  1.00  0.00     0.018 A 
ATOM      6  C   UNL     1      -4.639  -5.182   8.031  1.00  0.00     0.064 A 
ENDROOT
BRANCH   1   7
ATOM      7  C   UNL     1      -5.218  -6.259   5.783  1.00  0.00    -0.014 A 
ATOM      8  C   UNL     1      -4.258  -5.835   3.590  1.00  0.00     0.133 A 
ATOM      9  C   UNL     1      -5.427  -6.254   2.961  1.00  0.00     0.047 A 
ATOM     10  C   UNL     1      -4.136  -5.857   4.981  1.00  0.00     0.056 A 
ATOM     11  C   UNL     1      -6.492  -6.700   3.735  1.00  0.00     0.004 A 
ATOM     12  C   UNL     1      -6.392  -6.687   5.130  1.00  0.00     0.009 A 
BRANCH   8  13
ATOM     13  O   UNL     1      -3.293  -5.223   2.769  1.00  0.00    -0.410 OA
BRANCH  13  14
ATOM     14  C   UNL     1      -1.942  -5.466   2.967  1.00  0.00     0.412 C 
ATOM     15  N   UNL     1      -1.142  -4.596   2.278  1.00  0.00    -0.321 N 
ATOM     16  H   UNL     1      -0.171  -4.753   2.329  1.00  0.00     0.167 HD
ATOM     17  O   UNL     1      -1.469  -6.352   3.666  1.00  0.00    -0.224 OA
BRANCH  15  18
ATOM     18  C   UNL     1      -1.577  -3.466   1.478  1.00  0.00     0.119 C 
BRANCH  18  19
ATOM     19  C   UNL     1      -0.995  -2.146   1.985  1.00  0.00     0.021 C 
BRANCH  19  20
ATOM     20  C   UNL     1       0.533  -2.040   1.905  1.00  0.00     0.002 C 
BRANCH  20  21
ATOM     21  C   UNL     1       1.136  -2.227   0.509  1.00  0.00    -0.000 C 
BRANCH  21  22
ATOM     22  C   UNL     1       0.647  -1.241  -0.555  1.00  0.00    -0.003 C 
ATOM     23  C   UNL     1       1.016   0.203  -0.251  1.00  0.00     0.004 C 
ENDBRANCH  21  22
ENDBRANCH  20  21
ENDBRANCH  19  20
ENDBRANCH  18  19
ENDBRANCH  15  18
ENDBRANCH  13  14
ENDBRANCH   8  13
ENDBRANCH   1   7
BRANCH   6  24
ATOM     24  C   UNL     1      -4.323  -3.809   7.476  1.00  0.00     0.417 C 
ATOM     25  F   UNL     1      -4.748  -2.814   8.312  1.00  0.00    -0.166 F 
ATOM     26  F   UNL     1      -2.985  -3.605   7.323  1.00  0.00    -0.166 F 
ATOM     27  F   UNL     1      -4.891  -3.513   6.276  1.00  0.00    -0.166 F 
ENDBRANCH   6  24
BRANCH   4  28
ATOM     28  C   UNL     1      -4.525  -6.681  11.580  1.00  0.00     0.105 C 
ATOM     29  C   UNL     1      -5.727  -7.051  12.445  1.00  0.00     0.023 C 
BRANCH  28  30
ATOM     30  C   UNL     1      -3.240  -7.468  11.886  1.00  0.00     0.227 C 
ATOM     31  O   UNL     1      -2.204  -6.858  12.181  1.00  0.00    -0.274 OA
ATOM     32  N   UNL     1      -3.144  -8.824  11.863  1.00  0.00    -0.356 N 
ATOM     33  H   UNL     1      -2.272  -9.167  12.164  1.00  0.00     0.163 HD
BRANCH  32  34
ATOM     34  C   UNL     1      -4.081  -9.862  11.480  1.00  0.00     0.117 C 
BRANCH  34  35
ATOM     35  C   UNL     1      -3.845 -10.349  10.051  1.00  0.00     0.042 C 
BRANCH  35  36
ATOM     36  C   UNL     1      -2.725 -11.372   9.923  1.00  0.00     0.118 C 
BRANCH  36  37
ATOM     37  N   UNL     1      -3.096 -12.665  10.480  1.00  0.00    -0.352 N 
ATOM     38  C   UNL     1      -3.286 -13.881   9.872  1.00  0.00     0.251 C 
ATOM     39  H   UNL     1      -3.234 -12.668  11.455  1.00  0.00     0.163 HD
ATOM     40  O   UNL     1      -3.814 -14.791  10.507  1.00  0.00    -0.269 OA
BRANCH  38  41
ATOM     41  C   UNL     1      -2.880 -14.113   8.466  1.00  0.00     0.039 A 
ATOM     42  C   UNL     1      -3.680 -14.933   7.662  1.00  0.00     0.014 A 
ATOM     43  C   UNL     1      -1.694 -13.586   7.949  1.00  0.00     0.014 A 
ATOM     44  C   UNL     1      -3.323 -15.173   6.332  1.00  0.00     0.010 A 
ATOM     45  C   UNL     1      -1.381 -13.758   6.602  1.00  0.00     0.010 A 
ATOM     46  C   UNL     1      -2.187 -14.561   5.781  1.00  0.00    -0.014 A 
BRANCH  46  47
ATOM     47  C   UNL     1      -1.814 -14.755   4.357  1.00  0.00     0.031 A 
ATOM     48  C   UNL     1      -0.521 -15.436   3.997  1.00  0.00     0.074 A 
ATOM     49  C   UNL     1      -2.605 -14.260   3.385  1.00  0.00     0.049 A 
ATOM     50  N   UNL     1       0.015 -15.623   2.817  1.00  0.00    -0.248 NA
ATOM     51  C   UNL     1       0.287 -15.955   5.112  1.00  0.00     0.031 C 
ATOM     52  C   UNL     1      -3.868 -13.550   3.599  1.00  0.00     0.029 A 
ATOM     53  N   UNL     1      -2.456 -14.268   2.021  1.00  0.00    -0.354 N 
ATOM     54  C   UNL     1       1.229 -16.256   3.050  1.00  0.00     0.074 A 
ATOM     55  C   UNL     1       1.371 -16.384   4.484  1.00  0.00     0.031 C 
ATOM     56  C   UNL     1      -4.389 -13.212   2.408  1.00  0.00     0.029 A 
ATOM     57  C   UNL     1      -3.478 -13.642   1.352  1.00  0.00     0.049 A 
ATOM     58  H   UNL     1      -1.688 -14.684   1.565  1.00  0.00     0.167 HD
ATOM     59  C   UNL     1       2.138 -16.706   2.152  1.00  0.00     0.031 A 
ATOM     60  C   UNL     1      -3.659 -13.426   0.035  1.00  0.00     0.031 A 
ATOM     61  C   UNL     1       1.994 -16.592   0.726  1.00  0.00     0.049 A 
ATOM     62  C   UNL     1      -2.628 -13.921  -0.940  1.00  0.00     0.074 A 
ATOM     63  C   UNL     1       2.833 -17.066  -0.267  1.00  0.00     0.029 A 
ATOM     64  N   UNL     1       0.939 -15.956   0.089  1.00  0.00    -0.354 N 
ATOM     65  N   UNL     1      -1.514 -14.570  -0.707  1.00  0.00    -0.248 NA
ATOM     66  C   UNL     1      -2.886 -13.657  -2.363  1.00  0.00     0.031 C 
ATOM     67  C   UNL     1       2.309 -16.678  -1.505  1.00  0.00     0.029 A 
ATOM     68  C   UNL     1       1.117 -16.007  -1.283  1.00  0.00     0.049 A 
ATOM     69  H   UNL     1       0.177 -15.531   0.545  1.00  0.00     0.167 HD
ATOM     70  C   UNL     1      -0.951 -14.816  -1.952  1.00  0.00     0.074 A 
ATOM     71  C   UNL     1      -1.853 -14.258  -2.938  1.00  0.00     0.031 C 
ATOM     72  C   UNL     1       0.210 -15.448  -2.251  1.00  0.00     0.031 A 
BRANCH  59  73
ATOM     73  C   UNL     1       3.379 -17.360   2.695  1.00  0.00    -0.014 A 
ATOM     74  C   UNL     1       3.329 -18.623   3.306  1.00  0.00     0.009 A 
ATOM     75  C   UNL     1       4.620 -16.717   2.568  1.00  0.00     0.009 A 
ATOM     76  C   UNL     1       4.489 -19.210   3.814  1.00  0.00     0.001 A 
ATOM     77  C   UNL     1       5.783 -17.319   3.052  1.00  0.00     0.001 A 
ATOM     78  C   UNL     1       5.715 -18.560   3.684  1.00  0.00     0.000 A 
ENDBRANCH  59  73
BRANCH  60  79
ATOM     79  C   UNL     1      -4.876 -12.720  -0.441  1.00  0.00    -0.014 A 
ATOM     80  C   UNL     1      -5.884 -13.423  -1.118  1.00  0.00     0.009 A 
ATOM     81  C   UNL     1      -5.038 -11.343  -0.223  1.00  0.00     0.009 A 
ATOM     82  C   UNL     1      -7.019 -12.758  -1.587  1.00  0.00     0.001 A 
ATOM     83  C   UNL     1      -6.187 -10.686  -0.669  1.00  0.00     0.001 A 
ATOM     84  C   UNL     1      -7.171 -11.391  -1.358  1.00  0.00     0.000 A 
ENDBRANCH  60  79
BRANCH  72  85
ATOM     85  C   UNL     1       0.553 -15.600  -3.705  1.00  0.00    -0.014 A 
ATOM     86  C   UNL     1       0.993 -14.508  -4.468  1.00  0.00     0.009 A 
ATOM     87  C   UNL     1       0.474 -16.866  -4.308  1.00  0.00     0.009 A 
ATOM     88  C   UNL     1       1.319 -14.675  -5.815  1.00  0.00     0.001 A 
ATOM     89  C   UNL     1       0.827 -17.035  -5.647  1.00  0.00     0.001 A 
ATOM     90  C   UNL     1       1.241 -15.938  -6.401  1.00  0.00     0.000 A 
ENDBRANCH  72  85
ENDBRANCH  46  47
ENDBRANCH  38  41
ENDBRANCH  36  37
ENDBRANCH  35  36
ENDBRANCH  34  35
ENDBRANCH  32  34
ENDBRANCH  28  30
ENDBRANCH   4  28
TORSDOF 20
