REMARK SMILES Cc1cccc(O[C@H](C)C(=O)NNC(=O)[C@H]2[C@@H]3CC[C@@H](C3)[C@@H]2C(=O)NCCCNC(=O)c2ccc(-c3c4nc(c(-c5ccccc5)c5ccc([nH]5)c(-c5ccccc5)c5nc(c(-c6ccccc6)c6ccc3[nH]6)C=C5)C=C4)cc2)c1
REMARK SMILES IDX 23 1 24 2 25 3 22 5 16 6 17 7 18 8 21 9 20 10 19 11 14 12
REMARK SMILES IDX 13 13 15 15 12 16 10 17 11 18 8 20 9 21 7 22 6 23 1 24 2 25
REMARK SMILES IDX 3 26 80 27 4 28 5 29 26 30 27 31 28 32 29 33 30 34 31 36
REMARK SMILES IDX 32 37 33 38 79 39 34 40 78 41 35 42 36 43 37 44 72 45 38 46
REMARK SMILES IDX 77 47 71 48 73 49 39 50 76 51 70 52 69 53 40 55 62 56 47 57
REMARK SMILES IDX 61 58 48 59 51 60 60 61 74 62 49 63 50 64 59 66 75 67 52 68
REMARK SMILES IDX 41 69 42 70 46 71 43 72 45 73 44 74 63 75 64 76 68 77 65 78
REMARK SMILES IDX 67 79 66 80 53 81 54 82 58 83 55 84 57 85 56 86
REMARK H PARENT 25 4 13 14 12 19 29 35 73 54 51 65
REMARK Flexibility Score: inf
ROOT
ATOM      1  C   UNL     1       4.516   2.873  -2.854  1.00  0.00     0.224 C 
ATOM      2  O   UNL     1       5.515   2.297  -2.433  1.00  0.00    -0.275 OA
ATOM      3  N   UNL     1       4.601   4.200  -3.182  1.00  0.00    -0.356 N 
ATOM      4  H   UNL     1       5.491   4.609  -3.079  1.00  0.00     0.163 HD
ENDROOT
BRANCH   1   5
ATOM      5  C   UNL     1       3.166   2.190  -3.016  1.00  0.00     0.094 C 
ATOM      6  C   UNL     1       3.011   0.855  -2.266  1.00  0.00     0.096 C 
ATOM      7  C   UNL     1       2.431  -0.098  -3.344  1.00  0.00     0.002 C 
ATOM      8  C   UNL     1       3.590  -0.510  -4.275  1.00  0.00     0.005 C 
ATOM      9  C   UNL     1       1.657   0.830  -4.278  1.00  0.00     0.009 C 
ATOM     10  C   UNL     1       2.843   1.776  -4.476  1.00  0.00     0.002 C 
ATOM     11  C   UNL     1       3.903   0.797  -5.023  1.00  0.00     0.005 C 
BRANCH   6  12
ATOM     12  C   UNL     1       2.242   0.823  -0.949  1.00  0.00     0.242 C 
ATOM     13  N   UNL     1       1.159   1.590  -0.634  1.00  0.00    -0.267 N 
ATOM     14  H   UNL     1       0.844   1.511   0.295  1.00  0.00     0.191 HD
ATOM     15  O   UNL     1       2.590   0.003  -0.088  1.00  0.00    -0.273 OA
BRANCH  13  16
ATOM     16  N   UNL     1       0.447   2.455  -1.422  1.00  0.00    -0.264 N 
ATOM     17  C   UNL     1      -0.444   3.408  -1.035  1.00  0.00     0.279 C 
ATOM     18  O   UNL     1      -0.704   4.261  -1.900  1.00  0.00    -0.269 OA
ATOM     19  H   UNL     1       0.599   2.377  -2.392  1.00  0.00     0.191 HD
BRANCH  17  20
ATOM     20  C   UNL     1      -1.225   3.428   0.311  1.00  0.00     0.260 C 
ATOM     21  C   UNL     1      -2.626   2.828   0.127  1.00  0.00     0.064 C 
BRANCH  20  22
ATOM     22  O   UNL     1      -0.677   3.316   1.605  1.00  0.00    -0.481 OA
BRANCH  22  23
ATOM     23  C   UNL     1      -0.253   2.176   2.201  1.00  0.00     0.120 A 
ATOM     24  C   UNL     1       2.363   1.578   4.916  1.00  0.00     0.044 C 
ATOM     25  C   UNL     1       1.320   1.332   3.867  1.00  0.00    -0.047 A 
ATOM     26  C   UNL     1       0.992   0.026   3.498  1.00  0.00     0.003 A 
ATOM     27  C   UNL     1       0.683   2.397   3.219  1.00  0.00     0.049 A 
ATOM     28  C   UNL     1       0.027  -0.204   2.519  1.00  0.00     0.004 A 
ATOM     29  C   UNL     1      -0.605   0.868   1.881  1.00  0.00     0.046 A 
ENDBRANCH  22  23
ENDBRANCH  20  22
ENDBRANCH  17  20
ENDBRANCH  13  16
ENDBRANCH   6  12
ENDBRANCH   1   5
BRANCH   3  30
ATOM     30  C   UNL     1       3.550   5.088  -3.663  1.00  0.00     0.117 C 
BRANCH  30  31
ATOM     31  C   UNL     1       2.770   5.742  -2.527  1.00  0.00     0.042 C 
BRANCH  31  32
ATOM     32  C   UNL     1       3.431   7.018  -2.032  1.00  0.00     0.118 C 
BRANCH  32  33
ATOM     33  N   UNL     1       3.168   8.185  -2.870  1.00  0.00    -0.352 N 
ATOM     34  C   UNL     1       3.721   9.456  -2.830  1.00  0.00     0.251 C 
ATOM     35  H   UNL     1       2.493   8.049  -3.572  1.00  0.00     0.163 HD
ATOM     36  O   UNL     1       3.344  10.307  -3.620  1.00  0.00    -0.269 OA
BRANCH  34  37
ATOM     37  C   UNL     1       4.865   9.735  -1.927  1.00  0.00     0.039 A 
ATOM     38  C   UNL     1       5.941  10.471  -2.442  1.00  0.00     0.014 A 
ATOM     39  C   UNL     1       4.981   9.098  -0.698  1.00  0.00     0.014 A 
ATOM     40  C   UNL     1       7.200  10.328  -1.867  1.00  0.00     0.010 A 
ATOM     41  C   UNL     1       6.241   8.854  -0.202  1.00  0.00     0.010 A 
ATOM     42  C   UNL     1       7.356   9.413  -0.832  1.00  0.00    -0.014 A 
BRANCH  42  43
ATOM     43  C   UNL     1       8.637   8.861  -0.419  1.00  0.00     0.031 A 
ATOM     44  C   UNL     1       9.184   9.168   0.912  1.00  0.00     0.074 A 
ATOM     45  C   UNL     1       9.218   7.921  -1.197  1.00  0.00     0.049 A 
ATOM     46  N   UNL     1      10.399   8.921   1.262  1.00  0.00    -0.248 NA
ATOM     47  C   UNL     1       8.417   9.854   1.947  1.00  0.00     0.031 C 
ATOM     48  C   UNL     1      10.242   6.952  -0.818  1.00  0.00     0.029 A 
ATOM     49  N   UNL     1       9.131   7.807  -2.586  1.00  0.00    -0.354 N 
ATOM     50  C   UNL     1      10.476   9.098   2.622  1.00  0.00     0.074 A 
ATOM     51  C   UNL     1       9.269   9.803   2.974  1.00  0.00     0.031 C 
ATOM     52  C   UNL     1      10.866   6.523  -1.927  1.00  0.00     0.029 A 
ATOM     53  C   UNL     1      10.384   7.339  -3.028  1.00  0.00     0.049 A 
ATOM     54  H   UNL     1       8.348   8.013  -3.146  1.00  0.00     0.167 HD
ATOM     55  C   UNL     1      11.486   8.488   3.302  1.00  0.00     0.031 A 
ATOM     56  C   UNL     1      11.181   8.117  -3.816  1.00  0.00     0.031 A 
ATOM     57  C   UNL     1      12.478   7.911   2.388  1.00  0.00     0.049 A 
ATOM     58  C   UNL     1      12.528   8.447  -3.206  1.00  0.00     0.074 A 
ATOM     59  C   UNL     1      12.800   6.619   2.008  1.00  0.00     0.029 A 
ATOM     60  N   UNL     1      13.131   8.753   1.496  1.00  0.00    -0.354 N 
ATOM     61  N   UNL     1      12.828   8.295  -1.945  1.00  0.00    -0.248 NA
ATOM     62  C   UNL     1      13.630   9.022  -3.968  1.00  0.00     0.031 C 
ATOM     63  C   UNL     1      13.634   6.694   0.856  1.00  0.00     0.029 A 
ATOM     64  C   UNL     1      13.839   8.029   0.557  1.00  0.00     0.049 A 
ATOM     65  H   UNL     1      13.094   9.736   1.528  1.00  0.00     0.167 HD
ATOM     66  C   UNL     1      14.104   8.744  -1.707  1.00  0.00     0.074 A 
ATOM     67  C   UNL     1      14.565   9.180  -3.013  1.00  0.00     0.031 C 
ATOM     68  C   UNL     1      14.637   8.734  -0.445  1.00  0.00     0.031 A 
BRANCH  55  69
ATOM     69  C   UNL     1      11.468   8.205   4.790  1.00  0.00    -0.014 A 
ATOM     70  C   UNL     1      12.410   7.312   5.334  1.00  0.00     0.009 A 
ATOM     71  C   UNL     1      10.515   8.702   5.696  1.00  0.00     0.009 A 
ATOM     72  C   UNL     1      12.367   6.905   6.676  1.00  0.00     0.001 A 
ATOM     73  C   UNL     1      10.464   8.303   7.039  1.00  0.00     0.001 A 
ATOM     74  C   UNL     1      11.386   7.394   7.528  1.00  0.00     0.000 A 
ENDBRANCH  55  69
BRANCH  56  75
ATOM     75  C   UNL     1      10.415   9.017  -4.725  1.00  0.00    -0.014 A 
ATOM     76  C   UNL     1       9.634   8.430  -5.741  1.00  0.00     0.009 A 
ATOM     77  C   UNL     1      10.148  10.345  -4.360  1.00  0.00     0.009 A 
ATOM     78  C   UNL     1       8.538   9.106  -6.285  1.00  0.00     0.001 A 
ATOM     79  C   UNL     1       9.058  11.025  -4.921  1.00  0.00     0.001 A 
ATOM     80  C   UNL     1       8.233  10.393  -5.851  1.00  0.00     0.000 A 
ENDBRANCH  56  75
BRANCH  68  81
ATOM     81  C   UNL     1      15.941   9.363   0.027  1.00  0.00    -0.014 A 
ATOM     82  C   UNL     1      16.858  10.054  -0.771  1.00  0.00     0.009 A 
ATOM     83  C   UNL     1      16.259   9.308   1.409  1.00  0.00     0.009 A 
ATOM     84  C   UNL     1      18.003  10.662  -0.229  1.00  0.00     0.001 A 
ATOM     85  C   UNL     1      17.380   9.933   1.961  1.00  0.00     0.001 A 
ATOM     86  C   UNL     1      18.257  10.615   1.137  1.00  0.00     0.000 A 
ENDBRANCH  68  81
ENDBRANCH  42  43
ENDBRANCH  34  37
ENDBRANCH  32  33
ENDBRANCH  31  32
ENDBRANCH  30  31
ENDBRANCH   3  30
TORSDOF 15
