REMARK SMILES C[C@@H]1[C@@H](C(=O)NCCCNC(=O)c2ccc(-c3c4nc(c(-c5ccccc5)c5ccc([nH]5)c(-c5ccccc5)c5nc(c(-c6ccccc6)c6ccc3[nH]6)C=C5)C=C4)cc2)CCN1C(=O)CCCC1CCCCC1
REMARK SMILES IDX 4 1 5 2 6 3 3 5 1 6 2 7 63 8 61 9 62 10 64 11 65 12 66 13
REMARK SMILES IDX 67 14 68 15 69 16 70 17 74 18 71 19 73 20 72 21 7 22 8 23
REMARK SMILES IDX 9 24 10 25 11 26 12 28 13 29 14 30 60 31 15 32 59 33 16 34
REMARK SMILES IDX 17 35 18 36 53 37 19 38 58 39 52 40 54 41 20 42 57 43 51 44
REMARK SMILES IDX 50 45 21 47 43 48 28 49 42 50 29 51 32 52 41 53 55 54 30 55
REMARK SMILES IDX 31 56 40 58 56 59 33 60 22 61 23 62 27 63 24 64 26 65 25 66
REMARK SMILES IDX 44 67 45 68 49 69 46 70 48 71 47 72 34 73 35 74 39 75 36 76
REMARK SMILES IDX 38 77 37 78
REMARK H PARENT 6 4 10 27 54 46 32 57
REMARK Flexibility Score: inf
ROOT
ATOM      1  C   UNL     1      -1.113   1.120  -1.371  1.00  0.00     0.225 C 
ATOM      2  O   UNL     1      -0.513   0.619  -2.318  1.00  0.00    -0.275 OA
ATOM      3  N   UNL     1      -2.030   2.086  -1.653  1.00  0.00    -0.356 N 
ATOM      4  H   UNL     1      -2.130   2.316  -2.605  1.00  0.00     0.163 HD
ENDROOT
BRANCH   1   5
ATOM      5  C   UNL     1      -0.855   0.766   0.087  1.00  0.00     0.102 C 
ATOM      6  C   UNL     1       0.811  -0.300   1.632  1.00  0.00     0.032 C 
ATOM      7  C   UNL     1       0.181  -0.356   0.238  1.00  0.00     0.094 C 
ATOM      8  N   UNL     1      -0.602  -1.564   0.020  1.00  0.00    -0.339 N 
ATOM      9  C   UNL     1      -2.082   0.138   0.757  1.00  0.00     0.037 C 
ATOM     10  C   UNL     1      -1.994  -1.331   0.363  1.00  0.00     0.120 C 
BRANCH   8  11
ATOM     11  C   UNL     1      -0.271  -2.671  -0.736  1.00  0.00     0.222 C 
ATOM     12  O   UNL     1      -1.141  -3.476  -1.084  1.00  0.00    -0.275 OA
BRANCH  11  13
ATOM     13  C   UNL     1       1.191  -2.987  -1.038  1.00  0.00     0.100 C 
BRANCH  13  14
ATOM     14  C   UNL     1       1.858  -2.446  -2.313  1.00  0.00     0.010 C 
BRANCH  14  15
ATOM     15  C   UNL     1       2.481  -1.037  -2.396  1.00  0.00     0.004 C 
BRANCH  15  16
ATOM     16  C   UNL     1       3.642  -0.582  -1.459  1.00  0.00    -0.011 C 
ATOM     17  C   UNL     1       3.480   0.922  -1.121  1.00  0.00     0.003 C 
ATOM     18  C   UNL     1       3.842  -1.424  -0.203  1.00  0.00     0.003 C 
ATOM     19  C   UNL     1       4.447   1.452  -0.063  1.00  0.00     0.000 C 
ATOM     20  C   UNL     1       4.891  -0.879   0.754  1.00  0.00     0.000 C 
ATOM     21  C   UNL     1       4.560   0.549   1.158  1.00  0.00     0.000 C 
ENDBRANCH  15  16
ENDBRANCH  14  15
ENDBRANCH  13  14
ENDBRANCH  11  13
ENDBRANCH   8  11
ENDBRANCH   1   5
BRANCH   3  22
ATOM     22  C   UNL     1      -2.877   2.818  -0.735  1.00  0.00     0.117 C 
BRANCH  22  23
ATOM     23  C   UNL     1      -3.099   4.250  -1.171  1.00  0.00     0.042 C 
BRANCH  23  24
ATOM     24  C   UNL     1      -3.769   4.366  -2.531  1.00  0.00     0.118 C 
BRANCH  24  25
ATOM     25  N   UNL     1      -5.088   3.744  -2.571  1.00  0.00    -0.352 N 
ATOM     26  C   UNL     1      -6.343   4.308  -2.564  1.00  0.00     0.251 C 
ATOM     27  H   UNL     1      -5.078   2.760  -2.610  1.00  0.00     0.163 HD
ATOM     28  O   UNL     1      -7.331   3.610  -2.393  1.00  0.00    -0.269 OA
BRANCH  26  29
ATOM     29  C   UNL     1      -6.484   5.769  -2.730  1.00  0.00     0.039 A 
ATOM     30  C   UNL     1      -7.392   6.464  -1.928  1.00  0.00     0.014 A 
ATOM     31  C   UNL     1      -5.702   6.455  -3.659  1.00  0.00     0.014 A 
ATOM     32  C   UNL     1      -7.442   7.857  -1.998  1.00  0.00     0.010 A 
ATOM     33  C   UNL     1      -5.657   7.840  -3.631  1.00  0.00     0.010 A 
ATOM     34  C   UNL     1      -6.537   8.559  -2.811  1.00  0.00    -0.014 A 
BRANCH  34  35
ATOM     35  C   UNL     1      -6.498  10.042  -2.840  1.00  0.00     0.031 A 
ATOM     36  C   UNL     1      -6.733  10.772  -4.136  1.00  0.00     0.074 A 
ATOM     37  C   UNL     1      -6.179  10.726  -1.724  1.00  0.00     0.049 A 
ATOM     38  N   UNL     1      -6.664  12.056  -4.384  1.00  0.00    -0.248 NA
ATOM     39  C   UNL     1      -7.053   9.951  -5.316  1.00  0.00     0.031 C 
ATOM     40  C   UNL     1      -5.881  10.135  -0.417  1.00  0.00     0.029 A 
ATOM     41  N   UNL     1      -6.049  12.076  -1.512  1.00  0.00    -0.354 N 
ATOM     42  C   UNL     1      -6.909  12.188  -5.745  1.00  0.00     0.074 A 
ATOM     43  C   UNL     1      -7.060  10.855  -6.283  1.00  0.00     0.031 C 
ATOM     44  C   UNL     1      -5.646  11.117   0.468  1.00  0.00     0.029 A 
ATOM     45  C   UNL     1      -5.725  12.402  -0.217  1.00  0.00     0.049 A 
ATOM     46  H   UNL     1      -6.175  12.747  -2.221  1.00  0.00     0.167 HD
ATOM     47  C   UNL     1      -7.028  13.318  -6.480  1.00  0.00     0.031 A 
ATOM     48  C   UNL     1      -5.511  13.602   0.353  1.00  0.00     0.031 A 
ATOM     49  C   UNL     1      -6.895  14.644  -5.942  1.00  0.00     0.049 A 
ATOM     50  C   UNL     1      -5.631  14.843  -0.489  1.00  0.00     0.074 A 
ATOM     51  C   UNL     1      -7.053  15.856  -6.589  1.00  0.00     0.029 A 
ATOM     52  N   UNL     1      -6.572  14.930  -4.625  1.00  0.00    -0.354 N 
ATOM     53  N   UNL     1      -5.932  14.954  -1.760  1.00  0.00    -0.248 NA
ATOM     54  C   UNL     1      -5.392  16.125   0.188  1.00  0.00     0.031 C 
ATOM     55  C   UNL     1      -6.769  16.876  -5.677  1.00  0.00     0.029 A 
ATOM     56  C   UNL     1      -6.500  16.300  -4.445  1.00  0.00     0.049 A 
ATOM     57  H   UNL     1      -6.417  14.258  -3.922  1.00  0.00     0.167 HD
ATOM     58  C   UNL     1      -5.950  16.317  -2.027  1.00  0.00     0.074 A 
ATOM     59  C   UNL     1      -5.647  16.991  -0.782  1.00  0.00     0.031 C 
ATOM     60  C   UNL     1      -6.197  16.953  -3.198  1.00  0.00     0.031 A 
BRANCH  47  61
ATOM     61  C   UNL     1      -7.315  13.162  -7.949  1.00  0.00    -0.014 A 
ATOM     62  C   UNL     1      -8.548  12.666  -8.402  1.00  0.00     0.009 A 
ATOM     63  C   UNL     1      -6.348  13.540  -8.894  1.00  0.00     0.009 A 
ATOM     64  C   UNL     1      -8.792  12.514  -9.769  1.00  0.00     0.001 A 
ATOM     65  C   UNL     1      -6.608  13.418 -10.260  1.00  0.00     0.001 A 
ATOM     66  C   UNL     1      -7.824  12.895 -10.696  1.00  0.00     0.000 A 
ENDBRANCH  47  61
BRANCH  48  67
ATOM     67  C   UNL     1      -5.181  13.696   1.800  1.00  0.00    -0.014 A 
ATOM     68  C   UNL     1      -6.100  14.250   2.705  1.00  0.00     0.009 A 
ATOM     69  C   UNL     1      -3.944  13.243   2.284  1.00  0.00     0.009 A 
ATOM     70  C   UNL     1      -5.775  14.377   4.058  1.00  0.00     0.001 A 
ATOM     71  C   UNL     1      -3.634  13.342   3.643  1.00  0.00     0.001 A 
ATOM     72  C   UNL     1      -4.545  13.919   4.526  1.00  0.00     0.000 A 
ENDBRANCH  48  67
BRANCH  60  73
ATOM     73  C   UNL     1      -6.192  18.456  -3.178  1.00  0.00    -0.014 A 
ATOM     74  C   UNL     1      -5.001  19.183  -3.030  1.00  0.00     0.009 A 
ATOM     75  C   UNL     1      -7.398  19.154  -3.356  1.00  0.00     0.009 A 
ATOM     76  C   UNL     1      -5.023  20.579  -3.024  1.00  0.00     0.001 A 
ATOM     77  C   UNL     1      -7.412  20.549  -3.383  1.00  0.00     0.001 A 
ATOM     78  C   UNL     1      -6.227  21.260  -3.207  1.00  0.00     0.000 A 
ENDBRANCH  60  73
ENDBRANCH  34  35
ENDBRANCH  26  29
ENDBRANCH  24  25
ENDBRANCH  23  24
ENDBRANCH  22  23
ENDBRANCH   3  22
TORSDOF 15
