REMARK SMILES CS(=O)(=O)NCCC(=O)N1CCC(Cc2cccc(C(=O)NCCCNC(=O)c3ccc(-c4c5nc(c(-c6ccccc6)c6ccc([nH]6)c(-c6ccccc6)c6nc(c(-c7ccccc7)c7ccc4[nH]7)C=C6)C=C5)cc3)c2)CC1
REMARK SMILES IDX 20 1 21 2 22 3 19 5 15 6 16 7 77 8 17 9 18 10 14 11 13 12
REMARK SMILES IDX 8 13 9 14 10 15 11 16 79 17 12 18 78 19 7 20 6 21 5 22 2 24
REMARK SMILES IDX 1 25 3 26 4 27 23 28 24 29 25 30 26 31 27 32 28 34 29 35
REMARK SMILES IDX 30 36 76 37 31 38 75 39 32 40 33 41 34 42 69 43 35 44 74 45
REMARK SMILES IDX 68 46 70 47 36 48 73 49 67 50 66 51 37 53 59 54 44 55 58 56
REMARK SMILES IDX 45 57 48 58 57 59 71 60 46 61 47 62 56 64 72 65 49 66 38 67
REMARK SMILES IDX 39 68 43 69 40 70 42 71 41 72 60 73 61 74 65 75 62 76 64 77
REMARK SMILES IDX 63 78 50 79 51 80 55 81 52 82 54 83 53 84
REMARK H PARENT 22 4 5 23 26 33 70 52 48 63
REMARK Flexibility Score: inf
ROOT
ATOM      1  C   UNL     1      -5.354  -8.147  -4.321  1.00  0.00     0.251 C 
ATOM      2  O   UNL     1      -6.034  -9.172  -4.421  1.00  0.00    -0.269 OA
ATOM      3  N   UNL     1      -5.745  -7.257  -3.354  1.00  0.00    -0.352 N 
ATOM      4  H   UNL     1      -6.562  -7.541  -2.884  1.00  0.00     0.163 HD
ENDROOT
BRANCH   1   5
ATOM      5  C   UNL     1      -4.169  -7.981  -5.215  1.00  0.00     0.040 A 
ATOM      6  C   UNL     1      -2.287  -6.747  -6.169  1.00  0.00    -0.047 A 
ATOM      7  C   UNL     1      -1.886  -7.888  -6.868  1.00  0.00     0.004 A 
ATOM      8  C   UNL     1      -3.467  -6.790  -5.405  1.00  0.00     0.017 A 
ATOM      9  C   UNL     1      -2.624  -9.064  -6.764  1.00  0.00     0.001 A 
ATOM     10  C   UNL     1      -3.741  -9.114  -5.926  1.00  0.00     0.014 A 
BRANCH   6  11
ATOM     11  C   UNL     1      -1.475  -5.476  -6.236  1.00  0.00     0.039 C 
BRANCH  11  12
ATOM     12  C   UNL     1      -1.019  -4.948  -4.857  1.00  0.00    -0.003 C 
ATOM     13  C   UNL     1       2.386  -3.751  -2.987  1.00  0.00     0.223 C 
ATOM     14  O   UNL     1       3.162  -4.557  -3.506  1.00  0.00    -0.275 OA
ATOM     15  N   UNL     1       1.018  -3.936  -3.045  1.00  0.00    -0.343 N 
ATOM     16  C   UNL     1       0.486  -5.279  -2.857  1.00  0.00     0.119 C 
ATOM     17  C   UNL     1       0.140  -2.996  -3.715  1.00  0.00     0.119 C 
ATOM     18  C   UNL     1      -0.008  -5.884  -4.169  1.00  0.00     0.025 C 
ATOM     19  C   UNL     1      -0.400  -3.554  -5.029  1.00  0.00     0.025 C 
BRANCH  13  20
ATOM     20  C   UNL     1       2.917  -2.699  -2.020  1.00  0.00     0.116 C 
BRANCH  20  21
ATOM     21  C   UNL     1       2.502  -1.244  -2.150  1.00  0.00     0.108 C 
BRANCH  21  22
ATOM     22  N   UNL     1       1.142  -0.939  -1.709  1.00  0.00    -0.215 NA
ATOM     23  H   UNL     1       0.956   0.008  -2.041  1.00  0.00     0.140 HD
BRANCH  22  24
ATOM     24  S   UNL     1       0.617  -0.966  -0.135  1.00  0.00     0.208 S 
ATOM     25  C   UNL     1       1.246   0.567   0.512  1.00  0.00     0.176 C 
ATOM     26  O   UNL     1       1.244  -2.061   0.559  1.00  0.00    -0.213 OA
ATOM     27  O   UNL     1      -0.824  -0.848  -0.230  1.00  0.00    -0.213 OA
ENDBRANCH  22  24
ENDBRANCH  21  22
ENDBRANCH  20  21
ENDBRANCH  13  20
ENDBRANCH  11  12
ENDBRANCH   6  11
ENDBRANCH   1   5
BRANCH   3  28
ATOM     28  C   UNL     1      -5.228  -5.991  -2.866  1.00  0.00     0.118 C 
BRANCH  28  29
ATOM     29  C   UNL     1      -5.997  -4.811  -3.462  1.00  0.00     0.042 C 
BRANCH  29  30
ATOM     30  C   UNL     1      -7.364  -4.597  -2.808  1.00  0.00     0.118 C 
BRANCH  30  31
ATOM     31  N   UNL     1      -7.247  -4.234  -1.399  1.00  0.00    -0.352 N 
ATOM     32  C   UNL     1      -7.575  -3.079  -0.736  1.00  0.00     0.251 C 
ATOM     33  H   UNL     1      -6.866  -4.939  -0.826  1.00  0.00     0.163 HD
ATOM     34  O   UNL     1      -7.159  -2.896   0.404  1.00  0.00    -0.269 OA
BRANCH  32  35
ATOM     35  C   UNL     1      -8.420  -2.053  -1.379  1.00  0.00     0.039 A 
ATOM     36  C   UNL     1      -8.113  -0.704  -1.181  1.00  0.00     0.014 A 
ATOM     37  C   UNL     1      -9.534  -2.414  -2.140  1.00  0.00     0.014 A 
ATOM     38  C   UNL     1      -8.875   0.280  -1.814  1.00  0.00     0.010 A 
ATOM     39  C   UNL     1     -10.245  -1.438  -2.832  1.00  0.00     0.010 A 
ATOM     40  C   UNL     1      -9.915  -0.083  -2.685  1.00  0.00    -0.014 A 
BRANCH  40  41
ATOM     41  C   UNL     1     -10.633   0.934  -3.493  1.00  0.00     0.031 A 
ATOM     42  C   UNL     1     -12.110   1.149  -3.319  1.00  0.00     0.074 A 
ATOM     43  C   UNL     1      -9.959   1.604  -4.448  1.00  0.00     0.049 A 
ATOM     44  N   UNL     1     -12.912   1.934  -3.991  1.00  0.00    -0.248 NA
ATOM     45  C   UNL     1     -12.777   0.362  -2.269  1.00  0.00     0.031 C 
ATOM     46  C   UNL     1      -8.531   1.453  -4.741  1.00  0.00     0.029 A 
ATOM     47  N   UNL     1     -10.385   2.538  -5.358  1.00  0.00    -0.354 N 
ATOM     48  C   UNL     1     -14.178   1.727  -3.458  1.00  0.00     0.074 A 
ATOM     49  C   UNL     1     -14.046   0.707  -2.440  1.00  0.00     0.031 C 
ATOM     50  C   UNL     1      -8.196   2.284  -5.739  1.00  0.00     0.029 A 
ATOM     51  C   UNL     1      -9.391   2.985  -6.194  1.00  0.00     0.049 A 
ATOM     52  H   UNL     1     -11.315   2.857  -5.408  1.00  0.00     0.167 HD
ATOM     53  C   UNL     1     -15.342   2.341  -3.777  1.00  0.00     0.031 A 
ATOM     54  C   UNL     1      -9.436   3.850  -7.225  1.00  0.00     0.031 A 
ATOM     55  C   UNL     1     -15.468   3.352  -4.794  1.00  0.00     0.049 A 
ATOM     56  C   UNL     1     -10.749   4.484  -7.588  1.00  0.00     0.074 A 
ATOM     57  C   UNL     1     -16.590   4.079  -5.152  1.00  0.00     0.029 A 
ATOM     58  N   UNL     1     -14.440   3.768  -5.626  1.00  0.00    -0.354 N 
ATOM     59  N   UNL     1     -11.921   4.339  -7.018  1.00  0.00    -0.248 NA
ATOM     60  C   UNL     1     -10.745   5.401  -8.736  1.00  0.00     0.031 C 
ATOM     61  C   UNL     1     -16.259   4.883  -6.246  1.00  0.00     0.029 A 
ATOM     62  C   UNL     1     -14.913   4.709  -6.526  1.00  0.00     0.049 A 
ATOM     63  H   UNL     1     -13.512   3.443  -5.583  1.00  0.00     0.167 HD
ATOM     64  C   UNL     1     -12.790   5.159  -7.726  1.00  0.00     0.074 A 
ATOM     65  C   UNL     1     -12.004   5.817  -8.749  1.00  0.00     0.031 C 
ATOM     66  C   UNL     1     -14.120   5.345  -7.547  1.00  0.00     0.031 A 
BRANCH  53  67
ATOM     67  C   UNL     1     -16.579   1.924  -3.028  1.00  0.00    -0.014 A 
ATOM     68  C   UNL     1     -16.743   2.220  -1.665  1.00  0.00     0.009 A 
ATOM     69  C   UNL     1     -17.615   1.261  -3.705  1.00  0.00     0.009 A 
ATOM     70  C   UNL     1     -17.899   1.826  -0.988  1.00  0.00     0.001 A 
ATOM     71  C   UNL     1     -18.784   0.897  -3.034  1.00  0.00     0.001 A 
ATOM     72  C   UNL     1     -18.921   1.171  -1.674  1.00  0.00     0.000 A 
ENDBRANCH  53  67
BRANCH  54  73
ATOM     73  C   UNL     1      -8.201   4.159  -7.992  1.00  0.00    -0.014 A 
ATOM     74  C   UNL     1      -7.617   5.432  -7.922  1.00  0.00     0.009 A 
ATOM     75  C   UNL     1      -7.597   3.181  -8.800  1.00  0.00     0.009 A 
ATOM     76  C   UNL     1      -6.470   5.728  -8.663  1.00  0.00     0.001 A 
ATOM     77  C   UNL     1      -6.432   3.469  -9.514  1.00  0.00     0.001 A 
ATOM     78  C   UNL     1      -5.876   4.745  -9.453  1.00  0.00     0.000 A 
ENDBRANCH  54  73
BRANCH  66  79
ATOM     79  C   UNL     1     -14.809   6.308  -8.473  1.00  0.00    -0.014 A 
ATOM     80  C   UNL     1     -15.029   5.986  -9.822  1.00  0.00     0.009 A 
ATOM     81  C   UNL     1     -15.288   7.531  -7.979  1.00  0.00     0.009 A 
ATOM     82  C   UNL     1     -15.690   6.884 -10.663  1.00  0.00     0.001 A 
ATOM     83  C   UNL     1     -15.977   8.412  -8.814  1.00  0.00     0.001 A 
ATOM     84  C   UNL     1     -16.170   8.091 -10.157  1.00  0.00     0.000 A 
ENDBRANCH  66  79
ENDBRANCH  40  41
ENDBRANCH  32  35
ENDBRANCH  30  31
ENDBRANCH  29  30
ENDBRANCH  28  29
ENDBRANCH   3  28
TORSDOF 16
