REMARK SMILES Cc1cc(C)c2c(c1)C=C(C(=O)NCCCNC(=O)c1ccc(-c3c4nc(c(-c5ccccc5)c5ccc([nH]5)c(-c5ccccc5)c5nc(c(-c6ccccc6)c6ccc3[nH]6)C=C5)C=C4)cc1)[C@@H](C(F)(F)F)O2
REMARK SMILES IDX 15 1 14 2 13 3 11 4 12 5 10 7 1 8 2 9 3 10 8 11 4 12 7 13
REMARK SMILES IDX 5 14 6 15 9 16 73 17 68 18 69 19 70 20 71 21 72 22 16 23
REMARK SMILES IDX 17 24 18 25 19 27 20 28 21 29 67 30 22 31 66 32 23 33 24 34
REMARK SMILES IDX 25 35 60 36 26 37 65 38 59 39 61 40 27 41 64 42 58 43 57 44
REMARK SMILES IDX 28 46 50 47 35 48 49 49 36 50 39 51 48 52 62 53 37 54 38 55
REMARK SMILES IDX 47 57 63 58 40 59 29 60 30 61 34 62 31 63 33 64 32 65 51 66
REMARK SMILES IDX 52 67 56 68 53 69 55 70 54 71 41 72 42 73 46 74 43 75 45 76
REMARK SMILES IDX 44 77
REMARK H PARENT 13 6 17 26 61 45 39 56
REMARK Flexibility Score: inf
ROOT
ATOM      1  C   UNL     1      -0.593   3.780   9.105  1.00  0.00     0.042 C 
ENDROOT
BRANCH   1   2
ATOM      2  C   UNL     1      -1.549   3.912   7.930  1.00  0.00     0.118 C 
BRANCH   2   3
ATOM      3  N   UNL     1      -0.950   4.643   6.824  1.00  0.00    -0.352 N 
ATOM      4  C   UNL     1      -0.479   4.361   5.587  1.00  0.00     0.251 C 
ATOM      5  O   UNL     1      -0.038   5.329   4.959  1.00  0.00    -0.270 OA
ATOM      6  H   UNL     1      -0.865   5.602   7.031  1.00  0.00     0.163 HD
BRANCH   4   7
ATOM      7  C   UNL     1      -0.460   3.005   4.970  1.00  0.00     0.067 C 
ATOM      8  C   UNL     1       1.110   0.063  -0.237  1.00  0.00     0.044 C 
ATOM      9  C   UNL     1       0.627   0.206   1.176  1.00  0.00    -0.050 A 
ATOM     10  C   UNL     1       0.284  -0.929   1.924  1.00  0.00     0.010 A 
ATOM     11  C   UNL     1       0.575   1.471   1.779  1.00  0.00     0.015 A 
ATOM     12  C   UNL     1      -0.124  -0.813   3.257  1.00  0.00    -0.008 A 
ATOM     13  C   UNL     1       0.164   1.603   3.108  1.00  0.00     0.018 A 
ATOM     14  C   UNL     1      -0.504  -2.027   4.054  1.00  0.00     0.048 C 
ATOM     15  C   UNL     1      -0.183   0.461   3.833  1.00  0.00     0.130 A 
ATOM     16  C   UNL     1       0.129   2.906   3.764  1.00  0.00     0.025 C 
ATOM     17  O   UNL     1      -0.542   0.523   5.150  1.00  0.00    -0.475 OA
ATOM     18  C   UNL     1      -1.071   1.791   5.606  1.00  0.00     0.314 C 
BRANCH  18  19
ATOM     19  C   UNL     1      -2.608   1.772   5.505  1.00  0.00     0.429 C 
ATOM     20  F   UNL     1      -3.128   0.907   6.413  1.00  0.00    -0.167 F 
ATOM     21  F   UNL     1      -3.163   2.980   5.769  1.00  0.00    -0.167 F 
ATOM     22  F   UNL     1      -3.053   1.398   4.286  1.00  0.00    -0.167 F 
ENDBRANCH  18  19
ENDBRANCH   4   7
ENDBRANCH   2   3
ENDBRANCH   1   2
BRANCH   1  23
ATOM     23  C   UNL     1      -0.524   5.059   9.926  1.00  0.00     0.118 C 
BRANCH  23  24
ATOM     24  N   UNL     1      -1.811   5.373  10.545  1.00  0.00    -0.352 N 
ATOM     25  C   UNL     1      -2.217   5.256  11.848  1.00  0.00     0.251 C 
ATOM     26  H   UNL     1      -2.494   5.723   9.928  1.00  0.00     0.163 HD
ATOM     27  O   UNL     1      -3.415   5.291  12.124  1.00  0.00    -0.269 OA
BRANCH  25  28
ATOM     28  C   UNL     1      -1.217   5.090  12.918  1.00  0.00     0.039 A 
ATOM     29  C   UNL     1      -1.483   4.222  13.979  1.00  0.00     0.014 A 
ATOM     30  C   UNL     1      -0.025   5.816  12.881  1.00  0.00     0.014 A 
ATOM     31  C   UNL     1      -0.520   4.037  14.970  1.00  0.00     0.010 A 
ATOM     32  C   UNL     1       0.972   5.552  13.807  1.00  0.00     0.010 A 
ATOM     33  C   UNL     1       0.728   4.676  14.872  1.00  0.00    -0.014 A 
BRANCH  33  34
ATOM     34  C   UNL     1       1.782   4.475  15.892  1.00  0.00     0.031 A 
ATOM     35  C   UNL     1       2.254   5.642  16.714  1.00  0.00     0.074 A 
ATOM     36  C   UNL     1       2.346   3.261  16.037  1.00  0.00     0.049 A 
ATOM     37  N   UNL     1       3.203   5.685  17.613  1.00  0.00    -0.248 NA
ATOM     38  C   UNL     1       1.592   6.938  16.479  1.00  0.00     0.031 C 
ATOM     39  C   UNL     1       1.992   2.063  15.271  1.00  0.00     0.029 A 
ATOM     40  N   UNL     1       3.337   2.833  16.883  1.00  0.00    -0.354 N 
ATOM     41  C   UNL     1       3.256   7.006  18.039  1.00  0.00     0.074 A 
ATOM     42  C   UNL     1       2.293   7.748  17.259  1.00  0.00     0.031 C 
ATOM     43  C   UNL     1       2.724   1.028  15.712  1.00  0.00     0.029 A 
ATOM     44  C   UNL     1       3.629   1.496  16.757  1.00  0.00     0.049 A 
ATOM     45  H   UNL     1       3.795   3.427  17.520  1.00  0.00     0.167 HD
ATOM     46  C   UNL     1       4.018   7.547  19.017  1.00  0.00     0.031 A 
ATOM     47  C   UNL     1       4.526   0.735  17.411  1.00  0.00     0.031 A 
ATOM     48  C   UNL     1       4.958   6.800  19.805  1.00  0.00     0.049 A 
ATOM     49  C   UNL     1       5.381   1.369  18.473  1.00  0.00     0.074 A 
ATOM     50  C   UNL     1       5.745   7.246  20.851  1.00  0.00     0.029 A 
ATOM     51  N   UNL     1       5.233   5.453  19.637  1.00  0.00    -0.354 N 
ATOM     52  N   UNL     1       5.379   2.608  18.903  1.00  0.00    -0.248 NA
ATOM     53  C   UNL     1       6.357   0.499  19.145  1.00  0.00     0.031 C 
ATOM     54  C   UNL     1       6.538   6.179  21.281  1.00  0.00     0.029 A 
ATOM     55  C   UNL     1       6.199   5.055  20.544  1.00  0.00     0.049 A 
ATOM     56  H   UNL     1       4.806   4.866  18.971  1.00  0.00     0.167 HD
ATOM     57  C   UNL     1       6.334   2.661  19.910  1.00  0.00     0.074 A 
ATOM     58  C   UNL     1       6.880   1.326  20.040  1.00  0.00     0.031 C 
ATOM     59  C   UNL     1       6.726   3.720  20.658  1.00  0.00     0.031 A 
BRANCH  46  60
ATOM     60  C   UNL     1       3.854   9.012  19.304  1.00  0.00    -0.014 A 
ATOM     61  C   UNL     1       2.691   9.502  19.919  1.00  0.00     0.009 A 
ATOM     62  C   UNL     1       4.901   9.903  19.023  1.00  0.00     0.009 A 
ATOM     63  C   UNL     1       2.572  10.858  20.230  1.00  0.00     0.001 A 
ATOM     64  C   UNL     1       4.791  11.253  19.362  1.00  0.00     0.001 A 
ATOM     65  C   UNL     1       3.626  11.730  19.960  1.00  0.00     0.000 A 
ENDBRANCH  46  60
BRANCH  47  66
ATOM     66  C   UNL     1       4.642  -0.714  17.100  1.00  0.00    -0.014 A 
ATOM     67  C   UNL     1       4.229  -1.677  18.034  1.00  0.00     0.009 A 
ATOM     68  C   UNL     1       5.156  -1.145  15.867  1.00  0.00     0.009 A 
ATOM     69  C   UNL     1       4.350  -3.039  17.750  1.00  0.00     0.001 A 
ATOM     70  C   UNL     1       5.247  -2.508  15.572  1.00  0.00     0.001 A 
ATOM     71  C   UNL     1       4.853  -3.453  16.517  1.00  0.00     0.000 A 
ENDBRANCH  47  66
BRANCH  59  72
ATOM     72  C   UNL     1       7.782   3.484  21.699  1.00  0.00    -0.014 A 
ATOM     73  C   UNL     1       9.121   3.276  21.338  1.00  0.00     0.009 A 
ATOM     74  C   UNL     1       7.445   3.560  23.061  1.00  0.00     0.009 A 
ATOM     75  C   UNL     1      10.101   3.129  22.321  1.00  0.00     0.001 A 
ATOM     76  C   UNL     1       8.431   3.444  24.040  1.00  0.00     0.001 A 
ATOM     77  C   UNL     1       9.757   3.222  23.670  1.00  0.00     0.000 A 
ENDBRANCH  59  72
ENDBRANCH  33  34
ENDBRANCH  25  28
ENDBRANCH  23  24
ENDBRANCH   1  23
TORSDOF 11
