REMARK SMILES CC(C)C[N@@H+](C[C@@H](C)C(=O)NCCCNC(=O)c1ccc(-c2c3nc(c(-c4ccccc4)c4ccc([nH]4)c(-c4ccccc4)c4nc(c(-c5ccccc5)c5ccc2[nH]5)C=C4)C=C3)cc1)C1CCCC1
REMARK SMILES IDX 12 1 11 2 9 3 10 4 7 6 8 7 6 8 5 9 4 11 2 12 1 13 3 14 66 15
REMARK SMILES IDX 67 16 70 17 68 18 69 19 13 20 14 21 15 22 16 23 17 25 18 26
REMARK SMILES IDX 19 27 65 28 20 29 64 30 21 31 22 32 23 33 58 34 24 35 63 36
REMARK SMILES IDX 57 37 59 38 25 39 62 40 56 41 55 42 26 44 48 45 33 46 47 47
REMARK SMILES IDX 34 48 37 49 46 50 60 51 35 52 36 53 45 55 61 56 38 57 27 58
REMARK SMILES IDX 28 59 32 60 29 61 31 62 30 63 49 64 50 65 54 66 51 67 53 68
REMARK SMILES IDX 52 69 39 70 40 71 44 72 41 73 43 74 42 75
REMARK H PARENT 11 5 5 10 15 24 59 43 37 54
REMARK Flexibility Score: inf
ROOT
ATOM      1  C   UNL     1      -5.313   2.057  -1.032  1.00  0.00     0.117 C 
ENDROOT
BRANCH   1   2
ATOM      2  N   UNL     1      -5.749   0.785  -0.493  1.00  0.00    -0.356 N 
ATOM      3  C   UNL     1      -5.037  -0.250   0.026  1.00  0.00     0.228 C 
ATOM      4  O   UNL     1      -5.673  -1.251   0.370  1.00  0.00    -0.275 OA
ATOM      5  H   UNL     1      -6.724   0.648  -0.505  1.00  0.00     0.163 HD
BRANCH   3   6
ATOM      6  C   UNL     1      -3.525  -0.185   0.231  1.00  0.00     0.130 C 
ATOM      7  C   UNL     1      -3.187   0.838   1.314  1.00  0.00     0.024 C 
BRANCH   6   8
ATOM      8  C   UNL     1      -2.761  -0.106  -1.115  1.00  0.00     0.275 C 
BRANCH   8   9
ATOM      9  N   UNL     1      -1.280  -0.025  -1.125  1.00  0.00    -0.332 N 
ATOM     10  H   UNL     1      -0.974  -0.151  -2.090  1.00  0.00     0.348 HD
BRANCH   9  11
ATOM     11  C   UNL     1      -0.708  -1.151  -0.350  1.00  0.00     0.265 C 
BRANCH  11  12
ATOM     12  C   UNL     1       0.822  -1.381  -0.290  1.00  0.00     0.038 C 
ATOM     13  C   UNL     1       1.520  -0.531   0.779  1.00  0.00     0.013 C 
ATOM     14  C   UNL     1       1.099  -2.855   0.049  1.00  0.00     0.013 C 
ENDBRANCH  11  12
ENDBRANCH   9  11
BRANCH   9  15
ATOM     15  C   UNL     1      -0.703   1.303  -0.891  1.00  0.00     0.184 C 
ATOM     16  C   UNL     1       0.549   1.581  -1.745  1.00  0.00     0.065 C 
ATOM     17  C   UNL     1      -1.523   2.546  -1.296  1.00  0.00     0.065 C 
ATOM     18  C   UNL     1       0.844   3.048  -1.456  1.00  0.00     0.006 C 
ATOM     19  C   UNL     1      -0.523   3.701  -1.312  1.00  0.00     0.006 C 
ENDBRANCH   9  15
ENDBRANCH   8   9
ENDBRANCH   6   8
ENDBRANCH   3   6
ENDBRANCH   1   2
BRANCH   1  20
ATOM     20  C   UNL     1      -5.496   2.127  -2.541  1.00  0.00     0.042 C 
BRANCH  20  21
ATOM     21  C   UNL     1      -6.951   2.289  -2.949  1.00  0.00     0.118 C 
BRANCH  21  22
ATOM     22  N   UNL     1      -7.501   3.571  -2.526  1.00  0.00    -0.352 N 
ATOM     23  C   UNL     1      -8.046   4.584  -3.277  1.00  0.00     0.251 C 
ATOM     24  H   UNL     1      -7.479   3.736  -1.556  1.00  0.00     0.163 HD
ATOM     25  O   UNL     1      -8.267   5.675  -2.772  1.00  0.00    -0.269 OA
BRANCH  23  26
ATOM     26  C   UNL     1      -8.347   4.351  -4.705  1.00  0.00     0.039 A 
ATOM     27  C   UNL     1      -8.024   5.339  -5.638  1.00  0.00     0.014 A 
ATOM     28  C   UNL     1      -8.936   3.155  -5.118  1.00  0.00     0.014 A 
ATOM     29  C   UNL     1      -8.225   5.094  -6.997  1.00  0.00     0.010 A 
ATOM     30  C   UNL     1      -9.048   2.876  -6.473  1.00  0.00     0.010 A 
ATOM     31  C   UNL     1      -8.699   3.844  -7.426  1.00  0.00    -0.014 A 
BRANCH  31  32
ATOM     32  C   UNL     1      -8.850   3.518  -8.865  1.00  0.00     0.031 A 
ATOM     33  C   UNL     1     -10.208   3.184  -9.416  1.00  0.00     0.074 A 
ATOM     34  C   UNL     1      -7.758   3.432  -9.649  1.00  0.00     0.049 A 
ATOM     35  N   UNL     1     -10.533   2.757 -10.609  1.00  0.00    -0.248 NA
ATOM     36  C   UNL     1     -11.349   3.317  -8.494  1.00  0.00     0.031 C 
ATOM     37  C   UNL     1      -6.382   3.698  -9.223  1.00  0.00     0.029 A 
ATOM     38  N   UNL     1      -7.634   3.081 -10.969  1.00  0.00    -0.354 N 
ATOM     39  C   UNL     1     -11.906   2.548 -10.572  1.00  0.00     0.074 A 
ATOM     40  C   UNL     1     -12.345   2.844  -9.227  1.00  0.00     0.031 C 
ATOM     41  C   UNL     1      -5.557   3.524 -10.268  1.00  0.00     0.029 A 
ATOM     42  C   UNL     1      -6.336   3.085 -11.421  1.00  0.00     0.049 A 
ATOM     43  H   UNL     1      -8.402   2.848 -11.540  1.00  0.00     0.167 HD
ATOM     44  C   UNL     1     -12.730   2.162 -11.574  1.00  0.00     0.031 A 
ATOM     45  C   UNL     1      -5.829   2.755 -12.624  1.00  0.00     0.031 A 
ATOM     46  C   UNL     1     -12.291   1.881 -12.913  1.00  0.00     0.049 A 
ATOM     47  C   UNL     1      -6.763   2.304 -13.713  1.00  0.00     0.074 A 
ATOM     48  C   UNL     1     -13.054   1.539 -14.015  1.00  0.00     0.029 A 
ATOM     49  N   UNL     1     -10.970   1.908 -13.331  1.00  0.00    -0.354 N 
ATOM     50  N   UNL     1      -8.067   2.174 -13.681  1.00  0.00    -0.248 NA
ATOM     51  C   UNL     1      -6.155   1.961 -15.006  1.00  0.00     0.031 C 
ATOM     52  C   UNL     1     -12.189   1.304 -15.087  1.00  0.00     0.029 A 
ATOM     53  C   UNL     1     -10.893   1.562 -14.669  1.00  0.00     0.049 A 
ATOM     54  H   UNL     1     -10.201   2.139 -12.761  1.00  0.00     0.167 HD
ATOM     55  C   UNL     1      -8.438   1.767 -14.956  1.00  0.00     0.074 A 
ATOM     56  C   UNL     1      -7.223   1.682 -15.739  1.00  0.00     0.031 C 
ATOM     57  C   UNL     1      -9.675   1.491 -15.435  1.00  0.00     0.031 A 
BRANCH  44  58
ATOM     58  C   UNL     1     -14.191   2.013 -11.251  1.00  0.00    -0.014 A 
ATOM     59  C   UNL     1     -14.993   3.130 -10.964  1.00  0.00     0.009 A 
ATOM     60  C   UNL     1     -14.783   0.740 -11.267  1.00  0.00     0.009 A 
ATOM     61  C   UNL     1     -16.347   2.971 -10.662  1.00  0.00     0.001 A 
ATOM     62  C   UNL     1     -16.143   0.587 -10.996  1.00  0.00     0.001 A 
ATOM     63  C   UNL     1     -16.922   1.701 -10.683  1.00  0.00     0.000 A 
ENDBRANCH  44  58
BRANCH  45  64
ATOM     64  C   UNL     1      -4.365   2.846 -12.866  1.00  0.00    -0.014 A 
ATOM     65  C   UNL     1      -3.846   3.827 -13.724  1.00  0.00     0.009 A 
ATOM     66  C   UNL     1      -3.479   1.950 -12.246  1.00  0.00     0.009 A 
ATOM     67  C   UNL     1      -2.474   3.893 -13.977  1.00  0.00     0.001 A 
ATOM     68  C   UNL     1      -2.105   2.038 -12.478  1.00  0.00     0.001 A 
ATOM     69  C   UNL     1      -1.604   3.001 -13.351  1.00  0.00     0.000 A 
ENDBRANCH  45  64
BRANCH  57  70
ATOM     70  C   UNL     1      -9.789   1.117 -16.885  1.00  0.00    -0.014 A 
ATOM     71  C   UNL     1      -9.365  -0.136 -17.353  1.00  0.00     0.009 A 
ATOM     72  C   UNL     1     -10.393   2.011 -17.784  1.00  0.00     0.009 A 
ATOM     73  C   UNL     1      -9.523  -0.476 -18.698  1.00  0.00     0.001 A 
ATOM     74  C   UNL     1     -10.577   1.657 -19.120  1.00  0.00     0.001 A 
ATOM     75  C   UNL     1     -10.136   0.417 -19.578  1.00  0.00     0.000 A 
ENDBRANCH  57  70
ENDBRANCH  31  32
ENDBRANCH  23  26
ENDBRANCH  21  22
ENDBRANCH  20  21
ENDBRANCH   1  20
TORSDOF 15
