REMARK SMILES CC[C@](O)(C(=O)NCCCNC(=O)c1ccc(-c2c3nc(c(-c4ccccc4)c4ccc([nH]4)c(-c4ccccc4)c4nc(c(-c5ccccc5)c5ccc2[nH]5)C=C4)C=C3)cc1)[C@H](C)c1ccc(F)cc1F
REMARK SMILES IDX 9 1 8 2 7 3 5 4 6 5 3 7 2 8 1 9 4 10 62 12 63 13 64 14 65 15
REMARK SMILES IDX 70 16 66 17 69 18 71 19 67 20 68 21 10 22 11 23 12 24 13 26
REMARK SMILES IDX 14 27 15 28 61 29 16 30 60 31 17 32 18 33 19 34 54 35 20 36
REMARK SMILES IDX 59 37 53 38 55 39 21 40 58 41 52 42 51 43 22 45 44 46 29 47
REMARK SMILES IDX 43 48 30 49 33 50 42 51 56 52 31 53 32 54 41 56 57 57 34 58
REMARK SMILES IDX 23 59 24 60 28 61 25 62 27 63 26 64 45 65 46 66 50 67 47 68
REMARK SMILES IDX 49 69 48 70 35 71 36 72 40 73 37 74 39 75 38 76
REMARK H PARENT 7 6 4 11 11 25 55 44 33 55
REMARK Flexibility Score: inf
ROOT
ATOM      1  C   UNL     1       4.392   3.061  -5.704  1.00  0.00     0.042 C 
ENDROOT
BRANCH   1   2
ATOM      2  C   UNL     1       3.458   2.736  -4.558  1.00  0.00     0.117 C 
BRANCH   2   3
ATOM      3  N   UNL     1       2.597   1.601  -4.823  1.00  0.00    -0.354 N 
ATOM      4  C   UNL     1       2.282   0.545  -4.011  1.00  0.00     0.252 C 
ATOM      5  O   UNL     1       1.580  -0.331  -4.524  1.00  0.00    -0.272 OA
ATOM      6  H   UNL     1       2.179   1.587  -5.714  1.00  0.00     0.163 HD
BRANCH   4   7
ATOM      7  C   UNL     1       2.816   0.454  -2.531  1.00  0.00     0.149 C 
BRANCH   7   8
ATOM      8  C   UNL     1       2.521   1.774  -1.769  1.00  0.00     0.043 C 
ATOM      9  C   UNL     1       3.719   2.351  -1.005  1.00  0.00     0.007 C 
ENDBRANCH   7   8
BRANCH   7  10
ATOM     10  O   UNL     1       4.250   0.303  -2.663  1.00  0.00    -0.379 OA
ATOM     11  H   UNL     1       4.622   1.095  -3.081  1.00  0.00     0.212 HD
ENDBRANCH   7  10
BRANCH   7  12
ATOM     12  C   UNL     1       2.218  -0.852  -1.845  1.00  0.00     0.060 C 
ATOM     13  C   UNL     1       0.682  -0.906  -1.776  1.00  0.00     0.016 C 
BRANCH  12  14
ATOM     14  C   UNL     1       2.785  -1.276  -0.481  1.00  0.00    -0.006 A 
ATOM     15  C   UNL     1       3.255  -2.597  -0.330  1.00  0.00     0.010 A 
ATOM     16  C   UNL     1       2.767  -0.476   0.671  1.00  0.00     0.129 A 
ATOM     17  C   UNL     1       3.733  -3.057   0.902  1.00  0.00     0.040 A 
ATOM     18  C   UNL     1       3.294  -0.905   1.885  1.00  0.00     0.078 A 
ATOM     19  F   UNL     1       2.184   0.725   0.675  1.00  0.00    -0.207 F 
ATOM     20  C   UNL     1       3.772  -2.197   1.991  1.00  0.00     0.126 A 
ATOM     21  F   UNL     1       4.244  -2.631   3.166  1.00  0.00    -0.207 F 
ENDBRANCH  12  14
ENDBRANCH   7  12
ENDBRANCH   4   7
ENDBRANCH   2   3
ENDBRANCH   1   2
BRANCH   1  22
ATOM     22  C   UNL     1       3.681   3.546  -6.953  1.00  0.00     0.118 C 
BRANCH  22  23
ATOM     23  N   UNL     1       2.998   4.822  -6.770  1.00  0.00    -0.352 N 
ATOM     24  C   UNL     1       3.240   6.050  -7.347  1.00  0.00     0.251 C 
ATOM     25  H   UNL     1       2.246   4.803  -6.135  1.00  0.00     0.163 HD
ATOM     26  O   UNL     1       2.656   7.044  -6.946  1.00  0.00    -0.269 OA
BRANCH  24  27
ATOM     27  C   UNL     1       4.238   6.161  -8.433  1.00  0.00     0.039 A 
ATOM     28  C   UNL     1       5.136   7.230  -8.425  1.00  0.00     0.014 A 
ATOM     29  C   UNL     1       4.308   5.195  -9.437  1.00  0.00     0.014 A 
ATOM     30  C   UNL     1       6.162   7.274  -9.372  1.00  0.00     0.010 A 
ATOM     31  C   UNL     1       5.398   5.171 -10.294  1.00  0.00     0.010 A 
ATOM     32  C   UNL     1       6.332   6.216 -10.281  1.00  0.00    -0.014 A 
BRANCH  32  33
ATOM     33  C   UNL     1       7.466   6.183 -11.237  1.00  0.00     0.031 A 
ATOM     34  C   UNL     1       7.197   6.144 -12.718  1.00  0.00     0.074 A 
ATOM     35  C   UNL     1       8.730   6.111 -10.776  1.00  0.00     0.049 A 
ATOM     36  N   UNL     1       8.045   6.037 -13.709  1.00  0.00    -0.248 NA
ATOM     37  C   UNL     1       5.787   6.199 -13.141  1.00  0.00     0.031 C 
ATOM     38  C   UNL     1       9.122   6.088  -9.364  1.00  0.00     0.029 A 
ATOM     39  N   UNL     1       9.923   6.037 -11.450  1.00  0.00    -0.354 N 
ATOM     40  C   UNL     1       7.271   5.989 -14.862  1.00  0.00     0.074 A 
ATOM     41  C   UNL     1       5.887   6.014 -14.448  1.00  0.00     0.031 C 
ATOM     42  C   UNL     1      10.461   6.045  -9.280  1.00  0.00     0.029 A 
ATOM     43  C   UNL     1      11.021   5.987 -10.625  1.00  0.00     0.049 A 
ATOM     44  H   UNL     1       9.986   6.021 -12.433  1.00  0.00     0.167 HD
ATOM     45  C   UNL     1       7.675   5.955 -16.153  1.00  0.00     0.031 A 
ATOM     46  C   UNL     1      12.331   5.899 -10.920  1.00  0.00     0.031 A 
ATOM     47  C   UNL     1       9.052   5.948 -16.565  1.00  0.00     0.049 A 
ATOM     48  C   UNL     1      12.754   5.851 -12.363  1.00  0.00     0.074 A 
ATOM     49  C   UNL     1       9.568   5.975 -17.848  1.00  0.00     0.029 A 
ATOM     50  N   UNL     1      10.133   5.910 -15.698  1.00  0.00    -0.354 N 
ATOM     51  N   UNL     1      12.012   5.883 -13.443  1.00  0.00    -0.248 NA
ATOM     52  C   UNL     1      14.197   5.768 -12.625  1.00  0.00     0.031 C 
ATOM     53  C   UNL     1      10.961   5.898 -17.759  1.00  0.00     0.029 A 
ATOM     54  C   UNL     1      11.314   5.888 -16.419  1.00  0.00     0.049 A 
ATOM     55  H   UNL     1      10.070   5.901 -14.715  1.00  0.00     0.167 HD
ATOM     56  C   UNL     1      12.898   5.854 -14.512  1.00  0.00     0.074 A 
ATOM     57  C   UNL     1      14.232   5.821 -13.949  1.00  0.00     0.031 C 
ATOM     58  C   UNL     1      12.632   5.857 -15.841  1.00  0.00     0.031 A 
BRANCH  45  59
ATOM     59  C   UNL     1       6.608   5.921 -17.212  1.00  0.00    -0.014 A 
ATOM     60  C   UNL     1       5.779   7.030 -17.448  1.00  0.00     0.009 A 
ATOM     61  C   UNL     1       6.449   4.776 -18.008  1.00  0.00     0.009 A 
ATOM     62  C   UNL     1       4.788   6.978 -18.430  1.00  0.00     0.001 A 
ATOM     63  C   UNL     1       5.480   4.739 -19.012  1.00  0.00     0.001 A 
ATOM     64  C   UNL     1       4.644   5.835 -19.215  1.00  0.00     0.000 A 
ENDBRANCH  45  59
BRANCH  46  65
ATOM     65  C   UNL     1      13.344   5.867  -9.831  1.00  0.00    -0.014 A 
ATOM     66  C   UNL     1      14.213   6.952  -9.634  1.00  0.00     0.009 A 
ATOM     67  C   UNL     1      13.457   4.749  -8.991  1.00  0.00     0.009 A 
ATOM     68  C   UNL     1      15.194   6.903  -8.641  1.00  0.00     0.001 A 
ATOM     69  C   UNL     1      14.418   4.716  -7.978  1.00  0.00     0.001 A 
ATOM     70  C   UNL     1      15.293   5.788  -7.811  1.00  0.00     0.000 A 
ENDBRANCH  46  65
BRANCH  58  71
ATOM     71  C   UNL     1      13.807   5.866 -16.778  1.00  0.00    -0.014 A 
ATOM     72  C   UNL     1      14.620   4.734 -16.943  1.00  0.00     0.009 A 
ATOM     73  C   UNL     1      14.075   7.014 -17.540  1.00  0.00     0.009 A 
ATOM     74  C   UNL     1      15.700   4.765 -17.828  1.00  0.00     0.001 A 
ATOM     75  C   UNL     1      15.135   7.031 -18.447  1.00  0.00     0.001 A 
ATOM     76  C   UNL     1      15.952   5.911 -18.583  1.00  0.00     0.000 A 
ENDBRANCH  58  71
ENDBRANCH  32  33
ENDBRANCH  24  27
ENDBRANCH  22  23
ENDBRANCH   1  22
TORSDOF 14
