REMARK SMILES Cc1ccc(Cl)c(Nc2ccccc2C(=O)N[C@@H](C)C(=O)NCCCNC(=O)c2ccc(-c3c4nc(c(-c5ccccc5)c5ccc([nH]5)c(-c5ccccc5)c5nc(c(-c6ccccc6)c6ccc3[nH]6)C=C5)C=C4)cc2)c1Cl
REMARK SMILES IDX 23 1 22 2 20 3 21 4 18 6 19 7 17 8 15 9 16 10 14 12 9 13
REMARK SMILES IDX 10 14 11 15 13 16 12 17 8 18 7 20 1 21 2 22 3 23 77 24 4 25
REMARK SMILES IDX 78 26 5 27 6 28 24 29 25 30 26 31 27 32 28 34 29 35 30 36
REMARK SMILES IDX 76 37 31 38 75 39 32 40 33 41 34 42 69 43 35 44 74 45 68 46
REMARK SMILES IDX 70 47 36 48 73 49 67 50 66 51 37 53 59 54 44 55 58 56 45 57
REMARK SMILES IDX 48 58 57 59 71 60 46 61 47 62 56 64 72 65 49 66 38 67 39 68
REMARK SMILES IDX 43 69 40 70 42 71 41 72 60 73 61 74 65 75 62 76 64 77 63 78
REMARK SMILES IDX 50 79 51 80 55 81 52 82 54 83 53 84
REMARK H PARENT 22 5 17 11 8 19 26 33 70 52 48 63
REMARK Flexibility Score: inf
ROOT
ATOM      1  C   UNL     1      -1.916   1.717   3.295  1.00  0.00     0.117 C 
ENDROOT
BRANCH   1   2
ATOM      2  N   UNL     1      -1.846   1.061   1.997  1.00  0.00    -0.354 N 
ATOM      3  C   UNL     1      -0.805   0.201   1.759  1.00  0.00     0.242 C 
ATOM      4  O   UNL     1       0.289   0.688   1.476  1.00  0.00    -0.273 OA
ATOM      5  H   UNL     1      -2.529   1.230   1.309  1.00  0.00     0.163 HD
BRANCH   3   6
ATOM      6  C   UNL     1      -1.072  -1.324   1.814  1.00  0.00     0.168 C 
ATOM      7  C   UNL     1      -2.330  -1.716   2.572  1.00  0.00     0.041 C 
BRANCH   6   8
ATOM      8  N   UNL     1       0.124  -1.881   2.429  1.00  0.00    -0.340 N 
ATOM      9  C   UNL     1       1.306  -2.234   1.818  1.00  0.00     0.254 C 
ATOM     10  O   UNL     1       2.342  -1.939   2.422  1.00  0.00    -0.269 OA
ATOM     11  H   UNL     1       0.083  -2.023   3.403  1.00  0.00     0.164 HD
BRANCH   9  12
ATOM     12  C   UNL     1       1.391  -3.207   0.688  1.00  0.00     0.063 A 
ATOM     13  C   UNL     1       0.772  -3.189  -0.577  1.00  0.00     0.051 A 
ATOM     14  C   UNL     1       0.985  -4.298  -1.434  1.00  0.00     0.027 A 
ATOM     15  C   UNL     1       1.827  -5.358  -1.095  1.00  0.00     0.002 A 
ATOM     16  C   UNL     1       2.254  -4.287   1.004  1.00  0.00     0.016 A 
ATOM     17  C   UNL     1       2.480  -5.343   0.123  1.00  0.00     0.001 A 
BRANCH  13  18
ATOM     18  N   UNL     1       0.038  -2.143  -1.165  1.00  0.00    -0.352 N 
ATOM     19  H   UNL     1      -0.833  -2.439  -1.515  1.00  0.00     0.167 HD
BRANCH  18  20
ATOM     20  C   UNL     1       0.266  -0.757  -1.369  1.00  0.00     0.077 A 
ATOM     21  C   UNL     1       2.853   2.051  -0.935  1.00  0.00     0.046 C 
ATOM     22  C   UNL     1       1.575   1.321  -1.255  1.00  0.00    -0.030 A 
ATOM     23  C   UNL     1       0.425   2.072  -1.540  1.00  0.00     0.006 A 
ATOM     24  C   UNL     1       1.502  -0.094  -1.217  1.00  0.00     0.069 A 
ATOM     25  C   UNL     1      -0.788   1.436  -1.770  1.00  0.00     0.023 A 
ATOM     26  Cl  UNL     1       2.994  -0.977  -1.101  1.00  0.00    -0.082 Cl
ATOM     27  C   UNL     1      -0.864   0.047  -1.671  1.00  0.00     0.066 A 
ATOM     28  Cl  UNL     1      -2.429  -0.675  -1.896  1.00  0.00    -0.082 Cl
ENDBRANCH  18  20
ENDBRANCH  13  18
ENDBRANCH   9  12
ENDBRANCH   6   8
ENDBRANCH   3   6
ENDBRANCH   1   2
BRANCH   1  29
ATOM     29  C   UNL     1      -0.703   2.594   3.629  1.00  0.00     0.042 C 
BRANCH  29  30
ATOM     30  C   UNL     1      -0.406   3.677   2.595  1.00  0.00     0.118 C 
BRANCH  30  31
ATOM     31  N   UNL     1      -1.498   4.636   2.485  1.00  0.00    -0.352 N 
ATOM     32  C   UNL     1      -1.666   5.841   3.111  1.00  0.00     0.251 C 
ATOM     33  H   UNL     1      -2.221   4.379   1.869  1.00  0.00     0.163 HD
ATOM     34  O   UNL     1      -2.780   6.373   3.120  1.00  0.00    -0.269 OA
BRANCH  32  35
ATOM     35  C   UNL     1      -0.533   6.508   3.781  1.00  0.00     0.039 A 
ATOM     36  C   UNL     1      -0.731   7.094   5.034  1.00  0.00     0.014 A 
ATOM     37  C   UNL     1       0.709   6.610   3.149  1.00  0.00     0.014 A 
ATOM     38  C   UNL     1       0.331   7.739   5.674  1.00  0.00     0.010 A 
ATOM     39  C   UNL     1       1.784   7.189   3.818  1.00  0.00     0.010 A 
ATOM     40  C   UNL     1       1.603   7.771   5.081  1.00  0.00    -0.014 A 
BRANCH  40  41
ATOM     41  C   UNL     1       2.752   8.430   5.753  1.00  0.00     0.031 A 
ATOM     42  C   UNL     1       3.391   9.646   5.137  1.00  0.00     0.074 A 
ATOM     43  C   UNL     1       3.260   7.900   6.882  1.00  0.00     0.049 A 
ATOM     44  N   UNL     1       4.438  10.322   5.539  1.00  0.00    -0.248 NA
ATOM     45  C   UNL     1       2.791  10.152   3.892  1.00  0.00     0.031 C 
ATOM     46  C   UNL     1       2.757   6.704   7.560  1.00  0.00     0.029 A 
ATOM     47  N   UNL     1       4.321   8.300   7.655  1.00  0.00    -0.354 N 
ATOM     48  C   UNL     1       4.635  11.314   4.586  1.00  0.00     0.074 A 
ATOM     49  C   UNL     1       3.628  11.125   3.565  1.00  0.00     0.031 C 
ATOM     50  C   UNL     1       3.491   6.483   8.662  1.00  0.00     0.029 A 
ATOM     51  C   UNL     1       4.538   7.496   8.748  1.00  0.00     0.049 A 
ATOM     52  H   UNL     1       4.873   9.088   7.447  1.00  0.00     0.167 HD
ATOM     53  C   UNL     1       5.559  12.304   4.569  1.00  0.00     0.031 A 
ATOM     54  C   UNL     1       5.477   7.566   9.710  1.00  0.00     0.031 A 
ATOM     55  C   UNL     1       6.548  12.505   5.594  1.00  0.00     0.049 A 
ATOM     56  C   UNL     1       6.490   8.676   9.670  1.00  0.00     0.074 A 
ATOM     57  C   UNL     1       7.489  13.515   5.699  1.00  0.00     0.029 A 
ATOM     58  N   UNL     1       6.723  11.678   6.693  1.00  0.00    -0.354 N 
ATOM     59  N   UNL     1       6.621   9.646   8.797  1.00  0.00    -0.248 NA
ATOM     60  C   UNL     1       7.479   8.706  10.758  1.00  0.00     0.031 C 
ATOM     61  C   UNL     1       8.262  13.275   6.840  1.00  0.00     0.029 A 
ATOM     62  C   UNL     1       7.768  12.145   7.472  1.00  0.00     0.049 A 
ATOM     63  H   UNL     1       6.184  10.878   6.890  1.00  0.00     0.167 HD
ATOM     64  C   UNL     1       7.682  10.419   9.248  1.00  0.00     0.074 A 
ATOM     65  C   UNL     1       8.152   9.813  10.477  1.00  0.00     0.031 C 
ATOM     66  C   UNL     1       8.218  11.535   8.695  1.00  0.00     0.031 A 
BRANCH  53  67
ATOM     67  C   UNL     1       5.545  13.244   3.396  1.00  0.00    -0.014 A 
ATOM     68  C   UNL     1       4.511  14.179   3.225  1.00  0.00     0.009 A 
ATOM     69  C   UNL     1       6.595  13.216   2.466  1.00  0.00     0.009 A 
ATOM     70  C   UNL     1       4.510  15.040   2.125  1.00  0.00     0.001 A 
ATOM     71  C   UNL     1       6.607  14.098   1.383  1.00  0.00     0.001 A 
ATOM     72  C   UNL     1       5.560  15.001   1.208  1.00  0.00     0.000 A 
ENDBRANCH  53  67
BRANCH  54  73
ATOM     73  C   UNL     1       5.489   6.572  10.814  1.00  0.00    -0.014 A 
ATOM     74  C   UNL     1       5.119   6.952  12.114  1.00  0.00     0.009 A 
ATOM     75  C   UNL     1       5.879   5.245  10.580  1.00  0.00     0.009 A 
ATOM     76  C   UNL     1       5.166   6.030  13.162  1.00  0.00     0.001 A 
ATOM     77  C   UNL     1       5.898   4.318  11.625  1.00  0.00     0.001 A 
ATOM     78  C   UNL     1       5.551   4.713  12.916  1.00  0.00     0.000 A 
ENDBRANCH  54  73
BRANCH  66  79
ATOM     79  C   UNL     1       9.341  12.198   9.440  1.00  0.00    -0.014 A 
ATOM     80  C   UNL     1      10.625  11.634   9.482  1.00  0.00     0.009 A 
ATOM     81  C   UNL     1       9.116  13.429  10.078  1.00  0.00     0.009 A 
ATOM     82  C   UNL     1      11.653  12.273  10.178  1.00  0.00     0.001 A 
ATOM     83  C   UNL     1      10.152  14.079  10.748  1.00  0.00     0.001 A 
ATOM     84  C   UNL     1      11.417  13.496  10.806  1.00  0.00     0.000 A 
ENDBRANCH  66  79
ENDBRANCH  40  41
ENDBRANCH  32  35
ENDBRANCH  30  31
ENDBRANCH  29  30
ENDBRANCH   1  29
TORSDOF 14
