REMARK SMILES Cc1cccc(C[N@@H+](C)C[C@]2(C(=O)NCCCNC(=O)c3ccc(-c4c5nc(c(-c6ccccc6)c6ccc([nH]6)c(-c6ccccc6)c6nc(c(-c7ccccc7)c7ccc4[nH]7)C=C6)C=C5)cc3)CCOC2)n1
REMARK SMILES IDX 15 1 14 2 12 3 13 4 11 6 69 7 72 8 70 9 71 10 10 11 8 12
REMARK SMILES IDX 9 13 7 15 6 16 1 17 2 18 3 19 73 20 4 21 5 22 16 23 17 24
REMARK SMILES IDX 18 25 19 26 20 28 21 29 22 30 68 31 23 32 67 33 24 34 25 35
REMARK SMILES IDX 26 36 61 37 27 38 66 39 60 40 62 41 28 42 65 43 59 44 58 45
REMARK SMILES IDX 29 47 51 48 36 49 50 50 37 51 40 52 49 53 63 54 38 55 39 56
REMARK SMILES IDX 48 58 64 59 41 60 30 61 31 62 35 63 32 64 34 65 33 66 52 67
REMARK SMILES IDX 53 68 57 69 54 70 56 71 55 72 42 73 43 74 47 75 44 76 46 77
REMARK SMILES IDX 45 78
REMARK H PARENT 14 5 8 14 18 27 62 46 40 57
REMARK Flexibility Score: inf
ROOT
ATOM      1  C   UNL     1      -6.517   1.870   2.212  1.00  0.00     0.117 C 
ENDROOT
BRANCH   1   2
ATOM      2  N   UNL     1      -5.448   1.663   1.257  1.00  0.00    -0.355 N 
ATOM      3  C   UNL     1      -4.149   2.038   1.223  1.00  0.00     0.234 C 
ATOM      4  O   UNL     1      -3.700   2.070   0.077  1.00  0.00    -0.274 OA
ATOM      5  H   UNL     1      -5.724   1.141   0.469  1.00  0.00     0.163 HD
BRANCH   3   6
ATOM      6  C   UNL     1      -3.313   2.370   2.464  1.00  0.00     0.123 C 
ATOM      7  C   UNL     1      -3.809   3.602   3.226  1.00  0.00     0.054 C 
ATOM      8  C   UNL     1      -3.509   1.227   3.493  1.00  0.00     0.183 C 
ATOM      9  C   UNL     1      -3.792   3.173   4.678  1.00  0.00     0.161 C 
ATOM     10  O   UNL     1      -4.119   1.787   4.665  1.00  0.00    -0.380 OA
BRANCH   6  11
ATOM     11  C   UNL     1      -1.771   2.445   2.161  1.00  0.00     0.281 C 
BRANCH  11  12
ATOM     12  N   UNL     1      -1.124   3.276   1.134  1.00  0.00    -0.331 N 
ATOM     13  C   UNL     1      -1.620   4.634   1.009  1.00  0.00     0.333 C 
ATOM     14  H   UNL     1      -0.197   3.337   1.555  1.00  0.00     0.348 HD
BRANCH  12  15
ATOM     15  C   UNL     1      -0.904   2.664  -0.198  1.00  0.00     0.319 C 
BRANCH  15  16
ATOM     16  C   UNL     1      -0.373   1.236  -0.217  1.00  0.00     0.095 A 
ATOM     17  C   UNL     1       2.933  -0.340   0.081  1.00  0.00     0.067 C 
ATOM     18  C   UNL     1       1.447  -0.203  -0.035  1.00  0.00     0.038 A 
ATOM     19  C   UNL     1       0.628  -1.323  -0.109  1.00  0.00     0.023 A 
ATOM     20  N   UNL     1       0.965   1.062  -0.073  1.00  0.00    -0.252 NA
ATOM     21  C   UNL     1      -0.739  -1.140  -0.266  1.00  0.00     0.004 A 
ATOM     22  C   UNL     1      -1.244   0.152  -0.340  1.00  0.00     0.030 A 
ENDBRANCH  15  16
ENDBRANCH  12  15
ENDBRANCH  11  12
ENDBRANCH   6  11
ENDBRANCH   3   6
ENDBRANCH   1   2
BRANCH   1  23
ATOM     23  C   UNL     1      -7.396   3.044   1.780  1.00  0.00     0.042 C 
BRANCH  23  24
ATOM     24  C   UNL     1      -7.834   2.997   0.316  1.00  0.00     0.118 C 
BRANCH  24  25
ATOM     25  N   UNL     1      -8.544   1.771  -0.024  1.00  0.00    -0.352 N 
ATOM     26  C   UNL     1      -9.844   1.592  -0.429  1.00  0.00     0.251 C 
ATOM     27  H   UNL     1      -8.011   0.947   0.048  1.00  0.00     0.163 HD
ATOM     28  O   UNL     1     -10.319   0.468  -0.497  1.00  0.00    -0.269 OA
BRANCH  26  29
ATOM     29  C   UNL     1     -10.673   2.769  -0.752  1.00  0.00     0.039 A 
ATOM     30  C   UNL     1     -11.953   2.861  -0.203  1.00  0.00     0.014 A 
ATOM     31  C   UNL     1     -10.182   3.782  -1.580  1.00  0.00     0.014 A 
ATOM     32  C   UNL     1     -12.714   4.009  -0.422  1.00  0.00     0.010 A 
ATOM     33  C   UNL     1     -10.908   4.958  -1.731  1.00  0.00     0.010 A 
ATOM     34  C   UNL     1     -12.180   5.085  -1.152  1.00  0.00    -0.014 A 
BRANCH  34  35
ATOM     35  C   UNL     1     -12.932   6.355  -1.306  1.00  0.00     0.031 A 
ATOM     36  C   UNL     1     -13.361   6.822  -2.669  1.00  0.00     0.074 A 
ATOM     37  C   UNL     1     -13.171   7.120  -0.222  1.00  0.00     0.049 A 
ATOM     38  N   UNL     1     -13.976   7.927  -3.006  1.00  0.00    -0.248 NA
ATOM     39  C   UNL     1     -13.034   5.946  -3.806  1.00  0.00     0.031 C 
ATOM     40  C   UNL     1     -12.771   6.799   1.150  1.00  0.00     0.029 A 
ATOM     41  N   UNL     1     -13.808   8.330  -0.106  1.00  0.00    -0.354 N 
ATOM     42  C   UNL     1     -14.092   7.887  -4.389  1.00  0.00     0.074 A 
ATOM     43  C   UNL     1     -13.443   6.674  -4.835  1.00  0.00     0.031 C 
ATOM     44  C   UNL     1     -13.198   7.770   1.972  1.00  0.00     0.029 A 
ATOM     45  C   UNL     1     -13.863   8.802   1.183  1.00  0.00     0.049 A 
ATOM     46  H   UNL     1     -14.189   8.814  -0.874  1.00  0.00     0.167 HD
ATOM     47  C   UNL     1     -14.703   8.770  -5.214  1.00  0.00     0.031 A 
ATOM     48  C   UNL     1     -14.385   9.941   1.675  1.00  0.00     0.031 A 
ATOM     49  C   UNL     1     -15.360   9.970  -4.770  1.00  0.00     0.049 A 
ATOM     50  C   UNL     1     -15.043  10.912   0.735  1.00  0.00     0.074 A 
ATOM     51  C   UNL     1     -16.060  10.897  -5.522  1.00  0.00     0.029 A 
ATOM     52  N   UNL     1     -15.397  10.409  -3.456  1.00  0.00    -0.354 N 
ATOM     53  N   UNL     1     -15.209  10.822  -0.563  1.00  0.00    -0.248 NA
ATOM     54  C   UNL     1     -15.596  12.137   1.330  1.00  0.00     0.031 C 
ATOM     55  C   UNL     1     -16.474  11.926  -4.671  1.00  0.00     0.029 A 
ATOM     56  C   UNL     1     -16.084  11.609  -3.380  1.00  0.00     0.049 A 
ATOM     57  H   UNL     1     -14.994   9.938  -2.691  1.00  0.00     0.167 HD
ATOM     58  C   UNL     1     -15.911  11.962  -0.934  1.00  0.00     0.074 A 
ATOM     59  C   UNL     1     -16.153  12.718   0.278  1.00  0.00     0.031 C 
ATOM     60  C   UNL     1     -16.318  12.348  -2.167  1.00  0.00     0.031 A 
BRANCH  47  61
ATOM     61  C   UNL     1     -14.682   8.473  -6.688  1.00  0.00    -0.014 A 
ATOM     62  C   UNL     1     -15.432   7.416  -7.228  1.00  0.00     0.009 A 
ATOM     63  C   UNL     1     -13.940   9.290  -7.555  1.00  0.00     0.009 A 
ATOM     64  C   UNL     1     -15.410   7.162  -8.601  1.00  0.00     0.001 A 
ATOM     65  C   UNL     1     -13.944   9.053  -8.931  1.00  0.00     0.001 A 
ATOM     66  C   UNL     1     -14.672   7.984  -9.451  1.00  0.00     0.000 A 
ENDBRANCH  47  61
BRANCH  48  67
ATOM     67  C   UNL     1     -14.321  10.227   3.133  1.00  0.00    -0.014 A 
ATOM     68  C   UNL     1     -15.488  10.216   3.912  1.00  0.00     0.009 A 
ATOM     69  C   UNL     1     -13.097  10.529   3.750  1.00  0.00     0.009 A 
ATOM     70  C   UNL     1     -15.436  10.533   5.271  1.00  0.00     0.001 A 
ATOM     71  C   UNL     1     -13.043  10.815   5.116  1.00  0.00     0.001 A 
ATOM     72  C   UNL     1     -14.214  10.828   5.873  1.00  0.00     0.000 A 
ENDBRANCH  48  67
BRANCH  60  73
ATOM     73  C   UNL     1     -17.102  13.626  -2.263  1.00  0.00    -0.014 A 
ATOM     74  C   UNL     1     -16.488  14.875  -2.083  1.00  0.00     0.009 A 
ATOM     75  C   UNL     1     -18.469  13.579  -2.578  1.00  0.00     0.009 A 
ATOM     76  C   UNL     1     -17.236  16.050  -2.182  1.00  0.00     0.001 A 
ATOM     77  C   UNL     1     -19.208  14.755  -2.707  1.00  0.00     0.001 A 
ATOM     78  C   UNL     1     -18.593  15.989  -2.499  1.00  0.00     0.000 A 
ENDBRANCH  60  73
ENDBRANCH  34  35
ENDBRANCH  26  29
ENDBRANCH  24  25
ENDBRANCH  23  24
ENDBRANCH   1  23
TORSDOF 14
