REMARK SMILES Cc1c(C(=O)NCCCNC(=O)c2ccc(-c3c4nc(c(-c5ccccc5)c5ccc([nH]5)c(-c5ccccc5)c5nc(c(-c6ccccc6)c6ccc3[nH]6)C=C5)C=C4)cc2)cccc1-n1c(C)cc(/C=C2/C(=O)NC(=S)N=C2O)c1C
REMARK SMILES IDX 7 1 6 2 4 3 5 4 3 6 1 7 2 8 64 9 61 10 63 11 62 12 65 13
REMARK SMILES IDX 66 14 80 15 67 16 68 17 69 18 81 19 70 20 71 21 72 22 78 23
REMARK SMILES IDX 73 24 74 25 77 26 75 27 76 29 79 30 8 32 9 33 10 34 11 35
REMARK SMILES IDX 12 37 13 38 14 39 60 40 15 41 59 42 16 43 17 44 18 45 53 46
REMARK SMILES IDX 19 47 58 48 52 49 54 50 20 51 57 52 51 53 50 54 21 56 43 57
REMARK SMILES IDX 28 58 42 59 29 60 32 61 41 62 55 63 30 64 31 65 40 67 56 68
REMARK SMILES IDX 33 69 22 70 23 71 27 72 24 73 26 74 25 75 44 76 45 77 49 78
REMARK SMILES IDX 46 79 48 80 47 81 34 82 35 83 39 84 36 85 38 86 37 87
REMARK H PARENT 6 5 74 28 79 31 10 36 54 55 32 66
REMARK Flexibility Score: inf
ROOT
ATOM      1  C   UNL     1       3.298  -2.095  -0.656  1.00  0.00     0.118 C 
ENDROOT
BRANCH   1   2
ATOM      2  N   UNL     1       2.112  -2.714  -0.075  1.00  0.00    -0.352 N 
ATOM      3  C   UNL     1       0.825  -2.319   0.185  1.00  0.00     0.251 C 
ATOM      4  O   UNL     1       0.114  -3.166   0.738  1.00  0.00    -0.269 OA
ATOM      5  H   UNL     1       2.276  -3.646   0.197  1.00  0.00     0.163 HD
BRANCH   3   6
ATOM      6  C   UNL     1       0.183  -1.011  -0.179  1.00  0.00     0.044 A 
ATOM      7  C   UNL     1       2.082   0.556   0.482  1.00  0.00     0.047 C 
ATOM      8  C   UNL     1       0.720   0.286  -0.054  1.00  0.00    -0.014 A 
ATOM      9  C   UNL     1      -0.092   1.396  -0.393  1.00  0.00     0.049 A 
ATOM     10  C   UNL     1      -1.183  -1.126  -0.527  1.00  0.00     0.014 A 
ATOM     11  C   UNL     1      -1.435   1.262  -0.740  1.00  0.00     0.027 A 
ATOM     12  C   UNL     1      -1.986  -0.009  -0.789  1.00  0.00     0.003 A 
BRANCH   9  13
ATOM     13  N   UNL     1       0.422   2.710  -0.266  1.00  0.00    -0.318 N 
ATOM     14  C   UNL     1       1.228   3.337  -1.202  1.00  0.00     0.020 A 
ATOM     15  C   UNL     1       0.485   3.419   0.934  1.00  0.00     0.027 A 
ATOM     16  C   UNL     1       1.619   2.726  -2.503  1.00  0.00     0.065 C 
ATOM     17  C   UNL     1       1.595   4.555  -0.670  1.00  0.00     0.031 A 
ATOM     18  C   UNL     1       1.118   4.623   0.667  1.00  0.00    -0.003 A 
ATOM     19  C   UNL     1      -0.001   2.804   2.211  1.00  0.00     0.065 C 
BRANCH  18  20
ATOM     20  C   UNL     1       1.475   5.684   1.556  1.00  0.00     0.029 C 
ATOM     21  C   UNL     1       0.859   6.222   2.624  1.00  0.00     0.102 C 
ATOM     22  C   UNL     1       1.643   7.230   3.385  1.00  0.00     0.262 C 
ATOM     23  C   UNL     1      -0.441   5.923   3.224  1.00  0.00     0.226 C 
ATOM     24  O   UNL     1       2.647   7.791   2.961  1.00  0.00    -0.269 OA
ATOM     25  N   UNL     1       1.172   7.460   4.649  1.00  0.00    -0.297 N 
ATOM     26  N   UNL     1      -0.829   6.225   4.409  1.00  0.00    -0.184 NA
ATOM     27  C   UNL     1       0.031   6.936   5.204  1.00  0.00     0.203 C 
ATOM     28  H   UNL     1       1.704   8.062   5.218  1.00  0.00     0.172 HD
ATOM     29  S   UNL     1      -0.265   7.257   6.821  1.00  0.00    -0.038 S 
BRANCH  23  30
ATOM     30  O   UNL     1      -1.341   5.334   2.434  1.00  0.00    -0.493 OA
ATOM     31  H   UNL     1      -1.109   5.093   1.559  1.00  0.00     0.295 HD
ENDBRANCH  23  30
ENDBRANCH  18  20
ENDBRANCH   9  13
ENDBRANCH   3   6
ENDBRANCH   1   2
BRANCH   1  32
ATOM     32  C   UNL     1       4.183  -1.508   0.448  1.00  0.00     0.042 C 
BRANCH  32  33
ATOM     33  C   UNL     1       5.521  -2.163   0.682  1.00  0.00     0.118 C 
BRANCH  33  34
ATOM     34  N   UNL     1       6.652  -1.387   0.171  1.00  0.00    -0.352 N 
ATOM     35  C   UNL     1       8.008  -1.629   0.343  1.00  0.00     0.251 C 
ATOM     36  H   UNL     1       6.421  -0.593  -0.364  1.00  0.00     0.163 HD
ATOM     37  O   UNL     1       8.852  -0.916  -0.164  1.00  0.00    -0.269 OA
BRANCH  35  38
ATOM     38  C   UNL     1       8.388  -2.870   1.056  1.00  0.00     0.039 A 
ATOM     39  C   UNL     1       9.065  -3.843   0.316  1.00  0.00     0.014 A 
ATOM     40  C   UNL     1       7.725  -3.191   2.232  1.00  0.00     0.014 A 
ATOM     41  C   UNL     1       8.834  -5.184   0.605  1.00  0.00     0.010 A 
ATOM     42  C   UNL     1       7.362  -4.508   2.407  1.00  0.00     0.010 A 
ATOM     43  C   UNL     1       7.881  -5.505   1.566  1.00  0.00    -0.014 A 
BRANCH  43  44
ATOM     44  C   UNL     1       7.301  -6.832   1.742  1.00  0.00     0.031 A 
ATOM     45  C   UNL     1       7.491  -7.533   3.031  1.00  0.00     0.074 A 
ATOM     46  C   UNL     1       6.494  -7.375   0.803  1.00  0.00     0.049 A 
ATOM     47  N   UNL     1       7.235  -8.782   3.217  1.00  0.00    -0.248 NA
ATOM     48  C   UNL     1       8.059  -6.889   4.212  1.00  0.00     0.031 C 
ATOM     49  C   UNL     1       5.537  -8.465   0.985  1.00  0.00     0.029 A 
ATOM     50  N   UNL     1       6.533  -7.181  -0.579  1.00  0.00    -0.354 N 
ATOM     51  C   UNL     1       7.305  -9.026   4.566  1.00  0.00     0.074 A 
ATOM     52  C   UNL     1       7.909  -7.845   5.131  1.00  0.00     0.031 C 
ATOM     53  C   UNL     1       5.258  -9.008  -0.209  1.00  0.00     0.029 A 
ATOM     54  C   UNL     1       6.153  -8.404  -1.177  1.00  0.00     0.049 A 
ATOM     55  H   UNL     1       6.778  -6.351  -1.048  1.00  0.00     0.167 HD
ATOM     56  C   UNL     1       6.737 -10.160   5.058  1.00  0.00     0.031 A 
ATOM     57  C   UNL     1       7.014  -9.100  -1.978  1.00  0.00     0.031 A 
ATOM     58  C   UNL     1       6.297 -11.058   3.989  1.00  0.00     0.049 A 
ATOM     59  C   UNL     1       7.374 -10.490  -1.481  1.00  0.00     0.074 A 
ATOM     60  C   UNL     1       5.072 -11.444   3.470  1.00  0.00     0.029 A 
ATOM     61  N   UNL     1       7.249 -11.521   3.097  1.00  0.00    -0.354 N 
ATOM     62  N   UNL     1       6.979 -10.997  -0.347  1.00  0.00    -0.248 NA
ATOM     63  C   UNL     1       8.310 -11.372  -2.181  1.00  0.00     0.031 C 
ATOM     64  C   UNL     1       5.311 -12.178   2.270  1.00  0.00     0.029 A 
ATOM     65  C   UNL     1       6.677 -12.246   2.075  1.00  0.00     0.049 A 
ATOM     66  H   UNL     1       8.215 -11.352   3.182  1.00  0.00     0.167 HD
ATOM     67  C   UNL     1       7.652 -12.168  -0.109  1.00  0.00     0.074 A 
ATOM     68  C   UNL     1       8.459 -12.374  -1.297  1.00  0.00     0.031 C 
ATOM     69  C   UNL     1       7.551 -12.837   1.076  1.00  0.00     0.031 A 
BRANCH  56  70
ATOM     70  C   UNL     1       6.415 -10.395   6.514  1.00  0.00    -0.014 A 
ATOM     71  C   UNL     1       5.517 -11.421   6.861  1.00  0.00     0.009 A 
ATOM     72  C   UNL     1       6.898  -9.624   7.585  1.00  0.00     0.009 A 
ATOM     73  C   UNL     1       5.080 -11.617   8.178  1.00  0.00     0.001 A 
ATOM     74  C   UNL     1       6.456  -9.802   8.903  1.00  0.00     0.001 A 
ATOM     75  C   UNL     1       5.537 -10.795   9.198  1.00  0.00     0.000 A 
ENDBRANCH  56  70
BRANCH  57  76
ATOM     76  C   UNL     1       7.944  -8.214  -2.731  1.00  0.00    -0.014 A 
ATOM     77  C   UNL     1       7.413  -7.390  -3.743  1.00  0.00     0.009 A 
ATOM     78  C   UNL     1       9.206  -7.907  -2.204  1.00  0.00     0.009 A 
ATOM     79  C   UNL     1       8.074  -6.220  -4.126  1.00  0.00     0.001 A 
ATOM     80  C   UNL     1       9.870  -6.741  -2.602  1.00  0.00     0.001 A 
ATOM     81  C   UNL     1       9.286  -5.881  -3.531  1.00  0.00     0.000 A 
ENDBRANCH  57  76
BRANCH  69  82
ATOM     82  C   UNL     1       8.325 -14.080   1.436  1.00  0.00    -0.014 A 
ATOM     83  C   UNL     1       8.576 -15.120   0.534  1.00  0.00     0.009 A 
ATOM     84  C   UNL     1       8.734 -14.288   2.773  1.00  0.00     0.009 A 
ATOM     85  C   UNL     1       9.252 -16.282   0.938  1.00  0.00     0.001 A 
ATOM     86  C   UNL     1       9.388 -15.451   3.185  1.00  0.00     0.001 A 
ATOM     87  C   UNL     1       9.657 -16.447   2.261  1.00  0.00     0.000 A 
ENDBRANCH  69  82
ENDBRANCH  43  44
ENDBRANCH  35  38
ENDBRANCH  33  34
ENDBRANCH  32  33
ENDBRANCH   1  32
TORSDOF 13
