REMARK SMILES Cc1ccc(-c2[nH]c3ccccc3c2[C@@H]2c3ccccc3C(=O)N2[C@H](C)C(=O)NCCCNC(=O)c2ccc(-c3c4nc(c(-c5ccccc5)c5ccc([nH]5)c(-c5ccccc5)c5nc(c(-c6ccccc6)c6ccc3[nH]6)C=C5)C=C4)cc2)cc1
REMARK SMILES IDX 30 1 29 2 27 3 28 4 25 6 26 7 24 8 15 9 16 10 17 11 21 12
REMARK SMILES IDX 22 13 18 14 20 15 23 16 19 17 14 18 6 19 7 20 8 21 13 23
REMARK SMILES IDX 9 24 12 25 10 26 11 27 5 28 1 29 2 30 3 31 85 32 4 33 84 34
REMARK SMILES IDX 31 35 32 36 33 37 34 38 35 40 36 41 37 42 83 43 38 44 82 45
REMARK SMILES IDX 39 46 40 47 41 48 76 49 42 50 81 51 75 52 77 53 43 54 80 55
REMARK SMILES IDX 74 56 73 57 44 59 66 60 51 61 65 62 52 63 55 64 64 65 78 66
REMARK SMILES IDX 53 67 54 68 63 70 79 71 56 72 45 73 46 74 50 75 47 76 49 77
REMARK SMILES IDX 48 78 67 79 68 80 72 81 69 82 71 83 70 84 57 85 58 86 62 87
REMARK SMILES IDX 59 88 61 89 60 90
REMARK H PARENT 29 5 7 22 33 39 77 58 55 69
REMARK Flexibility Score: inf
ROOT
ATOM      1  C   UNL     1      -6.654  -2.007   0.935  1.00  0.00     0.117 C 
ENDROOT
BRANCH   1   2
ATOM      2  N   UNL     1      -7.344  -2.068   2.194  1.00  0.00    -0.354 N 
ATOM      3  C   UNL     1      -7.161  -1.415   3.364  1.00  0.00     0.242 C 
ATOM      4  O   UNL     1      -8.097  -1.573   4.167  1.00  0.00    -0.273 OA
ATOM      5  H   UNL     1      -8.093  -2.706   2.207  1.00  0.00     0.163 HD
BRANCH   3   6
ATOM      6  C   UNL     1      -5.842  -0.757   3.881  1.00  0.00     0.172 C 
ATOM      7  C   UNL     1      -5.035  -1.905   4.527  1.00  0.00     0.042 C 
BRANCH   6   8
ATOM      8  N   UNL     1      -4.927   0.266   3.319  1.00  0.00    -0.316 N 
ATOM      9  C   UNL     1      -4.843   0.840   1.963  1.00  0.00     0.151 C 
ATOM     10  C   UNL     1      -4.163   2.167   2.224  1.00  0.00    -0.008 A 
ATOM     11  C   UNL     1      -4.050   3.318   1.462  1.00  0.00     0.007 A 
ATOM     12  C   UNL     1      -3.650   2.188   3.514  1.00  0.00     0.045 A 
ATOM     13  C   UNL     1      -4.177   1.032   4.224  1.00  0.00     0.255 C 
ATOM     14  C   UNL     1      -3.316   4.405   1.967  1.00  0.00     0.000 A 
ATOM     15  C   UNL     1      -2.907   3.231   4.041  1.00  0.00     0.014 A 
ATOM     16  O   UNL     1      -4.022   0.864   5.419  1.00  0.00    -0.269 OA
ATOM     17  C   UNL     1      -2.719   4.348   3.236  1.00  0.00     0.001 A 
BRANCH   9  18
ATOM     18  C   UNL     1      -3.875   0.075   1.051  1.00  0.00     0.013 A 
ATOM     19  C   UNL     1      -3.908   0.008  -0.355  1.00  0.00     0.052 A 
ATOM     20  N   UNL     1      -2.955  -0.903  -0.755  1.00  0.00    -0.354 N 
ATOM     21  C   UNL     1      -2.356  -1.502   0.319  1.00  0.00     0.046 A 
ATOM     22  H   UNL     1      -2.733  -1.098  -1.695  1.00  0.00     0.167 HD
ATOM     23  C   UNL     1      -2.798  -0.827   1.456  1.00  0.00     0.006 A 
ATOM     24  C   UNL     1      -1.493  -2.607   0.359  1.00  0.00     0.027 A 
ATOM     25  C   UNL     1      -2.214  -1.212   2.684  1.00  0.00     0.011 A 
ATOM     26  C   UNL     1      -1.016  -3.017   1.604  1.00  0.00     0.002 A 
ATOM     27  C   UNL     1      -1.345  -2.308   2.750  1.00  0.00     0.001 A 
BRANCH  19  28
ATOM     28  C   UNL     1      -4.753   0.620  -1.382  1.00  0.00    -0.002 A 
ATOM     29  C   UNL     1      -7.088   2.368  -4.576  1.00  0.00     0.044 C 
ATOM     30  C   UNL     1      -6.279   1.748  -3.475  1.00  0.00    -0.051 A 
ATOM     31  C   UNL     1      -5.336   2.515  -2.783  1.00  0.00     0.004 A 
ATOM     32  C   UNL     1      -6.431   0.402  -3.137  1.00  0.00     0.004 A 
ATOM     33  C   UNL     1      -4.563   1.946  -1.765  1.00  0.00     0.010 A 
ATOM     34  C   UNL     1      -5.674  -0.154  -2.100  1.00  0.00     0.010 A 
ENDBRANCH  19  28
ENDBRANCH   9  18
ENDBRANCH   6   8
ENDBRANCH   3   6
ENDBRANCH   1   2
BRANCH   1  35
ATOM     35  C   UNL     1      -5.490  -2.970   0.838  1.00  0.00     0.042 C 
BRANCH  35  36
ATOM     36  C   UNL     1      -5.817  -4.287   0.159  1.00  0.00     0.118 C 
BRANCH  36  37
ATOM     37  N   UNL     1      -5.682  -4.177  -1.303  1.00  0.00    -0.352 N 
ATOM     38  C   UNL     1      -5.247  -5.094  -2.241  1.00  0.00     0.251 C 
ATOM     39  H   UNL     1      -5.946  -3.305  -1.675  1.00  0.00     0.163 HD
ATOM     40  O   UNL     1      -5.213  -4.813  -3.432  1.00  0.00    -0.269 OA
BRANCH  38  41
ATOM     41  C   UNL     1      -4.983  -6.470  -1.784  1.00  0.00     0.039 A 
ATOM     42  C   UNL     1      -5.996  -7.389  -2.071  1.00  0.00     0.014 A 
ATOM     43  C   UNL     1      -4.093  -6.659  -0.733  1.00  0.00     0.014 A 
ATOM     44  C   UNL     1      -6.335  -8.319  -1.102  1.00  0.00     0.010 A 
ATOM     45  C   UNL     1      -4.480  -7.535   0.263  1.00  0.00     0.010 A 
ATOM     46  C   UNL     1      -5.666  -8.273   0.119  1.00  0.00    -0.014 A 
BRANCH  46  47
ATOM     47  C   UNL     1      -6.265  -8.787   1.347  1.00  0.00     0.031 A 
ATOM     48  C   UNL     1      -5.681  -9.961   2.017  1.00  0.00     0.074 A 
ATOM     49  C   UNL     1      -7.340  -8.175   1.895  1.00  0.00     0.049 A 
ATOM     50  N   UNL     1      -6.323 -10.723   2.836  1.00  0.00    -0.248 NA
ATOM     51  C   UNL     1      -4.327 -10.424   1.739  1.00  0.00     0.031 C 
ATOM     52  C   UNL     1      -7.875  -8.354   3.243  1.00  0.00     0.029 A 
ATOM     53  N   UNL     1      -8.305  -7.405   1.256  1.00  0.00    -0.354 N 
ATOM     54  C   UNL     1      -5.409 -11.569   3.414  1.00  0.00     0.074 A 
ATOM     55  C   UNL     1      -4.210 -11.418   2.623  1.00  0.00     0.031 C 
ATOM     56  C   UNL     1      -9.145  -7.918   3.275  1.00  0.00     0.029 A 
ATOM     57  C   UNL     1      -9.527  -7.581   1.915  1.00  0.00     0.049 A 
ATOM     58  H   UNL     1      -8.153  -6.832   0.470  1.00  0.00     0.167 HD
ATOM     59  C   UNL     1      -5.725 -12.191   4.584  1.00  0.00     0.031 A 
ATOM     60  C   UNL     1     -10.618  -8.090   1.270  1.00  0.00     0.031 A 
ATOM     61  C   UNL     1      -7.127 -11.982   4.949  1.00  0.00     0.049 A 
ATOM     62  C   UNL     1     -11.101  -9.408   1.839  1.00  0.00     0.074 A 
ATOM     63  C   UNL     1      -7.759 -11.150   5.859  1.00  0.00     0.029 A 
ATOM     64  N   UNL     1      -8.124 -12.485   4.120  1.00  0.00    -0.354 N 
ATOM     65  N   UNL     1     -10.392 -10.164   2.630  1.00  0.00    -0.248 NA
ATOM     66  C   UNL     1     -12.400 -10.002   1.525  1.00  0.00     0.031 C 
ATOM     67  C   UNL     1      -9.139 -11.104   5.527  1.00  0.00     0.029 A 
ATOM     68  C   UNL     1      -9.349 -11.931   4.438  1.00  0.00     0.049 A 
ATOM     69  H   UNL     1      -7.977 -13.146   3.405  1.00  0.00     0.167 HD
ATOM     70  C   UNL     1     -11.082 -11.313   2.914  1.00  0.00     0.074 A 
ATOM     71  C   UNL     1     -12.342 -11.157   2.212  1.00  0.00     0.031 C 
ATOM     72  C   UNL     1     -10.543 -12.301   3.687  1.00  0.00     0.031 A 
BRANCH  59  73
ATOM     73  C   UNL     1      -4.688 -12.744   5.536  1.00  0.00    -0.014 A 
ATOM     74  C   UNL     1      -4.997 -12.864   6.904  1.00  0.00     0.009 A 
ATOM     75  C   UNL     1      -3.373 -13.088   5.180  1.00  0.00     0.009 A 
ATOM     76  C   UNL     1      -4.032 -13.214   7.860  1.00  0.00     0.001 A 
ATOM     77  C   UNL     1      -2.393 -13.407   6.130  1.00  0.00     0.001 A 
ATOM     78  C   UNL     1      -2.721 -13.460   7.474  1.00  0.00     0.000 A 
ENDBRANCH  59  73
BRANCH  60  79
ATOM     79  C   UNL     1     -10.696  -7.711  -0.167  1.00  0.00    -0.014 A 
ATOM     80  C   UNL     1     -10.985  -6.370  -0.487  1.00  0.00     0.009 A 
ATOM     81  C   UNL     1     -10.134  -8.531  -1.156  1.00  0.00     0.009 A 
ATOM     82  C   UNL     1     -10.615  -5.834  -1.724  1.00  0.00     0.001 A 
ATOM     83  C   UNL     1      -9.770  -7.990  -2.396  1.00  0.00     0.001 A 
ATOM     84  C   UNL     1      -9.978  -6.637  -2.666  1.00  0.00     0.000 A 
ENDBRANCH  60  79
BRANCH  72  85
ATOM     85  C   UNL     1     -11.097 -13.695   3.866  1.00  0.00    -0.014 A 
ATOM     86  C   UNL     1     -11.984 -14.316   2.978  1.00  0.00     0.009 A 
ATOM     87  C   UNL     1     -10.598 -14.495   4.920  1.00  0.00     0.009 A 
ATOM     88  C   UNL     1     -12.384 -15.649   3.156  1.00  0.00     0.001 A 
ATOM     89  C   UNL     1     -10.955 -15.836   5.074  1.00  0.00     0.001 A 
ATOM     90  C   UNL     1     -11.861 -16.412   4.196  1.00  0.00     0.000 A 
ENDBRANCH  72  85
ENDBRANCH  46  47
ENDBRANCH  38  41
ENDBRANCH  36  37
ENDBRANCH  35  36
ENDBRANCH   1  35
TORSDOF 13
