REMARK SMILES C[C@@](NC(=O)CSCc1ccccc1)(C(=O)NCCCNC(=O)c1ccc(-c2c3nc(c(-c4ccccc4)c4ccc([nH]4)c(-c4ccccc4)c4nc(c(-c5ccccc5)c5ccc2[nH]5)C=C4)C=C3)cc1)C1CC1
REMARK SMILES IDX 15 1 16 2 17 3 2 5 1 6 3 7 4 8 5 10 6 11 7 12 8 13 9 14
REMARK SMILES IDX 10 15 14 16 11 17 13 18 12 19 72 20 73 21 74 22 18 23 19 24
REMARK SMILES IDX 20 25 21 26 22 27 23 29 24 30 25 31 71 32 26 33 70 34 27 35
REMARK SMILES IDX 28 36 29 37 64 38 30 39 69 40 63 41 65 42 31 43 68 44 62 45
REMARK SMILES IDX 61 46 32 48 54 49 39 50 53 51 40 52 43 53 52 54 66 55 41 56
REMARK SMILES IDX 42 57 51 59 67 60 44 61 33 62 34 63 38 64 35 65 37 66 36 67
REMARK SMILES IDX 55 68 56 69 60 70 57 71 59 72 58 73 45 74 46 75 50 76 47 77
REMARK SMILES IDX 49 78 48 79
REMARK H PARENT 17 4 3 9 21 28 65 47 43 58
REMARK Flexibility Score: inf
ROOT
ATOM      1  C   UNL     1      -0.908   0.075  -0.889  1.00  0.00     0.245 C 
ATOM      2  O   UNL     1      -1.782   0.615  -1.575  1.00  0.00    -0.272 OA
ATOM      3  N   UNL     1      -1.311  -0.261   0.366  1.00  0.00    -0.354 N 
ATOM      4  H   UNL     1      -2.144   0.173   0.663  1.00  0.00     0.163 HD
ENDROOT
BRANCH   1   5
ATOM      5  C   UNL     1       0.536  -0.211  -1.408  1.00  0.00     0.119 C 
ATOM      6  C   UNL     1       1.559   0.359  -0.379  1.00  0.00     0.046 C 
BRANCH   5   7
ATOM      7  N   UNL     1       0.821  -1.663  -1.492  1.00  0.00    -0.341 N 
ATOM      8  C   UNL     1       0.213  -2.704  -2.113  1.00  0.00     0.230 C 
ATOM      9  H   UNL     1       1.624  -1.929  -0.989  1.00  0.00     0.164 HD
ATOM     10  O   UNL     1       0.903  -3.720  -2.256  1.00  0.00    -0.274 OA
BRANCH   8  11
ATOM     11  C   UNL     1      -1.234  -2.686  -2.560  1.00  0.00     0.169 C 
BRANCH  11  12
ATOM     12  S   UNL     1      -2.432  -3.119  -1.242  1.00  0.00    -0.147 SA
BRANCH  12  13
ATOM     13  C   UNL     1      -1.626  -4.535  -0.419  1.00  0.00     0.105 C 
BRANCH  13  14
ATOM     14  C   UNL     1      -2.458  -5.778  -0.202  1.00  0.00    -0.038 A 
ATOM     15  C   UNL     1      -3.854  -5.833  -0.298  1.00  0.00     0.004 A 
ATOM     16  C   UNL     1      -1.779  -6.936   0.222  1.00  0.00     0.004 A 
ATOM     17  C   UNL     1      -4.545  -7.011   0.002  1.00  0.00     0.000 A 
ATOM     18  C   UNL     1      -2.468  -8.113   0.519  1.00  0.00     0.000 A 
ATOM     19  C   UNL     1      -3.853  -8.150   0.407  1.00  0.00     0.000 A 
ENDBRANCH  13  14
ENDBRANCH  12  13
ENDBRANCH  11  12
ENDBRANCH   8  11
ENDBRANCH   5   7
BRANCH   5  20
ATOM     20  C   UNL     1       0.906   0.430  -2.760  1.00  0.00     0.024 C 
ATOM     21  C   UNL     1       0.061   1.320  -3.657  1.00  0.00     0.007 C 
ATOM     22  C   UNL     1       1.123   1.939  -2.808  1.00  0.00     0.007 C 
ENDBRANCH   5  20
ENDBRANCH   1   5
BRANCH   3  23
ATOM     23  C   UNL     1      -0.714  -1.153   1.336  1.00  0.00     0.117 C 
BRANCH  23  24
ATOM     24  C   UNL     1      -1.469  -1.219   2.653  1.00  0.00     0.042 C 
BRANCH  24  25
ATOM     25  C   UNL     1      -2.978  -1.397   2.567  1.00  0.00     0.118 C 
BRANCH  25  26
ATOM     26  N   UNL     1      -3.408  -2.736   2.206  1.00  0.00    -0.352 N 
ATOM     27  C   UNL     1      -4.066  -3.679   2.963  1.00  0.00     0.251 C 
ATOM     28  H   UNL     1      -3.198  -3.011   1.284  1.00  0.00     0.163 HD
ATOM     29  O   UNL     1      -4.230  -4.821   2.557  1.00  0.00    -0.269 OA
BRANCH  27  30
ATOM     30  C   UNL     1      -4.575  -3.331   4.301  1.00  0.00     0.039 A 
ATOM     31  C   UNL     1      -4.414  -4.244   5.345  1.00  0.00     0.014 A 
ATOM     32  C   UNL     1      -5.212  -2.110   4.521  1.00  0.00     0.014 A 
ATOM     33  C   UNL     1      -4.811  -3.888   6.632  1.00  0.00     0.010 A 
ATOM     34  C   UNL     1      -5.478  -1.704   5.817  1.00  0.00     0.010 A 
ATOM     35  C   UNL     1      -5.296  -2.595   6.883  1.00  0.00    -0.014 A 
BRANCH  35  36
ATOM     36  C   UNL     1      -5.634  -2.148   8.253  1.00  0.00     0.031 A 
ATOM     37  C   UNL     1      -7.035  -1.700   8.564  1.00  0.00     0.074 A 
ATOM     38  C   UNL     1      -4.660  -2.071   9.179  1.00  0.00     0.049 A 
ATOM     39  N   UNL     1      -7.513  -1.196   9.672  1.00  0.00    -0.248 NA
ATOM     40  C   UNL     1      -8.021  -1.786   7.472  1.00  0.00     0.031 C 
ATOM     41  C   UNL     1      -3.252  -2.421   8.963  1.00  0.00     0.029 A 
ATOM     42  N   UNL     1      -4.704  -1.673  10.489  1.00  0.00    -0.354 N 
ATOM     43  C   UNL     1      -8.838  -0.879   9.398  1.00  0.00     0.074 A 
ATOM     44  C   UNL     1      -9.071  -1.183   8.005  1.00  0.00     0.031 C 
ATOM     45  C   UNL     1      -2.579  -2.267  10.114  1.00  0.00     0.029 A 
ATOM     46  C   UNL     1      -3.494  -1.766  11.132  1.00  0.00     0.049 A 
ATOM     47  H   UNL     1      -5.524  -1.351  10.927  1.00  0.00     0.167 HD
ATOM     48  C   UNL     1      -9.784  -0.403  10.240  1.00  0.00     0.031 A 
ATOM     49  C   UNL     1      -3.164  -1.482  12.404  1.00  0.00     0.031 A 
ATOM     50  C   UNL     1      -9.544  -0.131  11.631  1.00  0.00     0.049 A 
ATOM     51  C   UNL     1      -4.240  -0.987  13.329  1.00  0.00     0.074 A 
ATOM     52  C   UNL     1     -10.437   0.295  12.597  1.00  0.00     0.029 A 
ATOM     53  N   UNL     1      -8.312  -0.271  12.255  1.00  0.00    -0.354 N 
ATOM     54  N   UNL     1      -5.505  -0.753  13.073  1.00  0.00    -0.248 NA
ATOM     55  C   UNL     1      -3.846  -0.735  14.720  1.00  0.00     0.031 C 
ATOM     56  C   UNL     1      -9.735   0.457  13.796  1.00  0.00     0.029 A 
ATOM     57  C   UNL     1      -8.418   0.075  13.590  1.00  0.00     0.049 A 
ATOM     58  H   UNL     1      -7.486  -0.571  11.812  1.00  0.00     0.167 HD
ATOM     59  C   UNL     1      -6.066  -0.351  14.277  1.00  0.00     0.074 A 
ATOM     60  C   UNL     1      -5.006  -0.398  15.265  1.00  0.00     0.031 C 
ATOM     61  C   UNL     1      -7.341   0.025  14.545  1.00  0.00     0.031 A 
BRANCH  48  62
ATOM     62  C   UNL     1     -11.155  -0.150   9.671  1.00  0.00    -0.014 A 
ATOM     63  C   UNL     1     -11.972  -1.208   9.237  1.00  0.00     0.009 A 
ATOM     64  C   UNL     1     -11.641   1.162   9.574  1.00  0.00     0.009 A 
ATOM     65  C   UNL     1     -13.226  -0.953   8.676  1.00  0.00     0.001 A 
ATOM     66  C   UNL     1     -12.909   1.412   9.044  1.00  0.00     0.001 A 
ATOM     67  C   UNL     1     -13.695   0.356   8.585  1.00  0.00     0.000 A 
ENDBRANCH  48  62
BRANCH  49  68
ATOM     68  C   UNL     1      -1.773  -1.697  12.883  1.00  0.00    -0.014 A 
ATOM     69  C   UNL     1      -1.484  -2.733  13.784  1.00  0.00     0.009 A 
ATOM     70  C   UNL     1      -0.724  -0.878  12.435  1.00  0.00     0.009 A 
ATOM     71  C   UNL     1      -0.180  -2.927  14.248  1.00  0.00     0.001 A 
ATOM     72  C   UNL     1       0.583  -1.093  12.877  1.00  0.00     0.001 A 
ATOM     73  C   UNL     1       0.852  -2.111  13.791  1.00  0.00     0.000 A 
ENDBRANCH  49  68
BRANCH  61  74
ATOM     74  C   UNL     1      -7.653   0.380  15.971  1.00  0.00    -0.014 A 
ATOM     75  C   UNL     1      -7.165   1.560  16.552  1.00  0.00     0.009 A 
ATOM     76  C   UNL     1      -8.464  -0.473  16.734  1.00  0.00     0.009 A 
ATOM     77  C   UNL     1      -7.445   1.855  17.887  1.00  0.00     0.001 A 
ATOM     78  C   UNL     1      -8.770  -0.159  18.058  1.00  0.00     0.001 A 
ATOM     79  C   UNL     1      -8.250   0.997  18.637  1.00  0.00     0.000 A 
ENDBRANCH  61  74
ENDBRANCH  35  36
ENDBRANCH  27  30
ENDBRANCH  25  26
ENDBRANCH  24  25
ENDBRANCH  23  24
ENDBRANCH   3  23
TORSDOF 16
