REMARK SMILES Cc1cscc1C(=O)N1C[C@@H](C(=O)NCCCNC(=O)c2ccc(-c3c4nc(c(-c5ccccc5)c5ccc([nH]5)c(-c5ccccc5)c5nc(c(-c6ccccc6)c6ccc3[nH]6)C=C5)C=C4)cc2)Oc2ccccc21
REMARK SMILES IDX 16 1 15 2 14 3 12 4 13 5 11 7 9 8 10 9 75 10 70 11 74 12
REMARK SMILES IDX 69 13 71 14 73 15 72 16 7 17 8 18 6 19 1 20 2 21 3 22 4 23
REMARK SMILES IDX 5 24 17 25 18 26 19 27 20 29 21 30 22 31 68 32 23 33 67 34
REMARK SMILES IDX 24 35 25 36 26 37 61 38 27 39 66 40 60 41 62 42 28 43 65 44
REMARK SMILES IDX 59 45 58 46 29 48 51 49 36 50 50 51 37 52 40 53 49 54 63 55
REMARK SMILES IDX 38 56 39 57 48 59 64 60 41 61 30 62 31 63 35 64 32 65 34 66
REMARK SMILES IDX 33 67 52 68 53 69 57 70 54 71 56 72 55 73 42 74 43 75 47 76
REMARK SMILES IDX 44 77 46 78 45 79
REMARK H PARENT 14 6 18 28 62 47 40 58
REMARK Flexibility Score: inf
ROOT
ATOM      1  C   UNL     1       5.723   7.055  -0.695  1.00  0.00     0.042 C 
ENDROOT
BRANCH   1   2
ATOM      2  C   UNL     1       5.139   5.666  -0.490  1.00  0.00     0.118 C 
BRANCH   2   3
ATOM      3  N   UNL     1       4.339   5.201  -1.605  1.00  0.00    -0.353 N 
ATOM      4  C   UNL     1       3.993   3.937  -1.969  1.00  0.00     0.262 C 
ATOM      5  O   UNL     1       3.187   3.836  -2.902  1.00  0.00    -0.271 OA
ATOM      6  H   UNL     1       3.990   5.912  -2.191  1.00  0.00     0.163 HD
BRANCH   4   7
ATOM      7  C   UNL     1       4.593   2.663  -1.325  1.00  0.00     0.281 C 
ATOM      8  N   UNL     1       2.792   2.133   0.276  1.00  0.00    -0.301 N 
ATOM      9  C   UNL     1       3.452   1.704  -0.962  1.00  0.00     0.181 C 
ATOM     10  C   UNL     1       3.656   2.681   1.269  1.00  0.00     0.086 A 
ATOM     11  C   UNL     1       5.015   2.861   0.976  1.00  0.00     0.144 A 
ATOM     12  C   UNL     1       3.207   2.992   2.559  1.00  0.00     0.030 A 
ATOM     13  O   UNL     1       5.553   2.709  -0.279  1.00  0.00    -0.477 OA
ATOM     14  C   UNL     1       5.911   3.287   1.962  1.00  0.00     0.049 A 
ATOM     15  C   UNL     1       4.095   3.460   3.532  1.00  0.00     0.002 A 
ATOM     16  C   UNL     1       5.448   3.596   3.238  1.00  0.00     0.004 A 
BRANCH   8  17
ATOM     17  C   UNL     1       1.408   2.169   0.403  1.00  0.00     0.259 C 
ATOM     18  O   UNL     1       0.824   3.148   0.884  1.00  0.00    -0.269 OA
BRANCH  17  19
ATOM     19  C   UNL     1       0.630   0.992  -0.018  1.00  0.00     0.053 A 
ATOM     20  C   UNL     1       2.273  -1.032   0.437  1.00  0.00     0.046 C 
ATOM     21  C   UNL     1       0.979  -0.421   0.007  1.00  0.00    -0.028 A 
ATOM     22  C   UNL     1      -0.095  -1.206  -0.383  1.00  0.00     0.069 A 
ATOM     23  S   UNL     1      -1.494  -0.308  -0.744  1.00  0.00    -0.151 S 
ATOM     24  C   UNL     1      -0.698   1.153  -0.387  1.00  0.00     0.079 A 
ENDBRANCH  17  19
ENDBRANCH   8  17
ENDBRANCH   4   7
ENDBRANCH   2   3
ENDBRANCH   1   2
BRANCH   1  25
ATOM     25  C   UNL     1       4.699   8.166  -0.873  1.00  0.00     0.118 C 
BRANCH  25  26
ATOM     26  N   UNL     1       3.985   8.510   0.348  1.00  0.00    -0.352 N 
ATOM     27  C   UNL     1       3.988   9.674   1.080  1.00  0.00     0.251 C 
ATOM     28  H   UNL     1       3.409   7.796   0.706  1.00  0.00     0.163 HD
ATOM     29  O   UNL     1       3.391   9.725   2.154  1.00  0.00    -0.269 OA
BRANCH  27  30
ATOM     30  C   UNL     1       4.742  10.859   0.613  1.00  0.00     0.039 A 
ATOM     31  C   UNL     1       5.509  11.578   1.535  1.00  0.00     0.014 A 
ATOM     32  C   UNL     1       4.708  11.265  -0.723  1.00  0.00     0.014 A 
ATOM     33  C   UNL     1       6.312  12.637   1.101  1.00  0.00     0.010 A 
ATOM     34  C   UNL     1       5.580  12.252  -1.171  1.00  0.00     0.010 A 
ATOM     35  C   UNL     1       6.393  12.950  -0.265  1.00  0.00    -0.014 A 
BRANCH  35  36
ATOM     36  C   UNL     1       7.310  14.003  -0.774  1.00  0.00     0.031 A 
ATOM     37  C   UNL     1       6.754  15.195  -1.507  1.00  0.00     0.074 A 
ATOM     38  C   UNL     1       8.644  13.851  -0.661  1.00  0.00     0.049 A 
ATOM     39  N   UNL     1       7.391  16.145  -2.143  1.00  0.00    -0.248 NA
ATOM     40  C   UNL     1       5.288  15.314  -1.561  1.00  0.00     0.031 C 
ATOM     41  C   UNL     1       9.323  12.724  -0.016  1.00  0.00     0.029 A 
ATOM     42  N   UNL     1       9.672  14.648  -1.100  1.00  0.00    -0.354 N 
ATOM     43  C   UNL     1       6.406  16.945  -2.709  1.00  0.00     0.074 A 
ATOM     44  C   UNL     1       5.131  16.352  -2.369  1.00  0.00     0.031 C 
ATOM     45  C   UNL     1      10.651  12.918  -0.076  1.00  0.00     0.029 A 
ATOM     46  C   UNL     1      10.919  14.157  -0.798  1.00  0.00     0.049 A 
ATOM     47  H   UNL     1       9.529  15.493  -1.585  1.00  0.00     0.167 HD
ATOM     48  C   UNL     1       6.545  18.080  -3.434  1.00  0.00     0.031 A 
ATOM     49  C   UNL     1      12.142  14.645  -1.075  1.00  0.00     0.031 A 
ATOM     50  C   UNL     1       7.804  18.703  -3.733  1.00  0.00     0.049 A 
ATOM     51  C   UNL     1      12.270  15.931  -1.841  1.00  0.00     0.074 A 
ATOM     52  C   UNL     1       8.042  19.890  -4.404  1.00  0.00     0.029 A 
ATOM     53  N   UNL     1       9.039  18.195  -3.366  1.00  0.00    -0.354 N 
ATOM     54  N   UNL     1      11.326  16.694  -2.334  1.00  0.00    -0.248 NA
ATOM     55  C   UNL     1      13.634  16.425  -2.080  1.00  0.00     0.031 C 
ATOM     56  C   UNL     1       9.425  20.090  -4.462  1.00  0.00     0.029 A 
ATOM     57  C   UNL     1      10.044  19.043  -3.798  1.00  0.00     0.049 A 
ATOM     58  H   UNL     1       9.181  17.356  -2.871  1.00  0.00     0.167 HD
ATOM     59  C   UNL     1      11.979  17.769  -2.922  1.00  0.00     0.074 A 
ATOM     60  C   UNL     1      13.398  17.566  -2.715  1.00  0.00     0.031 C 
ATOM     61  C   UNL     1      11.449  18.830  -3.575  1.00  0.00     0.031 A 
BRANCH  48  62
ATOM     62  C   UNL     1       5.290  18.722  -3.951  1.00  0.00    -0.014 A 
ATOM     63  C   UNL     1       4.415  19.403  -3.089  1.00  0.00     0.009 A 
ATOM     64  C   UNL     1       4.988  18.661  -5.320  1.00  0.00     0.009 A 
ATOM     65  C   UNL     1       3.244  19.979  -3.584  1.00  0.00     0.001 A 
ATOM     66  C   UNL     1       3.828  19.259  -5.815  1.00  0.00     0.001 A 
ATOM     67  C   UNL     1       2.953  19.909  -4.946  1.00  0.00     0.000 A 
ENDBRANCH  48  62
BRANCH  49  68
ATOM     68  C   UNL     1      13.353  13.927  -0.605  1.00  0.00    -0.014 A 
ATOM     69  C   UNL     1      14.088  14.422   0.483  1.00  0.00     0.009 A 
ATOM     70  C   UNL     1      13.783  12.752  -1.239  1.00  0.00     0.009 A 
ATOM     71  C   UNL     1      15.245  13.767   0.912  1.00  0.00     0.001 A 
ATOM     72  C   UNL     1      14.928  12.087  -0.794  1.00  0.00     0.001 A 
ATOM     73  C   UNL     1      15.661  12.599   0.275  1.00  0.00     0.000 A 
ENDBRANCH  49  68
BRANCH  61  74
ATOM     74  C   UNL     1      12.404  19.870  -4.079  1.00  0.00    -0.014 A 
ATOM     75  C   UNL     1      13.164  19.655  -5.238  1.00  0.00     0.009 A 
ATOM     76  C   UNL     1      12.512  21.097  -3.406  1.00  0.00     0.009 A 
ATOM     77  C   UNL     1      14.035  20.643  -5.701  1.00  0.00     0.001 A 
ATOM     78  C   UNL     1      13.369  22.090  -3.883  1.00  0.00     0.001 A 
ATOM     79  C   UNL     1      14.134  21.860  -5.025  1.00  0.00     0.000 A 
ENDBRANCH  61  74
ENDBRANCH  35  36
ENDBRANCH  27  30
ENDBRANCH  25  26
ENDBRANCH   1  25
TORSDOF 12
