REMARK SMILES CC(C)[C@@H](CNC(=O)NCC1C(C)(C)C1(C)C)C(=O)NCCCNC(=O)c1ccc(-c2c3nc(c(-c4ccccc4)c4ccc([nH]4)c(-c4ccccc4)c4nc(c(-c5ccccc5)c5ccc2[nH]5)C=C4)C=C3)cc1
REMARK SMILES IDX 21 1 20 2 18 3 19 4 4 6 2 7 1 8 3 9 5 10 6 11 7 12 8 14 9 15
REMARK SMILES IDX 10 17 11 18 12 19 15 20 13 21 14 22 16 23 17 24 22 25 23 26
REMARK SMILES IDX 24 27 25 28 26 30 27 31 28 32 74 33 29 34 73 35 30 36 31 37
REMARK SMILES IDX 32 38 67 39 33 40 72 41 66 42 68 43 34 44 71 45 65 46 64 47
REMARK SMILES IDX 35 49 57 50 42 51 56 52 43 53 46 54 55 55 69 56 44 57 45 58
REMARK SMILES IDX 54 60 70 61 47 62 36 63 37 64 41 65 38 66 40 67 39 68 58 69
REMARK SMILES IDX 59 70 63 71 60 72 62 73 61 74 48 75 49 76 53 77 50 78 52 79
REMARK SMILES IDX 51 80
REMARK H PARENT 20 5 6 13 9 16 24 29 68 48 46 59
REMARK Flexibility Score: inf
ROOT
ATOM      1  C   UNL     1      -0.007  -3.813   1.918  1.00  0.00     0.117 C 
ENDROOT
BRANCH   1   2
ATOM      2  N   UNL     1      -0.818  -2.882   2.680  1.00  0.00    -0.356 N 
ATOM      3  C   UNL     1      -1.138  -1.587   2.439  1.00  0.00     0.225 C 
ATOM      4  O   UNL     1      -1.970  -1.059   3.183  1.00  0.00    -0.275 OA
ATOM      5  H   UNL     1      -1.199  -3.252   3.510  1.00  0.00     0.163 HD
BRANCH   3   6
ATOM      6  C   UNL     1      -0.523  -0.789   1.294  1.00  0.00     0.100 C 
BRANCH   6   7
ATOM      7  C   UNL     1       1.019  -0.674   1.321  1.00  0.00    -0.003 C 
ATOM      8  C   UNL     1       1.555   0.164   0.155  1.00  0.00     0.008 C 
ATOM      9  C   UNL     1       1.470  -0.030   2.643  1.00  0.00     0.008 C 
ENDBRANCH   6   7
BRANCH   6  10
ATOM     10  C   UNL     1      -1.210  -1.121  -0.037  1.00  0.00     0.131 C 
BRANCH  10  11
ATOM     11  N   UNL     1      -1.188  -2.489  -0.501  1.00  0.00    -0.337 N 
ATOM     12  C   UNL     1      -2.101  -3.466  -0.582  1.00  0.00     0.314 C 
ATOM     13  H   UNL     1      -0.303  -2.765  -0.833  1.00  0.00     0.165 HD
ATOM     14  O   UNL     1      -1.684  -4.605  -0.814  1.00  0.00    -0.249 OA
ATOM     15  N   UNL     1      -3.419  -3.303  -0.464  1.00  0.00    -0.338 N 
ATOM     16  H   UNL     1      -3.890  -4.166  -0.416  1.00  0.00     0.165 HD
BRANCH  15  17
ATOM     17  C   UNL     1      -4.336  -2.187  -0.389  1.00  0.00     0.122 C 
BRANCH  17  18
ATOM     18  C   UNL     1      -5.043  -1.903  -1.683  1.00  0.00     0.021 C 
ATOM     19  C   UNL     1      -4.766  -0.689  -2.593  1.00  0.00    -0.025 C 
ATOM     20  C   UNL     1      -4.537  -2.126  -3.109  1.00  0.00    -0.025 C 
ATOM     21  C   UNL     1      -5.970   0.098  -3.061  1.00  0.00     0.012 C 
ATOM     22  C   UNL     1      -3.563   0.213  -2.426  1.00  0.00     0.012 C 
ATOM     23  C   UNL     1      -3.129  -2.583  -3.417  1.00  0.00     0.012 C 
ATOM     24  C   UNL     1      -5.527  -2.741  -4.077  1.00  0.00     0.012 C 
ENDBRANCH  17  18
ENDBRANCH  15  17
ENDBRANCH  10  11
ENDBRANCH   6  10
ENDBRANCH   3   6
ENDBRANCH   1   2
BRANCH   1  25
ATOM     25  C   UNL     1       1.128  -4.398   2.729  1.00  0.00     0.042 C 
BRANCH  25  26
ATOM     26  C   UNL     1       0.630  -5.313   3.832  1.00  0.00     0.118 C 
BRANCH  26  27
ATOM     27  N   UNL     1      -0.045  -6.503   3.320  1.00  0.00    -0.352 N 
ATOM     28  C   UNL     1       0.361  -7.816   3.274  1.00  0.00     0.251 C 
ATOM     29  H   UNL     1      -0.940  -6.337   2.944  1.00  0.00     0.163 HD
ATOM     30  O   UNL     1      -0.280  -8.642   2.642  1.00  0.00    -0.269 OA
BRANCH  28  31
ATOM     31  C   UNL     1       1.597  -8.220   3.973  1.00  0.00     0.039 A 
ATOM     32  C   UNL     1       2.483  -9.099   3.345  1.00  0.00     0.014 A 
ATOM     33  C   UNL     1       1.889  -7.714   5.239  1.00  0.00     0.014 A 
ATOM     34  C   UNL     1       3.702  -9.396   3.956  1.00  0.00     0.010 A 
ATOM     35  C   UNL     1       3.152  -7.899   5.776  1.00  0.00     0.010 A 
ATOM     36  C   UNL     1       4.066  -8.759   5.153  1.00  0.00    -0.014 A 
BRANCH  36  37
ATOM     37  C   UNL     1       5.379  -8.990   5.799  1.00  0.00     0.031 A 
ATOM     38  C   UNL     1       5.434  -9.528   7.204  1.00  0.00     0.074 A 
ATOM     39  C   UNL     1       6.511  -8.627   5.165  1.00  0.00     0.049 A 
ATOM     40  N   UNL     1       6.470  -9.696   7.985  1.00  0.00    -0.248 NA
ATOM     41  C   UNL     1       4.147  -9.878   7.831  1.00  0.00     0.031 C 
ATOM     42  C   UNL     1       6.587  -8.034   3.828  1.00  0.00     0.029 A 
ATOM     43  N   UNL     1       7.819  -8.697   5.572  1.00  0.00    -0.354 N 
ATOM     44  C   UNL     1       5.954 -10.128   9.201  1.00  0.00     0.074 A 
ATOM     45  C   UNL     1       4.515 -10.137   9.075  1.00  0.00     0.031 C 
ATOM     46  C   UNL     1       7.876  -7.830   3.510  1.00  0.00     0.029 A 
ATOM     47  C   UNL     1       8.711  -8.236   4.635  1.00  0.00     0.049 A 
ATOM     48  H   UNL     1       8.092  -9.045   6.451  1.00  0.00     0.167 HD
ATOM     49  C   UNL     1       6.619 -10.511  10.316  1.00  0.00     0.031 A 
ATOM     50  C   UNL     1      10.053  -8.150   4.679  1.00  0.00     0.031 A 
ATOM     51  C   UNL     1       8.052 -10.540  10.422  1.00  0.00     0.049 A 
ATOM     52  C   UNL     1      10.774  -8.616   5.911  1.00  0.00     0.074 A 
ATOM     53  C   UNL     1       8.830 -10.993  11.473  1.00  0.00     0.029 A 
ATOM     54  N   UNL     1       8.921 -10.103   9.435  1.00  0.00    -0.354 N 
ATOM     55  N   UNL     1      10.278  -9.095   7.026  1.00  0.00    -0.248 NA
ATOM     56  C   UNL     1      12.241  -8.541   5.885  1.00  0.00     0.031 C 
ATOM     57  C   UNL     1      10.172 -10.788  11.137  1.00  0.00     0.029 A 
ATOM     58  C   UNL     1      10.229 -10.256   9.858  1.00  0.00     0.049 A 
ATOM     59  H   UNL     1       8.648  -9.739   8.562  1.00  0.00     0.167 HD
ATOM     60  C   UNL     1      11.370  -9.400   7.827  1.00  0.00     0.074 A 
ATOM     61  C   UNL     1      12.555  -9.067   7.061  1.00  0.00     0.031 C 
ATOM     62  C   UNL     1      11.392  -9.912   9.082  1.00  0.00     0.031 A 
BRANCH  49  63
ATOM     63  C   UNL     1       5.793 -10.924  11.502  1.00  0.00    -0.014 A 
ATOM     64  C   UNL     1       5.024 -12.100  11.484  1.00  0.00     0.009 A 
ATOM     65  C   UNL     1       5.779 -10.124  12.655  1.00  0.00     0.009 A 
ATOM     66  C   UNL     1       4.221 -12.438  12.575  1.00  0.00     0.001 A 
ATOM     67  C   UNL     1       5.001 -10.482  13.757  1.00  0.00     0.001 A 
ATOM     68  C   UNL     1       4.213 -11.631  13.712  1.00  0.00     0.000 A 
ENDBRANCH  49  63
BRANCH  50  69
ATOM     69  C   UNL     1      10.799  -7.631   3.504  1.00  0.00    -0.014 A 
ATOM     70  C   UNL     1      11.535  -8.507   2.690  1.00  0.00     0.009 A 
ATOM     71  C   UNL     1      10.763  -6.268   3.175  1.00  0.00     0.009 A 
ATOM     72  C   UNL     1      12.236  -8.023   1.583  1.00  0.00     0.001 A 
ATOM     73  C   UNL     1      11.444  -5.791   2.052  1.00  0.00     0.001 A 
ATOM     74  C   UNL     1      12.185  -6.668   1.261  1.00  0.00     0.000 A 
ENDBRANCH  50  69
BRANCH  62  75
ATOM     75  C   UNL     1      12.740 -10.164   9.694  1.00  0.00    -0.014 A 
ATOM     76  C   UNL     1      13.545  -9.106  10.141  1.00  0.00     0.009 A 
ATOM     77  C   UNL     1      13.187 -11.483   9.865  1.00  0.00     0.009 A 
ATOM     78  C   UNL     1      14.788  -9.364  10.720  1.00  0.00     0.001 A 
ATOM     79  C   UNL     1      14.418 -11.739  10.470  1.00  0.00     0.001 A 
ATOM     80  C   UNL     1      15.221 -10.679  10.889  1.00  0.00     0.000 A 
ENDBRANCH  62  75
ENDBRANCH  36  37
ENDBRANCH  28  31
ENDBRANCH  26  27
ENDBRANCH  25  26
ENDBRANCH   1  25
TORSDOF 15
