REMARK SMILES O=C(NCCCNC(=O)C1(C[C@@H]2COc3ccccc32)CC[NH2+]CC1)c1ccc(-c2c3nc(c(-c4ccccc4)c4ccc([nH]4)c(-c4ccccc4)c4nc(c(-c5ccccc5)c5ccc2[nH]5)C=C4)C=C3)cc1
REMARK SMILES IDX 5 1 4 2 3 3 1 4 2 5 26 7 27 8 73 9 28 10 72 11 29 12 30 13
REMARK SMILES IDX 31 14 66 15 32 16 71 17 65 18 67 19 33 20 70 21 64 22 63 23
REMARK SMILES IDX 34 25 56 26 41 27 55 28 42 29 45 30 54 31 68 32 43 33 44 34
REMARK SMILES IDX 53 36 69 37 46 38 35 39 36 40 40 41 37 42 39 43 38 44 57 45
REMARK SMILES IDX 58 46 62 47 59 48 61 49 60 50 47 51 48 52 52 53 49 54 51 55
REMARK SMILES IDX 50 56 6 57 7 58 8 59 9 61 10 62 21 63 25 64 22 65 24 66
REMARK SMILES IDX 23 67 11 70 12 71 13 72 20 73 14 74 15 75 19 76 16 77 18 78
REMARK SMILES IDX 17 79
REMARK H PARENT 3 6 67 24 45 35 7 60 23 68 23 69
REMARK Flexibility Score: inf
ROOT
ATOM      1  C   UNL     1       8.750  -3.099   3.036  1.00  0.00     0.042 C 
ENDROOT
BRANCH   1   2
ATOM      2  C   UNL     1       9.246  -2.095   1.979  1.00  0.00     0.118 C 
BRANCH   2   3
ATOM      3  N   UNL     1      10.654  -2.263   1.688  1.00  0.00    -0.352 N 
ATOM      4  O   UNL     1      12.539  -2.880   0.666  1.00  0.00    -0.269 OA
ATOM      5  C   UNL     1      11.328  -2.644   0.554  1.00  0.00     0.251 C 
ATOM      6  H   UNL     1      11.243  -2.066   2.452  1.00  0.00     0.163 HD
BRANCH   5   7
ATOM      7  C   UNL     1      10.707  -2.782  -0.790  1.00  0.00     0.039 A 
ATOM      8  C   UNL     1       9.794  -1.866  -1.317  1.00  0.00     0.014 A 
ATOM      9  C   UNL     1      11.225  -3.778  -1.633  1.00  0.00     0.014 A 
ATOM     10  C   UNL     1       9.400  -1.954  -2.668  1.00  0.00     0.010 A 
ATOM     11  C   UNL     1      10.857  -3.848  -2.985  1.00  0.00     0.010 A 
ATOM     12  C   UNL     1       9.948  -2.927  -3.523  1.00  0.00    -0.014 A 
BRANCH  12  13
ATOM     13  C   UNL     1       9.671  -2.927  -4.990  1.00  0.00     0.031 A 
ATOM     14  C   UNL     1       8.867  -4.020  -5.642  1.00  0.00     0.074 A 
ATOM     15  C   UNL     1      10.215  -1.970  -5.771  1.00  0.00     0.049 A 
ATOM     16  N   UNL     1       8.563  -4.179  -6.909  1.00  0.00    -0.248 NA
ATOM     17  C   UNL     1       8.347  -5.076  -4.763  1.00  0.00     0.031 C 
ATOM     18  C   UNL     1      11.059  -0.872  -5.298  1.00  0.00     0.029 A 
ATOM     19  N   UNL     1      10.147  -1.775  -7.131  1.00  0.00    -0.354 N 
ATOM     20  C   UNL     1       7.822  -5.352  -6.980  1.00  0.00     0.074 A 
ATOM     21  C   UNL     1       7.747  -5.880  -5.632  1.00  0.00     0.031 C 
ATOM     22  C   UNL     1      11.414  -0.109  -6.345  1.00  0.00     0.029 A 
ATOM     23  C   UNL     1      10.851  -0.678  -7.567  1.00  0.00     0.049 A 
ATOM     24  H   UNL     1       9.642  -2.365  -7.735  1.00  0.00     0.167 HD
ATOM     25  C   UNL     1       7.248  -5.936  -8.062  1.00  0.00     0.031 A 
ATOM     26  C   UNL     1      11.035  -0.182  -8.806  1.00  0.00     0.031 A 
ATOM     27  C   UNL     1       7.316  -5.432  -9.410  1.00  0.00     0.049 A 
ATOM     28  C   UNL     1      10.405  -0.858  -9.991  1.00  0.00     0.074 A 
ATOM     29  C   UNL     1       6.710  -5.936 -10.550  1.00  0.00     0.029 A 
ATOM     30  N   UNL     1       8.041  -4.320  -9.805  1.00  0.00    -0.354 N 
ATOM     31  N   UNL     1       9.645  -1.923 -10.025  1.00  0.00    -0.248 NA
ATOM     32  C   UNL     1      10.656  -0.254 -11.309  1.00  0.00     0.031 C 
ATOM     33  C   UNL     1       7.102  -5.153 -11.642  1.00  0.00     0.029 A 
ATOM     34  C   UNL     1       7.918  -4.138 -11.175  1.00  0.00     0.049 A 
ATOM     35  H   UNL     1       8.566  -3.744  -9.204  1.00  0.00     0.167 HD
ATOM     36  C   UNL     1       9.311  -2.107 -11.361  1.00  0.00     0.074 A 
ATOM     37  C   UNL     1       9.939  -1.036 -12.105  1.00  0.00     0.031 C 
ATOM     38  C   UNL     1       8.549  -3.079 -11.917  1.00  0.00     0.031 A 
BRANCH  25  39
ATOM     39  C   UNL     1       6.485  -7.210  -7.835  1.00  0.00    -0.014 A 
ATOM     40  C   UNL     1       5.217  -7.194  -7.232  1.00  0.00     0.009 A 
ATOM     41  C   UNL     1       7.010  -8.432  -8.285  1.00  0.00     0.009 A 
ATOM     42  C   UNL     1       4.503  -8.381  -7.059  1.00  0.00     0.001 A 
ATOM     43  C   UNL     1       6.284  -9.614  -8.129  1.00  0.00     0.001 A 
ATOM     44  C   UNL     1       5.035  -9.589  -7.510  1.00  0.00     0.000 A 
ENDBRANCH  25  39
BRANCH  26  45
ATOM     45  C   UNL     1      11.853   1.043  -8.997  1.00  0.00    -0.014 A 
ATOM     46  C   UNL     1      11.236   2.267  -9.298  1.00  0.00     0.009 A 
ATOM     47  C   UNL     1      13.250   0.992  -8.886  1.00  0.00     0.009 A 
ATOM     48  C   UNL     1      12.005   3.414  -9.501  1.00  0.00     0.001 A 
ATOM     49  C   UNL     1      14.015   2.146  -9.067  1.00  0.00     0.001 A 
ATOM     50  C   UNL     1      13.393   3.353  -9.381  1.00  0.00     0.000 A 
ENDBRANCH  26  45
BRANCH  38  51
ATOM     51  C   UNL     1       8.332  -3.018 -13.402  1.00  0.00    -0.014 A 
ATOM     52  C   UNL     1       9.348  -3.385 -14.299  1.00  0.00     0.009 A 
ATOM     53  C   UNL     1       7.089  -2.613 -13.911  1.00  0.00     0.009 A 
ATOM     54  C   UNL     1       9.130  -3.319 -15.677  1.00  0.00     0.001 A 
ATOM     55  C   UNL     1       6.867  -2.569 -15.288  1.00  0.00     0.001 A 
ATOM     56  C   UNL     1       7.890  -2.914 -16.170  1.00  0.00     0.000 A 
ENDBRANCH  38  51
ENDBRANCH  12  13
ENDBRANCH   5   7
ENDBRANCH   2   3
ENDBRANCH   1   2
BRANCH   1  57
ATOM     57  C   UNL     1       8.134  -2.539   4.336  1.00  0.00     0.117 C 
BRANCH  57  58
ATOM     58  N   UNL     1       7.421  -1.274   4.229  1.00  0.00    -0.356 N 
ATOM     59  C   UNL     1       6.125  -0.867   4.233  1.00  0.00     0.226 C 
ATOM     60  H   UNL     1       8.040  -0.515   4.125  1.00  0.00     0.163 HD
ATOM     61  O   UNL     1       5.977   0.358   4.151  1.00  0.00    -0.274 OA
BRANCH  59  62
ATOM     62  C   UNL     1       4.900  -1.805   4.320  1.00  0.00     0.061 C 
ATOM     63  C   UNL     1       3.572  -1.044   4.007  1.00  0.00     0.078 C 
ATOM     64  C   UNL     1       4.794  -2.321   5.782  1.00  0.00     0.078 C 
ATOM     65  C   UNL     1       3.140  -0.038   5.074  1.00  0.00     0.261 C 
ATOM     66  C   UNL     1       4.361  -1.228   6.768  1.00  0.00     0.261 C 
ATOM     67  N   UNL     1       3.070  -0.662   6.391  1.00  0.00    -0.346 N 
ATOM     68  H   UNL     1       2.372  -1.406   6.371  1.00  0.00     0.346 HD
ATOM     69  H   UNL     1       2.813   0.049   7.075  1.00  0.00     0.346 HD
BRANCH  62  70
ATOM     70  C   UNL     1       4.985  -2.998   3.325  1.00  0.00     0.029 C 
BRANCH  70  71
ATOM     71  C   UNL     1       5.397  -2.759   1.856  1.00  0.00     0.062 C 
ATOM     72  C   UNL     1       5.806  -1.367   1.354  1.00  0.00     0.238 C 
ATOM     73  C   UNL     1       4.467  -3.087   0.735  1.00  0.00     0.001 A 
ATOM     74  O   UNL     1       5.851  -1.422  -0.090  1.00  0.00    -0.493 OA
ATOM     75  C   UNL     1       4.860  -2.329  -0.369  1.00  0.00     0.122 A 
ATOM     76  C   UNL     1       3.489  -4.054   0.598  1.00  0.00     0.008 A 
ATOM     77  C   UNL     1       4.332  -2.510  -1.627  1.00  0.00     0.047 A 
ATOM     78  C   UNL     1       2.917  -4.236  -0.668  1.00  0.00     0.001 A 
ATOM     79  C   UNL     1       3.342  -3.478  -1.773  1.00  0.00     0.004 A 
ENDBRANCH  70  71
ENDBRANCH  62  70
ENDBRANCH  59  62
ENDBRANCH  57  58
ENDBRANCH   1  57
TORSDOF 12
