REMARK SMILES CCCn1nc(C(=O)NCCCNC(=O)c2ccc(-c3c4nc(c(-c5ccccc5)c5ccc([nH]5)c(-c5ccccc5)c5nc(c(-c6ccccc6)c6ccc3[nH]6)C=C5)C=C4)cc2)c2c1CC[C@@H]([NH+]1CC[NH+](Cc3ccccn3)CC1)C2
REMARK SMILES IDX 10 1 9 2 7 3 8 4 6 6 4 7 5 8 65 9 64 10 66 11 82 12 67 13
REMARK SMILES IDX 68 14 3 15 2 16 1 17 69 18 70 19 81 20 71 22 80 23 72 24
REMARK SMILES IDX 73 26 74 27 75 28 79 29 76 30 78 31 77 32 11 33 12 34 13 35
REMARK SMILES IDX 14 36 15 38 16 39 17 40 63 41 18 42 62 43 19 44 20 45 21 46
REMARK SMILES IDX 56 47 22 48 61 49 55 50 57 51 23 52 60 53 54 54 53 55 24 57
REMARK SMILES IDX 46 58 31 59 45 60 32 61 35 62 44 63 58 64 33 65 34 66 43 68
REMARK SMILES IDX 59 69 36 70 25 71 26 72 30 73 27 74 29 75 28 76 47 77 48 78
REMARK SMILES IDX 52 79 49 80 51 81 50 82 37 83 38 84 42 85 39 86 41 87 40 88
REMARK H PARENT 9 5 69 21 72 25 13 37 57 56 35 67
REMARK Flexibility Score: inf
ROOT
ATOM      1  C   UNL     1      -1.387   5.880   4.760  1.00  0.00     0.118 C 
ENDROOT
BRANCH   1   2
ATOM      2  N   UNL     1      -2.291   4.732   4.660  1.00  0.00    -0.351 N 
ATOM      3  C   UNL     1      -2.184   3.373   4.410  1.00  0.00     0.272 C 
ATOM      4  O   UNL     1      -3.233   2.757   4.642  1.00  0.00    -0.267 OA
ATOM      5  H   UNL     1      -3.227   4.997   4.810  1.00  0.00     0.163 HD
BRANCH   3   6
ATOM      6  C   UNL     1      -0.973   2.662   3.903  1.00  0.00     0.153 A 
ATOM      7  N   UNL     1       0.200   0.945   3.289  1.00  0.00    -0.269 N 
ATOM      8  N   UNL     1      -0.949   1.302   3.900  1.00  0.00    -0.167 NA
ATOM      9  C   UNL     1       0.996   2.013   3.028  1.00  0.00     0.043 A 
ATOM     10  C   UNL     1       0.218   3.120   3.279  1.00  0.00     0.012 A 
ATOM     11  C   UNL     1       2.331   2.024   2.373  1.00  0.00     0.062 C 
ATOM     12  C   UNL     1       0.643   4.449   2.824  1.00  0.00     0.105 C 
ATOM     13  C   UNL     1       2.874   3.464   2.324  1.00  0.00     0.072 C 
ATOM     14  C   UNL     1       1.828   4.486   1.851  1.00  0.00     0.189 C 
BRANCH   7  15
ATOM     15  C   UNL     1       0.458  -0.449   2.970  1.00  0.00     0.144 C 
BRANCH  15  16
ATOM     16  C   UNL     1      -0.163  -0.941   1.654  1.00  0.00     0.020 C 
ATOM     17  C   UNL     1       0.550  -0.459   0.398  1.00  0.00     0.006 C 
ENDBRANCH  15  16
ENDBRANCH   7  15
BRANCH  14  18
ATOM     18  N   UNL     1       1.548   4.284   0.427  1.00  0.00    -0.323 N 
ATOM     19  C   UNL     1       0.321   3.632  -0.005  1.00  0.00     0.324 C 
ATOM     20  C   UNL     1       1.977   5.377  -0.452  1.00  0.00     0.324 C 
ATOM     21  H   UNL     1       2.191   3.505   0.290  1.00  0.00     0.348 HD
ATOM     22  C   UNL     1       0.331   3.234  -1.502  1.00  0.00     0.324 C 
ATOM     23  C   UNL     1       1.819   5.069  -1.966  1.00  0.00     0.324 C 
ATOM     24  N   UNL     1       1.471   3.685  -2.305  1.00  0.00    -0.321 N 
ATOM     25  H   UNL     1       1.163   3.684  -3.278  1.00  0.00     0.348 HD
BRANCH  24  26
ATOM     26  C   UNL     1       2.608   2.746  -2.392  1.00  0.00     0.319 C 
BRANCH  26  27
ATOM     27  C   UNL     1       3.746   2.748  -1.373  1.00  0.00     0.095 A 
ATOM     28  C   UNL     1       4.021   1.603  -0.623  1.00  0.00     0.030 A 
ATOM     29  N   UNL     1       4.557   3.840  -1.315  1.00  0.00    -0.255 NA
ATOM     30  C   UNL     1       5.109   1.600   0.255  1.00  0.00     0.004 A 
ATOM     31  C   UNL     1       5.592   3.817  -0.444  1.00  0.00     0.111 A 
ATOM     32  C   UNL     1       5.905   2.733   0.357  1.00  0.00     0.020 A 
ENDBRANCH  26  27
ENDBRANCH  24  26
ENDBRANCH  14  18
ENDBRANCH   3   6
ENDBRANCH   1   2
BRANCH   1  33
ATOM     33  C   UNL     1      -1.212   6.639   3.435  1.00  0.00     0.042 C 
BRANCH  33  34
ATOM     34  C   UNL     1      -1.694   8.066   3.355  1.00  0.00     0.118 C 
BRANCH  34  35
ATOM     35  N   UNL     1      -0.831   9.003   4.075  1.00  0.00    -0.352 N 
ATOM     36  C   UNL     1      -1.121  10.317   4.364  1.00  0.00     0.251 C 
ATOM     37  H   UNL     1       0.039   8.660   4.382  1.00  0.00     0.163 HD
ATOM     38  O   UNL     1      -0.227  11.135   4.602  1.00  0.00    -0.269 OA
BRANCH  36  39
ATOM     39  C   UNL     1      -2.529  10.727   4.332  1.00  0.00     0.039 A 
ATOM     40  C   UNL     1      -2.932  11.811   3.555  1.00  0.00     0.014 A 
ATOM     41  C   UNL     1      -3.459   9.879   4.929  1.00  0.00     0.014 A 
ATOM     42  C   UNL     1      -4.287  11.959   3.276  1.00  0.00     0.010 A 
ATOM     43  C   UNL     1      -4.773   9.939   4.520  1.00  0.00     0.010 A 
ATOM     44  C   UNL     1      -5.207  10.985   3.708  1.00  0.00    -0.014 A 
BRANCH  44  45
ATOM     45  C   UNL     1      -6.581  11.014   3.195  1.00  0.00     0.031 A 
ATOM     46  C   UNL     1      -6.727  11.300   1.739  1.00  0.00     0.074 A 
ATOM     47  C   UNL     1      -7.684  10.660   3.889  1.00  0.00     0.049 A 
ATOM     48  N   UNL     1      -7.213  12.370   1.202  1.00  0.00    -0.248 NA
ATOM     49  C   UNL     1      -6.196  10.331   0.767  1.00  0.00     0.031 C 
ATOM     50  C   UNL     1      -7.774  10.065   5.227  1.00  0.00     0.029 A 
ATOM     51  N   UNL     1      -8.987  10.675   3.479  1.00  0.00    -0.354 N 
ATOM     52  C   UNL     1      -7.234  12.143  -0.171  1.00  0.00     0.074 A 
ATOM     53  C   UNL     1      -6.466  10.941  -0.390  1.00  0.00     0.031 C 
ATOM     54  C   UNL     1      -9.009   9.555   5.413  1.00  0.00     0.029 A 
ATOM     55  C   UNL     1      -9.845   9.962   4.301  1.00  0.00     0.049 A 
ATOM     56  H   UNL     1      -9.289  11.150   2.671  1.00  0.00     0.167 HD
ATOM     57  C   UNL     1      -8.081  12.828  -0.989  1.00  0.00     0.031 A 
ATOM     58  C   UNL     1     -11.160   9.720   4.105  1.00  0.00     0.031 A 
ATOM     59  C   UNL     1      -8.641  13.984  -0.335  1.00  0.00     0.049 A 
ATOM     60  C   UNL     1     -11.673  10.749   3.179  1.00  0.00     0.074 A 
ATOM     61  C   UNL     1      -8.140  15.124   0.261  1.00  0.00     0.029 A 
ATOM     62  N   UNL     1      -9.943  13.878   0.086  1.00  0.00    -0.354 N 
ATOM     63  N   UNL     1     -11.801  12.005   3.497  1.00  0.00    -0.248 NA
ATOM     64  C   UNL     1     -11.738  10.457   1.757  1.00  0.00     0.031 C 
ATOM     65  C   UNL     1      -9.019  15.387   1.356  1.00  0.00     0.029 A 
ATOM     66  C   UNL     1     -10.033  14.428   1.336  1.00  0.00     0.049 A 
ATOM     67  H   UNL     1     -10.684  13.476  -0.423  1.00  0.00     0.167 HD
ATOM     68  C   UNL     1     -11.506  12.691   2.332  1.00  0.00     0.074 A 
ATOM     69  C   UNL     1     -11.640  11.697   1.272  1.00  0.00     0.031 C 
ATOM     70  C   UNL     1     -10.902  13.916   2.374  1.00  0.00     0.031 A 
BRANCH  57  71
ATOM     71  C   UNL     1      -8.755  12.217  -2.200  1.00  0.00    -0.014 A 
ATOM     72  C   UNL     1      -9.622  13.022  -2.966  1.00  0.00     0.009 A 
ATOM     73  C   UNL     1      -8.822  10.830  -2.427  1.00  0.00     0.009 A 
ATOM     74  C   UNL     1     -10.572  12.460  -3.828  1.00  0.00     0.001 A 
ATOM     75  C   UNL     1      -9.738  10.269  -3.322  1.00  0.00     0.001 A 
ATOM     76  C   UNL     1     -10.637  11.082  -3.996  1.00  0.00     0.000 A 
ENDBRANCH  57  71
BRANCH  58  77
ATOM     77  C   UNL     1     -11.977   8.581   4.559  1.00  0.00    -0.014 A 
ATOM     78  C   UNL     1     -13.377   8.669   4.581  1.00  0.00     0.009 A 
ATOM     79  C   UNL     1     -11.393   7.311   4.718  1.00  0.00     0.009 A 
ATOM     80  C   UNL     1     -14.166   7.519   4.704  1.00  0.00     0.001 A 
ATOM     81  C   UNL     1     -12.181   6.163   4.848  1.00  0.00     0.001 A 
ATOM     82  C   UNL     1     -13.568   6.266   4.821  1.00  0.00     0.000 A 
ENDBRANCH  58  77
BRANCH  70  83
ATOM     83  C   UNL     1     -10.917  14.670   3.682  1.00  0.00    -0.014 A 
ATOM     84  C   UNL     1     -10.383  14.162   4.878  1.00  0.00     0.009 A 
ATOM     85  C   UNL     1     -11.393  15.990   3.676  1.00  0.00     0.009 A 
ATOM     86  C   UNL     1     -10.375  14.935   6.044  1.00  0.00     0.001 A 
ATOM     87  C   UNL     1     -11.360  16.772   4.832  1.00  0.00     0.001 A 
ATOM     88  C   UNL     1     -10.861  16.240   6.019  1.00  0.00     0.000 A 
ENDBRANCH  70  83
ENDBRANCH  44  45
ENDBRANCH  36  39
ENDBRANCH  34  35
ENDBRANCH  33  34
ENDBRANCH   1  33
TORSDOF 15
