REMARK SMILES CS(=O)(=O)c1ccc(N2N=C(C(=O)NCCCNC(=O)c3ccc(-c4c5nc(c(-c6ccccc6)c6ccc([nH]6)c(-c6ccccc6)c6nc(c(-c7ccccc7)c7ccc4[nH]7)C=C6)C=C5)cc3)C[C@H]2c2cccs2)cc1
REMARK SMILES IDX 16 1 15 2 14 3 12 4 13 5 11 7 9 8 10 9 70 10 69 11 8 12 5 13
REMARK SMILES IDX 6 14 77 15 7 16 76 17 2 18 1 19 3 20 4 21 71 22 72 23 75 24
REMARK SMILES IDX 73 25 74 26 17 27 18 28 19 29 20 31 21 32 22 33 68 34 23 35
REMARK SMILES IDX 67 36 24 37 25 38 26 39 61 40 27 41 66 42 60 43 62 44 28 45
REMARK SMILES IDX 65 46 59 47 58 48 29 50 51 51 36 52 50 53 37 54 40 55 49 56
REMARK SMILES IDX 63 57 38 58 39 59 48 61 64 62 41 63 30 64 31 65 35 66 32 67
REMARK SMILES IDX 34 68 33 69 52 70 53 71 57 72 54 73 56 74 55 75 42 76 43 77
REMARK SMILES IDX 47 78 44 79 46 80 45 81
REMARK H PARENT 14 6 18 30 62 49 40 60
REMARK Flexibility Score: inf
ROOT
ATOM      1  C   UNL     1       4.689  10.922  -4.944  1.00  0.00     0.042 C 
ENDROOT
BRANCH   1   2
ATOM      2  C   UNL     1       3.255  10.435  -5.090  1.00  0.00     0.118 C 
BRANCH   2   3
ATOM      3  N   UNL     1       3.157   9.372  -6.072  1.00  0.00    -0.351 N 
ATOM      4  C   UNL     1       2.975   8.014  -6.016  1.00  0.00     0.267 C 
ATOM      5  O   UNL     1       3.045   7.397  -7.077  1.00  0.00    -0.268 OA
ATOM      6  H   UNL     1       3.239   9.703  -6.995  1.00  0.00     0.163 HD
BRANCH   4   7
ATOM      7  C   UNL     1       2.652   7.242  -4.747  1.00  0.00     0.128 C 
ATOM      8  N   UNL     1       1.913   5.655  -3.537  1.00  0.00    -0.256 N 
ATOM      9  N   UNL     1       2.223   6.016  -4.806  1.00  0.00    -0.171 NA
ATOM     10  C   UNL     1       2.204   6.671  -2.528  1.00  0.00     0.154 C 
ATOM     11  C   UNL     1       2.834   7.785  -3.368  1.00  0.00     0.097 C 
BRANCH   8  12
ATOM     12  C   UNL     1       1.580   4.347  -3.222  1.00  0.00     0.060 A 
ATOM     13  C   UNL     1       0.920   1.744  -2.416  1.00  0.00     0.067 A 
ATOM     14  C   UNL     1       2.147   1.984  -3.039  1.00  0.00     0.022 A 
ATOM     15  C   UNL     1      -0.003   2.772  -2.244  1.00  0.00     0.022 A 
ATOM     16  C   UNL     1       2.468   3.286  -3.444  1.00  0.00     0.029 A 
ATOM     17  C   UNL     1       0.332   4.061  -2.652  1.00  0.00     0.029 A 
BRANCH  13  18
ATOM     18  S   UNL     1       0.495   0.107  -1.874  1.00  0.00     0.175 S 
ATOM     19  C   UNL     1       1.098   0.069  -0.205  1.00  0.00     0.163 C 
ATOM     20  O   UNL     1       1.268  -0.836  -2.655  1.00  0.00    -0.224 OA
ATOM     21  O   UNL     1      -0.954   0.025  -1.822  1.00  0.00    -0.224 OA
ENDBRANCH  13  18
ENDBRANCH   8  12
BRANCH  10  22
ATOM     22  C   UNL     1       1.034   7.124  -1.659  1.00  0.00     0.030 A 
ATOM     23  C   UNL     1       0.617   6.542  -0.471  1.00  0.00     0.017 A 
ATOM     24  S   UNL     1      -0.009   8.426  -2.082  1.00  0.00    -0.147 S 
ATOM     25  C   UNL     1      -0.530   7.175   0.086  1.00  0.00     0.012 A 
ATOM     26  C   UNL     1      -0.938   8.252  -0.664  1.00  0.00     0.065 A 
ENDBRANCH  10  22
ENDBRANCH   4   7
ENDBRANCH   2   3
ENDBRANCH   1   2
BRANCH   1  27
ATOM     27  C   UNL     1       5.110  11.825  -6.094  1.00  0.00     0.118 C 
BRANCH  27  28
ATOM     28  N   UNL     1       4.337  13.062  -6.125  1.00  0.00    -0.352 N 
ATOM     29  C   UNL     1       4.719  14.357  -5.883  1.00  0.00     0.251 C 
ATOM     30  H   UNL     1       3.387  12.949  -6.357  1.00  0.00     0.163 HD
ATOM     31  O   UNL     1       3.865  15.220  -5.704  1.00  0.00    -0.269 OA
BRANCH  29  32
ATOM     32  C   UNL     1       6.151  14.711  -5.829  1.00  0.00     0.039 A 
ATOM     33  C   UNL     1       6.584  15.652  -4.892  1.00  0.00     0.014 A 
ATOM     34  C   UNL     1       7.063  14.134  -6.715  1.00  0.00     0.014 A 
ATOM     35  C   UNL     1       7.942  15.960  -4.800  1.00  0.00     0.010 A 
ATOM     36  C   UNL     1       8.423  14.360  -6.553  1.00  0.00     0.010 A 
ATOM     37  C   UNL     1       8.876  15.285  -5.602  1.00  0.00    -0.014 A 
BRANCH  37  38
ATOM     38  C   UNL     1      10.332  15.534  -5.471  1.00  0.00     0.031 A 
ATOM     39  C   UNL     1      11.114  16.070  -6.639  1.00  0.00     0.074 A 
ATOM     40  C   UNL     1      10.960  15.211  -4.324  1.00  0.00     0.049 A 
ATOM     41  N   UNL     1      12.400  16.293  -6.737  1.00  0.00    -0.248 NA
ATOM     42  C   UNL     1      10.358  16.370  -7.867  1.00  0.00     0.031 C 
ATOM     43  C   UNL     1      10.319  14.646  -3.134  1.00  0.00     0.029 A 
ATOM     44  N   UNL     1      12.283  15.309  -3.972  1.00  0.00    -0.354 N 
ATOM     45  C   UNL     1      12.607  16.737  -8.037  1.00  0.00     0.074 A 
ATOM     46  C   UNL     1      11.327  16.699  -8.708  1.00  0.00     0.031 C 
ATOM     47  C   UNL     1      11.242  14.483  -2.172  1.00  0.00     0.029 A 
ATOM     48  C   UNL     1      12.545  14.883  -2.693  1.00  0.00     0.049 A 
ATOM     49  H   UNL     1      12.977  15.653  -4.579  1.00  0.00     0.167 HD
ATOM     50  C   UNL     1      13.756  17.159  -8.616  1.00  0.00     0.031 A 
ATOM     51  C   UNL     1      13.707  14.813  -2.017  1.00  0.00     0.031 A 
ATOM     52  C   UNL     1      15.026  17.204  -7.944  1.00  0.00     0.049 A 
ATOM     53  C   UNL     1      14.973  15.263  -2.692  1.00  0.00     0.074 A 
ATOM     54  C   UNL     1      16.238  17.670  -8.423  1.00  0.00     0.029 A 
ATOM     55  N   UNL     1      15.250  16.760  -6.650  1.00  0.00    -0.354 N 
ATOM     56  N   UNL     1      15.138  15.751  -3.898  1.00  0.00    -0.248 NA
ATOM     57  C   UNL     1      16.211  15.161  -1.908  1.00  0.00     0.031 C 
ATOM     58  C   UNL     1      17.208  17.449  -7.441  1.00  0.00     0.029 A 
ATOM     59  C   UNL     1      16.587  16.912  -6.325  1.00  0.00     0.049 A 
ATOM     60  H   UNL     1      14.561  16.392  -6.051  1.00  0.00     0.167 HD
ATOM     61  C   UNL     1      16.492  16.045  -4.004  1.00  0.00     0.074 A 
ATOM     62  C   UNL     1      17.096  15.697  -2.735  1.00  0.00     0.031 C 
ATOM     63  C   UNL     1      17.173  16.560  -5.057  1.00  0.00     0.031 A 
BRANCH  50  64
ATOM     64  C   UNL     1      13.691  17.595 -10.055  1.00  0.00    -0.014 A 
ATOM     65  C   UNL     1      13.011  18.763 -10.436  1.00  0.00     0.009 A 
ATOM     66  C   UNL     1      14.352  16.845 -11.041  1.00  0.00     0.009 A 
ATOM     67  C   UNL     1      12.962  19.150 -11.777  1.00  0.00     0.001 A 
ATOM     68  C   UNL     1      14.330  17.252 -12.376  1.00  0.00     0.001 A 
ATOM     69  C   UNL     1      13.626  18.398 -12.744  1.00  0.00     0.000 A 
ENDBRANCH  50  64
BRANCH  51  70
ATOM     70  C   UNL     1      13.731  14.309  -0.618  1.00  0.00    -0.014 A 
ATOM     71  C   UNL     1      14.029  15.175   0.446  1.00  0.00     0.009 A 
ATOM     72  C   UNL     1      13.471  12.958  -0.339  1.00  0.00     0.009 A 
ATOM     73  C   UNL     1      14.100  14.692   1.754  1.00  0.00     0.001 A 
ATOM     74  C   UNL     1      13.509  12.485   0.975  1.00  0.00     0.001 A 
ATOM     75  C   UNL     1      13.836  13.349   2.018  1.00  0.00     0.000 A 
ENDBRANCH  51  70
BRANCH  63  76
ATOM     76  C   UNL     1      18.642  16.817  -4.867  1.00  0.00    -0.014 A 
ATOM     77  C   UNL     1      19.565  15.765  -4.766  1.00  0.00     0.009 A 
ATOM     78  C   UNL     1      19.113  18.140  -4.830  1.00  0.00     0.009 A 
ATOM     79  C   UNL     1      20.924  16.032  -4.593  1.00  0.00     0.001 A 
ATOM     80  C   UNL     1      20.476  18.404  -4.693  1.00  0.00     0.001 A 
ATOM     81  C   UNL     1      21.379  17.351  -4.563  1.00  0.00     0.000 A 
ENDBRANCH  63  76
ENDBRANCH  37  38
ENDBRANCH  29  32
ENDBRANCH  27  28
ENDBRANCH   1  27
TORSDOF 13
