REMARK SMILES Cc1nc(-c2ccccc2)sc1C(=O)N[C@@H](CC1=c2ccccc2=NC1)C(=O)NCCCNC(=O)c1ccc(-c2c3nc(c(-c4ccccc4)c4ccc([nH]4)c(-c4ccccc4)c4nc(c(-c5ccccc5)c5ccc2[nH]5)C=C4)C=C3)cc1
REMARK SMILES IDX 30 1 29 2 27 3 28 4 16 6 15 7 13 8 14 9 12 11 1 12 2 13 3 14
REMARK SMILES IDX 4 15 11 16 5 17 6 18 10 19 7 20 9 21 8 22 17 23 18 24 19 25
REMARK SMILES IDX 26 26 20 27 24 28 25 29 21 30 23 31 22 32 31 33 32 34 33 35
REMARK SMILES IDX 34 36 35 38 36 39 37 40 83 41 38 42 82 43 39 44 40 45 41 46
REMARK SMILES IDX 76 47 42 48 81 49 75 50 77 51 43 52 80 53 74 54 73 55 44 57
REMARK SMILES IDX 66 58 51 59 65 60 52 61 55 62 64 63 78 64 53 65 54 66 63 68
REMARK SMILES IDX 79 69 56 70 45 71 46 72 50 73 47 74 49 75 48 76 67 77 68 78
REMARK SMILES IDX 72 79 69 80 71 81 70 82 57 83 58 84 62 85 59 86 61 87 60 88
REMARK H PARENT 29 5 15 10 33 37 77 56 55 67
REMARK Flexibility Score: inf
ROOT
ATOM      1  C   UNL     1      -3.865  -5.111   1.163  1.00  0.00     0.117 C 
ENDROOT
BRANCH   1   2
ATOM      2  N   UNL     1      -4.154  -3.889   1.862  1.00  0.00    -0.354 N 
ATOM      3  C   UNL     1      -4.001  -2.615   1.419  1.00  0.00     0.242 C 
ATOM      4  O   UNL     1      -4.588  -1.730   2.050  1.00  0.00    -0.273 OA
ATOM      5  H   UNL     1      -4.506  -3.988   2.776  1.00  0.00     0.163 HD
BRANCH   3   6
ATOM      6  C   UNL     1      -3.164  -2.254   0.173  1.00  0.00     0.175 C 
BRANCH   6   7
ATOM      7  N   UNL     1      -1.778  -2.677   0.230  1.00  0.00    -0.339 N 
ATOM      8  C   UNL     1      -0.589  -2.011   0.096  1.00  0.00     0.263 C 
ATOM      9  O   UNL     1       0.375  -2.789   0.119  1.00  0.00    -0.268 OA
ATOM     10  H   UNL     1      -1.670  -3.640   0.399  1.00  0.00     0.164 HD
BRANCH   8  11
ATOM     11  C   UNL     1      -0.424  -0.562  -0.041  1.00  0.00     0.115 A 
ATOM     12  C   UNL     1      -2.641   0.824  -0.543  1.00  0.00     0.068 C 
ATOM     13  C   UNL     1      -1.202   0.579  -0.263  1.00  0.00     0.062 A 
ATOM     14  N   UNL     1      -0.510   1.774  -0.216  1.00  0.00    -0.241 NA
ATOM     15  C   UNL     1       0.772   1.591  -0.059  1.00  0.00     0.124 A 
ATOM     16  S   UNL     1       1.254  -0.024   0.087  1.00  0.00    -0.108 S 
BRANCH  15  17
ATOM     17  C   UNL     1       1.692   2.715  -0.003  1.00  0.00     0.010 A 
ATOM     18  C   UNL     1       1.496   3.684   0.992  1.00  0.00     0.011 A 
ATOM     19  C   UNL     1       2.618   2.952  -1.024  1.00  0.00     0.011 A 
ATOM     20  C   UNL     1       2.197   4.887   0.955  1.00  0.00     0.001 A 
ATOM     21  C   UNL     1       3.313   4.162  -1.064  1.00  0.00     0.001 A 
ATOM     22  C   UNL     1       3.095   5.129  -0.082  1.00  0.00     0.000 A 
ENDBRANCH  15  17
ENDBRANCH   8  11
ENDBRANCH   6   7
BRANCH   6  23
ATOM     23  C   UNL     1      -3.818  -2.460  -1.221  1.00  0.00     0.068 C 
BRANCH  23  24
ATOM     24  C   UNL     1      -4.024  -3.855  -1.732  1.00  0.00    -0.037 C 
ATOM     25  C   UNL     1      -3.123  -4.787  -2.049  1.00  0.00     0.001 A 
ATOM     26  C   UNL     1      -5.414  -4.416  -1.848  1.00  0.00     0.174 C 
ATOM     27  C   UNL     1      -1.698  -4.846  -2.108  1.00  0.00     0.010 A 
ATOM     28  C   UNL     1      -3.945  -6.012  -2.093  1.00  0.00     0.065 A 
ATOM     29  N   UNL     1      -5.232  -5.877  -2.009  1.00  0.00    -0.280 NA
ATOM     30  C   UNL     1      -1.098  -6.047  -2.102  1.00  0.00     0.001 A 
ATOM     31  C   UNL     1      -3.212  -7.298  -2.089  1.00  0.00     0.028 A 
ATOM     32  C   UNL     1      -1.868  -7.279  -2.054  1.00  0.00     0.002 A 
ENDBRANCH  23  24
ENDBRANCH   6  23
ENDBRANCH   3   6
ENDBRANCH   1   2
BRANCH   1  33
ATOM     33  C   UNL     1      -3.335  -6.225   2.025  1.00  0.00     0.042 C 
BRANCH  33  34
ATOM     34  C   UNL     1      -4.315  -6.673   3.085  1.00  0.00     0.118 C 
BRANCH  34  35
ATOM     35  N   UNL     1      -5.593  -7.127   2.545  1.00  0.00    -0.352 N 
ATOM     36  C   UNL     1      -6.178  -8.374   2.541  1.00  0.00     0.251 C 
ATOM     37  H   UNL     1      -6.126  -6.424   2.110  1.00  0.00     0.163 HD
ATOM     38  O   UNL     1      -7.202  -8.573   1.911  1.00  0.00    -0.269 OA
BRANCH  36  39
ATOM     39  C   UNL     1      -5.531  -9.482   3.273  1.00  0.00     0.039 A 
ATOM     40  C   UNL     1      -5.490 -10.750   2.692  1.00  0.00     0.014 A 
ATOM     41  C   UNL     1      -4.926  -9.257   4.507  1.00  0.00     0.014 A 
ATOM     42  C   UNL     1      -4.755 -11.761   3.311  1.00  0.00     0.010 A 
ATOM     43  C   UNL     1      -4.064 -10.206   5.031  1.00  0.00     0.010 A 
ATOM     44  C   UNL     1      -3.989 -11.479   4.455  1.00  0.00    -0.014 A 
BRANCH  44  45
ATOM     45  C   UNL     1      -3.118 -12.505   5.075  1.00  0.00     0.031 A 
ATOM     46  C   UNL     1      -3.327 -12.902   6.513  1.00  0.00     0.074 A 
ATOM     47  C   UNL     1      -2.106 -13.035   4.360  1.00  0.00     0.049 A 
ATOM     48  N   UNL     1      -2.666 -13.775   7.230  1.00  0.00    -0.248 NA
ATOM     49  C   UNL     1      -4.388 -12.202   7.257  1.00  0.00     0.031 C 
ATOM     50  C   UNL     1      -1.752 -12.669   2.985  1.00  0.00     0.029 A 
ATOM     51  N   UNL     1      -1.194 -14.004   4.689  1.00  0.00    -0.354 N 
ATOM     52  C   UNL     1      -3.216 -13.706   8.504  1.00  0.00     0.074 A 
ATOM     53  C   UNL     1      -4.208 -12.657   8.486  1.00  0.00     0.031 C 
ATOM     54  C   UNL     1      -0.743 -13.450   2.568  1.00  0.00     0.029 A 
ATOM     55  C   UNL     1      -0.352 -14.338   3.656  1.00  0.00     0.049 A 
ATOM     56  H   UNL     1      -1.147 -14.421   5.580  1.00  0.00     0.167 HD
ATOM     57  C   UNL     1      -2.950 -14.473   9.586  1.00  0.00     0.031 A 
ATOM     58  C   UNL     1       0.618 -15.269   3.591  1.00  0.00     0.031 A 
ATOM     59  C   UNL     1      -1.982 -15.535   9.592  1.00  0.00     0.049 A 
ATOM     60  C   UNL     1       0.877 -16.128   4.795  1.00  0.00     0.074 A 
ATOM     61  C   UNL     1      -1.680 -16.422  10.609  1.00  0.00     0.029 A 
ATOM     62  N   UNL     1      -1.159 -15.852   8.522  1.00  0.00    -0.354 N 
ATOM     63  N   UNL     1       0.285 -16.111   5.966  1.00  0.00    -0.248 NA
ATOM     64  C   UNL     1       1.929 -17.144   4.663  1.00  0.00     0.031 C 
ATOM     65  C   UNL     1      -0.636 -17.245  10.171  1.00  0.00     0.029 A 
ATOM     66  C   UNL     1      -0.331 -16.907   8.861  1.00  0.00     0.049 A 
ATOM     67  H   UNL     1      -1.164 -15.394   7.651  1.00  0.00     0.167 HD
ATOM     68  C   UNL     1       0.879 -17.126   6.704  1.00  0.00     0.074 A 
ATOM     69  C   UNL     1       1.855 -17.755   5.837  1.00  0.00     0.031 C 
ATOM     70  C   UNL     1       0.644 -17.503   7.985  1.00  0.00     0.031 A 
BRANCH  57  71
ATOM     71  C   UNL     1      -3.725 -14.187  10.844  1.00  0.00    -0.014 A 
ATOM     72  C   UNL     1      -5.105 -14.438  10.923  1.00  0.00     0.009 A 
ATOM     73  C   UNL     1      -3.066 -13.668  11.969  1.00  0.00     0.009 A 
ATOM     74  C   UNL     1      -5.816 -14.134  12.086  1.00  0.00     0.001 A 
ATOM     75  C   UNL     1      -3.773 -13.397  13.142  1.00  0.00     0.001 A 
ATOM     76  C   UNL     1      -5.149 -13.618  13.196  1.00  0.00     0.000 A 
ENDBRANCH  57  71
BRANCH  58  77
ATOM     77  C   UNL     1       1.383 -15.464   2.331  1.00  0.00    -0.014 A 
ATOM     78  C   UNL     1       1.198 -16.621   1.559  1.00  0.00     0.009 A 
ATOM     79  C   UNL     1       2.297 -14.495   1.891  1.00  0.00     0.009 A 
ATOM     80  C   UNL     1       1.935 -16.817   0.388  1.00  0.00     0.001 A 
ATOM     81  C   UNL     1       3.010 -14.679   0.704  1.00  0.00     0.001 A 
ATOM     82  C   UNL     1       2.836 -15.845  -0.041  1.00  0.00     0.000 A 
ENDBRANCH  58  77
BRANCH  70  83
ATOM     83  C   UNL     1       1.450 -18.657   8.509  1.00  0.00    -0.014 A 
ATOM     84  C   UNL     1       2.822 -18.525   8.773  1.00  0.00     0.009 A 
ATOM     85  C   UNL     1       0.822 -19.887   8.758  1.00  0.00     0.009 A 
ATOM     86  C   UNL     1       3.559 -19.618   9.232  1.00  0.00     0.001 A 
ATOM     87  C   UNL     1       1.555 -20.968   9.250  1.00  0.00     0.001 A 
ATOM     88  C   UNL     1       2.924 -20.836   9.473  1.00  0.00     0.000 A 
ENDBRANCH  70  83
ENDBRANCH  44  45
ENDBRANCH  36  39
ENDBRANCH  34  35
ENDBRANCH  33  34
ENDBRANCH   1  33
TORSDOF 15
