REMARK SMILES CC(C)[NH2+]CC[C@H](c1ccccc1)c1cc(C(=O)NCCCNC(=O)c2ccc(-c3c4nc(c(-c5ccccc5)c5ccc([nH]5)c(-c5ccccc5)c5nc(c(-c6ccccc6)c6ccc3[nH]6)C=C5)C=C4)cc2)ccc1O
REMARK SMILES IDX 17 1 18 2 19 3 16 5 14 6 15 7 76 8 75 9 74 10 7 11 6 12 5 13
REMARK SMILES IDX 4 14 2 17 1 18 3 19 8 20 9 21 13 22 10 23 12 24 11 25 77 26
REMARK SMILES IDX 20 28 21 29 22 30 23 31 24 32 25 34 26 35 27 36 73 37 28 38
REMARK SMILES IDX 72 39 29 40 30 41 31 42 66 43 32 44 71 45 65 46 67 47 33 48
REMARK SMILES IDX 70 49 64 50 63 51 34 53 56 54 41 55 55 56 42 57 45 58 54 59
REMARK SMILES IDX 68 60 43 61 44 62 53 64 69 65 46 66 35 67 36 68 40 69 37 70
REMARK SMILES IDX 39 71 38 72 57 73 58 74 62 75 59 76 61 77 60 78 47 79 48 80
REMARK SMILES IDX 52 81 49 82 51 83 50 84
REMARK H PARENT 19 4 4 15 4 16 77 27 23 33 67 52 45 63
REMARK Flexibility Score: inf
ROOT
ATOM      1  C   UNL     1      -0.404  -7.193   4.819  1.00  0.00     0.251 C 
ATOM      2  O   UNL     1      -0.404  -7.846   3.773  1.00  0.00    -0.269 OA
ATOM      3  N   UNL     1      -0.630  -7.888   5.978  1.00  0.00    -0.352 N 
ATOM      4  H   UNL     1      -0.742  -8.855   5.831  1.00  0.00     0.163 HD
ENDROOT
BRANCH   1   5
ATOM      5  C   UNL     1      -0.228  -5.715   4.740  1.00  0.00     0.040 A 
ATOM      6  C   UNL     1      -0.576  -3.713   3.304  1.00  0.00     0.002 A 
ATOM      7  C   UNL     1      -0.631  -5.103   3.537  1.00  0.00     0.022 A 
ATOM      8  C   UNL     1      -0.132  -2.933   4.382  1.00  0.00     0.119 A 
ATOM      9  C   UNL     1       0.325  -3.525   5.566  1.00  0.00     0.047 A 
ATOM     10  C   UNL     1       0.320  -4.912   5.729  1.00  0.00     0.017 A 
BRANCH   6  11
ATOM     11  C   UNL     1      -1.140  -3.133   1.991  1.00  0.00     0.059 C 
BRANCH  11  12
ATOM     12  C   UNL     1      -2.693  -3.063   2.097  1.00  0.00     0.074 C 
BRANCH  12  13
ATOM     13  C   UNL     1      -3.599  -3.285   0.879  1.00  0.00     0.261 C 
BRANCH  13  14
ATOM     14  N   UNL     1      -3.609  -4.582   0.235  1.00  0.00    -0.344 N 
ATOM     15  H   UNL     1      -4.021  -4.442  -0.688  1.00  0.00     0.346 HD
ATOM     16  H   UNL     1      -2.631  -4.865   0.296  1.00  0.00     0.346 HD
BRANCH  14  17
ATOM     17  C   UNL     1      -4.304  -5.720   0.827  1.00  0.00     0.176 C 
ATOM     18  C   UNL     1      -3.800  -6.990   0.127  1.00  0.00     0.075 C 
ATOM     19  C   UNL     1      -4.182  -5.911   2.336  1.00  0.00     0.075 C 
ENDBRANCH  14  17
ENDBRANCH  13  14
ENDBRANCH  12  13
ENDBRANCH  11  12
BRANCH  11  20
ATOM     20  C   UNL     1      -0.498  -3.597   0.677  1.00  0.00    -0.040 A 
ATOM     21  C   UNL     1      -0.429  -4.931   0.250  1.00  0.00     0.004 A 
ATOM     22  C   UNL     1       0.026  -2.624  -0.200  1.00  0.00     0.004 A 
ATOM     23  C   UNL     1       0.095  -5.279  -1.001  1.00  0.00     0.000 A 
ATOM     24  C   UNL     1       0.566  -2.970  -1.445  1.00  0.00     0.000 A 
ATOM     25  C   UNL     1       0.591  -4.299  -1.850  1.00  0.00     0.000 A 
ENDBRANCH  11  20
ENDBRANCH   6  11
BRANCH   8  26
ATOM     26  O   UNL     1      -0.122  -1.567   4.410  1.00  0.00    -0.508 OA
ATOM     27  H   UNL     1      -0.411  -1.081   3.663  1.00  0.00     0.293 HD
ENDBRANCH   8  26
ENDBRANCH   1   5
BRANCH   3  28
ATOM     28  C   UNL     1      -0.740  -7.508   7.375  1.00  0.00     0.118 C 
BRANCH  28  29
ATOM     29  C   UNL     1      -2.089  -7.849   7.997  1.00  0.00     0.042 C 
BRANCH  29  30
ATOM     30  C   UNL     1      -2.451  -9.329   7.988  1.00  0.00     0.118 C 
BRANCH  30  31
ATOM     31  N   UNL     1      -1.490 -10.160   8.704  1.00  0.00    -0.352 N 
ATOM     32  C   UNL     1      -1.500 -10.684   9.971  1.00  0.00     0.251 C 
ATOM     33  H   UNL     1      -0.687 -10.386   8.181  1.00  0.00     0.163 HD
ATOM     34  O   UNL     1      -0.466 -11.188  10.416  1.00  0.00    -0.269 OA
BRANCH  32  35
ATOM     35  C   UNL     1      -2.706 -10.639  10.826  1.00  0.00     0.039 A 
ATOM     36  C   UNL     1      -2.552 -10.425  12.201  1.00  0.00     0.014 A 
ATOM     37  C   UNL     1      -3.981 -10.867  10.307  1.00  0.00     0.014 A 
ATOM     38  C   UNL     1      -3.675 -10.364  13.033  1.00  0.00     0.010 A 
ATOM     39  C   UNL     1      -5.104 -10.711  11.116  1.00  0.00     0.010 A 
ATOM     40  C   UNL     1      -4.965 -10.466  12.490  1.00  0.00    -0.014 A 
BRANCH  40  41
ATOM     41  C   UNL     1      -6.181 -10.328  13.334  1.00  0.00     0.031 A 
ATOM     42  C   UNL     1      -7.163 -11.465  13.442  1.00  0.00     0.074 A 
ATOM     43  C   UNL     1      -6.448  -9.152  13.935  1.00  0.00     0.049 A 
ATOM     44  N   UNL     1      -8.326 -11.499  14.044  1.00  0.00    -0.248 NA
ATOM     45  C   UNL     1      -6.808 -12.719  12.757  1.00  0.00     0.031 C 
ATOM     46  C   UNL     1      -5.607  -7.954  13.873  1.00  0.00     0.029 A 
ATOM     47  N   UNL     1      -7.515  -8.765  14.708  1.00  0.00    -0.354 N 
ATOM     48  C   UNL     1      -8.853 -12.758  13.779  1.00  0.00     0.074 A 
ATOM     49  C   UNL     1      -7.904 -13.443  12.930  1.00  0.00     0.031 C 
ATOM     50  C   UNL     1      -6.177  -6.976  14.595  1.00  0.00     0.029 A 
ATOM     51  C   UNL     1      -7.443  -7.460  15.135  1.00  0.00     0.049 A 
ATOM     52  H   UNL     1      -8.262  -9.365  14.935  1.00  0.00     0.167 HD
ATOM     53  C   UNL     1     -10.013 -13.303  14.216  1.00  0.00     0.031 A 
ATOM     54  C   UNL     1      -8.303  -6.730  15.869  1.00  0.00     0.031 A 
ATOM     55  C   UNL     1     -10.941 -12.636  15.089  1.00  0.00     0.049 A 
ATOM     56  C   UNL     1      -9.576  -7.364  16.356  1.00  0.00     0.074 A 
ATOM     57  C   UNL     1     -12.102 -13.134  15.655  1.00  0.00     0.029 A 
ATOM     58  N   UNL     1     -10.812 -11.327  15.525  1.00  0.00    -0.354 N 
ATOM     59  N   UNL     1     -10.020  -8.582  16.161  1.00  0.00    -0.248 NA
ATOM     60  C   UNL     1     -10.462  -6.524  17.175  1.00  0.00     0.031 C 
ATOM     61  C   UNL     1     -12.702 -12.109  16.394  1.00  0.00     0.029 A 
ATOM     62  C   UNL     1     -11.886 -10.991  16.332  1.00  0.00     0.049 A 
ATOM     63  H   UNL     1     -10.068 -10.725  15.294  1.00  0.00     0.167 HD
ATOM     64  C   UNL     1     -11.220  -8.663  16.855  1.00  0.00     0.074 A 
ATOM     65  C   UNL     1     -11.426  -7.378  17.489  1.00  0.00     0.031 C 
ATOM     66  C   UNL     1     -12.075  -9.709  16.958  1.00  0.00     0.031 A 
BRANCH  53  67
ATOM     67  C   UNL     1     -10.349 -14.693  13.752  1.00  0.00    -0.014 A 
ATOM     68  C   UNL     1      -9.633 -15.810  14.212  1.00  0.00     0.009 A 
ATOM     69  C   UNL     1     -11.426 -14.893  12.874  1.00  0.00     0.009 A 
ATOM     70  C   UNL     1      -9.965 -17.094  13.773  1.00  0.00     0.001 A 
ATOM     71  C   UNL     1     -11.775 -16.180  12.461  1.00  0.00     0.001 A 
ATOM     72  C   UNL     1     -11.039 -17.278  12.902  1.00  0.00     0.000 A 
ENDBRANCH  53  67
BRANCH  54  73
ATOM     73  C   UNL     1      -7.989  -5.315  16.201  1.00  0.00    -0.014 A 
ATOM     74  C   UNL     1      -7.665  -4.948  17.516  1.00  0.00     0.009 A 
ATOM     75  C   UNL     1      -8.026  -4.323  15.209  1.00  0.00     0.009 A 
ATOM     76  C   UNL     1      -7.415  -3.612  17.837  1.00  0.00     0.001 A 
ATOM     77  C   UNL     1      -7.746  -2.992  15.528  1.00  0.00     0.001 A 
ATOM     78  C   UNL     1      -7.452  -2.636  16.843  1.00  0.00     0.000 A 
ENDBRANCH  54  73
BRANCH  66  79
ATOM     79  C   UNL     1     -13.292  -9.519  17.817  1.00  0.00    -0.014 A 
ATOM     80  C   UNL     1     -14.362  -8.714  17.398  1.00  0.00     0.009 A 
ATOM     81  C   UNL     1     -13.385 -10.191  19.047  1.00  0.00     0.009 A 
ATOM     82  C   UNL     1     -15.487  -8.559  18.209  1.00  0.00     0.001 A 
ATOM     83  C   UNL     1     -14.523 -10.057  19.842  1.00  0.00     0.001 A 
ATOM     84  C   UNL     1     -15.569  -9.234  19.427  1.00  0.00     0.000 A 
ENDBRANCH  66  79
ENDBRANCH  40  41
ENDBRANCH  32  35
ENDBRANCH  30  31
ENDBRANCH  29  30
ENDBRANCH  28  29
ENDBRANCH   3  28
TORSDOF 17
