REMARK SMILES CC1=Nc2nc(NC(=O)CCC(=O)NCCCNC(=O)c3ccc(-c4c5nc(c(-c6ccccc6)c6ccc([nH]6)c(-c6ccccc6)c6nc(c(-c7ccccc7)c7ccc4[nH]7)C=C6)C=C5)cc3)nn2[C@@H](c2ccc(Cl)cc2)C1
REMARK SMILES IDX 15 1 14 2 12 3 13 4 11 6 10 7 8 8 7 9 9 11 6 12 1 13 2 14
REMARK SMILES IDX 3 15 79 16 4 17 71 18 5 19 70 20 69 21 72 22 73 23 78 24
REMARK SMILES IDX 74 25 77 26 75 27 76 28 16 29 17 30 18 31 19 32 20 34 21 35
REMARK SMILES IDX 22 36 68 37 23 38 67 39 24 40 25 41 26 42 61 43 27 44 66 45
REMARK SMILES IDX 60 46 62 47 28 48 65 49 59 50 58 51 29 53 51 54 36 55 50 56
REMARK SMILES IDX 37 57 40 58 49 59 63 60 38 61 39 62 48 64 64 65 41 66 30 67
REMARK SMILES IDX 31 68 35 69 32 70 34 71 33 72 52 73 53 74 57 75 54 76 56 77
REMARK SMILES IDX 55 78 42 79 43 80 47 81 44 82 46 83 45 84
REMARK H PARENT 14 5 7 10 18 33 62 52 40 63
REMARK Flexibility Score: inf
ROOT
ATOM      1  C   UNL     1      -4.804  -5.537  -2.820  1.00  0.00     0.117 C 
ENDROOT
BRANCH   1   2
ATOM      2  N   UNL     1      -3.378  -5.473  -2.530  1.00  0.00    -0.356 N 
ATOM      3  C   UNL     1      -2.489  -6.490  -2.350  1.00  0.00     0.220 C 
ATOM      4  O   UNL     1      -1.297  -6.269  -2.556  1.00  0.00    -0.275 OA
ATOM      5  H   UNL     1      -3.002  -4.566  -2.454  1.00  0.00     0.163 HD
BRANCH   3   6
ATOM      6  C   UNL     1      -2.936  -7.842  -1.856  1.00  0.00     0.110 C 
BRANCH   6   7
ATOM      7  C   UNL     1      -2.756  -7.993  -0.347  1.00  0.00     0.110 C 
BRANCH   7   8
ATOM      8  C   UNL     1      -3.740  -7.141   0.421  1.00  0.00     0.227 C 
ATOM      9  N   UNL     1      -3.454  -5.872   0.802  1.00  0.00    -0.293 N 
ATOM     10  H   UNL     1      -4.175  -5.412   1.289  1.00  0.00     0.173 HD
ATOM     11  O   UNL     1      -4.888  -7.560   0.615  1.00  0.00    -0.275 OA
BRANCH   9  12
ATOM     12  C   UNL     1      -2.325  -5.135   0.617  1.00  0.00     0.250 A 
ATOM     13  C   UNL     1       0.812  -0.526  -0.657  1.00  0.00     0.062 C 
ATOM     14  C   UNL     1       0.329  -1.861  -0.209  1.00  0.00     0.021 C 
ATOM     15  N   UNL     1      -0.944  -2.111  -0.270  1.00  0.00    -0.221 NA
ATOM     16  C   UNL     1       1.332  -2.798   0.426  1.00  0.00     0.083 C 
ATOM     17  C   UNL     1      -1.323  -3.347   0.125  1.00  0.00     0.250 A 
ATOM     18  C   UNL     1       0.996  -4.232   0.028  1.00  0.00     0.147 C 
ATOM     19  N   UNL     1      -2.498  -3.783   0.516  1.00  0.00    -0.174 NA
ATOM     20  N   UNL     1      -0.452  -4.411   0.120  1.00  0.00    -0.220 N 
ATOM     21  N   UNL     1      -1.067  -5.556   0.468  1.00  0.00    -0.130 NA
BRANCH  18  22
ATOM     22  C   UNL     1       1.618  -4.546  -1.326  1.00  0.00    -0.023 A 
ATOM     23  C   UNL     1       0.924  -4.459  -2.539  1.00  0.00     0.007 A 
ATOM     24  C   UNL     1       2.982  -4.894  -1.371  1.00  0.00     0.007 A 
ATOM     25  C   UNL     1       1.530  -4.838  -3.742  1.00  0.00     0.021 A 
ATOM     26  C   UNL     1       3.602  -5.231  -2.577  1.00  0.00     0.021 A 
ATOM     27  C   UNL     1       2.862  -5.236  -3.755  1.00  0.00     0.041 A 
ATOM     28  Cl  UNL     1       3.595  -5.742  -5.225  1.00  0.00    -0.084 Cl
ENDBRANCH  18  22
ENDBRANCH   9  12
ENDBRANCH   7   8
ENDBRANCH   6   7
ENDBRANCH   3   6
ENDBRANCH   1   2
BRANCH   1  29
ATOM     29  C   UNL     1      -5.711  -4.894  -1.770  1.00  0.00     0.042 C 
BRANCH  29  30
ATOM     30  C   UNL     1      -5.480  -3.405  -1.609  1.00  0.00     0.118 C 
BRANCH  30  31
ATOM     31  N   UNL     1      -6.217  -2.567  -2.563  1.00  0.00    -0.352 N 
ATOM     32  C   UNL     1      -6.598  -1.243  -2.431  1.00  0.00     0.251 C 
ATOM     33  H   UNL     1      -6.475  -3.005  -3.406  1.00  0.00     0.163 HD
ATOM     34  O   UNL     1      -7.429  -0.755  -3.207  1.00  0.00    -0.269 OA
BRANCH  32  35
ATOM     35  C   UNL     1      -6.001  -0.402  -1.371  1.00  0.00     0.039 A 
ATOM     36  C   UNL     1      -6.648   0.708  -0.810  1.00  0.00     0.014 A 
ATOM     37  C   UNL     1      -4.733  -0.746  -0.926  1.00  0.00     0.014 A 
ATOM     38  C   UNL     1      -5.979   1.456   0.165  1.00  0.00     0.010 A 
ATOM     39  C   UNL     1      -4.236  -0.221   0.223  1.00  0.00     0.010 A 
ATOM     40  C   UNL     1      -4.751   0.986   0.644  1.00  0.00    -0.014 A 
BRANCH  40  41
ATOM     41  C   UNL     1      -3.920   1.650   1.628  1.00  0.00     0.031 A 
ATOM     42  C   UNL     1      -4.466   1.629   2.994  1.00  0.00     0.074 A 
ATOM     43  C   UNL     1      -2.636   1.987   1.360  1.00  0.00     0.049 A 
ATOM     44  N   UNL     1      -4.855   2.661   3.657  1.00  0.00    -0.248 NA
ATOM     45  C   UNL     1      -4.752   0.344   3.644  1.00  0.00     0.031 C 
ATOM     46  C   UNL     1      -1.901   1.884   0.093  1.00  0.00     0.029 A 
ATOM     47  N   UNL     1      -1.673   2.416   2.222  1.00  0.00    -0.354 N 
ATOM     48  C   UNL     1      -5.263   2.186   4.892  1.00  0.00     0.074 A 
ATOM     49  C   UNL     1      -5.365   0.754   4.757  1.00  0.00     0.031 C 
ATOM     50  C   UNL     1      -0.583   2.100   0.316  1.00  0.00     0.029 A 
ATOM     51  C   UNL     1      -0.372   2.385   1.722  1.00  0.00     0.049 A 
ATOM     52  H   UNL     1      -1.880   2.726   3.134  1.00  0.00     0.167 HD
ATOM     53  C   UNL     1      -5.238   2.995   5.986  1.00  0.00     0.031 A 
ATOM     54  C   UNL     1       0.778   2.599   2.418  1.00  0.00     0.031 A 
ATOM     55  C   UNL     1      -5.022   4.374   5.612  1.00  0.00     0.049 A 
ATOM     56  C   UNL     1       0.413   3.472   3.552  1.00  0.00     0.074 A 
ATOM     57  C   UNL     1      -5.716   5.294   4.851  1.00  0.00     0.029 A 
ATOM     58  N   UNL     1      -3.728   4.839   5.678  1.00  0.00    -0.354 N 
ATOM     59  N   UNL     1      -0.008   4.690   3.370  1.00  0.00    -0.248 NA
ATOM     60  C   UNL     1       0.026   2.849   4.806  1.00  0.00     0.031 C 
ATOM     61  C   UNL     1      -4.715   5.989   4.109  1.00  0.00     0.029 A 
ATOM     62  C   UNL     1      -3.464   5.523   4.518  1.00  0.00     0.049 A 
ATOM     63  H   UNL     1      -3.102   4.705   6.426  1.00  0.00     0.167 HD
ATOM     64  C   UNL     1      -1.095   4.801   4.222  1.00  0.00     0.074 A 
ATOM     65  C   UNL     1      -0.956   3.685   5.162  1.00  0.00     0.031 C 
ATOM     66  C   UNL     1      -2.159   5.594   3.900  1.00  0.00     0.031 A 
BRANCH  53  67
ATOM     67  C   UNL     1      -5.002   2.505   7.388  1.00  0.00    -0.014 A 
ATOM     68  C   UNL     1      -5.018   3.445   8.433  1.00  0.00     0.009 A 
ATOM     69  C   UNL     1      -4.517   1.221   7.700  1.00  0.00     0.009 A 
ATOM     70  C   UNL     1      -4.503   3.138   9.697  1.00  0.00     0.001 A 
ATOM     71  C   UNL     1      -4.039   0.898   8.972  1.00  0.00     0.001 A 
ATOM     72  C   UNL     1      -4.006   1.867   9.963  1.00  0.00     0.000 A 
ENDBRANCH  53  67
BRANCH  54  73
ATOM     73  C   UNL     1       2.068   1.864   2.409  1.00  0.00    -0.014 A 
ATOM     74  C   UNL     1       3.289   2.493   2.695  1.00  0.00     0.009 A 
ATOM     75  C   UNL     1       2.057   0.456   2.427  1.00  0.00     0.009 A 
ATOM     76  C   UNL     1       4.452   1.744   2.956  1.00  0.00     0.001 A 
ATOM     77  C   UNL     1       3.218  -0.295   2.664  1.00  0.00     0.001 A 
ATOM     78  C   UNL     1       4.418   0.351   2.934  1.00  0.00     0.000 A 
ENDBRANCH  54  73
BRANCH  66  79
ATOM     79  C   UNL     1      -2.047   6.444   2.649  1.00  0.00    -0.014 A 
ATOM     80  C   UNL     1      -1.952   5.900   1.353  1.00  0.00     0.009 A 
ATOM     81  C   UNL     1      -2.204   7.829   2.766  1.00  0.00     0.009 A 
ATOM     82  C   UNL     1      -1.987   6.717   0.216  1.00  0.00     0.001 A 
ATOM     83  C   UNL     1      -2.259   8.645   1.632  1.00  0.00     0.001 A 
ATOM     84  C   UNL     1      -2.145   8.092   0.358  1.00  0.00     0.000 A 
ENDBRANCH  66  79
ENDBRANCH  40  41
ENDBRANCH  32  35
ENDBRANCH  30  31
ENDBRANCH  29  30
ENDBRANCH   1  29
TORSDOF 14
