REMARK SMILES COCc1cc(OCC(=O)NCCCNC(=O)c2ccc(-c3c4nc(c(-c5ccccc5)c5ccc([nH]5)c(-c5ccccc5)c5nc(c(-c6ccccc6)c6ccc3[nH]6)C=C5)C=C4)cc2)nc(Nc2cccc(C)c2C)n1
REMARK SMILES IDX 12 1 11 2 9 3 10 4 8 6 7 7 6 8 4 9 5 10 77 11 67 12 66 13
REMARK SMILES IDX 3 14 2 15 1 16 68 17 69 19 70 20 75 21 71 22 73 23 76 24
REMARK SMILES IDX 72 25 74 26 13 27 14 28 15 29 16 30 17 32 18 33 19 34 65 35
REMARK SMILES IDX 20 36 64 37 21 38 22 39 23 40 58 41 24 42 63 43 57 44 59 45
REMARK SMILES IDX 25 46 62 47 56 48 55 49 26 51 48 52 33 53 47 54 34 55 37 56
REMARK SMILES IDX 46 57 60 58 35 59 36 60 45 62 61 63 38 64 27 65 28 66 32 67
REMARK SMILES IDX 29 68 31 69 30 70 49 71 50 72 54 73 51 74 53 75 52 76 39 77
REMARK SMILES IDX 40 78 44 79 41 80 43 81 42 82
REMARK H PARENT 11 5 68 18 15 31 59 50 37 61
REMARK Flexibility Score: inf
ROOT
ATOM      1  C   UNL     1      -2.507  -2.233   3.790  1.00  0.00     0.117 C 
ENDROOT
BRANCH   1   2
ATOM      2  N   UNL     1      -1.731  -2.268   2.565  1.00  0.00    -0.353 N 
ATOM      3  C   UNL     1      -0.384  -2.122   2.412  1.00  0.00     0.258 C 
ATOM      4  O   UNL     1       0.108  -2.294   1.295  1.00  0.00    -0.271 OA
ATOM      5  H   UNL     1      -2.243  -2.417   1.737  1.00  0.00     0.163 HD
BRANCH   3   6
ATOM      6  C   UNL     1       0.496  -1.770   3.618  1.00  0.00     0.331 C 
BRANCH   6   7
ATOM      7  O   UNL     1       0.200  -0.570   4.309  1.00  0.00    -0.467 OA
BRANCH   7   8
ATOM      8  C   UNL     1       0.342   0.616   3.645  1.00  0.00     0.218 A 
ATOM      9  C   UNL     1       0.826   2.023   1.836  1.00  0.00     0.076 A 
ATOM     10  C   UNL     1       0.881   0.762   2.388  1.00  0.00     0.095 A 
ATOM     11  N   UNL     1       0.338   3.067   2.529  1.00  0.00    -0.215 NA
ATOM     12  C   UNL     1      -0.103   2.860   3.777  1.00  0.00     0.230 A 
ATOM     13  N   UNL     1      -0.119   1.656   4.360  1.00  0.00    -0.177 NA
BRANCH   9  14
ATOM     14  C   UNL     1       1.352   2.309   0.448  1.00  0.00     0.216 C 
BRANCH  14  15
ATOM     15  O   UNL     1       0.620   1.678  -0.606  1.00  0.00    -0.378 OA
ATOM     16  C   UNL     1       0.998   0.333  -0.859  1.00  0.00     0.195 C 
ENDBRANCH  14  15
ENDBRANCH   9  14
BRANCH  12  17
ATOM     17  N   UNL     1      -0.538   3.937   4.546  1.00  0.00    -0.324 N 
ATOM     18  H   UNL     1      -0.748   3.733   5.486  1.00  0.00     0.170 HD
BRANCH  17  19
ATOM     19  C   UNL     1      -0.715   5.274   4.159  1.00  0.00     0.044 A 
ATOM     20  C   UNL     1       0.020   6.256   4.842  1.00  0.00     0.026 A 
ATOM     21  C   UNL     1      -1.534   5.657   3.067  1.00  0.00    -0.025 A 
ATOM     22  C   UNL     1      -0.016   7.590   4.441  1.00  0.00     0.002 A 
ATOM     23  C   UNL     1      -1.547   7.009   2.646  1.00  0.00    -0.046 A 
ATOM     24  C   UNL     1      -2.405   4.645   2.362  1.00  0.00     0.047 C 
ATOM     25  C   UNL     1      -0.788   7.960   3.346  1.00  0.00     0.004 A 
ATOM     26  C   UNL     1      -2.352   7.500   1.470  1.00  0.00     0.044 C 
ENDBRANCH  17  19
ENDBRANCH  12  17
ENDBRANCH   7   8
ENDBRANCH   6   7
ENDBRANCH   3   6
ENDBRANCH   1   2
BRANCH   1  27
ATOM     27  C   UNL     1      -3.425  -1.020   3.881  1.00  0.00     0.042 C 
BRANCH  27  28
ATOM     28  C   UNL     1      -4.491  -0.938   2.791  1.00  0.00     0.118 C 
BRANCH  28  29
ATOM     29  N   UNL     1      -5.398  -2.080   2.784  1.00  0.00    -0.352 N 
ATOM     30  C   UNL     1      -6.755  -2.155   2.985  1.00  0.00     0.251 C 
ATOM     31  H   UNL     1      -4.964  -2.945   2.604  1.00  0.00     0.163 HD
ATOM     32  O   UNL     1      -7.287  -3.257   3.087  1.00  0.00    -0.269 OA
BRANCH  30  33
ATOM     33  C   UNL     1      -7.582  -0.933   3.104  1.00  0.00     0.039 A 
ATOM     34  C   UNL     1      -8.598  -0.903   4.065  1.00  0.00     0.014 A 
ATOM     35  C   UNL     1      -7.394   0.163   2.260  1.00  0.00     0.014 A 
ATOM     36  C   UNL     1      -9.367   0.251   4.232  1.00  0.00     0.010 A 
ATOM     37  C   UNL     1      -8.107   1.341   2.479  1.00  0.00     0.010 A 
ATOM     38  C   UNL     1      -9.099   1.400   3.470  1.00  0.00    -0.014 A 
BRANCH  38  39
ATOM     39  C   UNL     1      -9.826   2.673   3.715  1.00  0.00     0.031 A 
ATOM     40  C   UNL     1     -10.691   3.281   2.644  1.00  0.00     0.074 A 
ATOM     41  C   UNL     1      -9.656   3.320   4.885  1.00  0.00     0.049 A 
ATOM     42  N   UNL     1     -11.354   4.411   2.660  1.00  0.00    -0.248 NA
ATOM     43  C   UNL     1     -10.809   2.534   1.381  1.00  0.00     0.031 C 
ATOM     44  C   UNL     1      -8.816   2.861   5.994  1.00  0.00     0.029 A 
ATOM     45  N   UNL     1     -10.177   4.508   5.335  1.00  0.00    -0.354 N 
ATOM     46  C   UNL     1     -11.952   4.517   1.411  1.00  0.00     0.074 A 
ATOM     47  C   UNL     1     -11.535   3.362   0.645  1.00  0.00     0.031 C 
ATOM     48  C   UNL     1      -8.901   3.741   7.004  1.00  0.00     0.029 A 
ATOM     49  C   UNL     1      -9.762   4.847   6.601  1.00  0.00     0.049 A 
ATOM     50  H   UNL     1     -10.791   5.064   4.802  1.00  0.00     0.167 HD
ATOM     51  C   UNL     1     -12.786   5.478   0.947  1.00  0.00     0.031 A 
ATOM     52  C   UNL     1     -10.033   5.932   7.351  1.00  0.00     0.031 A 
ATOM     53  C   UNL     1     -13.204   6.627   1.708  1.00  0.00     0.049 A 
ATOM     54  C   UNL     1     -10.941   6.997   6.803  1.00  0.00     0.074 A 
ATOM     55  C   UNL     1     -14.089   7.626   1.343  1.00  0.00     0.029 A 
ATOM     56  N   UNL     1     -12.759   6.933   2.985  1.00  0.00    -0.354 N 
ATOM     57  N   UNL     1     -11.556   7.045   5.646  1.00  0.00    -0.248 NA
ATOM     58  C   UNL     1     -11.200   8.155   7.672  1.00  0.00     0.031 C 
ATOM     59  C   UNL     1     -14.136   8.568   2.377  1.00  0.00     0.029 A 
ATOM     60  C   UNL     1     -13.330   8.121   3.411  1.00  0.00     0.049 A 
ATOM     61  H   UNL     1     -12.131   6.387   3.511  1.00  0.00     0.167 HD
ATOM     62  C   UNL     1     -12.296   8.221   5.660  1.00  0.00     0.074 A 
ATOM     63  C   UNL     1     -12.068   8.846   6.946  1.00  0.00     0.031 C 
ATOM     64  C   UNL     1     -13.095   8.735   4.693  1.00  0.00     0.031 A 
BRANCH  51  65
ATOM     65  C   UNL     1     -13.298   5.333  -0.460  1.00  0.00    -0.014 A 
ATOM     66  C   UNL     1     -14.213   4.324  -0.803  1.00  0.00     0.009 A 
ATOM     67  C   UNL     1     -12.892   6.244  -1.449  1.00  0.00     0.009 A 
ATOM     68  C   UNL     1     -14.679   4.207  -2.114  1.00  0.00     0.001 A 
ATOM     69  C   UNL     1     -13.384   6.143  -2.752  1.00  0.00     0.001 A 
ATOM     70  C   UNL     1     -14.269   5.119  -3.086  1.00  0.00     0.000 A 
ENDBRANCH  51  65
BRANCH  52  71
ATOM     71  C   UNL     1      -9.446   6.064   8.710  1.00  0.00    -0.014 A 
ATOM     72  C   UNL     1     -10.260   5.974   9.850  1.00  0.00     0.009 A 
ATOM     73  C   UNL     1      -8.071   6.292   8.877  1.00  0.00     0.009 A 
ATOM     74  C   UNL     1      -9.714   6.138  11.126  1.00  0.00     0.001 A 
ATOM     75  C   UNL     1      -7.523   6.424  10.154  1.00  0.00     0.001 A 
ATOM     76  C   UNL     1      -8.346   6.358  11.277  1.00  0.00     0.000 A 
ENDBRANCH  52  71
BRANCH  64  77
ATOM     77  C   UNL     1     -13.811  10.020   5.003  1.00  0.00    -0.014 A 
ATOM     78  C   UNL     1     -13.123  11.240   5.088  1.00  0.00     0.009 A 
ATOM     79  C   UNL     1     -15.204  10.012   5.176  1.00  0.00     0.009 A 
ATOM     80  C   UNL     1     -13.812  12.420   5.378  1.00  0.00     0.001 A 
ATOM     81  C   UNL     1     -15.894  11.197   5.433  1.00  0.00     0.001 A 
ATOM     82  C   UNL     1     -15.197  12.398   5.544  1.00  0.00     0.000 A 
ENDBRANCH  64  77
ENDBRANCH  38  39
ENDBRANCH  30  33
ENDBRANCH  28  29
ENDBRANCH  27  28
ENDBRANCH   1  27
TORSDOF 16
