REMARK SMILES O=C(NCCCNC(=O)c1cc2ncc(Cl)cn2n1)c1ccc(-c2c3nc(c(-c4ccccc4)c4ccc([nH]4)c(-c4ccccc4)c4nc(c(-c5ccccc5)c5ccc2[nH]5)C=C4)C=C3)cc1
REMARK SMILES IDX 4 1 3 2 1 3 2 4 20 6 21 7 67 8 22 9 66 10 23 11 24 12 25 13
REMARK SMILES IDX 60 14 26 15 65 16 59 17 61 18 27 19 64 20 58 21 57 22 28 24
REMARK SMILES IDX 50 25 35 26 49 27 36 28 39 29 48 30 62 31 37 32 38 33 47 35
REMARK SMILES IDX 63 36 40 37 29 38 30 39 34 40 31 41 33 42 32 43 51 44 52 45
REMARK SMILES IDX 56 46 53 47 55 48 54 49 41 50 42 51 46 52 43 53 45 54 44 55
REMARK SMILES IDX 5 56 6 57 7 58 8 59 9 61 10 62 11 63 19 64 12 65 18 66 13 67
REMARK SMILES IDX 17 68 14 69 15 70 16 71
REMARK H PARENT 3 5 61 23 39 34 7 60
REMARK Flexibility Score: inf
ROOT
ATOM      1  C   UNL     1       4.584  -0.923  -0.760  1.00  0.00     0.118 C 
ENDROOT
BRANCH   1   2
ATOM      2  N   UNL     1       3.189  -0.551  -0.907  1.00  0.00    -0.352 N 
ATOM      3  O   UNL     1       1.146   0.236  -0.575  1.00  0.00    -0.269 OA
ATOM      4  C   UNL     1       2.233  -0.050  -0.068  1.00  0.00     0.251 C 
ATOM      5  H   UNL     1       2.853  -0.693  -1.821  1.00  0.00     0.163 HD
BRANCH   4   6
ATOM      6  C   UNL     1       2.390   0.102   1.401  1.00  0.00     0.039 A 
ATOM      7  C   UNL     1       3.604   0.234   2.077  1.00  0.00     0.014 A 
ATOM      8  C   UNL     1       1.195   0.139   2.144  1.00  0.00     0.014 A 
ATOM      9  C   UNL     1       3.628   0.315   3.468  1.00  0.00     0.010 A 
ATOM     10  C   UNL     1       1.212   0.243   3.530  1.00  0.00     0.010 A 
ATOM     11  C   UNL     1       2.434   0.301   4.195  1.00  0.00    -0.014 A 
BRANCH  11  12
ATOM     12  C   UNL     1       2.498   0.540   5.637  1.00  0.00     0.031 A 
ATOM     13  C   UNL     1       2.991   1.894   6.029  1.00  0.00     0.074 A 
ATOM     14  C   UNL     1       1.986  -0.297   6.562  1.00  0.00     0.049 A 
ATOM     15  N   UNL     1       3.983   2.197   6.803  1.00  0.00    -0.248 NA
ATOM     16  C   UNL     1       2.327   3.059   5.419  1.00  0.00     0.031 C 
ATOM     17  C   UNL     1       1.187  -1.504   6.335  1.00  0.00     0.029 A 
ATOM     18  N   UNL     1       1.970  -0.167   7.921  1.00  0.00    -0.354 N 
ATOM     19  C   UNL     1       3.977   3.587   6.905  1.00  0.00     0.074 A 
ATOM     20  C   UNL     1       3.016   4.070   5.946  1.00  0.00     0.031 C 
ATOM     21  C   UNL     1       0.576  -1.855   7.489  1.00  0.00     0.029 A 
ATOM     22  C   UNL     1       1.043  -0.985   8.555  1.00  0.00     0.049 A 
ATOM     23  H   UNL     1       2.563   0.450   8.407  1.00  0.00     0.167 HD
ATOM     24  C   UNL     1       4.608   4.254   7.910  1.00  0.00     0.031 A 
ATOM     25  C   UNL     1       0.635  -0.902   9.846  1.00  0.00     0.031 A 
ATOM     26  C   UNL     1       5.602   3.455   8.567  1.00  0.00     0.049 A 
ATOM     27  C   UNL     1       1.641  -0.116  10.592  1.00  0.00     0.074 A 
ATOM     28  C   UNL     1       6.762   2.823   8.169  1.00  0.00     0.029 A 
ATOM     29  N   UNL     1       5.282   2.916   9.788  1.00  0.00    -0.354 N 
ATOM     30  N   UNL     1       2.847  -0.532  10.844  1.00  0.00    -0.248 NA
ATOM     31  C   UNL     1       1.429   1.315  10.736  1.00  0.00     0.031 C 
ATOM     32  C   UNL     1       6.794   1.611   8.918  1.00  0.00     0.029 A 
ATOM     33  C   UNL     1       5.681   1.605   9.760  1.00  0.00     0.049 A 
ATOM     34  H   UNL     1       4.849   3.381  10.539  1.00  0.00     0.167 HD
ATOM     35  C   UNL     1       3.636   0.603  10.752  1.00  0.00     0.074 A 
ATOM     36  C   UNL     1       2.699   1.722  10.797  1.00  0.00     0.031 C 
ATOM     37  C   UNL     1       4.944   0.521  10.370  1.00  0.00     0.031 A 
BRANCH  24  38
ATOM     38  C   UNL     1       4.051   5.512   8.524  1.00  0.00    -0.014 A 
ATOM     39  C   UNL     1       4.829   6.245   9.436  1.00  0.00     0.009 A 
ATOM     40  C   UNL     1       2.684   5.846   8.441  1.00  0.00     0.009 A 
ATOM     41  C   UNL     1       4.256   7.238  10.243  1.00  0.00     0.001 A 
ATOM     42  C   UNL     1       2.119   6.862   9.214  1.00  0.00     0.001 A 
ATOM     43  C   UNL     1       2.903   7.544  10.133  1.00  0.00     0.000 A 
ENDBRANCH  24  38
BRANCH  25  44
ATOM     44  C   UNL     1      -0.695  -1.196  10.424  1.00  0.00    -0.014 A 
ATOM     45  C   UNL     1      -0.857  -1.329  11.814  1.00  0.00     0.009 A 
ATOM     46  C   UNL     1      -1.855  -1.060   9.641  1.00  0.00     0.009 A 
ATOM     47  C   UNL     1      -2.130  -1.276  12.399  1.00  0.00     0.001 A 
ATOM     48  C   UNL     1      -3.125  -1.014  10.225  1.00  0.00     0.001 A 
ATOM     49  C   UNL     1      -3.261  -1.103  11.606  1.00  0.00     0.000 A 
ENDBRANCH  25  44
BRANCH  37  50
ATOM     50  C   UNL     1       5.579  -0.846  10.299  1.00  0.00    -0.014 A 
ATOM     51  C   UNL     1       5.112  -1.864   9.448  1.00  0.00     0.009 A 
ATOM     52  C   UNL     1       6.780  -1.058  10.992  1.00  0.00     0.009 A 
ATOM     53  C   UNL     1       5.814  -3.067   9.316  1.00  0.00     0.001 A 
ATOM     54  C   UNL     1       7.492  -2.250  10.843  1.00  0.00     0.001 A 
ATOM     55  C   UNL     1       7.008  -3.256  10.009  1.00  0.00     0.000 A 
ENDBRANCH  37  50
ENDBRANCH  11  12
ENDBRANCH   4   6
ENDBRANCH   1   2
BRANCH   1  56
ATOM     56  C   UNL     1       4.819  -2.274  -0.089  1.00  0.00     0.042 C 
BRANCH  56  57
ATOM     57  C   UNL     1       4.236  -3.460  -0.861  1.00  0.00     0.118 C 
BRANCH  57  58
ATOM     58  N   UNL     1       4.835  -3.607  -2.179  1.00  0.00    -0.351 N 
ATOM     59  C   UNL     1       5.776  -4.506  -2.632  1.00  0.00     0.271 C 
ATOM     60  H   UNL     1       4.519  -2.963  -2.853  1.00  0.00     0.163 HD
ATOM     61  O   UNL     1       6.301  -4.294  -3.723  1.00  0.00    -0.267 OA
BRANCH  59  62
ATOM     62  C   UNL     1       6.157  -5.655  -1.800  1.00  0.00     0.152 A 
ATOM     63  C   UNL     1       7.459  -6.200  -1.690  1.00  0.00     0.085 A 
ATOM     64  N   UNL     1       5.273  -6.363  -1.074  1.00  0.00    -0.161 NA
ATOM     65  C   UNL     1       7.362  -7.219  -0.775  1.00  0.00     0.155 A 
ATOM     66  N   UNL     1       6.008  -7.301  -0.439  1.00  0.00    -0.220 N 
ATOM     67  N   UNL     1       8.305  -8.041  -0.219  1.00  0.00    -0.235 NA
ATOM     68  C   UNL     1       5.557  -8.244   0.474  1.00  0.00     0.137 A 
ATOM     69  C   UNL     1       7.856  -8.903   0.649  1.00  0.00     0.135 A 
ATOM     70  C   UNL     1       6.432  -9.069   1.056  1.00  0.00     0.077 A 
ATOM     71  Cl  UNL     1       6.019 -10.251   2.212  1.00  0.00    -0.081 Cl
ENDBRANCH  59  62
ENDBRANCH  57  58
ENDBRANCH  56  57
ENDBRANCH   1  56
TORSDOF 10
