REMARK SMILES O=C(NCCCNC(=O)c1ccc(Cl)nc1NC[C@@H]1C[N@@H+]2CCC[C@@H]2CO1)c1ccc(-c2c3nc(c(-c4ccccc4)c4ccc([nH]4)c(-c4ccccc4)c4nc(c(-c5ccccc5)c5ccc2[nH]5)C=C4)C=C3)cc1
REMARK SMILES IDX 5 1 4 2 3 3 1 4 2 5 28 7 29 8 75 9 30 10 74 11 31 12 32 13
REMARK SMILES IDX 33 14 68 15 34 16 73 17 67 18 69 19 35 20 72 21 66 22 65 23
REMARK SMILES IDX 36 25 58 26 43 27 57 28 44 29 47 30 56 31 70 32 45 33 46 34
REMARK SMILES IDX 55 36 71 37 48 38 37 39 38 40 42 41 39 42 41 43 40 44 59 45
REMARK SMILES IDX 60 46 64 47 61 48 63 49 62 50 49 51 50 52 54 53 51 54 53 55
REMARK SMILES IDX 52 56 6 57 7 58 8 59 9 61 10 62 11 63 16 64 12 65 15 66
REMARK SMILES IDX 13 67 14 68 17 69 18 71 19 72 20 73 27 74 21 75 26 76 22 77
REMARK SMILES IDX 25 78 23 80 24 81
REMARK H PARENT 3 6 69 24 47 35 7 60 17 70 21 79
REMARK Flexibility Score: inf
ROOT
ATOM      1  C   UNL     1      12.704  -3.192  -5.255  1.00  0.00     0.042 C 
ENDROOT
BRANCH   1   2
ATOM      2  C   UNL     1      11.616  -3.005  -6.302  1.00  0.00     0.118 C 
BRANCH   2   3
ATOM      3  N   UNL     1      11.616  -1.666  -6.881  1.00  0.00    -0.352 N 
ATOM      4  O   UNL     1      12.062  -0.036  -8.367  1.00  0.00    -0.269 OA
ATOM      5  C   UNL     1      11.947  -1.239  -8.143  1.00  0.00     0.251 C 
ATOM      6  H   UNL     1      11.331  -0.952  -6.266  1.00  0.00     0.163 HD
BRANCH   5   7
ATOM      7  C   UNL     1      12.187  -2.214  -9.228  1.00  0.00     0.039 A 
ATOM      8  C   UNL     1      11.373  -3.338  -9.371  1.00  0.00     0.014 A 
ATOM      9  C   UNL     1      13.220  -1.982 -10.142  1.00  0.00     0.014 A 
ATOM     10  C   UNL     1      11.694  -4.310 -10.310  1.00  0.00     0.010 A 
ATOM     11  C   UNL     1      13.474  -2.909 -11.157  1.00  0.00     0.010 A 
ATOM     12  C   UNL     1      12.733  -4.097 -11.229  1.00  0.00    -0.014 A 
BRANCH  12  13
ATOM     13  C   UNL     1      12.967  -5.101 -12.297  1.00  0.00     0.031 A 
ATOM     14  C   UNL     1      14.257  -5.866 -12.383  1.00  0.00     0.074 A 
ATOM     15  C   UNL     1      11.977  -5.341 -13.180  1.00  0.00     0.049 A 
ATOM     16  N   UNL     1      14.603  -6.798 -13.237  1.00  0.00    -0.248 NA
ATOM     17  C   UNL     1      15.295  -5.546 -11.391  1.00  0.00     0.031 C 
ATOM     18  C   UNL     1      10.680  -4.659 -13.200  1.00  0.00     0.029 A 
ATOM     19  N   UNL     1      11.894  -6.239 -14.213  1.00  0.00    -0.354 N 
ATOM     20  C   UNL     1      15.901  -7.160 -12.899  1.00  0.00     0.074 A 
ATOM     21  C   UNL     1      16.291  -6.331 -11.779  1.00  0.00     0.031 C 
ATOM     22  C   UNL     1       9.912  -5.199 -14.156  1.00  0.00     0.029 A 
ATOM     23  C   UNL     1      10.685  -6.212 -14.864  1.00  0.00     0.049 A 
ATOM     24  H   UNL     1      12.630  -6.843 -14.464  1.00  0.00     0.167 HD
ATOM     25  C   UNL     1      16.692  -8.101 -13.470  1.00  0.00     0.031 A 
ATOM     26  C   UNL     1      10.247  -6.911 -15.927  1.00  0.00     0.031 A 
ATOM     27  C   UNL     1      16.301  -8.921 -14.587  1.00  0.00     0.049 A 
ATOM     28  C   UNL     1      11.161  -7.914 -16.564  1.00  0.00     0.074 A 
ATOM     29  C   UNL     1      17.021  -9.923 -15.216  1.00  0.00     0.029 A 
ATOM     30  N   UNL     1      15.085  -8.830 -15.248  1.00  0.00    -0.354 N 
ATOM     31  N   UNL     1      12.372  -8.268 -16.209  1.00  0.00    -0.248 NA
ATOM     32  C   UNL     1      10.648  -8.612 -17.749  1.00  0.00     0.031 C 
ATOM     33  C   UNL     1      16.265 -10.397 -16.293  1.00  0.00     0.029 A 
ATOM     34  C   UNL     1      15.048  -9.735 -16.297  1.00  0.00     0.049 A 
ATOM     35  H   UNL     1      14.357  -8.213 -15.008  1.00  0.00     0.167 HD
ATOM     36  C   UNL     1      12.760  -9.243 -17.116  1.00  0.00     0.074 A 
ATOM     37  C   UNL     1      11.646  -9.441 -18.022  1.00  0.00     0.031 C 
ATOM     38  C   UNL     1      13.935  -9.913 -17.194  1.00  0.00     0.031 A 
BRANCH  25  39
ATOM     39  C   UNL     1      18.080  -8.275 -12.914  1.00  0.00    -0.014 A 
ATOM     40  C   UNL     1      18.297  -8.862 -11.657  1.00  0.00     0.009 A 
ATOM     41  C   UNL     1      19.190  -7.891 -13.682  1.00  0.00     0.009 A 
ATOM     42  C   UNL     1      19.596  -9.030 -11.169  1.00  0.00     0.001 A 
ATOM     43  C   UNL     1      20.487  -8.085 -13.205  1.00  0.00     0.001 A 
ATOM     44  C   UNL     1      20.689  -8.646 -11.945  1.00  0.00     0.000 A 
ENDBRANCH  25  39
BRANCH  26  45
ATOM     45  C   UNL     1       8.884  -6.663 -16.462  1.00  0.00    -0.014 A 
ATOM     46  C   UNL     1       7.882  -7.638 -16.349  1.00  0.00     0.009 A 
ATOM     47  C   UNL     1       8.576  -5.441 -17.081  1.00  0.00     0.009 A 
ATOM     48  C   UNL     1       6.605  -7.401 -16.864  1.00  0.00     0.001 A 
ATOM     49  C   UNL     1       7.290  -5.194 -17.565  1.00  0.00     0.001 A 
ATOM     50  C   UNL     1       6.309  -6.178 -17.465  1.00  0.00     0.000 A 
ENDBRANCH  26  45
BRANCH  38  51
ATOM     51  C   UNL     1      14.060 -10.942 -18.282  1.00  0.00    -0.014 A 
ATOM     52  C   UNL     1      14.184 -10.567 -19.629  1.00  0.00     0.009 A 
ATOM     53  C   UNL     1      14.077 -12.306 -17.950  1.00  0.00     0.009 A 
ATOM     54  C   UNL     1      14.284 -11.541 -20.625  1.00  0.00     0.001 A 
ATOM     55  C   UNL     1      14.208 -13.275 -18.945  1.00  0.00     0.001 A 
ATOM     56  C   UNL     1      14.300 -12.892 -20.282  1.00  0.00     0.000 A 
ENDBRANCH  38  51
ENDBRANCH  12  13
ENDBRANCH   5   7
ENDBRANCH   2   3
ENDBRANCH   1   2
BRANCH   1  57
ATOM     57  C   UNL     1      12.538  -2.302  -4.032  1.00  0.00     0.118 C 
BRANCH  57  58
ATOM     58  N   UNL     1      11.312  -2.592  -3.301  1.00  0.00    -0.352 N 
ATOM     59  C   UNL     1      11.136  -3.258  -2.112  1.00  0.00     0.255 C 
ATOM     60  H   UNL     1      10.486  -2.261  -3.722  1.00  0.00     0.163 HD
ATOM     61  O   UNL     1      10.007  -3.590  -1.762  1.00  0.00    -0.269 OA
BRANCH  59  62
ATOM     62  C   UNL     1      12.295  -3.560  -1.252  1.00  0.00     0.082 A 
ATOM     63  C   UNL     1      13.190  -2.532  -0.923  1.00  0.00     0.021 A 
ATOM     64  C   UNL     1      12.480  -4.842  -0.714  1.00  0.00     0.140 A 
ATOM     65  C   UNL     1      14.316  -2.825  -0.169  1.00  0.00     0.042 A 
ATOM     66  N   UNL     1      13.582  -5.119   0.023  1.00  0.00    -0.219 NA
ATOM     67  C   UNL     1      14.465  -4.127   0.261  1.00  0.00     0.131 A 
ATOM     68  Cl  UNL     1      15.850  -4.605   1.150  1.00  0.00    -0.062 Cl
BRANCH  64  69
ATOM     69  N   UNL     1      11.604  -5.881  -0.995  1.00  0.00    -0.367 N 
ATOM     70  H   UNL     1      10.873  -5.742  -1.641  1.00  0.00     0.162 HD
BRANCH  69  71
ATOM     71  C   UNL     1      11.755  -7.181  -0.341  1.00  0.00     0.152 C 
BRANCH  71  72
ATOM     72  C   UNL     1      10.595  -7.434   0.661  1.00  0.00     0.192 C 
ATOM     73  C   UNL     1      11.052  -8.275   1.892  1.00  0.00     0.296 C 
ATOM     74  O   UNL     1       9.451  -7.975  -0.031  1.00  0.00    -0.364 OA
ATOM     75  N   UNL     1      10.430  -9.572   2.141  1.00  0.00    -0.328 N 
ATOM     76  C   UNL     1       9.574  -9.383  -0.243  1.00  0.00     0.225 C 
ATOM     77  C   UNL     1      11.335 -10.604   2.638  1.00  0.00     0.262 C 
ATOM     78  C   UNL     1       9.571 -10.125   1.091  1.00  0.00     0.210 C 
ATOM     79  H   UNL     1       9.798  -9.303   2.895  1.00  0.00     0.348 HD
ATOM     80  C   UNL     1      10.619 -11.900   2.301  1.00  0.00     0.068 C 
ATOM     81  C   UNL     1       9.991 -11.588   0.955  1.00  0.00     0.073 C 
ENDBRANCH  71  72
ENDBRANCH  69  71
ENDBRANCH  64  69
ENDBRANCH  59  62
ENDBRANCH  57  58
ENDBRANCH   1  57
TORSDOF 13
