REMARK SMILES C[C@@H](C(=O)NCCCNC(=O)c1ccc(-c2c3nc(c(-c4ccccc4)c4ccc([nH]4)c(-c4ccccc4)c4nc(c(-c5ccccc5)c5ccc2[nH]5)C=C4)C=C3)cc1)c1ccc(C[C@@H]2CCC[C@@H]2O)cc1Br
REMARK SMILES IDX 6 1 5 2 3 3 4 4 2 6 1 7 60 8 61 9 72 10 62 11 71 12 73 13
REMARK SMILES IDX 63 14 64 15 65 16 66 17 69 18 67 19 68 20 70 21 7 23 8 24
REMARK SMILES IDX 9 25 10 26 11 28 12 29 13 30 59 31 14 32 58 33 15 34 16 35
REMARK SMILES IDX 17 36 52 37 18 38 57 39 51 40 53 41 19 42 56 43 50 44 49 45
REMARK SMILES IDX 20 47 42 48 27 49 41 50 28 51 31 52 40 53 54 54 29 55 30 56
REMARK SMILES IDX 39 58 55 59 32 60 21 61 22 62 26 63 23 64 25 65 24 66 43 67
REMARK SMILES IDX 44 68 48 69 45 70 47 71 46 72 33 73 34 74 38 75 35 76 37 77
REMARK SMILES IDX 36 78
REMARK H PARENT 5 5 70 22 9 27 53 46 31 57
REMARK Flexibility Score: inf
ROOT
ATOM      1  C   UNL     1     -11.026   3.365   8.013  1.00  0.00     0.117 C 
ENDROOT
BRANCH   1   2
ATOM      2  N   UNL     1      -9.952   3.606   7.067  1.00  0.00    -0.356 N 
ATOM      3  C   UNL     1      -9.221   2.719   6.327  1.00  0.00     0.227 C 
ATOM      4  O   UNL     1      -8.194   3.147   5.795  1.00  0.00    -0.274 OA
ATOM      5  H   UNL     1      -9.714   4.552   6.939  1.00  0.00     0.163 HD
BRANCH   3   6
ATOM      6  C   UNL     1      -9.696   1.260   6.190  1.00  0.00     0.106 C 
ATOM      7  C   UNL     1      -9.264   0.511   7.460  1.00  0.00     0.023 C 
BRANCH   6   8
ATOM      8  C   UNL     1      -9.207   0.618   4.885  1.00  0.00    -0.022 A 
ATOM      9  C   UNL     1      -8.434  -0.557   4.905  1.00  0.00     0.006 A 
ATOM     10  C   UNL     1      -9.490   1.173   3.620  1.00  0.00     0.022 A 
ATOM     11  C   UNL     1      -7.894  -1.102   3.740  1.00  0.00     0.004 A 
ATOM     12  C   UNL     1      -8.897   0.656   2.458  1.00  0.00     0.019 A 
ATOM     13  Br  UNL     1     -10.698   2.626   3.376  1.00  0.00    -0.051 Br
ATOM     14  C   UNL     1      -8.056  -0.461   2.515  1.00  0.00    -0.047 A 
BRANCH  14  15
ATOM     15  C   UNL     1      -7.325  -0.943   1.287  1.00  0.00     0.041 C 
BRANCH  15  16
ATOM     16  C   UNL     1      -5.809  -0.644   1.187  1.00  0.00     0.022 C 
ATOM     17  C   UNL     1      -4.932  -1.300   2.261  1.00  0.00     0.007 C 
ATOM     18  C   UNL     1      -5.382   0.825   1.262  1.00  0.00     0.117 C 
ATOM     19  C   UNL     1      -4.643  -0.225   3.313  1.00  0.00     0.003 C 
ATOM     20  C   UNL     1      -5.154   1.094   2.744  1.00  0.00     0.032 C 
BRANCH  18  21
ATOM     21  O   UNL     1      -6.319   1.706   0.679  1.00  0.00    -0.393 OA
ATOM     22  H   UNL     1      -7.171   1.619   1.135  1.00  0.00     0.210 HD
ENDBRANCH  18  21
ENDBRANCH  15  16
ENDBRANCH  14  15
ENDBRANCH   6   8
ENDBRANCH   3   6
ENDBRANCH   1   2
BRANCH   1  23
ATOM     23  C   UNL     1     -10.509   3.404   9.452  1.00  0.00     0.042 C 
BRANCH  23  24
ATOM     24  C   UNL     1     -10.028   4.778   9.904  1.00  0.00     0.118 C 
BRANCH  24  25
ATOM     25  N   UNL     1     -11.121   5.718  10.073  1.00  0.00    -0.352 N 
ATOM     26  C   UNL     1     -11.431   6.517  11.141  1.00  0.00     0.251 C 
ATOM     27  H   UNL     1     -11.732   5.793   9.304  1.00  0.00     0.163 HD
ATOM     28  O   UNL     1     -12.512   7.110  11.153  1.00  0.00    -0.269 OA
BRANCH  26  29
ATOM     29  C   UNL     1     -10.501   6.675  12.283  1.00  0.00     0.039 A 
ATOM     30  C   UNL     1     -11.041   6.782  13.569  1.00  0.00     0.014 A 
ATOM     31  C   UNL     1      -9.120   6.794  12.099  1.00  0.00     0.014 A 
ATOM     32  C   UNL     1     -10.201   6.992  14.665  1.00  0.00     0.010 A 
ATOM     33  C   UNL     1      -8.276   6.933  13.201  1.00  0.00     0.010 A 
ATOM     34  C   UNL     1      -8.811   7.064  14.491  1.00  0.00    -0.014 A 
BRANCH  34  35
ATOM     35  C   UNL     1      -7.916   7.343  15.642  1.00  0.00     0.031 A 
ATOM     36  C   UNL     1      -7.158   8.642  15.709  1.00  0.00     0.074 A 
ATOM     37  C   UNL     1      -7.761   6.425  16.615  1.00  0.00     0.049 A 
ATOM     38  N   UNL     1      -6.322   9.065  16.623  1.00  0.00    -0.248 NA
ATOM     39  C   UNL     1      -7.348   9.578  14.589  1.00  0.00     0.031 C 
ATOM     40  C   UNL     1      -8.405   5.111  16.652  1.00  0.00     0.029 A 
ATOM     41  N   UNL     1      -7.011   6.463  17.763  1.00  0.00    -0.354 N 
ATOM     42  C   UNL     1      -5.874  10.303  16.180  1.00  0.00     0.074 A 
ATOM     43  C   UNL     1      -6.492  10.541  14.893  1.00  0.00     0.031 C 
ATOM     44  C   UNL     1      -8.040   4.477  17.779  1.00  0.00     0.029 A 
ATOM     45  C   UNL     1      -7.122   5.330  18.529  1.00  0.00     0.049 A 
ATOM     46  H   UNL     1      -6.446   7.230  18.013  1.00  0.00     0.167 HD
ATOM     47  C   UNL     1      -5.041  11.178  16.793  1.00  0.00     0.031 A 
ATOM     48  C   UNL     1      -6.555   5.015  19.709  1.00  0.00     0.031 A 
ATOM     49  C   UNL     1      -4.437  10.956  18.079  1.00  0.00     0.049 A 
ATOM     50  C   UNL     1      -5.661   6.013  20.389  1.00  0.00     0.074 A 
ATOM     51  C   UNL     1      -3.607  11.796  18.801  1.00  0.00     0.029 A 
ATOM     52  N   UNL     1      -4.607   9.810  18.839  1.00  0.00    -0.354 N 
ATOM     53  N   UNL     1      -5.288   7.201  19.980  1.00  0.00    -0.248 NA
ATOM     54  C   UNL     1      -5.130   5.634  21.706  1.00  0.00     0.031 C 
ATOM     55  C   UNL     1      -3.252  11.145  19.988  1.00  0.00     0.029 A 
ATOM     56  C   UNL     1      -3.897   9.918  20.022  1.00  0.00     0.049 A 
ATOM     57  H   UNL     1      -5.152   9.033  18.576  1.00  0.00     0.167 HD
ATOM     58  C   UNL     1      -4.503   7.723  20.999  1.00  0.00     0.074 A 
ATOM     59  C   UNL     1      -4.464   6.727  22.051  1.00  0.00     0.031 C 
ATOM     60  C   UNL     1      -3.872   8.921  21.059  1.00  0.00     0.031 A 
BRANCH  47  61
ATOM     61  C   UNL     1      -4.738  12.458  16.067  1.00  0.00    -0.014 A 
ATOM     62  C   UNL     1      -5.714  13.459  15.927  1.00  0.00     0.009 A 
ATOM     63  C   UNL     1      -3.463  12.671  15.521  1.00  0.00     0.009 A 
ATOM     64  C   UNL     1      -5.431  14.628  15.217  1.00  0.00     0.001 A 
ATOM     65  C   UNL     1      -3.175  13.853  14.835  1.00  0.00     0.001 A 
ATOM     66  C   UNL     1      -4.162  14.825  14.674  1.00  0.00     0.000 A 
ENDBRANCH  47  61
BRANCH  48  67
ATOM     67  C   UNL     1      -6.850   3.705  20.343  1.00  0.00    -0.014 A 
ATOM     68  C   UNL     1      -7.701   3.629  21.455  1.00  0.00     0.009 A 
ATOM     69  C   UNL     1      -6.289   2.525  19.832  1.00  0.00     0.009 A 
ATOM     70  C   UNL     1      -7.966   2.399  22.059  1.00  0.00     0.001 A 
ATOM     71  C   UNL     1      -6.575   1.293  20.424  1.00  0.00     0.001 A 
ATOM     72  C   UNL     1      -7.407   1.232  21.541  1.00  0.00     0.000 A 
ENDBRANCH  48  67
BRANCH  60  73
ATOM     73  C   UNL     1      -3.120   9.235  22.320  1.00  0.00    -0.014 A 
ATOM     74  C   UNL     1      -1.892   8.622  22.609  1.00  0.00     0.009 A 
ATOM     75  C   UNL     1      -3.638  10.184  23.216  1.00  0.00     0.009 A 
ATOM     76  C   UNL     1      -1.212   8.929  23.790  1.00  0.00     0.001 A 
ATOM     77  C   UNL     1      -2.945  10.506  24.384  1.00  0.00     0.001 A 
ATOM     78  C   UNL     1      -1.738   9.871  24.674  1.00  0.00     0.000 A 
ENDBRANCH  60  73
ENDBRANCH  34  35
ENDBRANCH  26  29
ENDBRANCH  24  25
ENDBRANCH  23  24
ENDBRANCH   1  23
TORSDOF 14
