REMARK SMILES O=C(NCCCNC(=O)c1ccc(-c2c3nc(c(-c4ccccc4)c4ccc([nH]4)c(-c4ccccc4)c4nc(c(-c5ccccc5)c5ccc2[nH]5)C=C4)C=C3)cc1)c1ccc(N/C=C\C(=O)c2ccco2)cc1
REMARK SMILES IDX 4 1 3 2 1 3 2 4 58 6 59 7 73 8 60 9 72 10 61 11 62 12 63 14
REMARK SMILES IDX 64 15 65 16 66 17 67 18 68 19 71 20 69 21 70 22 5 23 6 24
REMARK SMILES IDX 7 25 8 26 9 28 10 29 11 30 57 31 12 32 56 33 13 34 14 35
REMARK SMILES IDX 15 36 50 37 16 38 55 39 49 40 51 41 17 42 54 43 48 44 47 45
REMARK SMILES IDX 18 47 40 48 25 49 39 50 26 51 29 52 38 53 52 54 27 55 28 56
REMARK SMILES IDX 37 58 53 59 30 60 19 61 20 62 24 63 21 64 23 65 22 66 41 67
REMARK SMILES IDX 42 68 46 69 43 70 45 71 44 72 31 73 32 74 36 75 33 76 35 77
REMARK SMILES IDX 34 78
REMARK H PARENT 3 5 62 13 7 27 51 46 29 57
REMARK Flexibility Score: inf
ROOT
ATOM      1  C   UNL     1       4.558  -1.082   0.587  1.00  0.00     0.118 C 
ENDROOT
BRANCH   1   2
ATOM      2  N   UNL     1       3.112  -1.067   0.435  1.00  0.00    -0.352 N 
ATOM      3  O   UNL     1       1.097  -0.191  -0.058  1.00  0.00    -0.269 OA
ATOM      4  C   UNL     1       2.315  -0.167  -0.222  1.00  0.00     0.251 C 
ATOM      5  H   UNL     1       2.636  -1.812   0.869  1.00  0.00     0.163 HD
BRANCH   4   6
ATOM      6  C   UNL     1       2.918   0.846  -1.109  1.00  0.00     0.039 A 
ATOM      7  C   UNL     1       3.875   0.498  -2.068  1.00  0.00     0.016 A 
ATOM      8  C   UNL     1       2.490   2.166  -0.998  1.00  0.00     0.016 A 
ATOM      9  C   UNL     1       4.470   1.486  -2.855  1.00  0.00     0.027 A 
ATOM     10  C   UNL     1       3.061   3.141  -1.815  1.00  0.00     0.027 A 
ATOM     11  C   UNL     1       4.059   2.816  -2.752  1.00  0.00     0.038 A 
BRANCH  11  12
ATOM     12  N   UNL     1       4.639   3.867  -3.477  1.00  0.00    -0.362 N 
ATOM     13  H   UNL     1       4.073   4.666  -3.575  1.00  0.00     0.166 HD
BRANCH  12  14
ATOM     14  C   UNL     1       5.870   3.952  -4.068  1.00  0.00     0.087 C 
ATOM     15  C   UNL     1       6.470   5.014  -4.628  1.00  0.00     0.074 C 
BRANCH  15  16
ATOM     16  C   UNL     1       5.944   6.411  -4.728  1.00  0.00     0.222 C 
ATOM     17  O   UNL     1       6.374   7.111  -5.644  1.00  0.00    -0.286 OA
BRANCH  16  18
ATOM     18  C   UNL     1       4.973   6.872  -3.758  1.00  0.00     0.173 A 
ATOM     19  C   UNL     1       4.921   6.793  -2.376  1.00  0.00     0.054 A 
ATOM     20  O   UNL     1       3.812   7.430  -4.221  1.00  0.00    -0.461 OA
ATOM     21  C   UNL     1       3.653   7.289  -1.987  1.00  0.00     0.043 A 
ATOM     22  C   UNL     1       3.019   7.667  -3.146  1.00  0.00     0.196 A 
ENDBRANCH  16  18
ENDBRANCH  15  16
ENDBRANCH  12  14
ENDBRANCH  11  12
ENDBRANCH   4   6
ENDBRANCH   1   2
BRANCH   1  23
ATOM     23  C   UNL     1       4.992  -0.836   2.024  1.00  0.00     0.042 C 
BRANCH  23  24
ATOM     24  C   UNL     1       4.486  -1.871   3.016  1.00  0.00     0.118 C 
BRANCH  24  25
ATOM     25  N   UNL     1       4.920  -3.223   2.695  1.00  0.00    -0.352 N 
ATOM     26  C   UNL     1       5.663  -4.118   3.422  1.00  0.00     0.251 C 
ATOM     27  H   UNL     1       4.633  -3.549   1.811  1.00  0.00     0.163 HD
ATOM     28  O   UNL     1       6.067  -5.145   2.884  1.00  0.00    -0.269 OA
BRANCH  26  29
ATOM     29  C   UNL     1       5.997  -3.849   4.838  1.00  0.00     0.039 A 
ATOM     30  C   UNL     1       7.260  -4.218   5.310  1.00  0.00     0.014 A 
ATOM     31  C   UNL     1       5.072  -3.271   5.709  1.00  0.00     0.014 A 
ATOM     32  C   UNL     1       7.609  -3.957   6.636  1.00  0.00     0.010 A 
ATOM     33  C   UNL     1       5.454  -2.921   7.000  1.00  0.00     0.010 A 
ATOM     34  C   UNL     1       6.720  -3.278   7.484  1.00  0.00    -0.014 A 
BRANCH  34  35
ATOM     35  C   UNL     1       7.092  -2.955   8.885  1.00  0.00     0.031 A 
ATOM     36  C   UNL     1       6.310  -3.540  10.031  1.00  0.00     0.074 A 
ATOM     37  C   UNL     1       8.101  -2.097   9.126  1.00  0.00     0.049 A 
ATOM     38  N   UNL     1       6.471  -3.357  11.317  1.00  0.00    -0.248 NA
ATOM     39  C   UNL     1       5.183  -4.422   9.688  1.00  0.00     0.031 C 
ATOM     40  C   UNL     1       8.905  -1.421   8.104  1.00  0.00     0.029 A 
ATOM     41  N   UNL     1       8.624  -1.645  10.312  1.00  0.00    -0.354 N 
ATOM     42  C   UNL     1       5.456  -4.082  11.931  1.00  0.00     0.074 A 
ATOM     43  C   UNL     1       4.652  -4.660  10.877  1.00  0.00     0.031 C 
ATOM     44  C   UNL     1       9.840  -0.670   8.707  1.00  0.00     0.029 A 
ATOM     45  C   UNL     1       9.679  -0.778  10.153  1.00  0.00     0.049 A 
ATOM     46  H   UNL     1       8.277  -1.915  11.192  1.00  0.00     0.167 HD
ATOM     47  C   UNL     1       5.225  -4.269  13.252  1.00  0.00     0.031 A 
ATOM     48  C   UNL     1      10.432  -0.142  11.069  1.00  0.00     0.031 A 
ATOM     49  C   UNL     1       6.033  -3.707  14.300  1.00  0.00     0.049 A 
ATOM     50  C   UNL     1      10.161  -0.370  12.529  1.00  0.00     0.074 A 
ATOM     51  C   UNL     1       5.923  -3.892  15.667  1.00  0.00     0.029 A 
ATOM     52  N   UNL     1       7.100  -2.846  14.097  1.00  0.00    -0.354 N 
ATOM     53  N   UNL     1       9.248  -1.124  13.092  1.00  0.00    -0.248 NA
ATOM     54  C   UNL     1      11.036   0.329  13.480  1.00  0.00     0.031 C 
ATOM     55  C   UNL     1       6.889  -3.098  16.294  1.00  0.00     0.029 A 
ATOM     56  C   UNL     1       7.641  -2.469  15.315  1.00  0.00     0.049 A 
ATOM     57  H   UNL     1       7.426  -2.546  13.217  1.00  0.00     0.167 HD
ATOM     58  C   UNL     1       9.456  -1.013  14.461  1.00  0.00     0.074 A 
ATOM     59  C   UNL     1      10.593  -0.134  14.641  1.00  0.00     0.031 C 
ATOM     60  C   UNL     1       8.769  -1.588  15.478  1.00  0.00     0.031 A 
BRANCH  47  61
ATOM     61  C   UNL     1       4.041  -5.115  13.635  1.00  0.00    -0.014 A 
ATOM     62  C   UNL     1       4.018  -6.497  13.387  1.00  0.00     0.009 A 
ATOM     63  C   UNL     1       2.941  -4.524  14.277  1.00  0.00     0.009 A 
ATOM     64  C   UNL     1       2.902  -7.261  13.736  1.00  0.00     0.001 A 
ATOM     65  C   UNL     1       1.841  -5.297  14.655  1.00  0.00     0.001 A 
ATOM     66  C   UNL     1       1.817  -6.662  14.373  1.00  0.00     0.000 A 
ENDBRANCH  47  61
BRANCH  48  67
ATOM     67  C   UNL     1      11.532   0.757  10.631  1.00  0.00    -0.014 A 
ATOM     68  C   UNL     1      12.873   0.389  10.822  1.00  0.00     0.009 A 
ATOM     69  C   UNL     1      11.247   1.988  10.019  1.00  0.00     0.009 A 
ATOM     70  C   UNL     1      13.905   1.248  10.436  1.00  0.00     0.001 A 
ATOM     71  C   UNL     1      12.281   2.830   9.605  1.00  0.00     0.001 A 
ATOM     72  C   UNL     1      13.608   2.465   9.823  1.00  0.00     0.000 A 
ENDBRANCH  48  67
BRANCH  60  73
ATOM     73  C   UNL     1       9.250  -1.311  16.875  1.00  0.00    -0.014 A 
ATOM     74  C   UNL     1       9.089  -0.049  17.468  1.00  0.00     0.009 A 
ATOM     75  C   UNL     1       9.846  -2.341  17.619  1.00  0.00     0.009 A 
ATOM     76  C   UNL     1       9.550   0.185  18.765  1.00  0.00     0.001 A 
ATOM     77  C   UNL     1      10.277  -2.114  18.927  1.00  0.00     0.001 A 
ATOM     78  C   UNL     1      10.139  -0.848  19.494  1.00  0.00     0.000 A 
ENDBRANCH  60  73
ENDBRANCH  34  35
ENDBRANCH  26  29
ENDBRANCH  24  25
ENDBRANCH  23  24
ENDBRANCH   1  23
TORSDOF 14
