REMARK SMILES C[N@H+]1CCO[C@H](C[C@@H](NC(=O)OC(C)(C)C)C(=O)NCCCNC(=O)c2ccc(-c3c4nc(c(-c5ccccc5)c5ccc([nH]5)c(-c5ccccc5)c5nc(c(-c6ccccc6)c6ccc3[nH]6)C=C5)C=C4)cc2)C1
REMARK SMILES IDX 20 1 19 2 17 3 18 4 8 6 7 7 6 8 1 9 2 10 3 11 74 12 4 14
REMARK SMILES IDX 5 15 9 16 10 17 11 19 12 20 13 21 14 22 15 23 16 24 21 25
REMARK SMILES IDX 22 26 23 27 24 28 25 30 26 31 27 32 73 33 28 34 72 35 29 36
REMARK SMILES IDX 30 37 31 38 66 39 32 40 71 41 65 42 67 43 33 44 70 45 64 46
REMARK SMILES IDX 63 47 34 49 56 50 41 51 55 52 42 53 45 54 54 55 68 56 43 57
REMARK SMILES IDX 44 58 53 60 69 61 46 62 35 63 36 64 40 65 37 66 39 67 38 68
REMARK SMILES IDX 57 69 58 70 62 71 59 72 61 73 60 74 47 75 48 76 52 77 49 78
REMARK SMILES IDX 51 79 50 80
REMARK H PARENT 19 5 2 13 9 18 23 29 67 48 45 59
REMARK Flexibility Score: inf
ROOT
ATOM      1  C   UNL     1       0.011  -2.167   5.825  1.00  0.00     0.117 C 
ENDROOT
BRANCH   1   2
ATOM      2  N   UNL     1      -0.524  -3.507   5.666  1.00  0.00    -0.354 N 
ATOM      3  C   UNL     1      -0.122  -4.487   4.801  1.00  0.00     0.242 C 
ATOM      4  O   UNL     1      -0.723  -5.564   4.837  1.00  0.00    -0.273 OA
ATOM      5  H   UNL     1      -1.274  -3.741   6.259  1.00  0.00     0.163 HD
BRANCH   3   6
ATOM      6  C   UNL     1       0.897  -4.172   3.684  1.00  0.00     0.177 C 
BRANCH   6   7
ATOM      7  C   UNL     1       0.079  -3.337   2.664  1.00  0.00     0.073 C 
BRANCH   7   8
ATOM      8  C   UNL     1       0.844  -2.614   1.559  1.00  0.00     0.176 C 
ATOM      9  C   UNL     1       1.203   0.012  -0.152  1.00  0.00     0.332 C 
ATOM     10  N   UNL     1       0.433  -1.179  -0.497  1.00  0.00    -0.333 N 
ATOM     11  C   UNL     1       1.246  -2.177  -1.221  1.00  0.00     0.290 C 
ATOM     12  C   UNL     1      -0.165  -1.828   0.681  1.00  0.00     0.294 C 
ATOM     13  H   UNL     1      -0.315  -0.844  -1.106  1.00  0.00     0.348 HD
ATOM     14  C   UNL     1       2.222  -2.965  -0.325  1.00  0.00     0.222 C 
ATOM     15  O   UNL     1       1.556  -3.583   0.786  1.00  0.00    -0.366 OA
ENDBRANCH   7   8
ENDBRANCH   6   7
BRANCH   6  16
ATOM     16  N   UNL     1       2.135  -3.510   4.122  1.00  0.00    -0.310 N 
ATOM     17  C   UNL     1       2.873  -3.782   5.244  1.00  0.00     0.408 C 
ATOM     18  H   UNL     1       2.472  -2.789   3.542  1.00  0.00     0.167 HD
ATOM     19  O   UNL     1       4.036  -3.406   5.332  1.00  0.00    -0.225 OA
BRANCH  17  20
ATOM     20  O   UNL     1       2.162  -4.369   6.227  1.00  0.00    -0.444 OA
BRANCH  20  21
ATOM     21  C   UNL     1       2.648  -4.480   7.593  1.00  0.00     0.106 C 
ATOM     22  C   UNL     1       3.799  -5.481   7.678  1.00  0.00     0.056 C 
ATOM     23  C   UNL     1       3.043  -3.124   8.195  1.00  0.00     0.056 C 
ATOM     24  C   UNL     1       1.449  -5.022   8.390  1.00  0.00     0.056 C 
ENDBRANCH  20  21
ENDBRANCH  17  20
ENDBRANCH   6  16
ENDBRANCH   3   6
ENDBRANCH   1   2
BRANCH   1  25
ATOM     25  C   UNL     1      -1.072  -1.143   6.090  1.00  0.00     0.042 C 
BRANCH  25  26
ATOM     26  C   UNL     1      -1.815  -1.385   7.392  1.00  0.00     0.118 C 
BRANCH  26  27
ATOM     27  N   UNL     1      -0.959  -1.276   8.568  1.00  0.00    -0.352 N 
ATOM     28  C   UNL     1      -1.084  -0.447   9.656  1.00  0.00     0.251 C 
ATOM     29  H   UNL     1      -0.183  -1.881   8.584  1.00  0.00     0.163 HD
ATOM     30  O   UNL     1      -0.186  -0.365  10.487  1.00  0.00    -0.269 OA
BRANCH  28  31
ATOM     31  C   UNL     1      -2.304   0.371   9.791  1.00  0.00     0.039 A 
ATOM     32  C   UNL     1      -2.185   1.734  10.068  1.00  0.00     0.014 A 
ATOM     33  C   UNL     1      -3.558  -0.203   9.569  1.00  0.00     0.014 A 
ATOM     34  C   UNL     1      -3.324   2.539  10.032  1.00  0.00     0.010 A 
ATOM     35  C   UNL     1      -4.669   0.615   9.429  1.00  0.00     0.010 A 
ATOM     36  C   UNL     1      -4.564   1.994   9.661  1.00  0.00    -0.014 A 
BRANCH  36  37
ATOM     37  C   UNL     1      -5.769   2.842   9.500  1.00  0.00     0.031 A 
ATOM     38  C   UNL     1      -6.979   2.594  10.357  1.00  0.00     0.074 A 
ATOM     39  C   UNL     1      -5.806   3.772   8.526  1.00  0.00     0.049 A 
ATOM     40  N   UNL     1      -8.154   3.168  10.312  1.00  0.00    -0.248 NA
ATOM     41  C   UNL     1      -6.866   1.537  11.377  1.00  0.00     0.031 C 
ATOM     42  C   UNL     1      -4.717   4.069   7.591  1.00  0.00     0.029 A 
ATOM     43  N   UNL     1      -6.806   4.634   8.152  1.00  0.00    -0.354 N 
ATOM     44  C   UNL     1      -8.922   2.526  11.275  1.00  0.00     0.074 A 
ATOM     45  C   UNL     1      -8.101   1.484  11.849  1.00  0.00     0.031 C 
ATOM     46  C   UNL     1      -5.098   5.062   6.772  1.00  0.00     0.029 A 
ATOM     47  C   UNL     1      -6.470   5.442   7.094  1.00  0.00     0.049 A 
ATOM     48  H   UNL     1      -7.682   4.669   8.600  1.00  0.00     0.167 HD
ATOM     49  C   UNL     1     -10.191   2.793  11.662  1.00  0.00     0.031 A 
ATOM     50  C   UNL     1      -7.188   6.380   6.448  1.00  0.00     0.031 A 
ATOM     51  C   UNL     1     -10.998   3.843  11.102  1.00  0.00     0.049 A 
ATOM     52  C   UNL     1      -8.595   6.660   6.897  1.00  0.00     0.074 A 
ATOM     53  C   UNL     1     -12.267   4.246  11.476  1.00  0.00     0.029 A 
ATOM     54  N   UNL     1     -10.613   4.653  10.045  1.00  0.00    -0.354 N 
ATOM     55  N   UNL     1      -9.278   6.101   7.867  1.00  0.00    -0.248 NA
ATOM     56  C   UNL     1      -9.326   7.706   6.169  1.00  0.00     0.031 C 
ATOM     57  C   UNL     1     -12.673   5.265  10.608  1.00  0.00     0.029 A 
ATOM     58  C   UNL     1     -11.634   5.535   9.732  1.00  0.00     0.049 A 
ATOM     59  H   UNL     1      -9.744   4.608   9.585  1.00  0.00     0.167 HD
ATOM     60  C   UNL     1     -10.510   6.742   7.880  1.00  0.00     0.074 A 
ATOM     61  C   UNL     1     -10.472   7.744   6.834  1.00  0.00     0.031 C 
ATOM     62  C   UNL     1     -11.578   6.520   8.684  1.00  0.00     0.031 A 
BRANCH  49  63
ATOM     63  C   UNL     1     -10.782   1.929  12.740  1.00  0.00    -0.014 A 
ATOM     64  C   UNL     1     -10.319   1.994  14.065  1.00  0.00     0.009 A 
ATOM     65  C   UNL     1     -11.835   1.054  12.433  1.00  0.00     0.009 A 
ATOM     66  C   UNL     1     -10.871   1.172  15.049  1.00  0.00     0.001 A 
ATOM     67  C   UNL     1     -12.406   0.255  13.426  1.00  0.00     0.001 A 
ATOM     68  C   UNL     1     -11.917   0.307  14.730  1.00  0.00     0.000 A 
ENDBRANCH  49  63
BRANCH  50  69
ATOM     69  C   UNL     1      -6.586   7.131   5.316  1.00  0.00    -0.014 A 
ATOM     70  C   UNL     1      -6.258   8.489   5.457  1.00  0.00     0.009 A 
ATOM     71  C   UNL     1      -6.335   6.497   4.090  1.00  0.00     0.009 A 
ATOM     72  C   UNL     1      -5.714   9.200   4.385  1.00  0.00     0.001 A 
ATOM     73  C   UNL     1      -5.763   7.204   3.029  1.00  0.00     0.001 A 
ATOM     74  C   UNL     1      -5.462   8.557   3.175  1.00  0.00     0.000 A 
ENDBRANCH  50  69
BRANCH  62  75
ATOM     75  C   UNL     1     -12.784   7.393   8.480  1.00  0.00    -0.014 A 
ATOM     76  C   UNL     1     -13.614   7.237   7.359  1.00  0.00     0.009 A 
ATOM     77  C   UNL     1     -13.117   8.354   9.447  1.00  0.00     0.009 A 
ATOM     78  C   UNL     1     -14.738   8.048   7.197  1.00  0.00     0.001 A 
ATOM     79  C   UNL     1     -14.258   9.142   9.297  1.00  0.00     0.001 A 
ATOM     80  C   UNL     1     -15.063   8.995   8.168  1.00  0.00     0.000 A 
ENDBRANCH  62  75
ENDBRANCH  36  37
ENDBRANCH  28  31
ENDBRANCH  26  27
ENDBRANCH  25  26
ENDBRANCH   1  25
TORSDOF 15
