REMARK SMILES CCOc1cccc(C(=O)NCCCNC(=O)c2ccc(-c3c4nc(c(-c5ccccc5)c5ccc([nH]5)c(-c5ccccc5)c5nc(c(-c6ccccc6)c6ccc3[nH]6)C=C5)C=C4)cc2)c1OCc1ccc(Br)cc1
REMARK SMILES IDX 12 1 11 2 9 3 10 4 8 6 4 7 5 8 66 9 6 10 7 11 3 12 2 13 1 14
REMARK SMILES IDX 67 15 68 16 69 17 70 18 75 19 71 20 74 21 72 22 73 23 13 24
REMARK SMILES IDX 14 25 15 26 16 27 17 29 18 30 19 31 65 32 20 33 64 34 21 35
REMARK SMILES IDX 22 36 23 37 58 38 24 39 63 40 57 41 59 42 25 43 62 44 56 45
REMARK SMILES IDX 55 46 26 48 48 49 33 50 47 51 34 52 37 53 46 54 60 55 35 56
REMARK SMILES IDX 36 57 45 59 61 60 38 61 27 62 28 63 32 64 29 65 31 66 30 67
REMARK SMILES IDX 49 68 50 69 54 70 51 71 53 72 52 73 39 74 40 75 44 76 41 77
REMARK SMILES IDX 43 78 42 79
REMARK H PARENT 11 5 15 28 59 47 37 58
REMARK Flexibility Score: inf
ROOT
ATOM      1  C   UNL     1       3.785   1.041   1.703  1.00  0.00     0.118 C 
ENDROOT
BRANCH   1   2
ATOM      2  N   UNL     1       5.105   0.444   1.874  1.00  0.00    -0.352 N 
ATOM      3  C   UNL     1       5.553  -0.832   1.533  1.00  0.00     0.255 C 
ATOM      4  O   UNL     1       6.740  -1.106   1.706  1.00  0.00    -0.269 OA
ATOM      5  H   UNL     1       5.779   1.028   2.291  1.00  0.00     0.163 HD
BRANCH   3   6
ATOM      6  C   UNL     1       4.612  -1.906   1.087  1.00  0.00     0.085 A 
ATOM      7  C   UNL     1       2.321  -2.364   0.625  1.00  0.00     0.162 A 
ATOM      8  C   UNL     1       2.466  -3.673   1.085  1.00  0.00     0.050 A 
ATOM      9  C   UNL     1       3.462  -1.602   0.374  1.00  0.00     0.174 A 
ATOM     10  C   UNL     1       3.741  -4.133   1.439  1.00  0.00     0.005 A 
ATOM     11  C   UNL     1       4.794  -3.217   1.537  1.00  0.00     0.018 A 
BRANCH   7  12
ATOM     12  O   UNL     1       1.208  -1.633   0.971  1.00  0.00    -0.490 OA
BRANCH  12  13
ATOM     13  C   UNL     1      -0.039  -1.947   0.372  1.00  0.00     0.226 C 
ATOM     14  C   UNL     1      -0.873  -0.677   0.515  1.00  0.00     0.049 C 
ENDBRANCH  12  13
ENDBRANCH   7  12
BRANCH   9  15
ATOM     15  O   UNL     1       3.597  -0.600  -0.548  1.00  0.00    -0.484 OA
BRANCH  15  16
ATOM     16  C   UNL     1       2.462   0.010  -1.145  1.00  0.00     0.265 C 
BRANCH  16  17
ATOM     17  C   UNL     1       1.829  -0.709  -2.312  1.00  0.00    -0.011 A 
ATOM     18  C   UNL     1       0.830  -0.033  -3.030  1.00  0.00     0.008 A 
ATOM     19  C   UNL     1       2.149  -2.024  -2.676  1.00  0.00     0.008 A 
ATOM     20  C   UNL     1       0.148  -0.664  -4.070  1.00  0.00     0.016 A 
ATOM     21  C   UNL     1       1.449  -2.667  -3.699  1.00  0.00     0.016 A 
ATOM     22  C   UNL     1       0.452  -1.984  -4.390  1.00  0.00     0.017 A 
ATOM     23  Br  UNL     1      -0.499  -2.857  -5.769  1.00  0.00    -0.051 Br
ENDBRANCH  16  17
ENDBRANCH  15  16
ENDBRANCH   9  15
ENDBRANCH   3   6
ENDBRANCH   1   2
BRANCH   1  24
ATOM     24  C   UNL     1       3.269   1.920   2.821  1.00  0.00     0.042 C 
BRANCH  24  25
ATOM     25  C   UNL     1       3.838   3.323   2.843  1.00  0.00     0.118 C 
BRANCH  25  26
ATOM     26  N   UNL     1       3.465   4.139   1.688  1.00  0.00    -0.352 N 
ATOM     27  C   UNL     1       2.663   5.254   1.558  1.00  0.00     0.251 C 
ATOM     28  H   UNL     1       3.862   3.833   0.840  1.00  0.00     0.163 HD
ATOM     29  O   UNL     1       2.420   5.687   0.440  1.00  0.00    -0.269 OA
BRANCH  27  30
ATOM     30  C   UNL     1       2.056   5.910   2.743  1.00  0.00     0.039 A 
ATOM     31  C   UNL     1       0.790   6.495   2.626  1.00  0.00     0.014 A 
ATOM     32  C   UNL     1       2.715   5.960   3.968  1.00  0.00     0.014 A 
ATOM     33  C   UNL     1       0.162   7.030   3.756  1.00  0.00     0.010 A 
ATOM     34  C   UNL     1       2.030   6.341   5.114  1.00  0.00     0.010 A 
ATOM     35  C   UNL     1       0.752   6.903   5.024  1.00  0.00    -0.014 A 
BRANCH  35  36
ATOM     36  C   UNL     1       0.069   7.371   6.258  1.00  0.00     0.031 A 
ATOM     37  C   UNL     1       0.728   8.390   7.154  1.00  0.00     0.074 A 
ATOM     38  C   UNL     1      -1.117   6.834   6.609  1.00  0.00     0.049 A 
ATOM     39  N   UNL     1       0.301   8.896   8.284  1.00  0.00    -0.248 NA
ATOM     40  C   UNL     1       2.058   8.879   6.751  1.00  0.00     0.031 C 
ATOM     41  C   UNL     1      -1.830   5.788   5.871  1.00  0.00     0.029 A 
ATOM     42  N   UNL     1      -1.935   7.097   7.679  1.00  0.00    -0.354 N 
ATOM     43  C   UNL     1       1.315   9.735   8.730  1.00  0.00     0.074 A 
ATOM     44  C   UNL     1       2.408   9.616   7.792  1.00  0.00     0.031 C 
ATOM     45  C   UNL     1      -3.001   5.540   6.478  1.00  0.00     0.029 A 
ATOM     46  C   UNL     1      -3.102   6.370   7.672  1.00  0.00     0.049 A 
ATOM     47  H   UNL     1      -1.708   7.745   8.385  1.00  0.00     0.167 HD
ATOM     48  C   UNL     1       1.329  10.560   9.804  1.00  0.00     0.031 A 
ATOM     49  C   UNL     1      -4.140   6.376   8.529  1.00  0.00     0.031 A 
ATOM     50  C   UNL     1       0.235  10.695  10.726  1.00  0.00     0.049 A 
ATOM     51  C   UNL     1      -4.107   7.308   9.708  1.00  0.00     0.074 A 
ATOM     52  C   UNL     1       0.120  11.550  11.808  1.00  0.00     0.029 A 
ATOM     53  N   UNL     1      -0.934   9.952  10.675  1.00  0.00    -0.354 N 
ATOM     54  N   UNL     1      -3.176   8.159  10.065  1.00  0.00    -0.248 NA
ATOM     55  C   UNL     1      -5.281   7.291  10.592  1.00  0.00     0.031 C 
ATOM     56  C   UNL     1      -1.096  11.282  12.446  1.00  0.00     0.029 A 
ATOM     57  C   UNL     1      -1.766  10.309  11.721  1.00  0.00     0.049 A 
ATOM     58  H   UNL     1      -1.141   9.271   9.994  1.00  0.00     0.167 HD
ATOM     59  C   UNL     1      -3.661   8.798  11.198  1.00  0.00     0.074 A 
ATOM     60  C   UNL     1      -4.980   8.254  11.451  1.00  0.00     0.031 C 
ATOM     61  C   UNL     1      -3.071   9.749  11.963  1.00  0.00     0.031 A 
BRANCH  48  62
ATOM     62  C   UNL     1       2.572  11.379  10.033  1.00  0.00    -0.014 A 
ATOM     63  C   UNL     1       2.943  12.408   9.151  1.00  0.00     0.009 A 
ATOM     64  C   UNL     1       3.373  11.134  11.159  1.00  0.00     0.009 A 
ATOM     65  C   UNL     1       4.111  13.143   9.367  1.00  0.00     0.001 A 
ATOM     66  C   UNL     1       4.521  11.894  11.393  1.00  0.00     0.001 A 
ATOM     67  C   UNL     1       4.895  12.889  10.491  1.00  0.00     0.000 A 
ENDBRANCH  48  62
BRANCH  49  68
ATOM     68  C   UNL     1      -5.313   5.492   8.289  1.00  0.00    -0.014 A 
ATOM     69  C   UNL     1      -6.555   6.037   7.928  1.00  0.00     0.009 A 
ATOM     70  C   UNL     1      -5.200   4.100   8.428  1.00  0.00     0.009 A 
ATOM     71  C   UNL     1      -7.666   5.211   7.743  1.00  0.00     0.001 A 
ATOM     72  C   UNL     1      -6.304   3.273   8.210  1.00  0.00     0.001 A 
ATOM     73  C   UNL     1      -7.539   3.830   7.879  1.00  0.00     0.000 A 
ENDBRANCH  49  68
BRANCH  61  74
ATOM     74  C   UNL     1      -3.865  10.280  13.125  1.00  0.00    -0.014 A 
ATOM     75  C   UNL     1      -4.139   9.487  14.250  1.00  0.00     0.009 A 
ATOM     76  C   UNL     1      -4.332  11.604  13.097  1.00  0.00     0.009 A 
ATOM     77  C   UNL     1      -4.909   9.992  15.299  1.00  0.00     0.001 A 
ATOM     78  C   UNL     1      -5.069  12.118  14.163  1.00  0.00     0.001 A 
ATOM     79  C   UNL     1      -5.370  11.307  15.256  1.00  0.00     0.000 A 
ENDBRANCH  61  74
ENDBRANCH  35  36
ENDBRANCH  27  30
ENDBRANCH  25  26
ENDBRANCH  24  25
ENDBRANCH   1  24
TORSDOF 15
