REMARK SMILES O=C(NCCCNC(=O)[C@H](CO)NC(=O)[C@H](CS)NC(=O)[C@H](Cc1c[nH]c2ccccc12)NC(=O)c1ccc(F)cc1)c1ccc(-c2c3nc(c(-c4ccccc4)c4ccc([nH]4)c(-c4ccccc4)c4nc(c(-c5ccccc5)c5ccc2[nH]5)C=C4)C=C3)cc1
REMARK SMILES IDX 7 1 8 2 9 3 6 5 5 6 4 7 3 8 1 9 2 10 43 12 44 13 90 14 45 15
REMARK SMILES IDX 89 16 46 17 47 18 48 19 83 20 49 21 88 22 82 23 84 24 50 25
REMARK SMILES IDX 87 26 81 27 80 28 51 30 73 31 58 32 72 33 59 34 62 35 71 36
REMARK SMILES IDX 85 37 60 38 61 39 70 41 86 42 63 43 52 44 53 45 57 46 54 47
REMARK SMILES IDX 56 48 55 49 74 50 75 51 79 52 76 53 78 54 77 55 64 56 65 57
REMARK SMILES IDX 69 58 66 59 68 60 67 61 10 62 13 63 14 64 15 66 16 67 19 68
REMARK SMILES IDX 20 69 21 71 22 72 33 73 34 74 35 76 36 77 37 78 42 79 38 80
REMARK SMILES IDX 41 81 39 82 40 83 23 84 24 85 25 86 32 87 26 88 27 89 31 90
REMARK SMILES IDX 28 92 30 93 29 94 17 95 18 96 11 98 12 99
REMARK H PARENT 7 4 3 11 84 29 62 40 13 65 19 70 33 75 26 91 18 97 12 100
REMARK Flexibility Score: inf
ROOT
ATOM      1  N   UNL     1       1.865  11.053   7.153  1.00  0.00    -0.354 N 
ATOM      2  C   UNL     1       3.021  10.409   6.861  1.00  0.00     0.244 C 
ATOM      3  O   UNL     1       2.921   9.232   6.493  1.00  0.00    -0.273 OA
ATOM      4  H   UNL     1       1.066  10.478   7.122  1.00  0.00     0.163 HD
ENDROOT
BRANCH   1   5
ATOM      5  C   UNL     1       1.588  12.432   7.502  1.00  0.00     0.117 C 
BRANCH   5   6
ATOM      6  C   UNL     1       1.210  13.224   6.257  1.00  0.00     0.042 C 
BRANCH   6   7
ATOM      7  C   UNL     1      -0.137  12.787   5.702  1.00  0.00     0.118 C 
BRANCH   7   8
ATOM      8  N   UNL     1      -1.206  13.047   6.657  1.00  0.00    -0.352 N 
ATOM      9  O   UNL     1      -2.806  14.321   7.599  1.00  0.00    -0.269 OA
ATOM     10  C   UNL     1      -2.200  13.984   6.589  1.00  0.00     0.251 C 
ATOM     11  H   UNL     1      -1.214  12.472   7.456  1.00  0.00     0.163 HD
BRANCH  10  12
ATOM     12  C   UNL     1      -2.554  14.553   5.277  1.00  0.00     0.039 A 
ATOM     13  C   UNL     1      -2.611  13.719   4.156  1.00  0.00     0.014 A 
ATOM     14  C   UNL     1      -2.901  15.902   5.180  1.00  0.00     0.014 A 
ATOM     15  C   UNL     1      -2.930  14.247   2.918  1.00  0.00     0.010 A 
ATOM     16  C   UNL     1      -3.320  16.412   3.952  1.00  0.00     0.010 A 
ATOM     17  C   UNL     1      -3.347  15.582   2.821  1.00  0.00    -0.014 A 
BRANCH  17  18
ATOM     18  C   UNL     1      -3.979  16.029   1.563  1.00  0.00     0.031 A 
ATOM     19  C   UNL     1      -3.352  17.084   0.708  1.00  0.00     0.074 A 
ATOM     20  C   UNL     1      -5.149  15.454   1.220  1.00  0.00     0.049 A 
ATOM     21  N   UNL     1      -3.798  17.597  -0.408  1.00  0.00    -0.248 NA
ATOM     22  C   UNL     1      -2.067  17.642   1.159  1.00  0.00     0.031 C 
ATOM     23  C   UNL     1      -5.844  14.422   2.001  1.00  0.00     0.029 A 
ATOM     24  N   UNL     1      -5.957  15.639   0.131  1.00  0.00    -0.354 N 
ATOM     25  C   UNL     1      -2.867  18.555  -0.782  1.00  0.00     0.074 A 
ATOM     26  C   UNL     1      -1.832  18.559   0.229  1.00  0.00     0.031 C 
ATOM     27  C   UNL     1      -6.951  14.044   1.349  1.00  0.00     0.029 A 
ATOM     28  C   UNL     1      -7.087  14.858   0.151  1.00  0.00     0.049 A 
ATOM     29  H   UNL     1      -5.749  16.271  -0.596  1.00  0.00     0.167 HD
ATOM     30  C   UNL     1      -2.890  19.358  -1.870  1.00  0.00     0.031 A 
ATOM     31  C   UNL     1      -8.141  14.829  -0.683  1.00  0.00     0.031 A 
ATOM     32  C   UNL     1      -3.930  19.335  -2.866  1.00  0.00     0.049 A 
ATOM     33  C   UNL     1      -8.150  15.765  -1.852  1.00  0.00     0.074 A 
ATOM     34  C   UNL     1      -4.012  20.063  -4.040  1.00  0.00     0.029 A 
ATOM     35  N   UNL     1      -5.074  18.555  -2.795  1.00  0.00    -0.354 N 
ATOM     36  N   UNL     1      -7.227  16.616  -2.231  1.00  0.00    -0.248 NA
ATOM     37  C   UNL     1      -9.347  15.748  -2.701  1.00  0.00     0.031 C 
ATOM     38  C   UNL     1      -5.237  19.773  -4.646  1.00  0.00     0.029 A 
ATOM     39  C   UNL     1      -5.892  18.822  -3.880  1.00  0.00     0.049 A 
ATOM     40  H   UNL     1      -5.275  17.909  -2.080  1.00  0.00     0.167 HD
ATOM     41  C   UNL     1      -7.729  17.234  -3.365  1.00  0.00     0.074 A 
ATOM     42  C   UNL     1      -9.022  16.634  -3.632  1.00  0.00     0.031 C 
ATOM     43  C   UNL     1      -7.178  18.218  -4.114  1.00  0.00     0.031 A 
BRANCH  30  44
ATOM     44  C   UNL     1      -1.783  20.360  -2.036  1.00  0.00    -0.014 A 
ATOM     45  C   UNL     1      -0.497  19.971  -2.438  1.00  0.00     0.009 A 
ATOM     46  C   UNL     1      -2.062  21.727  -1.875  1.00  0.00     0.009 A 
ATOM     47  C   UNL     1       0.492  20.932  -2.664  1.00  0.00     0.001 A 
ATOM     48  C   UNL     1      -1.079  22.686  -2.122  1.00  0.00     0.001 A 
ATOM     49  C   UNL     1       0.198  22.288  -2.514  1.00  0.00     0.000 A 
ENDBRANCH  30  44
BRANCH  31  50
ATOM     50  C   UNL     1      -9.294  13.936  -0.398  1.00  0.00    -0.014 A 
ATOM     51  C   UNL     1      -9.604  12.865  -1.247  1.00  0.00     0.009 A 
ATOM     52  C   UNL     1     -10.100  14.161   0.731  1.00  0.00     0.009 A 
ATOM     53  C   UNL     1     -10.714  12.057  -0.989  1.00  0.00     0.001 A 
ATOM     54  C   UNL     1     -11.187  13.331   1.006  1.00  0.00     0.001 A 
ATOM     55  C   UNL     1     -11.501  12.287   0.139  1.00  0.00     0.000 A 
ENDBRANCH  31  50
BRANCH  43  56
ATOM     56  C   UNL     1      -7.975  18.697  -5.291  1.00  0.00    -0.014 A 
ATOM     57  C   UNL     1      -9.116  19.494  -5.111  1.00  0.00     0.009 A 
ATOM     58  C   UNL     1      -7.561  18.377  -6.592  1.00  0.00     0.009 A 
ATOM     59  C   UNL     1      -9.846  19.936  -6.214  1.00  0.00     0.001 A 
ATOM     60  C   UNL     1      -8.275  18.847  -7.694  1.00  0.00     0.001 A 
ATOM     61  C   UNL     1      -9.421  19.618  -7.504  1.00  0.00     0.000 A 
ENDBRANCH  43  56
ENDBRANCH  17  18
ENDBRANCH  10  12
ENDBRANCH   7   8
ENDBRANCH   6   7
ENDBRANCH   5   6
ENDBRANCH   1   5
BRANCH   2  62
ATOM     62  C   UNL     1       4.416  10.982   7.164  1.00  0.00     0.197 C 
BRANCH  62  63
ATOM     63  N   UNL     1       4.526  12.439   7.073  1.00  0.00    -0.340 N 
ATOM     64  C   UNL     1       4.603  13.272   6.001  1.00  0.00     0.244 C 
ATOM     65  H   UNL     1       4.548  12.898   7.944  1.00  0.00     0.164 HD
ATOM     66  O   UNL     1       4.288  14.447   6.214  1.00  0.00    -0.273 OA
BRANCH  64  67
ATOM     67  C   UNL     1       5.282  12.840   4.686  1.00  0.00     0.181 C 
BRANCH  67  68
ATOM     68  N   UNL     1       4.890  11.525   4.174  1.00  0.00    -0.342 N 
ATOM     69  C   UNL     1       5.697  10.484   3.789  1.00  0.00     0.243 C 
ATOM     70  H   UNL     1       3.921  11.368   4.095  1.00  0.00     0.164 HD
ATOM     71  O   UNL     1       5.156   9.530   3.231  1.00  0.00    -0.273 OA
BRANCH  69  72
ATOM     72  C   UNL     1       7.227  10.545   4.046  1.00  0.00     0.176 C 
BRANCH  72  73
ATOM     73  N   UNL     1       7.450  10.564   5.501  1.00  0.00    -0.340 N 
ATOM     74  C   UNL     1       8.262  11.246   6.362  1.00  0.00     0.251 C 
ATOM     75  H   UNL     1       6.868   9.925   5.972  1.00  0.00     0.164 HD
ATOM     76  O   UNL     1       8.233  10.864   7.535  1.00  0.00    -0.269 OA
BRANCH  74  77
ATOM     77  C   UNL     1       9.130  12.415   6.032  1.00  0.00     0.040 A 
ATOM     78  C   UNL     1       8.931  13.312   4.979  1.00  0.00     0.017 A 
ATOM     79  C   UNL     1      10.168  12.694   6.943  1.00  0.00     0.017 A 
ATOM     80  C   UNL     1       9.715  14.465   4.851  1.00  0.00     0.040 A 
ATOM     81  C   UNL     1      10.962  13.837   6.812  1.00  0.00     0.040 A 
ATOM     82  C   UNL     1      10.720  14.719   5.770  1.00  0.00     0.123 A 
ATOM     83  F   UNL     1      11.457  15.830   5.654  1.00  0.00    -0.207 F 
ENDBRANCH  74  77
ENDBRANCH  72  73
BRANCH  72  84
ATOM     84  C   UNL     1       7.917   9.317   3.418  1.00  0.00     0.072 C 
BRANCH  84  85
ATOM     85  C   UNL     1       9.410   9.335   3.575  1.00  0.00    -0.020 A 
ATOM     86  C   UNL     1      10.250  10.408   3.346  1.00  0.00     0.087 A 
ATOM     87  C   UNL     1      10.245   8.240   3.977  1.00  0.00     0.003 A 
ATOM     88  N   UNL     1      11.523  10.042   3.684  1.00  0.00    -0.361 N 
ATOM     89  C   UNL     1      11.555   8.716   4.038  1.00  0.00     0.046 A 
ATOM     90  C   UNL     1      10.011   6.885   4.294  1.00  0.00     0.010 A 
ATOM     91  H   UNL     1      12.303  10.642   3.675  1.00  0.00     0.166 HD
ATOM     92  C   UNL     1      12.640   7.912   4.403  1.00  0.00     0.026 A 
ATOM     93  C   UNL     1      11.089   6.061   4.642  1.00  0.00     0.001 A 
ATOM     94  C   UNL     1      12.384   6.571   4.696  1.00  0.00     0.002 A 
ENDBRANCH  84  85
ENDBRANCH  72  84
ENDBRANCH  69  72
ENDBRANCH  67  68
BRANCH  67  95
ATOM     95  C   UNL     1       5.154  13.886   3.559  1.00  0.00     0.101 C 
BRANCH  95  96
ATOM     96  S   UNL     1       5.942  15.499   3.885  1.00  0.00    -0.177 SA
ATOM     97  H   UNL     1       5.338  16.091   4.950  1.00  0.00     0.102 HD
ENDBRANCH  95  96
ENDBRANCH  67  95
ENDBRANCH  64  67
ENDBRANCH  62  63
BRANCH  62  98
ATOM     98  C   UNL     1       4.880  10.465   8.546  1.00  0.00     0.191 C 
BRANCH  98  99
ATOM     99  O   UNL     1       4.253   9.267   8.996  1.00  0.00    -0.394 OA
ATOM    100  H   UNL     1       3.303   9.422   9.112  1.00  0.00     0.210 HD
ENDBRANCH  98  99
ENDBRANCH  62  98
ENDBRANCH   2  62
TORSDOF 22
