REMARK SMILES CC(C)(C)[N@H+](CCC(=O)NCCCNC(=O)c1ccc(-c2c3nc(c(-c4ccccc4)c4ccc([nH]4)c(-c4ccccc4)c4nc(c(-c5ccccc5)c5ccc2[nH]5)C=C4)C=C3)cc1)Cc1ccccc1C1CC1
REMARK SMILES IDX 8 1 9 2 10 3 7 5 6 6 5 7 2 9 1 10 3 11 4 12 65 13 66 14
REMARK SMILES IDX 67 15 71 16 68 17 70 18 69 19 72 20 73 21 74 22 11 23 12 24
REMARK SMILES IDX 13 25 14 26 15 27 16 29 17 30 18 31 64 32 19 33 63 34 20 35
REMARK SMILES IDX 21 36 22 37 57 38 23 39 62 40 56 41 58 42 24 43 61 44 55 45
REMARK SMILES IDX 54 46 25 48 47 49 32 50 46 51 33 52 36 53 45 54 59 55 34 56
REMARK SMILES IDX 35 57 44 59 60 60 37 61 26 62 27 63 31 64 28 65 30 66 29 67
REMARK SMILES IDX 48 68 49 69 53 70 50 71 52 72 51 73 38 74 39 75 43 76 40 77
REMARK SMILES IDX 42 78 41 79
REMARK H PARENT 10 4 5 8 14 28 58 47 36 58
REMARK Flexibility Score: inf
ROOT
ATOM      1  C   UNL     1       2.090   4.216   2.063  1.00  0.00     0.225 C 
ATOM      2  O   UNL     1       2.665   5.101   2.698  1.00  0.00    -0.275 OA
ATOM      3  N   UNL     1       0.822   3.856   2.444  1.00  0.00    -0.356 N 
ATOM      4  H   UNL     1       0.712   3.178   3.149  1.00  0.00     0.163 HD
ENDROOT
BRANCH   1   5
ATOM      5  C   UNL     1       2.797   3.474   0.943  1.00  0.00     0.161 C 
BRANCH   5   6
ATOM      6  C   UNL     1       2.193   2.135   0.526  1.00  0.00     0.272 C 
BRANCH   6   7
ATOM      7  N   UNL     1       1.612   1.981  -0.828  1.00  0.00    -0.327 N 
ATOM      8  H   UNL     1       2.391   1.960  -1.486  1.00  0.00     0.348 HD
BRANCH   7   9
ATOM      9  C   UNL     1       0.933   0.645  -1.001  1.00  0.00     0.089 C 
ATOM     10  C   UNL     1       1.739  -0.532  -0.371  1.00  0.00     0.078 C 
ATOM     11  C   UNL     1       0.818   0.295  -2.501  1.00  0.00     0.078 C 
ATOM     12  C   UNL     1      -0.474   0.593  -0.372  1.00  0.00     0.078 C 
ENDBRANCH   7   9
BRANCH   7  13
ATOM     13  C   UNL     1       0.844   3.172  -1.300  1.00  0.00     0.299 C 
BRANCH  13  14
ATOM     14  C   UNL     1       1.646   4.217  -2.088  1.00  0.00     0.010 A 
ATOM     15  C   UNL     1       2.471   3.657  -3.102  1.00  0.00     0.010 A 
ATOM     16  C   UNL     1       1.514   5.640  -2.026  1.00  0.00    -0.036 A 
ATOM     17  C   UNL     1       3.115   4.427  -4.065  1.00  0.00     0.001 A 
ATOM     18  C   UNL     1       2.178   6.372  -3.056  1.00  0.00     0.004 A 
ATOM     19  C   UNL     1       2.956   5.795  -4.052  1.00  0.00     0.000 A 
BRANCH  16  20
ATOM     20  C   UNL     1       0.654   6.550  -1.126  1.00  0.00     0.020 C 
ATOM     21  C   UNL     1       0.736   6.954   0.327  1.00  0.00     0.009 C 
ATOM     22  C   UNL     1       1.447   7.798  -0.642  1.00  0.00     0.009 C 
ENDBRANCH  16  20
ENDBRANCH  13  14
ENDBRANCH   7  13
ENDBRANCH   6   7
ENDBRANCH   5   6
ENDBRANCH   1   5
BRANCH   3  23
ATOM     23  C   UNL     1      -0.367   4.444   1.842  1.00  0.00     0.117 C 
BRANCH  23  24
ATOM     24  C   UNL     1      -1.552   3.494   1.788  1.00  0.00     0.042 C 
BRANCH  24  25
ATOM     25  C   UNL     1      -2.833   4.213   1.395  1.00  0.00     0.118 C 
BRANCH  25  26
ATOM     26  N   UNL     1      -3.048   4.433  -0.034  1.00  0.00    -0.352 N 
ATOM     27  C   UNL     1      -4.176   5.042  -0.578  1.00  0.00     0.251 C 
ATOM     28  H   UNL     1      -2.346   4.129  -0.654  1.00  0.00     0.163 HD
ATOM     29  O   UNL     1      -4.424   5.036  -1.766  1.00  0.00    -0.269 OA
BRANCH  27  30
ATOM     30  C   UNL     1      -5.094   5.674   0.397  1.00  0.00     0.039 A 
ATOM     31  C   UNL     1      -6.286   5.030   0.733  1.00  0.00     0.014 A 
ATOM     32  C   UNL     1      -4.586   6.710   1.179  1.00  0.00     0.014 A 
ATOM     33  C   UNL     1      -6.905   5.347   1.944  1.00  0.00     0.010 A 
ATOM     34  C   UNL     1      -5.141   6.935   2.432  1.00  0.00     0.010 A 
ATOM     35  C   UNL     1      -6.295   6.246   2.838  1.00  0.00    -0.014 A 
BRANCH  35  36
ATOM     36  C   UNL     1      -6.830   6.455   4.211  1.00  0.00     0.031 A 
ATOM     37  C   UNL     1      -7.242   7.833   4.654  1.00  0.00     0.074 A 
ATOM     38  C   UNL     1      -6.874   5.430   5.089  1.00  0.00     0.049 A 
ATOM     39  N   UNL     1      -7.711   8.221   5.814  1.00  0.00    -0.248 NA
ATOM     40  C   UNL     1      -7.064   8.925   3.684  1.00  0.00     0.031 C 
ATOM     41  C   UNL     1      -6.416   4.061   4.832  1.00  0.00     0.029 A 
ATOM     42  N   UNL     1      -7.332   5.382   6.384  1.00  0.00    -0.354 N 
ATOM     43  C   UNL     1      -7.861   9.598   5.713  1.00  0.00     0.074 A 
ATOM     44  C   UNL     1      -7.358   9.988   4.415  1.00  0.00     0.031 C 
ATOM     45  C   UNL     1      -6.665   3.301   5.912  1.00  0.00     0.029 A 
ATOM     46  C   UNL     1      -7.276   4.128   6.946  1.00  0.00     0.049 A 
ATOM     47  H   UNL     1      -7.670   6.172   6.864  1.00  0.00     0.167 HD
ATOM     48  C   UNL     1      -8.409  10.463   6.598  1.00  0.00     0.031 A 
ATOM     49  C   UNL     1      -7.691   3.691   8.151  1.00  0.00     0.031 A 
ATOM     50  C   UNL     1      -8.946  10.081   7.873  1.00  0.00     0.049 A 
ATOM     51  C   UNL     1      -8.347   4.657   9.099  1.00  0.00     0.074 A 
ATOM     52  C   UNL     1      -9.584  10.870   8.813  1.00  0.00     0.029 A 
ATOM     53  N   UNL     1      -8.915   8.793   8.380  1.00  0.00    -0.354 N 
ATOM     54  N   UNL     1      -8.570   5.940   8.947  1.00  0.00    -0.248 NA
ATOM     55  C   UNL     1      -8.829   4.110  10.376  1.00  0.00     0.031 C 
ATOM     56  C   UNL     1      -9.917  10.061   9.905  1.00  0.00     0.029 A 
ATOM     57  C   UNL     1      -9.520   8.764   9.624  1.00  0.00     0.049 A 
ATOM     58  H   UNL     1      -8.522   8.014   7.924  1.00  0.00     0.167 HD
ATOM     59  C   UNL     1      -9.241   6.346  10.093  1.00  0.00     0.074 A 
ATOM     60  C   UNL     1      -9.404   5.171  10.923  1.00  0.00     0.031 C 
ATOM     61  C   UNL     1      -9.681   7.583  10.430  1.00  0.00     0.031 A 
BRANCH  48  62
ATOM     62  C   UNL     1      -8.473  11.906   6.184  1.00  0.00    -0.014 A 
ATOM     63  C   UNL     1      -9.337  12.323   5.158  1.00  0.00     0.009 A 
ATOM     64  C   UNL     1      -7.658  12.857   6.815  1.00  0.00     0.009 A 
ATOM     65  C   UNL     1      -9.347  13.653   4.737  1.00  0.00     0.001 A 
ATOM     66  C   UNL     1      -7.693  14.194   6.413  1.00  0.00     0.001 A 
ATOM     67  C   UNL     1      -8.526  14.587   5.366  1.00  0.00     0.000 A 
ENDBRANCH  48  62
BRANCH  49  68
ATOM     68  C   UNL     1      -7.558   2.255   8.518  1.00  0.00    -0.014 A 
ATOM     69  C   UNL     1      -8.693   1.429   8.572  1.00  0.00     0.009 A 
ATOM     70  C   UNL     1      -6.307   1.709   8.841  1.00  0.00     0.009 A 
ATOM     71  C   UNL     1      -8.582   0.096   8.974  1.00  0.00     0.001 A 
ATOM     72  C   UNL     1      -6.196   0.367   9.217  1.00  0.00     0.001 A 
ATOM     73  C   UNL     1      -7.334  -0.435   9.293  1.00  0.00     0.000 A 
ENDBRANCH  49  68
BRANCH  61  74
ATOM     74  C   UNL     1     -10.410   7.722  11.734  1.00  0.00    -0.014 A 
ATOM     75  C   UNL     1      -9.724   7.681  12.957  1.00  0.00     0.009 A 
ATOM     76  C   UNL     1     -11.795   7.948  11.734  1.00  0.00     0.009 A 
ATOM     77  C   UNL     1     -10.418   7.835  14.159  1.00  0.00     0.001 A 
ATOM     78  C   UNL     1     -12.482   8.127  12.936  1.00  0.00     0.001 A 
ATOM     79  C   UNL     1     -11.794   8.063  14.147  1.00  0.00     0.000 A 
ENDBRANCH  61  74
ENDBRANCH  35  36
ENDBRANCH  27  30
ENDBRANCH  25  26
ENDBRANCH  24  25
ENDBRANCH  23  24
ENDBRANCH   3  23
TORSDOF 16
