REMARK SMILES C[C@H](C(=O)NCCCNC(=O)c1ccc(-c2c3nc(c(-c4ccccc4)c4ccc([nH]4)c(-c4ccccc4)c4nc(c(-c5ccccc5)c5ccc2[nH]5)C=C4)C=C3)cc1)N1C(=O)C[C@@H](N2C(=O)/C(=C/c3ccccc3)SC2=S)C1=O
REMARK SMILES IDX 6 1 5 2 3 3 4 4 2 6 1 7 60 8 61 9 79 10 62 11 63 12 64 13
REMARK SMILES IDX 80 14 65 15 66 16 77 17 67 18 68 19 76 20 78 21 69 22 70 23
REMARK SMILES IDX 71 24 75 25 72 26 74 27 73 28 7 29 8 30 9 31 10 32 11 34
REMARK SMILES IDX 12 35 13 36 59 37 14 38 58 39 15 40 16 41 17 42 52 43 18 44
REMARK SMILES IDX 57 45 51 46 53 47 19 48 56 49 50 50 49 51 20 53 42 54 27 55
REMARK SMILES IDX 41 56 28 57 31 58 40 59 54 60 29 61 30 62 39 64 55 65 32 66
REMARK SMILES IDX 21 67 22 68 26 69 23 70 25 71 24 72 43 73 44 74 48 75 45 76
REMARK SMILES IDX 47 77 46 78 33 79 34 80 38 81 35 82 37 83 36 84
REMARK H PARENT 5 5 9 33 53 52 31 63
REMARK Flexibility Score: inf
ROOT
ATOM      1  C   UNL     1       0.821   2.529   0.297  1.00  0.00     0.117 C 
ENDROOT
BRANCH   1   2
ATOM      2  N   UNL     1       1.099   1.141   0.623  1.00  0.00    -0.354 N 
ATOM      3  C   UNL     1       0.960   0.013  -0.133  1.00  0.00     0.243 C 
ATOM      4  O   UNL     1       1.187  -1.062   0.427  1.00  0.00    -0.273 OA
ATOM      5  H   UNL     1       1.441   0.991   1.534  1.00  0.00     0.163 HD
BRANCH   3   6
ATOM      6  C   UNL     1       0.458   0.100  -1.583  1.00  0.00     0.179 C 
ATOM      7  C   UNL     1       1.090  -0.996  -2.441  1.00  0.00     0.042 C 
BRANCH   6   8
ATOM      8  N   UNL     1      -1.006   0.087  -1.591  1.00  0.00    -0.268 N 
ATOM      9  C   UNL     1      -1.749   1.219  -1.780  1.00  0.00     0.232 C 
ATOM     10  C   UNL     1      -1.792  -1.028  -1.468  1.00  0.00     0.253 C 
ATOM     11  O   UNL     1      -1.332   2.353  -1.970  1.00  0.00    -0.274 OA
ATOM     12  C   UNL     1      -3.206   0.900  -1.646  1.00  0.00     0.136 C 
ATOM     13  C   UNL     1      -3.241  -0.616  -1.653  1.00  0.00     0.191 C 
ATOM     14  O   UNL     1      -1.435  -2.189  -1.339  1.00  0.00    -0.272 OA
BRANCH  13  15
ATOM     15  N   UNL     1      -3.790  -1.212  -2.883  1.00  0.00    -0.280 N 
ATOM     16  C   UNL     1      -3.240  -0.869  -4.106  1.00  0.00     0.266 C 
ATOM     17  C   UNL     1      -4.849  -2.096  -2.923  1.00  0.00     0.149 C 
ATOM     18  O   UNL     1      -2.283  -0.124  -4.273  1.00  0.00    -0.268 OA
ATOM     19  C   UNL     1      -3.990  -1.496  -5.218  1.00  0.00     0.081 C 
ATOM     20  S   UNL     1      -5.218  -2.515  -4.593  1.00  0.00    -0.054 SA
ATOM     21  S   UNL     1      -5.752  -2.685  -1.651  1.00  0.00    -0.052 S 
ATOM     22  C   UNL     1      -3.695  -1.215  -6.494  1.00  0.00     0.029 C 
BRANCH  22  23
ATOM     23  C   UNL     1      -4.421  -1.694  -7.672  1.00  0.00    -0.024 A 
ATOM     24  C   UNL     1      -3.753  -2.455  -8.636  1.00  0.00     0.008 A 
ATOM     25  C   UNL     1      -5.763  -1.349  -7.877  1.00  0.00     0.008 A 
ATOM     26  C   UNL     1      -4.429  -2.890  -9.779  1.00  0.00     0.001 A 
ATOM     27  C   UNL     1      -6.436  -1.784  -9.018  1.00  0.00     0.001 A 
ATOM     28  C   UNL     1      -5.770  -2.557  -9.967  1.00  0.00     0.000 A 
ENDBRANCH  22  23
ENDBRANCH  13  15
ENDBRANCH   6   8
ENDBRANCH   3   6
ENDBRANCH   1   2
BRANCH   1  29
ATOM     29  C   UNL     1      -0.456   3.018   0.976  1.00  0.00     0.042 C 
BRANCH  29  30
ATOM     30  C   UNL     1      -0.332   3.171   2.489  1.00  0.00     0.118 C 
BRANCH  30  31
ATOM     31  N   UNL     1       0.653   4.171   2.866  1.00  0.00    -0.352 N 
ATOM     32  C   UNL     1       0.545   5.279   3.664  1.00  0.00     0.251 C 
ATOM     33  H   UNL     1       1.549   4.028   2.484  1.00  0.00     0.163 HD
ATOM     34  O   UNL     1       1.463   6.096   3.675  1.00  0.00    -0.269 OA
BRANCH  32  35
ATOM     35  C   UNL     1      -0.653   5.516   4.500  1.00  0.00     0.039 A 
ATOM     36  C   UNL     1      -1.082   6.835   4.674  1.00  0.00     0.014 A 
ATOM     37  C   UNL     1      -1.315   4.478   5.162  1.00  0.00     0.014 A 
ATOM     38  C   UNL     1      -2.192   7.106   5.474  1.00  0.00     0.010 A 
ATOM     39  C   UNL     1      -2.472   4.742   5.896  1.00  0.00     0.010 A 
ATOM     40  C   UNL     1      -2.917   6.060   6.069  1.00  0.00    -0.014 A 
BRANCH  40  41
ATOM     41  C   UNL     1      -4.145   6.353   6.851  1.00  0.00     0.031 A 
ATOM     42  C   UNL     1      -4.214   6.060   8.325  1.00  0.00     0.074 A 
ATOM     43  C   UNL     1      -5.212   6.881   6.220  1.00  0.00     0.049 A 
ATOM     44  N   UNL     1      -5.184   6.311   9.169  1.00  0.00    -0.248 NA
ATOM     45  C   UNL     1      -3.056   5.383   8.929  1.00  0.00     0.031 C 
ATOM     46  C   UNL     1      -5.289   7.166   4.785  1.00  0.00     0.029 A 
ATOM     47  N   UNL     1      -6.429   7.288   6.706  1.00  0.00    -0.354 N 
ATOM     48  C   UNL     1      -4.756   5.821  10.397  1.00  0.00     0.074 A 
ATOM     49  C   UNL     1      -3.465   5.207  10.177  1.00  0.00     0.031 C 
ATOM     50  C   UNL     1      -6.468   7.748   4.516  1.00  0.00     0.029 A 
ATOM     51  C   UNL     1      -7.245   7.840   5.748  1.00  0.00     0.049 A 
ATOM     52  H   UNL     1      -6.692   7.193   7.650  1.00  0.00     0.167 HD
ATOM     53  C   UNL     1      -5.370   5.894  11.602  1.00  0.00     0.031 A 
ATOM     54  C   UNL     1      -8.478   8.369   5.849  1.00  0.00     0.031 A 
ATOM     55  C   UNL     1      -6.659   6.500  11.820  1.00  0.00     0.049 A 
ATOM     56  C   UNL     1      -9.142   8.426   7.195  1.00  0.00     0.074 A 
ATOM     57  C   UNL     1      -7.343   6.667  13.012  1.00  0.00     0.029 A 
ATOM     58  N   UNL     1      -7.461   7.031  10.822  1.00  0.00    -0.354 N 
ATOM     59  N   UNL     1      -8.688   8.031   8.360  1.00  0.00    -0.248 NA
ATOM     60  C   UNL     1     -10.486   9.019   7.240  1.00  0.00     0.031 C 
ATOM     61  C   UNL     1      -8.586   7.244  12.726  1.00  0.00     0.029 A 
ATOM     62  C   UNL     1      -8.647   7.498  11.366  1.00  0.00     0.049 A 
ATOM     63  H   UNL     1      -7.224   7.070   9.867  1.00  0.00     0.167 HD
ATOM     64  C   UNL     1      -9.679   8.348   9.279  1.00  0.00     0.074 A 
ATOM     65  C   UNL     1     -10.744   8.994   8.540  1.00  0.00     0.031 C 
ATOM     66  C   UNL     1      -9.707   8.123  10.616  1.00  0.00     0.031 A 
BRANCH  53  67
ATOM     67  C   UNL     1      -4.656   5.291  12.783  1.00  0.00    -0.014 A 
ATOM     68  C   UNL     1      -3.480   5.865  13.295  1.00  0.00     0.009 A 
ATOM     69  C   UNL     1      -5.187   4.158  13.419  1.00  0.00     0.009 A 
ATOM     70  C   UNL     1      -2.831   5.293  14.392  1.00  0.00     0.001 A 
ATOM     71  C   UNL     1      -4.553   3.608  14.535  1.00  0.00     0.001 A 
ATOM     72  C   UNL     1      -3.371   4.169  15.015  1.00  0.00     0.000 A 
ENDBRANCH  53  67
BRANCH  54  73
ATOM     73  C   UNL     1      -9.159   8.906   4.641  1.00  0.00    -0.014 A 
ATOM     74  C   UNL     1      -9.386  10.284   4.501  1.00  0.00     0.009 A 
ATOM     75  C   UNL     1      -9.592   8.042   3.624  1.00  0.00     0.009 A 
ATOM     76  C   UNL     1     -10.060  10.781   3.383  1.00  0.00     0.001 A 
ATOM     77  C   UNL     1     -10.236   8.544   2.491  1.00  0.00     0.001 A 
ATOM     78  C   UNL     1     -10.479   9.912   2.377  1.00  0.00     0.000 A 
ENDBRANCH  54  73
BRANCH  66  79
ATOM     79  C   UNL     1     -10.922   8.602  11.361  1.00  0.00    -0.014 A 
ATOM     80  C   UNL     1     -12.176   7.995  11.184  1.00  0.00     0.009 A 
ATOM     81  C   UNL     1     -10.810   9.675  12.259  1.00  0.00     0.009 A 
ATOM     82  C   UNL     1     -13.300   8.486  11.851  1.00  0.00     0.001 A 
ATOM     83  C   UNL     1     -11.928  10.141  12.952  1.00  0.00     0.001 A 
ATOM     84  C   UNL     1     -13.175   9.556  12.736  1.00  0.00     0.000 A 
ENDBRANCH  66  79
ENDBRANCH  40  41
ENDBRANCH  32  35
ENDBRANCH  30  31
ENDBRANCH  29  30
ENDBRANCH   1  29
TORSDOF 13
