REMARK SMILES N#Cc1ccccc1S(=O)(=O)N1CCC(C(=O)NCCCNC(=O)c2ccc(-c3c4nc(c(-c5ccccc5)c5ccc([nH]5)c(-c5ccccc5)c5nc(c(-c6ccccc6)c6ccc3[nH]6)C=C5)C=C4)cc2)CC1
REMARK SMILES IDX 19 1 18 2 16 3 17 4 15 6 12 7 13 8 74 9 14 10 73 11 9 12
REMARK SMILES IDX 10 13 11 14 8 15 3 16 4 17 5 18 7 19 6 20 2 21 1 22 20 23
REMARK SMILES IDX 21 24 22 25 23 26 24 28 25 29 26 30 72 31 27 32 71 33 28 34
REMARK SMILES IDX 29 35 30 36 65 37 31 38 70 39 64 40 66 41 32 42 69 43 63 44
REMARK SMILES IDX 62 45 33 47 55 48 40 49 54 50 41 51 44 52 53 53 67 54 42 55
REMARK SMILES IDX 43 56 52 58 68 59 45 60 34 61 35 62 39 63 36 64 38 65 37 66
REMARK SMILES IDX 56 67 57 68 61 69 58 70 60 71 59 72 46 73 47 74 51 75 48 76
REMARK SMILES IDX 50 77 49 78
REMARK H PARENT 18 5 22 27 66 46 44 57
REMARK Flexibility Score: inf
ROOT
ATOM      1  C   UNL     1      -6.398  -3.397  -0.713  1.00  0.00     0.117 C 
ENDROOT
BRANCH   1   2
ATOM      2  N   UNL     1      -6.944  -2.048  -0.749  1.00  0.00    -0.356 N 
ATOM      3  C   UNL     1      -6.339  -0.838  -0.604  1.00  0.00     0.223 C 
ATOM      4  O   UNL     1      -7.052   0.167  -0.614  1.00  0.00    -0.275 OA
ATOM      5  H   UNL     1      -7.915  -2.004  -0.906  1.00  0.00     0.163 HD
BRANCH   3   6
ATOM      6  C   UNL     1      -4.832  -0.730  -0.444  1.00  0.00     0.081 C 
ATOM      7  N   UNL     1      -2.215  -1.999  -0.242  1.00  0.00    -0.198 NA
ATOM      8  C   UNL     1      -2.917  -1.668   1.008  1.00  0.00     0.103 C 
ATOM      9  C   UNL     1      -2.647  -1.481  -1.550  1.00  0.00     0.103 C 
ATOM     10  C   UNL     1      -4.388  -1.350   0.872  1.00  0.00     0.030 C 
ATOM     11  C   UNL     1      -4.134  -1.253  -1.692  1.00  0.00     0.030 C 
BRANCH   7  12
ATOM     12  S   UNL     1      -0.569  -2.369  -0.088  1.00  0.00     0.244 S 
ATOM     13  O   UNL     1      -0.173  -3.029  -1.316  1.00  0.00    -0.207 OA
ATOM     14  O   UNL     1      -0.386  -3.020   1.193  1.00  0.00    -0.207 OA
BRANCH  12  15
ATOM     15  C   UNL     1       0.423  -0.886  -0.013  1.00  0.00     0.100 A 
ATOM     16  C   UNL     1      -0.003   0.444   0.043  1.00  0.00     0.072 A 
ATOM     17  C   UNL     1       0.959   1.475   0.051  1.00  0.00     0.021 A 
ATOM     18  C   UNL     1       2.321   1.198   0.028  1.00  0.00     0.001 A 
ATOM     19  C   UNL     1       1.810  -1.152  -0.028  1.00  0.00     0.023 A 
ATOM     20  C   UNL     1       2.749  -0.120  -0.003  1.00  0.00     0.001 A 
BRANCH  16  21
ATOM     21  C   UNL     1      -1.347   0.918   0.113  1.00  0.00     0.101 C 
ATOM     22  N   UNL     1      -2.397   1.399   0.177  1.00  0.00    -0.192 NA
ENDBRANCH  16  21
ENDBRANCH  12  15
ENDBRANCH   7  12
ENDBRANCH   3   6
ENDBRANCH   1   2
BRANCH   1  23
ATOM     23  C   UNL     1      -6.866  -4.167   0.509  1.00  0.00     0.042 C 
BRANCH  23  24
ATOM     24  C   UNL     1      -8.372  -4.324   0.572  1.00  0.00     0.118 C 
BRANCH  24  25
ATOM     25  N   UNL     1      -8.896  -5.046  -0.577  1.00  0.00    -0.352 N 
ATOM     26  C   UNL     1      -9.515  -6.266  -0.635  1.00  0.00     0.251 C 
ATOM     27  H   UNL     1      -8.788  -4.589  -1.443  1.00  0.00     0.163 HD
ATOM     28  O   UNL     1      -9.661  -6.827  -1.716  1.00  0.00    -0.269 OA
BRANCH  26  29
ATOM     29  C   UNL     1     -10.000  -6.904   0.605  1.00  0.00     0.039 A 
ATOM     30  C   UNL     1      -9.900  -8.290   0.736  1.00  0.00     0.014 A 
ATOM     31  C   UNL     1     -10.577  -6.143   1.625  1.00  0.00     0.014 A 
ATOM     32  C   UNL     1     -10.352  -8.903   1.904  1.00  0.00     0.010 A 
ATOM     33  C   UNL     1     -10.910  -6.738   2.833  1.00  0.00     0.010 A 
ATOM     34  C   UNL     1     -10.841  -8.130   2.970  1.00  0.00    -0.014 A 
BRANCH  34  35
ATOM     35  C   UNL     1     -11.340  -8.767   4.211  1.00  0.00     0.031 A 
ATOM     36  C   UNL     1     -12.783  -8.602   4.612  1.00  0.00     0.074 A 
ATOM     37  C   UNL     1     -10.494  -9.471   4.986  1.00  0.00     0.049 A 
ATOM     38  N   UNL     1     -13.411  -9.090   5.652  1.00  0.00    -0.248 NA
ATOM     39  C   UNL     1     -13.626  -7.757   3.749  1.00  0.00     0.031 C 
ATOM     40  C   UNL     1      -9.064  -9.662   4.728  1.00  0.00     0.029 A 
ATOM     41  N   UNL     1     -10.718 -10.166   6.146  1.00  0.00    -0.354 N 
ATOM     42  C   UNL     1     -14.708  -8.600   5.572  1.00  0.00     0.074 A 
ATOM     43  C   UNL     1     -14.762  -7.721   4.427  1.00  0.00     0.031 C 
ATOM     44  C   UNL     1      -8.552 -10.465   5.674  1.00  0.00     0.029 A 
ATOM     45  C   UNL     1      -9.603 -10.809   6.625  1.00  0.00     0.049 A 
ATOM     46  H   UNL     1     -11.595 -10.202   6.593  1.00  0.00     0.167 HD
ATOM     47  C   UNL     1     -15.772  -8.878   6.362  1.00  0.00     0.031 A 
ATOM     48  C   UNL     1      -9.449 -11.594   7.707  1.00  0.00     0.031 A 
ATOM     49  C   UNL     1     -15.718  -9.759   7.497  1.00  0.00     0.049 A 
ATOM     50  C   UNL     1     -10.644 -11.882   8.573  1.00  0.00     0.074 A 
ATOM     51  C   UNL     1     -16.746 -10.147   8.338  1.00  0.00     0.029 A 
ATOM     52  N   UNL     1     -14.569 -10.390   7.949  1.00  0.00    -0.354 N 
ATOM     53  N   UNL     1     -11.881 -11.467   8.444  1.00  0.00    -0.248 NA
ATOM     54  C   UNL     1     -10.421 -12.767   9.724  1.00  0.00     0.031 C 
ATOM     55  C   UNL     1     -16.207 -10.966   9.335  1.00  0.00     0.029 A 
ATOM     56  C   UNL     1     -14.859 -11.148   9.071  1.00  0.00     0.049 A 
ATOM     57  H   UNL     1     -13.680 -10.310   7.535  1.00  0.00     0.167 HD
ATOM     58  C   UNL     1     -12.592 -12.071   9.474  1.00  0.00     0.074 A 
ATOM     59  C   UNL     1     -11.649 -12.894  10.204  1.00  0.00     0.031 C 
ATOM     60  C   UNL     1     -13.907 -11.960   9.786  1.00  0.00     0.031 A 
BRANCH  47  61
ATOM     61  C   UNL     1     -17.079  -8.214   6.023  1.00  0.00    -0.014 A 
ATOM     62  C   UNL     1     -17.781  -8.536   4.849  1.00  0.00     0.009 A 
ATOM     63  C   UNL     1     -17.629  -7.266   6.900  1.00  0.00     0.009 A 
ATOM     64  C   UNL     1     -18.982  -7.894   4.541  1.00  0.00     0.001 A 
ATOM     65  C   UNL     1     -18.848  -6.651   6.607  1.00  0.00     0.001 A 
ATOM     66  C   UNL     1     -19.517  -6.957   5.423  1.00  0.00     0.000 A 
ENDBRANCH  47  61
BRANCH  48  67
ATOM     67  C   UNL     1      -8.122 -12.190   8.015  1.00  0.00    -0.014 A 
ATOM     68  C   UNL     1      -7.917 -13.574   7.904  1.00  0.00     0.009 A 
ATOM     69  C   UNL     1      -7.057 -11.380   8.437  1.00  0.00     0.009 A 
ATOM     70  C   UNL     1      -6.685 -14.138   8.244  1.00  0.00     0.001 A 
ATOM     71  C   UNL     1      -5.816 -11.942   8.743  1.00  0.00     0.001 A 
ATOM     72  C   UNL     1      -5.635 -13.321   8.659  1.00  0.00     0.000 A 
ENDBRANCH  48  67
BRANCH  60  73
ATOM     73  C   UNL     1     -14.410 -12.791  10.934  1.00  0.00    -0.014 A 
ATOM     74  C   UNL     1     -14.029 -12.528  12.259  1.00  0.00     0.009 A 
ATOM     75  C   UNL     1     -15.296 -13.851  10.680  1.00  0.00     0.009 A 
ATOM     76  C   UNL     1     -14.481 -13.344  13.298  1.00  0.00     0.001 A 
ATOM     77  C   UNL     1     -15.777 -14.640  11.724  1.00  0.00     0.001 A 
ATOM     78  C   UNL     1     -15.357 -14.396  13.030  1.00  0.00     0.000 A 
ENDBRANCH  60  73
ENDBRANCH  34  35
ENDBRANCH  26  29
ENDBRANCH  24  25
ENDBRANCH  23  24
ENDBRANCH   1  23
TORSDOF 13
