REMARK SMILES CC1(C)[C@H](C(=O)NCCCNC(=O)c2ccc(-c3c4nc(c(-c5ccccc5)c5ccc([nH]5)c(-c5ccccc5)c5nc(c(-c6ccccc6)c6ccc3[nH]6)C=C5)C=C4)cc2)[C@@H]1C(=O)Nc1ccc(NC(=O)C2CCC2)cc1
REMARK SMILES IDX 8 1 7 2 5 3 6 4 4 6 1 7 2 8 3 9 62 10 63 11 64 12 65 13
REMARK SMILES IDX 66 15 67 16 78 17 68 18 77 19 69 20 70 21 71 22 72 24 73 25
REMARK SMILES IDX 74 26 76 27 75 28 9 29 10 30 11 31 12 32 13 34 14 35 15 36
REMARK SMILES IDX 61 37 16 38 60 39 17 40 18 41 19 42 54 43 20 44 59 45 53 46
REMARK SMILES IDX 55 47 21 48 58 49 52 50 51 51 22 53 44 54 29 55 43 56 30 57
REMARK SMILES IDX 33 58 42 59 56 60 31 61 32 62 41 64 57 65 34 66 23 67 24 68
REMARK SMILES IDX 28 69 25 70 27 71 26 72 45 73 46 74 50 75 47 76 49 77 48 78
REMARK SMILES IDX 35 79 36 80 40 81 37 82 39 83 38 84
REMARK H PARENT 7 5 65 14 70 23 11 33 55 52 33 63
REMARK Flexibility Score: inf
ROOT
ATOM      1  C   UNL     1      -0.717   3.014  -0.271  1.00  0.00     0.117 C 
ENDROOT
BRANCH   1   2
ATOM      2  N   UNL     1      -0.941   2.163  -1.422  1.00  0.00    -0.356 N 
ATOM      3  C   UNL     1      -0.955   0.824  -1.660  1.00  0.00     0.224 C 
ATOM      4  O   UNL     1      -1.183   0.509  -2.831  1.00  0.00    -0.275 OA
ATOM      5  H   UNL     1      -1.131   2.685  -2.235  1.00  0.00     0.163 HD
BRANCH   3   6
ATOM      6  C   UNL     1      -0.736  -0.289  -0.707  1.00  0.00     0.098 C 
ATOM      7  C   UNL     1       1.162  -1.786   0.147  1.00  0.00     0.013 C 
ATOM      8  C   UNL     1       0.453  -0.450   0.224  1.00  0.00    -0.011 C 
ATOM      9  C   UNL     1       1.422   0.689   0.429  1.00  0.00     0.013 C 
ATOM     10  C   UNL     1      -0.997  -0.448   0.757  1.00  0.00     0.098 C 
BRANCH  10  11
ATOM     11  C   UNL     1      -1.566   0.549   1.685  1.00  0.00     0.228 C 
ATOM     12  O   UNL     1      -0.914   0.928   2.654  1.00  0.00    -0.274 OA
ATOM     13  N   UNL     1      -2.842   1.037   1.498  1.00  0.00    -0.326 N 
ATOM     14  H   UNL     1      -3.236   1.535   2.251  1.00  0.00     0.169 HD
BRANCH  13  15
ATOM     15  C   UNL     1      -3.635   0.903   0.355  1.00  0.00     0.041 A 
ATOM     16  C   UNL     1      -3.940   2.083  -0.305  1.00  0.00     0.028 A 
ATOM     17  C   UNL     1      -4.015  -0.313  -0.205  1.00  0.00     0.028 A 
ATOM     18  C   UNL     1      -4.396   2.033  -1.613  1.00  0.00     0.028 A 
ATOM     19  C   UNL     1      -4.681  -0.325  -1.442  1.00  0.00     0.028 A 
ATOM     20  C   UNL     1      -4.873   0.863  -2.162  1.00  0.00     0.041 A 
BRANCH  20  21
ATOM     21  N   UNL     1      -5.529   0.812  -3.396  1.00  0.00    -0.326 N 
ATOM     22  C   UNL     1      -6.000   1.765  -4.278  1.00  0.00     0.227 C 
ATOM     23  H   UNL     1      -5.692  -0.108  -3.704  1.00  0.00     0.169 HD
ATOM     24  O   UNL     1      -6.524   1.288  -5.304  1.00  0.00    -0.274 OA
BRANCH  22  25
ATOM     25  C   UNL     1      -5.920   3.305  -4.099  1.00  0.00     0.079 C 
ATOM     26  C   UNL     1      -7.186   4.060  -4.652  1.00  0.00     0.013 C 
ATOM     27  C   UNL     1      -6.212   4.105  -2.788  1.00  0.00     0.013 C 
ATOM     28  C   UNL     1      -6.891   5.176  -3.647  1.00  0.00     0.002 C 
ENDBRANCH  22  25
ENDBRANCH  20  21
ENDBRANCH  13  15
ENDBRANCH  10  11
ENDBRANCH   3   6
ENDBRANCH   1   2
BRANCH   1  29
ATOM     29  C   UNL     1       0.248   4.143  -0.591  1.00  0.00     0.042 C 
BRANCH  29  30
ATOM     30  C   UNL     1      -0.347   5.171  -1.547  1.00  0.00     0.118 C 
BRANCH  30  31
ATOM     31  N   UNL     1      -1.379   5.997  -0.926  1.00  0.00    -0.352 N 
ATOM     32  C   UNL     1      -1.376   7.349  -0.677  1.00  0.00     0.251 C 
ATOM     33  H   UNL     1      -2.192   5.518  -0.646  1.00  0.00     0.163 HD
ATOM     34  O   UNL     1      -2.256   7.857   0.011  1.00  0.00    -0.269 OA
BRANCH  32  35
ATOM     35  C   UNL     1      -0.286   8.179  -1.225  1.00  0.00     0.039 A 
ATOM     36  C   UNL     1       0.391   9.066  -0.387  1.00  0.00     0.014 A 
ATOM     37  C   UNL     1       0.095   8.035  -2.561  1.00  0.00     0.014 A 
ATOM     38  C   UNL     1       1.511   9.747  -0.870  1.00  0.00     0.010 A 
ATOM     39  C   UNL     1       1.264   8.635  -3.008  1.00  0.00     0.010 A 
ATOM     40  C   UNL     1       1.982   9.502  -2.170  1.00  0.00    -0.014 A 
BRANCH  40  41
ATOM     41  C   UNL     1       3.208  10.150  -2.696  1.00  0.00     0.031 A 
ATOM     42  C   UNL     1       3.115  11.043  -3.904  1.00  0.00     0.074 A 
ATOM     43  C   UNL     1       4.409   9.873  -2.150  1.00  0.00     0.049 A 
ATOM     44  N   UNL     1       4.074  11.598  -4.599  1.00  0.00    -0.248 NA
ATOM     45  C   UNL     1       1.763  11.320  -4.420  1.00  0.00     0.031 C 
ATOM     46  C   UNL     1       4.642   8.995  -1.000  1.00  0.00     0.029 A 
ATOM     47  N   UNL     1       5.666  10.299  -2.500  1.00  0.00    -0.354 N 
ATOM     48  C   UNL     1       3.444  12.261  -5.644  1.00  0.00     0.074 A 
ATOM     49  C   UNL     1       2.028  11.997  -5.526  1.00  0.00     0.031 C 
ATOM     50  C   UNL     1       5.956   8.971  -0.724  1.00  0.00     0.029 A 
ATOM     51  C   UNL     1       6.663   9.793  -1.700  1.00  0.00     0.049 A 
ATOM     52  H   UNL     1       5.838  10.909  -3.253  1.00  0.00     0.167 HD
ATOM     53  C   UNL     1       3.991  13.043  -6.604  1.00  0.00     0.031 A 
ATOM     54  C   UNL     1       7.997   9.967  -1.755  1.00  0.00     0.031 A 
ATOM     55  C   UNL     1       5.394  13.334  -6.705  1.00  0.00     0.049 A 
ATOM     56  C   UNL     1       8.579  10.840  -2.832  1.00  0.00     0.074 A 
ATOM     57  C   UNL     1       6.043  14.152  -7.612  1.00  0.00     0.029 A 
ATOM     58  N   UNL     1       6.365  12.823  -5.858  1.00  0.00    -0.354 N 
ATOM     59  N   UNL     1       7.964  11.497  -3.786  1.00  0.00    -0.248 NA
ATOM     60  C   UNL     1      10.040  11.003  -2.834  1.00  0.00     0.031 C 
ATOM     61  C   UNL     1       7.412  14.111  -7.334  1.00  0.00     0.029 A 
ATOM     62  C   UNL     1       7.609  13.303  -6.226  1.00  0.00     0.049 A 
ATOM     63  H   UNL     1       6.194  12.210  -5.107  1.00  0.00     0.167 HD
ATOM     64  C   UNL     1       8.958  12.177  -4.477  1.00  0.00     0.074 A 
ATOM     65  C   UNL     1      10.213  11.862  -3.828  1.00  0.00     0.031 C 
ATOM     66  C   UNL     1       8.842  12.991  -5.554  1.00  0.00     0.031 A 
BRANCH  53  67
ATOM     67  C   UNL     1       3.059  13.649  -7.615  1.00  0.00    -0.014 A 
ATOM     68  C   UNL     1       2.172  14.677  -7.257  1.00  0.00     0.009 A 
ATOM     69  C   UNL     1       3.090  13.211  -8.948  1.00  0.00     0.009 A 
ATOM     70  C   UNL     1       1.310  15.229  -8.205  1.00  0.00     0.001 A 
ATOM     71  C   UNL     1       2.246  13.786  -9.900  1.00  0.00     0.001 A 
ATOM     72  C   UNL     1       1.351  14.787  -9.527  1.00  0.00     0.000 A 
ENDBRANCH  53  67
BRANCH  54  73
ATOM     73  C   UNL     1       8.882   9.320  -0.751  1.00  0.00    -0.014 A 
ATOM     74  C   UNL     1       9.538  10.095   0.219  1.00  0.00     0.009 A 
ATOM     75  C   UNL     1       9.101   7.935  -0.772  1.00  0.00     0.009 A 
ATOM     76  C   UNL     1      10.420   9.501   1.124  1.00  0.00     0.001 A 
ATOM     77  C   UNL     1       9.962   7.339   0.153  1.00  0.00     0.001 A 
ATOM     78  C   UNL     1      10.629   8.124   1.092  1.00  0.00     0.000 A 
ENDBRANCH  54  73
BRANCH  66  79
ATOM     79  C   UNL     1      10.096  13.640  -6.064  1.00  0.00    -0.014 A 
ATOM     80  C   UNL     1      11.056  12.910  -6.780  1.00  0.00     0.009 A 
ATOM     81  C   UNL     1      10.291  15.016  -5.865  1.00  0.00     0.009 A 
ATOM     82  C   UNL     1      12.202  13.542  -7.264  1.00  0.00     0.001 A 
ATOM     83  C   UNL     1      11.425  15.650  -6.373  1.00  0.00     0.001 A 
ATOM     84  C   UNL     1      12.383  14.911  -7.065  1.00  0.00     0.000 A 
ENDBRANCH  66  79
ENDBRANCH  40  41
ENDBRANCH  32  35
ENDBRANCH  30  31
ENDBRANCH  29  30
ENDBRANCH   1  29
TORSDOF 14
