REMARK SMILES C#CC[N@@H+](CC(=O)NCCCNC(=O)c1ccc(-c2c3nc(c(-c4ccccc4)c4ccc([nH]4)c(-c4ccccc4)c4nc(c(-c5ccccc5)c5ccc2[nH]5)C=C4)C=C3)cc1)CC(=O)NC(=O)NC
REMARK SMILES IDX 9 1 8 2 6 3 7 4 5 6 4 7 3 9 2 10 1 11 63 12 64 13 65 14
REMARK SMILES IDX 66 15 67 16 68 18 69 19 70 20 10 22 11 23 12 24 13 25 14 27
REMARK SMILES IDX 15 28 16 29 62 30 17 31 61 32 18 33 19 34 20 35 55 36 21 37
REMARK SMILES IDX 60 38 54 39 56 40 22 41 59 42 53 43 52 44 23 46 45 47 30 48
REMARK SMILES IDX 44 49 31 50 34 51 43 52 57 53 32 54 33 55 42 57 58 58 35 59
REMARK SMILES IDX 24 60 25 61 29 62 26 63 28 64 27 65 46 66 47 67 51 68 48 69
REMARK SMILES IDX 50 70 49 71 36 72 37 73 41 74 38 75 40 76 39 77
REMARK H PARENT 8 5 4 8 66 17 69 21 12 26 56 45 34 56
REMARK Flexibility Score: inf
ROOT
ATOM      1  C   UNL     1      -3.907   0.165  -2.464  1.00  0.00     0.118 C 
ENDROOT
BRANCH   1   2
ATOM      2  N   UNL     1      -4.448  -0.845  -1.562  1.00  0.00    -0.351 N 
ATOM      3  C   UNL     1      -4.593  -0.944  -0.211  1.00  0.00     0.275 C 
ATOM      4  O   UNL     1      -5.317  -1.867   0.176  1.00  0.00    -0.269 OA
ATOM      5  H   UNL     1      -4.786  -1.637  -2.039  1.00  0.00     0.163 HD
BRANCH   3   6
ATOM      6  C   UNL     1      -3.951   0.015   0.816  1.00  0.00     0.364 C 
BRANCH   6   7
ATOM      7  N   UNL     1      -2.512  -0.210   1.150  1.00  0.00    -0.309 N 
ATOM      8  H   UNL     1      -2.274   0.488   1.854  1.00  0.00     0.349 HD
BRANCH   7   9
ATOM      9  C   UNL     1      -1.747  -0.033  -0.055  1.00  0.00     0.354 C 
BRANCH   9  10
ATOM     10  C   UNL     1      -0.227  -0.033  -0.055  1.00  0.00    -0.047 C 
ATOM     11  C   UNL     1       1.077  -0.033  -0.055  1.00  0.00     0.010 C 
ENDBRANCH   9  10
ENDBRANCH   7   9
BRANCH   7  12
ATOM     12  C   UNL     1      -2.158  -1.439   1.883  1.00  0.00     0.365 C 
BRANCH  12  13
ATOM     13  C   UNL     1      -2.897  -2.720   1.553  1.00  0.00     0.283 C 
ATOM     14  O   UNL     1      -2.669  -3.321   0.497  1.00  0.00    -0.268 OA
ATOM     15  N   UNL     1      -3.786  -3.266   2.464  1.00  0.00    -0.273 N 
ATOM     16  C   UNL     1      -4.886  -2.742   3.072  1.00  0.00     0.321 C 
ATOM     17  H   UNL     1      -3.587  -4.197   2.715  1.00  0.00     0.175 HD
ATOM     18  O   UNL     1      -5.983  -3.278   2.901  1.00  0.00    -0.248 OA
ATOM     19  N   UNL     1      -4.833  -1.681   3.896  1.00  0.00    -0.341 N 
ATOM     20  C   UNL     1      -3.757  -1.134   4.680  1.00  0.00     0.144 C 
ATOM     21  H   UNL     1      -5.683  -1.189   3.976  1.00  0.00     0.165 HD
ENDBRANCH  12  13
ENDBRANCH   7  12
ENDBRANCH   6   7
ENDBRANCH   3   6
ENDBRANCH   1   2
BRANCH   1  22
ATOM     22  C   UNL     1      -2.656  -0.265  -3.252  1.00  0.00     0.042 C 
BRANCH  22  23
ATOM     23  C   UNL     1      -2.698  -1.665  -3.863  1.00  0.00     0.118 C 
BRANCH  23  24
ATOM     24  N   UNL     1      -3.277  -1.636  -5.194  1.00  0.00    -0.352 N 
ATOM     25  C   UNL     1      -2.638  -1.692  -6.409  1.00  0.00     0.251 C 
ATOM     26  H   UNL     1      -4.258  -1.567  -5.231  1.00  0.00     0.163 HD
ATOM     27  O   UNL     1      -3.223  -1.310  -7.419  1.00  0.00    -0.269 OA
BRANCH  25  28
ATOM     28  C   UNL     1      -1.256  -2.218  -6.522  1.00  0.00     0.039 A 
ATOM     29  C   UNL     1      -0.359  -1.582  -7.387  1.00  0.00     0.014 A 
ATOM     30  C   UNL     1      -0.874  -3.396  -5.871  1.00  0.00     0.014 A 
ATOM     31  C   UNL     1       0.918  -2.118  -7.592  1.00  0.00     0.010 A 
ATOM     32  C   UNL     1       0.417  -3.901  -6.037  1.00  0.00     0.010 A 
ATOM     33  C   UNL     1       1.317  -3.284  -6.921  1.00  0.00    -0.014 A 
BRANCH  33  34
ATOM     34  C   UNL     1       2.643  -3.906  -7.181  1.00  0.00     0.031 A 
ATOM     35  C   UNL     1       2.724  -5.246  -7.866  1.00  0.00     0.074 A 
ATOM     36  C   UNL     1       3.771  -3.299  -6.767  1.00  0.00     0.049 A 
ATOM     37  N   UNL     1       3.779  -5.978  -8.129  1.00  0.00    -0.248 NA
ATOM     38  C   UNL     1       1.452  -5.855  -8.287  1.00  0.00     0.031 C 
ATOM     39  C   UNL     1       3.837  -2.020  -6.059  1.00  0.00     0.029 A 
ATOM     40  N   UNL     1       5.084  -3.689  -6.872  1.00  0.00    -0.354 N 
ATOM     41  C   UNL     1       3.294  -7.144  -8.711  1.00  0.00     0.074 A 
ATOM     42  C   UNL     1       1.852  -7.035  -8.739  1.00  0.00     0.031 C 
ATOM     43  C   UNL     1       5.122  -1.727  -5.801  1.00  0.00     0.029 A 
ATOM     44  C   UNL     1       5.969  -2.807  -6.301  1.00  0.00     0.049 A 
ATOM     45  H   UNL     1       5.365  -4.523  -7.314  1.00  0.00     0.167 HD
ATOM     46  C   UNL     1       3.985  -8.206  -9.192  1.00  0.00     0.031 A 
ATOM     47  C   UNL     1       7.309  -2.863  -6.187  1.00  0.00     0.031 A 
ATOM     48  C   UNL     1       5.420  -8.303  -9.207  1.00  0.00     0.049 A 
ATOM     49  C   UNL     1       8.056  -4.034  -6.763  1.00  0.00     0.074 A 
ATOM     50  C   UNL     1       6.210  -9.300  -9.752  1.00  0.00     0.029 A 
ATOM     51  N   UNL     1       6.278  -7.366  -8.656  1.00  0.00    -0.354 N 
ATOM     52  N   UNL     1       7.585  -5.090  -7.378  1.00  0.00    -0.248 NA
ATOM     53  C   UNL     1       9.521  -4.011  -6.640  1.00  0.00     0.031 C 
ATOM     54  C   UNL     1       7.549  -8.985  -9.498  1.00  0.00     0.029 A 
ATOM     55  C   UNL     1       7.590  -7.772  -8.830  1.00  0.00     0.049 A 
ATOM     56  H   UNL     1       5.997  -6.536  -8.208  1.00  0.00     0.167 HD
ATOM     57  C   UNL     1       8.694  -5.846  -7.734  1.00  0.00     0.074 A 
ATOM     58  C   UNL     1       9.863  -5.120  -7.281  1.00  0.00     0.031 C 
ATOM     59  C   UNL     1       8.741  -7.037  -8.378  1.00  0.00     0.031 A 
BRANCH  46  60
ATOM     60  C   UNL     1       3.195  -9.360  -9.740  1.00  0.00    -0.014 A 
ATOM     61  C   UNL     1       2.536  -9.271 -10.976  1.00  0.00     0.009 A 
ATOM     62  C   UNL     1       3.148 -10.570  -9.030  1.00  0.00     0.009 A 
ATOM     63  C   UNL     1       1.821 -10.361 -11.475  1.00  0.00     0.001 A 
ATOM     64  C   UNL     1       2.452 -11.666  -9.543  1.00  0.00     0.001 A 
ATOM     65  C   UNL     1       1.783 -11.558 -10.761  1.00  0.00     0.000 A 
ENDBRANCH  46  60
BRANCH  47  66
ATOM     66  C   UNL     1       8.043  -1.767  -5.502  1.00  0.00    -0.014 A 
ATOM     67  C   UNL     1       8.813  -0.856  -6.240  1.00  0.00     0.009 A 
ATOM     68  C   UNL     1       7.986  -1.637  -4.106  1.00  0.00     0.009 A 
ATOM     69  C   UNL     1       9.533   0.150  -5.591  1.00  0.00     0.001 A 
ATOM     70  C   UNL     1       8.687  -0.615  -3.462  1.00  0.00     0.001 A 
ATOM     71  C   UNL     1       9.467   0.271  -4.204  1.00  0.00     0.000 A 
ENDBRANCH  47  66
BRANCH  59  72
ATOM     72  C   UNL     1      10.098  -7.615  -8.656  1.00  0.00    -0.014 A 
ATOM     73  C   UNL     1      10.855  -8.209  -7.635  1.00  0.00     0.009 A 
ATOM     74  C   UNL     1      10.604  -7.605  -9.965  1.00  0.00     0.009 A 
ATOM     75  C   UNL     1      12.108  -8.758  -7.916  1.00  0.00     0.001 A 
ATOM     76  C   UNL     1      11.846  -8.175 -10.247  1.00  0.00     0.001 A 
ATOM     77  C   UNL     1      12.600  -8.743  -9.221  1.00  0.00     0.000 A 
ENDBRANCH  59  72
ENDBRANCH  33  34
ENDBRANCH  25  28
ENDBRANCH  23  24
ENDBRANCH  22  23
ENDBRANCH   1  22
TORSDOF 15
