REMARK SMILES COc1cc(S(=O)(=O)CCO)cc(C(=O)NCCCNC(=O)c2ccc(-c3c4nc(c(-c5ccccc5)c5ccc([nH]5)c(-c5ccccc5)c5nc(c(-c6ccccc6)c6ccc3[nH]6)C=C5)C=C4)cc2)c1OC
REMARK SMILES IDX 17 1 16 2 14 3 15 4 13 6 3 7 4 8 71 9 5 10 12 11 2 12 1 13
REMARK SMILES IDX 72 14 73 15 6 16 7 17 8 18 9 19 10 20 11 21 18 23 19 24
REMARK SMILES IDX 20 25 21 26 22 28 23 29 24 30 70 31 25 32 69 33 26 34 27 35
REMARK SMILES IDX 28 36 63 37 29 38 68 39 62 40 64 41 30 42 67 43 61 44 60 45
REMARK SMILES IDX 31 47 53 48 38 49 52 50 39 51 42 52 51 53 65 54 40 55 41 56
REMARK SMILES IDX 50 58 66 59 43 60 32 61 33 62 37 63 34 64 36 65 35 66 54 67
REMARK SMILES IDX 55 68 59 69 56 70 58 71 57 72 44 73 45 74 49 75 46 76 48 77
REMARK SMILES IDX 47 78
REMARK H PARENT 16 5 11 22 20 27 64 46 42 57
REMARK Flexibility Score: inf
ROOT
ATOM      1  C   UNL     1       4.825  -2.352  -0.248  1.00  0.00     0.118 C 
ENDROOT
BRANCH   1   2
ATOM      2  N   UNL     1       4.665  -3.345  -1.284  1.00  0.00    -0.352 N 
ATOM      3  C   UNL     1       3.515  -3.753  -1.912  1.00  0.00     0.255 C 
ATOM      4  O   UNL     1       3.622  -4.471  -2.906  1.00  0.00    -0.269 OA
ATOM      5  H   UNL     1       5.492  -3.789  -1.579  1.00  0.00     0.163 HD
BRANCH   3   6
ATOM      6  C   UNL     1       2.162  -3.495  -1.349  1.00  0.00     0.086 A 
ATOM      7  C   UNL     1       0.369  -2.182  -0.392  1.00  0.00     0.162 A 
ATOM      8  C   UNL     1      -0.408  -3.351  -0.298  1.00  0.00     0.070 A 
ATOM      9  C   UNL     1       1.650  -2.230  -0.975  1.00  0.00     0.173 A 
ATOM     10  C   UNL     1       0.077  -4.578  -0.757  1.00  0.00     0.072 A 
ATOM     11  C   UNL     1       1.378  -4.660  -1.226  1.00  0.00     0.038 A 
BRANCH   7  12
ATOM     12  O   UNL     1      -0.184  -1.115   0.263  1.00  0.00    -0.493 OA
ATOM     13  C   UNL     1      -0.410   0.069  -0.488  1.00  0.00     0.278 C 
ENDBRANCH   7  12
BRANCH   9  14
ATOM     14  O   UNL     1       2.400  -1.137  -1.325  1.00  0.00    -0.492 OA
ATOM     15  C   UNL     1       2.585  -0.109  -0.356  1.00  0.00     0.278 C 
ENDBRANCH   9  14
BRANCH  10  16
ATOM     16  S   UNL     1      -1.019  -5.977  -0.705  1.00  0.00     0.180 S 
ATOM     17  O   UNL     1      -1.079  -6.361   0.696  1.00  0.00    -0.224 OA
ATOM     18  O   UNL     1      -2.229  -5.574  -1.398  1.00  0.00    -0.224 OA
BRANCH  16  19
ATOM     19  C   UNL     1      -0.326  -7.352  -1.585  1.00  0.00     0.170 C 
BRANCH  19  20
ATOM     20  C   UNL     1      -0.390  -7.204  -3.091  1.00  0.00     0.172 C 
BRANCH  20  21
ATOM     21  O   UNL     1       0.630  -6.327  -3.537  1.00  0.00    -0.395 OA
ATOM     22  H   UNL     1       0.508  -5.455  -3.129  1.00  0.00     0.210 HD
ENDBRANCH  20  21
ENDBRANCH  19  20
ENDBRANCH  16  19
ENDBRANCH  10  16
ENDBRANCH   3   6
ENDBRANCH   1   2
BRANCH   1  23
ATOM     23  C   UNL     1       6.003  -2.555   0.684  1.00  0.00     0.042 C 
BRANCH  23  24
ATOM     24  C   UNL     1       7.354  -2.566  -0.013  1.00  0.00     0.118 C 
BRANCH  24  25
ATOM     25  N   UNL     1       7.699  -1.304  -0.660  1.00  0.00    -0.352 N 
ATOM     26  C   UNL     1       8.448  -0.221  -0.262  1.00  0.00     0.251 C 
ATOM     27  H   UNL     1       7.319  -1.208  -1.563  1.00  0.00     0.163 HD
ATOM     28  O   UNL     1       8.470   0.779  -0.976  1.00  0.00    -0.269 OA
BRANCH  26  29
ATOM     29  C   UNL     1       9.186  -0.207   1.023  1.00  0.00     0.039 A 
ATOM     30  C   UNL     1       9.292   0.998   1.729  1.00  0.00     0.014 A 
ATOM     31  C   UNL     1       9.801  -1.345   1.534  1.00  0.00     0.014 A 
ATOM     32  C   UNL     1       9.922   1.029   2.979  1.00  0.00     0.010 A 
ATOM     33  C   UNL     1      10.305  -1.347   2.830  1.00  0.00     0.010 A 
ATOM     34  C   UNL     1      10.382  -0.158   3.568  1.00  0.00    -0.014 A 
BRANCH  34  35
ATOM     35  C   UNL     1      10.965  -0.193   4.936  1.00  0.00     0.031 A 
ATOM     36  C   UNL     1      12.354  -0.738   5.152  1.00  0.00     0.074 A 
ATOM     37  C   UNL     1      10.216   0.171   5.997  1.00  0.00     0.049 A 
ATOM     38  N   UNL     1      12.980  -0.989   6.275  1.00  0.00    -0.248 NA
ATOM     39  C   UNL     1      13.126  -1.088   3.948  1.00  0.00     0.031 C 
ATOM     40  C   UNL     1       8.839   0.668   5.940  1.00  0.00     0.029 A 
ATOM     41  N   UNL     1      10.509   0.166   7.338  1.00  0.00    -0.354 N 
ATOM     42  C   UNL     1      14.191  -1.564   5.912  1.00  0.00     0.074 A 
ATOM     43  C   UNL     1      14.193  -1.675   4.470  1.00  0.00     0.031 C 
ATOM     44  C   UNL     1       8.422   0.956   7.183  1.00  0.00     0.029 A 
ATOM     45  C   UNL     1       9.480   0.619   8.129  1.00  0.00     0.049 A 
ATOM     46  H   UNL     1      11.374  -0.133   7.700  1.00  0.00     0.167 HD
ATOM     47  C   UNL     1      15.225  -1.945   6.700  1.00  0.00     0.031 A 
ATOM     48  C   UNL     1       9.393   0.742   9.466  1.00  0.00     0.031 A 
ATOM     49  C   UNL     1      15.249  -1.791   8.129  1.00  0.00     0.049 A 
ATOM     50  C   UNL     1      10.563   0.341  10.319  1.00  0.00     0.074 A 
ATOM     51  C   UNL     1      16.276  -2.078   9.011  1.00  0.00     0.029 A 
ATOM     52  N   UNL     1      14.199  -1.292   8.884  1.00  0.00    -0.354 N 
ATOM     53  N   UNL     1      11.721  -0.153   9.953  1.00  0.00    -0.248 NA
ATOM     54  C   UNL     1      10.416   0.523  11.770  1.00  0.00     0.031 C 
ATOM     55  C   UNL     1      15.835  -1.784  10.305  1.00  0.00     0.029 A 
ATOM     56  C   UNL     1      14.550  -1.272  10.222  1.00  0.00     0.049 A 
ATOM     57  H   UNL     1      13.333  -0.996   8.521  1.00  0.00     0.167 HD
ATOM     58  C   UNL     1      12.450  -0.314  11.124  1.00  0.00     0.074 A 
ATOM     59  C   UNL     1      11.609   0.148  12.209  1.00  0.00     0.031 C 
ATOM     60  C   UNL     1      13.703  -0.802  11.286  1.00  0.00     0.031 A 
BRANCH  47  61
ATOM     61  C   UNL     1      16.421  -2.557   6.025  1.00  0.00    -0.014 A 
ATOM     62  C   UNL     1      17.278  -1.785   5.224  1.00  0.00     0.009 A 
ATOM     63  C   UNL     1      16.709  -3.918   6.211  1.00  0.00     0.009 A 
ATOM     64  C   UNL     1      18.372  -2.373   4.587  1.00  0.00     0.001 A 
ATOM     65  C   UNL     1      17.822  -4.497   5.598  1.00  0.00     0.001 A 
ATOM     66  C   UNL     1      18.646  -3.727   4.778  1.00  0.00     0.000 A 
ENDBRANCH  47  61
BRANCH  48  67
ATOM     67  C   UNL     1       8.163   1.298  10.087  1.00  0.00    -0.014 A 
ATOM     68  C   UNL     1       8.175   2.585  10.647  1.00  0.00     0.009 A 
ATOM     69  C   UNL     1       6.977   0.550  10.130  1.00  0.00     0.009 A 
ATOM     70  C   UNL     1       7.032   3.100  11.264  1.00  0.00     0.001 A 
ATOM     71  C   UNL     1       5.828   1.079  10.723  1.00  0.00     0.001 A 
ATOM     72  C   UNL     1       5.859   2.348  11.298  1.00  0.00     0.000 A 
ENDBRANCH  48  67
BRANCH  60  73
ATOM     73  C   UNL     1      14.255  -0.822  12.682  1.00  0.00    -0.014 A 
ATOM     74  C   UNL     1      13.813  -1.760  13.626  1.00  0.00     0.009 A 
ATOM     75  C   UNL     1      15.262   0.088  13.041  1.00  0.00     0.009 A 
ATOM     76  C   UNL     1      14.349  -1.767  14.915  1.00  0.00     0.001 A 
ATOM     77  C   UNL     1      15.814   0.061  14.322  1.00  0.00     0.001 A 
ATOM     78  C   UNL     1      15.351  -0.860  15.260  1.00  0.00     0.000 A 
ENDBRANCH  60  73
ENDBRANCH  34  35
ENDBRANCH  26  29
ENDBRANCH  24  25
ENDBRANCH  23  24
ENDBRANCH   1  23
TORSDOF 16
