REMARK SMILES Cc1oc2cc3c(cc2c1C)[C@H](C)[C@@H](CC(=O)N[C@H](CC1=c2ccccc2=NC1)C(=O)NCCCNC(=O)c1ccc(-c2c4nc(c(-c5ccccc5)c5ccc([nH]5)c(-c5ccccc5)c5nc(c(-c6ccccc6)c6ccc2[nH]6)C=C5)C=C4)cc1)C(=O)O3
REMARK SMILES IDX 33 1 32 2 30 3 31 4 19 6 18 7 16 8 17 9 15 11 14 12 1 13
REMARK SMILES IDX 2 14 3 15 10 16 4 17 9 18 11 19 5 20 8 21 6 22 7 23 89 24
REMARK SMILES IDX 12 25 87 26 13 27 88 28 20 29 21 30 22 31 29 32 23 33 27 34
REMARK SMILES IDX 28 35 24 36 26 37 25 38 34 39 35 40 36 41 37 42 38 44 39 45
REMARK SMILES IDX 40 46 86 47 41 48 85 49 42 50 43 51 44 52 79 53 45 54 84 55
REMARK SMILES IDX 78 56 80 57 46 58 83 59 77 60 76 61 47 63 69 64 54 65 68 66
REMARK SMILES IDX 55 67 58 68 67 69 81 70 56 71 57 72 66 74 82 75 59 76 48 77
REMARK SMILES IDX 49 78 53 79 50 80 52 81 51 82 70 83 71 84 75 85 72 86 74 87
REMARK SMILES IDX 73 88 60 89 61 90 65 91 62 92 64 93 63 94
REMARK H PARENT 32 5 18 10 36 43 80 62 58 73
REMARK Flexibility Score: inf
ROOT
ATOM      1  C   UNL     1      -2.351  -2.048  12.504  1.00  0.00     0.117 C 
ENDROOT
BRANCH   1   2
ATOM      2  N   UNL     1      -0.973  -1.982  12.070  1.00  0.00    -0.354 N 
ATOM      3  C   UNL     1      -0.325  -2.605  11.055  1.00  0.00     0.242 C 
ATOM      4  O   UNL     1       0.905  -2.489  11.037  1.00  0.00    -0.273 OA
ATOM      5  H   UNL     1      -0.406  -1.381  12.606  1.00  0.00     0.163 HD
BRANCH   3   6
ATOM      6  C   UNL     1      -1.066  -3.265   9.885  1.00  0.00     0.175 C 
BRANCH   6   7
ATOM      7  N   UNL     1      -1.616  -2.175   9.053  1.00  0.00    -0.344 N 
ATOM      8  C   UNL     1      -1.718  -2.030   7.703  1.00  0.00     0.221 C 
ATOM      9  O   UNL     1      -2.116  -0.944   7.274  1.00  0.00    -0.275 OA
ATOM     10  H   UNL     1      -1.973  -1.416   9.569  1.00  0.00     0.164 HD
BRANCH   8  11
ATOM     11  C   UNL     1      -1.359  -3.147   6.733  1.00  0.00     0.116 C 
BRANCH  11  12
ATOM     12  C   UNL     1       0.143  -3.177   6.429  1.00  0.00     0.116 C 
ATOM     13  C   UNL     1       7.410  -6.628   3.756  1.00  0.00     0.088 C 
ATOM     14  C   UNL     1       6.111  -5.970   4.003  1.00  0.00     0.105 A 
ATOM     15  O   UNL     1       5.927  -5.495   5.263  1.00  0.00    -0.461 OA
ATOM     16  C   UNL     1       4.985  -5.740   3.228  1.00  0.00    -0.002 A 
ATOM     17  C   UNL     1       4.675  -4.978   5.316  1.00  0.00     0.138 A 
ATOM     18  C   UNL     1       4.046  -5.082   4.082  1.00  0.00     0.024 A 
ATOM     19  C   UNL     1       4.768  -6.133   1.816  1.00  0.00     0.049 C 
ATOM     20  C   UNL     1       4.086  -4.465   6.457  1.00  0.00     0.095 A 
ATOM     21  C   UNL     1       2.722  -4.604   3.951  1.00  0.00     0.020 A 
ATOM     22  C   UNL     1       2.752  -4.086   6.316  1.00  0.00     0.138 A 
ATOM     23  C   UNL     1       2.060  -4.091   5.081  1.00  0.00    -0.001 A 
ATOM     24  O   UNL     1       2.122  -3.804   7.527  1.00  0.00    -0.426 OA
ATOM     25  C   UNL     1       0.573  -3.696   5.036  1.00  0.00     0.035 C 
ATOM     26  C   UNL     1       0.820  -4.167   7.335  1.00  0.00     0.315 C 
ATOM     27  C   UNL     1       0.271  -2.675   3.936  1.00  0.00     0.014 C 
ATOM     28  O   UNL     1       0.322  -5.193   7.775  1.00  0.00    -0.251 OA
ENDBRANCH  11  12
ENDBRANCH   8  11
ENDBRANCH   6   7
BRANCH   6  29
ATOM     29  C   UNL     1      -2.083  -4.381  10.168  1.00  0.00     0.068 C 
BRANCH  29  30
ATOM     30  C   UNL     1      -1.568  -5.770  10.451  1.00  0.00    -0.037 C 
ATOM     31  C   UNL     1      -0.409  -6.267  10.883  1.00  0.00     0.001 A 
ATOM     32  C   UNL     1      -2.387  -6.936   9.959  1.00  0.00     0.174 C 
ATOM     33  C   UNL     1       0.663  -5.950  11.770  1.00  0.00     0.010 A 
ATOM     34  C   UNL     1      -0.309  -7.460  10.003  1.00  0.00     0.065 A 
ATOM     35  N   UNL     1      -1.399  -7.903   9.454  1.00  0.00    -0.280 NA
ATOM     36  C   UNL     1       1.780  -6.699  11.715  1.00  0.00     0.001 A 
ATOM     37  C   UNL     1       1.056  -7.973   9.756  1.00  0.00     0.028 A 
ATOM     38  C   UNL     1       2.033  -7.589  10.593  1.00  0.00     0.002 A 
ENDBRANCH  29  30
ENDBRANCH   6  29
ENDBRANCH   3   6
ENDBRANCH   1   2
BRANCH   1  39
ATOM     39  C   UNL     1      -2.600  -3.267  13.389  1.00  0.00     0.042 C 
BRANCH  39  40
ATOM     40  C   UNL     1      -1.611  -3.385  14.546  1.00  0.00     0.118 C 
BRANCH  40  41
ATOM     41  N   UNL     1      -1.944  -2.515  15.656  1.00  0.00    -0.352 N 
ATOM     42  C   UNL     1      -2.950  -2.662  16.587  1.00  0.00     0.251 C 
ATOM     43  H   UNL     1      -1.378  -1.716  15.759  1.00  0.00     0.163 HD
ATOM     44  O   UNL     1      -3.215  -1.776  17.372  1.00  0.00    -0.269 OA
BRANCH  42  45
ATOM     45  C   UNL     1      -3.737  -3.914  16.571  1.00  0.00     0.039 A 
ATOM     46  C   UNL     1      -3.090  -5.148  16.664  1.00  0.00     0.014 A 
ATOM     47  C   UNL     1      -5.125  -3.838  16.426  1.00  0.00     0.014 A 
ATOM     48  C   UNL     1      -3.817  -6.314  16.490  1.00  0.00     0.010 A 
ATOM     49  C   UNL     1      -5.863  -5.014  16.303  1.00  0.00     0.010 A 
ATOM     50  C   UNL     1      -5.203  -6.248  16.309  1.00  0.00    -0.014 A 
BRANCH  50  51
ATOM     51  C   UNL     1      -5.909  -7.530  16.256  1.00  0.00     0.031 A 
ATOM     52  C   UNL     1      -6.777  -7.797  17.439  1.00  0.00     0.074 A 
ATOM     53  C   UNL     1      -6.195  -8.145  15.093  1.00  0.00     0.049 A 
ATOM     54  N   UNL     1      -7.992  -7.341  17.536  1.00  0.00    -0.248 NA
ATOM     55  C   UNL     1      -6.241  -8.349  18.682  1.00  0.00     0.031 C 
ATOM     56  C   UNL     1      -6.513  -7.447  13.842  1.00  0.00     0.029 A 
ATOM     57  N   UNL     1      -6.502  -9.456  14.841  1.00  0.00    -0.354 N 
ATOM     58  C   UNL     1      -8.368  -7.482  18.859  1.00  0.00     0.074 A 
ATOM     59  C   UNL     1      -7.257  -8.125  19.529  1.00  0.00     0.031 C 
ATOM     60  C   UNL     1      -7.166  -8.305  13.030  1.00  0.00     0.029 A 
ATOM     61  C   UNL     1      -7.146  -9.636  13.623  1.00  0.00     0.049 A 
ATOM     62  H   UNL     1      -6.288 -10.193  15.457  1.00  0.00     0.167 HD
ATOM     63  C   UNL     1      -9.561  -7.052  19.346  1.00  0.00     0.031 A 
ATOM     64  C   UNL     1      -8.026 -10.640  13.367  1.00  0.00     0.031 A 
ATOM     65  C   UNL     1     -10.455  -6.474  18.390  1.00  0.00     0.049 A 
ATOM     66  C   UNL     1      -9.221 -10.178  14.171  1.00  0.00     0.074 A 
ATOM     67  C   UNL     1     -10.820  -5.213  17.971  1.00  0.00     0.029 A 
ATOM     68  N   UNL     1     -11.171  -7.325  17.584  1.00  0.00    -0.354 N 
ATOM     69  N   UNL     1     -10.093  -9.268  13.822  1.00  0.00    -0.248 NA
ATOM     70  C   UNL     1      -9.233 -10.513  15.597  1.00  0.00     0.031 C 
ATOM     71  C   UNL     1     -11.377  -5.389  16.665  1.00  0.00     0.029 A 
ATOM     72  C   UNL     1     -11.257  -6.741  16.347  1.00  0.00     0.049 A 
ATOM     73  H   UNL     1     -11.552  -8.195  17.846  1.00  0.00     0.167 HD
ATOM     74  C   UNL     1     -10.544  -8.706  15.020  1.00  0.00     0.074 A 
ATOM     75  C   UNL     1      -9.989  -9.534  16.072  1.00  0.00     0.031 C 
ATOM     76  C   UNL     1     -11.180  -7.500  15.115  1.00  0.00     0.031 A 
BRANCH  63  77
ATOM     77  C   UNL     1     -10.002  -7.266  20.738  1.00  0.00    -0.014 A 
ATOM     78  C   UNL     1      -9.565  -6.456  21.791  1.00  0.00     0.009 A 
ATOM     79  C   UNL     1     -11.001  -8.222  20.978  1.00  0.00     0.009 A 
ATOM     80  C   UNL     1     -10.139  -6.591  23.060  1.00  0.00     0.001 A 
ATOM     81  C   UNL     1     -11.576  -8.351  22.239  1.00  0.00     0.001 A 
ATOM     82  C   UNL     1     -11.149  -7.531  23.279  1.00  0.00     0.000 A 
ENDBRANCH  63  77
BRANCH  64  83
ATOM     83  C   UNL     1      -7.419 -12.010  13.491  1.00  0.00    -0.014 A 
ATOM     84  C   UNL     1      -7.910 -13.050  14.291  1.00  0.00     0.009 A 
ATOM     85  C   UNL     1      -6.232 -12.264  12.768  1.00  0.00     0.009 A 
ATOM     86  C   UNL     1      -7.172 -14.227  14.481  1.00  0.00     0.001 A 
ATOM     87  C   UNL     1      -5.508 -13.449  12.932  1.00  0.00     0.001 A 
ATOM     88  C   UNL     1      -5.963 -14.418  13.816  1.00  0.00     0.000 A 
ENDBRANCH  64  83
BRANCH  76  89
ATOM     89  C   UNL     1     -11.613  -6.852  13.839  1.00  0.00    -0.014 A 
ATOM     90  C   UNL     1     -11.061  -5.627  13.427  1.00  0.00     0.009 A 
ATOM     91  C   UNL     1     -12.663  -7.403  13.094  1.00  0.00     0.009 A 
ATOM     92  C   UNL     1     -11.593  -4.937  12.336  1.00  0.00     0.001 A 
ATOM     93  C   UNL     1     -13.180  -6.723  11.989  1.00  0.00     0.001 A 
ATOM     94  C   UNL     1     -12.658  -5.483  11.623  1.00  0.00     0.000 A 
ENDBRANCH  76  89
ENDBRANCH  50  51
ENDBRANCH  42  45
ENDBRANCH  40  41
ENDBRANCH  39  40
ENDBRANCH   1  39
TORSDOF 15
