REMARK SMILES [NH3+][C@@H](CCCCC(=O)NCCCNC(=O)c1ccc(-c2c3nc(c(-c4ccccc4)c4ccc([nH]4)c(-c4ccccc4)c4nc(c(-c5ccccc5)c5ccc2[nH]5)C=C4)C=C3)cc1)c1ccc2[nH]c(=O)[nH]c2c1
REMARK SMILES IDX 7 1 8 2 9 3 6 5 5 6 4 7 3 8 2 9 1 10 64 14 65 15 73 16 66 17
REMARK SMILES IDX 72 18 67 19 71 20 68 21 69 22 70 25 10 26 11 27 12 28 13 29
REMARK SMILES IDX 14 30 15 32 16 33 17 34 63 35 18 36 62 37 19 38 20 39 21 40
REMARK SMILES IDX 56 41 22 42 61 43 55 44 57 45 23 46 60 47 54 48 53 49 24 51
REMARK SMILES IDX 46 52 31 53 45 54 32 55 35 56 44 57 58 58 33 59 34 60 43 62
REMARK SMILES IDX 59 63 36 64 25 65 26 66 30 67 27 68 29 69 28 70 47 71 48 72
REMARK SMILES IDX 52 73 49 74 51 75 50 76 37 77 38 78 42 79 39 80 41 81 40 82
REMARK H PARENT 9 4 1 11 1 12 1 13 71 23 68 24 13 31 57 50 35 61
REMARK Flexibility Score: inf
ROOT
ATOM      1  C   UNL     1      -1.010   2.986  -4.600  1.00  0.00     0.219 C 
ATOM      2  O   UNL     1      -1.845   2.942  -5.503  1.00  0.00    -0.275 OA
ATOM      3  N   UNL     1       0.220   3.497  -4.881  1.00  0.00    -0.356 N 
ATOM      4  H   UNL     1       0.321   3.886  -5.780  1.00  0.00     0.163 HD
ENDROOT
BRANCH   1   5
ATOM      5  C   UNL     1      -1.343   2.529  -3.194  1.00  0.00     0.100 C 
BRANCH   5   6
ATOM      6  C   UNL     1      -1.152   1.033  -2.927  1.00  0.00     0.010 C 
BRANCH   6   7
ATOM      7  C   UNL     1       0.169   0.530  -2.313  1.00  0.00     0.007 C 
BRANCH   7   8
ATOM      8  C   UNL     1       0.825   1.311  -1.156  1.00  0.00     0.070 C 
BRANCH   8   9
ATOM      9  C   UNL     1       0.348   0.991   0.283  1.00  0.00     0.212 C 
BRANCH   9  10
ATOM     10  N   UNL     1       0.784  -0.353   0.671  1.00  0.00    -0.351 N 
ATOM     11  H   UNL     1       1.792  -0.435   0.539  1.00  0.00     0.345 HD
ATOM     12  H   UNL     1       0.307  -1.046   0.094  1.00  0.00     0.345 HD
ATOM     13  H   UNL     1       0.556  -0.514   1.653  1.00  0.00     0.345 HD
ENDBRANCH   9  10
BRANCH   9  14
ATOM     14  C   UNL     1      -1.144   1.234   0.438  1.00  0.00     0.011 A 
ATOM     15  C   UNL     1      -1.652   2.535   0.146  1.00  0.00     0.012 A 
ATOM     16  C   UNL     1      -2.042   0.202   0.765  1.00  0.00     0.038 A 
ATOM     17  C   UNL     1      -3.021   2.787   0.017  1.00  0.00     0.029 A 
ATOM     18  C   UNL     1      -3.384   0.484   0.662  1.00  0.00     0.067 A 
ATOM     19  C   UNL     1      -3.858   1.730   0.261  1.00  0.00     0.066 A 
ATOM     20  N   UNL     1      -4.480  -0.345   0.863  1.00  0.00    -0.306 N 
ATOM     21  N   UNL     1      -5.241   1.655   0.170  1.00  0.00    -0.306 N 
ATOM     22  C   UNL     1      -5.648   0.368   0.554  1.00  0.00     0.323 A 
ATOM     23  H   UNL     1      -4.444  -1.280   1.172  1.00  0.00     0.171 HD
ATOM     24  H   UNL     1      -5.838   2.384  -0.116  1.00  0.00     0.171 HD
ATOM     25  O   UNL     1      -6.788  -0.048   0.604  1.00  0.00    -0.248 OA
ENDBRANCH   9  14
ENDBRANCH   8   9
ENDBRANCH   7   8
ENDBRANCH   6   7
ENDBRANCH   5   6
ENDBRANCH   1   5
BRANCH   3  26
ATOM     26  C   UNL     1       1.401   3.548  -4.046  1.00  0.00     0.117 C 
BRANCH  26  27
ATOM     27  C   UNL     1       2.328   2.382  -4.355  1.00  0.00     0.042 C 
BRANCH  27  28
ATOM     28  C   UNL     1       3.225   2.634  -5.553  1.00  0.00     0.118 C 
BRANCH  28  29
ATOM     29  N   UNL     1       4.259   3.613  -5.264  1.00  0.00    -0.352 N 
ATOM     30  C   UNL     1       5.625   3.478  -5.240  1.00  0.00     0.251 C 
ATOM     31  H   UNL     1       3.928   4.516  -5.051  1.00  0.00     0.163 HD
ATOM     32  O   UNL     1       6.309   4.375  -4.755  1.00  0.00    -0.269 OA
BRANCH  30  33
ATOM     33  C   UNL     1       6.274   2.255  -5.763  1.00  0.00     0.039 A 
ATOM     34  C   UNL     1       7.397   1.757  -5.096  1.00  0.00     0.014 A 
ATOM     35  C   UNL     1       5.801   1.605  -6.905  1.00  0.00     0.014 A 
ATOM     36  C   UNL     1       7.997   0.575  -5.533  1.00  0.00     0.010 A 
ATOM     37  C   UNL     1       6.335   0.374  -7.278  1.00  0.00     0.010 A 
ATOM     38  C   UNL     1       7.441  -0.152  -6.599  1.00  0.00    -0.014 A 
BRANCH  38  39
ATOM     39  C   UNL     1       7.998  -1.469  -7.002  1.00  0.00     0.031 A 
ATOM     40  C   UNL     1       8.563  -1.667  -8.383  1.00  0.00     0.074 A 
ATOM     41  C   UNL     1       7.942  -2.502  -6.137  1.00  0.00     0.049 A 
ATOM     42  N   UNL     1       9.054  -2.754  -8.923  1.00  0.00    -0.248 NA
ATOM     43  C   UNL     1       8.559  -0.502  -9.284  1.00  0.00     0.031 C 
ATOM     44  C   UNL     1       7.378  -2.449  -4.785  1.00  0.00     0.029 A 
ATOM     45  N   UNL     1       8.363  -3.802  -6.267  1.00  0.00    -0.354 N 
ATOM     46  C   UNL     1       9.399  -2.408 -10.223  1.00  0.00     0.074 A 
ATOM     47  C   UNL     1       9.021  -1.026 -10.410  1.00  0.00     0.031 C 
ATOM     48  C   UNL     1       7.519  -3.649  -4.201  1.00  0.00     0.029 A 
ATOM     49  C   UNL     1       8.134  -4.570  -5.150  1.00  0.00     0.049 A 
ATOM     50  H   UNL     1       8.789  -4.151  -7.082  1.00  0.00     0.167 HD
ATOM     51  C   UNL     1       9.994  -3.170 -11.171  1.00  0.00     0.031 A 
ATOM     52  C   UNL     1       8.378  -5.874  -4.919  1.00  0.00     0.031 A 
ATOM     53  C   UNL     1      10.383  -4.541 -10.979  1.00  0.00     0.049 A 
ATOM     54  C   UNL     1       9.016  -6.698  -6.003  1.00  0.00     0.074 A 
ATOM     55  C   UNL     1      11.054  -5.375 -11.857  1.00  0.00     0.029 A 
ATOM     56  N   UNL     1      10.130  -5.282  -9.836  1.00  0.00    -0.354 N 
ATOM     57  N   UNL     1       9.418  -6.329  -7.195  1.00  0.00    -0.248 NA
ATOM     58  C   UNL     1       9.241  -8.120  -5.705  1.00  0.00     0.031 C 
ATOM     59  C   UNL     1      11.148  -6.640 -11.271  1.00  0.00     0.029 A 
ATOM     60  C   UNL     1      10.595  -6.575 -10.002  1.00  0.00     0.049 A 
ATOM     61  H   UNL     1       9.685  -4.940  -9.027  1.00  0.00     0.167 HD
ATOM     62  C   UNL     1       9.963  -7.465  -7.778  1.00  0.00     0.074 A 
ATOM     63  C   UNL     1       9.868  -8.527  -6.799  1.00  0.00     0.031 C 
ATOM     64  C   UNL     1      10.491  -7.619  -9.017  1.00  0.00     0.031 A 
BRANCH  51  65
ATOM     65  C   UNL     1      10.261  -2.545 -12.513  1.00  0.00    -0.014 A 
ATOM     66  C   UNL     1      11.255  -1.568 -12.678  1.00  0.00     0.009 A 
ATOM     67  C   UNL     1       9.563  -3.001 -13.643  1.00  0.00     0.009 A 
ATOM     68  C   UNL     1      11.531  -1.046 -13.944  1.00  0.00     0.001 A 
ATOM     69  C   UNL     1       9.861  -2.498 -14.911  1.00  0.00     0.001 A 
ATOM     70  C   UNL     1      10.840  -1.518 -15.059  1.00  0.00     0.000 A 
ENDBRANCH  51  65
BRANCH  52  71
ATOM     71  C   UNL     1       8.007  -6.495  -3.619  1.00  0.00    -0.014 A 
ATOM     72  C   UNL     1       8.995  -6.975  -2.745  1.00  0.00     0.009 A 
ATOM     73  C   UNL     1       6.658  -6.650  -3.262  1.00  0.00     0.009 A 
ATOM     74  C   UNL     1       8.640  -7.636  -1.567  1.00  0.00     0.001 A 
ATOM     75  C   UNL     1       6.306  -7.277  -2.066  1.00  0.00     0.001 A 
ATOM     76  C   UNL     1       7.296  -7.784  -1.227  1.00  0.00     0.000 A 
ENDBRANCH  52  71
BRANCH  64  77
ATOM     77  C   UNL     1      11.029  -8.977  -9.370  1.00  0.00    -0.014 A 
ATOM     78  C   UNL     1      10.171 -10.068  -9.580  1.00  0.00     0.009 A 
ATOM     79  C   UNL     1      12.412  -9.158  -9.530  1.00  0.00     0.009 A 
ATOM     80  C   UNL     1      10.692 -11.322  -9.906  1.00  0.00     0.001 A 
ATOM     81  C   UNL     1      12.926 -10.403  -9.891  1.00  0.00     0.001 A 
ATOM     82  C   UNL     1      12.067 -11.487 -10.067  1.00  0.00     0.000 A 
ENDBRANCH  64  77
ENDBRANCH  38  39
ENDBRANCH  30  33
ENDBRANCH  28  29
ENDBRANCH  27  28
ENDBRANCH  26  27
ENDBRANCH   3  26
TORSDOF 16
