REMARK SMILES Cc1ccc(/C=C/C(=O)N[C@@H](CO)C(=O)NCCCNC(=O)c2ccc(-c3c4nc(c(-c5ccccc5)c5ccc([nH]5)c(-c5ccccc5)c5nc(c(-c6ccccc6)c6ccc3[nH]6)C=C5)C=C4)cc2)o1
REMARK SMILES IDX 17 1 16 2 14 3 15 4 11 6 10 7 8 8 9 9 7 11 6 12 5 13 1 14
REMARK SMILES IDX 2 15 3 16 71 17 4 18 12 19 13 20 18 22 19 23 20 24 21 25
REMARK SMILES IDX 22 27 23 28 24 29 70 30 25 31 69 32 26 33 27 34 28 35 63 36
REMARK SMILES IDX 29 37 68 38 62 39 64 40 30 41 67 42 61 43 60 44 31 46 53 47
REMARK SMILES IDX 38 48 52 49 39 50 42 51 51 52 65 53 40 54 41 55 50 57 66 58
REMARK SMILES IDX 43 59 32 60 33 61 37 62 34 63 36 64 35 65 54 66 55 67 59 68
REMARK SMILES IDX 56 69 58 70 57 71 44 72 45 73 49 74 46 75 48 76 47 77
REMARK H PARENT 16 5 10 10 13 21 20 26 64 45 42 56
REMARK Flexibility Score: inf
ROOT
ATOM      1  C   UNL     1      -7.792   3.553  -0.355  1.00  0.00     0.117 C 
ENDROOT
BRANCH   1   2
ATOM      2  N   UNL     1      -7.154   2.494  -1.113  1.00  0.00    -0.354 N 
ATOM      3  C   UNL     1      -6.054   1.743  -0.832  1.00  0.00     0.244 C 
ATOM      4  O   UNL     1      -5.751   0.861  -1.643  1.00  0.00    -0.273 OA
ATOM      5  H   UNL     1      -7.587   2.284  -1.972  1.00  0.00     0.163 HD
BRANCH   3   6
ATOM      6  C   UNL     1      -5.183   1.978   0.415  1.00  0.00     0.197 C 
BRANCH   6   7
ATOM      7  N   UNL     1      -4.534   3.290   0.337  1.00  0.00    -0.339 N 
ATOM      8  C   UNL     1      -3.241   3.655   0.128  1.00  0.00     0.244 C 
ATOM      9  O   UNL     1      -2.987   4.852   0.003  1.00  0.00    -0.270 OA
ATOM     10  H   UNL     1      -5.150   4.049   0.458  1.00  0.00     0.164 HD
BRANCH   8  11
ATOM     11  C   UNL     1      -2.124   2.684   0.183  1.00  0.00     0.075 C 
ATOM     12  C   UNL     1      -2.103   1.481  -0.404  1.00  0.00     0.053 C 
BRANCH  12  13
ATOM     13  C   UNL     1      -1.016   0.585  -0.220  1.00  0.00     0.127 A 
ATOM     14  C   UNL     1       2.524   0.010   0.048  1.00  0.00     0.087 C 
ATOM     15  C   UNL     1       1.060  -0.172  -0.003  1.00  0.00     0.101 A 
ATOM     16  C   UNL     1       0.252  -1.283  -0.000  1.00  0.00     0.046 A 
ATOM     17  O   UNL     1       0.304   0.958  -0.096  1.00  0.00    -0.462 OA
ATOM     18  C   UNL     1      -1.068  -0.802  -0.143  1.00  0.00     0.050 A 
ENDBRANCH  12  13
ENDBRANCH   8  11
ENDBRANCH   6   7
BRANCH   6  19
ATOM     19  C   UNL     1      -5.866   1.650   1.750  1.00  0.00     0.191 C 
BRANCH  19  20
ATOM     20  O   UNL     1      -6.699   2.674   2.275  1.00  0.00    -0.394 OA
ATOM     21  H   UNL     1      -6.163   3.458   2.470  1.00  0.00     0.210 HD
ENDBRANCH  19  20
ENDBRANCH   6  19
ENDBRANCH   3   6
ENDBRANCH   1   2
BRANCH   1  22
ATOM     22  C   UNL     1      -8.026   4.809  -1.176  1.00  0.00     0.042 C 
BRANCH  22  23
ATOM     23  C   UNL     1      -8.956   4.615  -2.361  1.00  0.00     0.118 C 
BRANCH  23  24
ATOM     24  N   UNL     1     -10.300   4.212  -1.967  1.00  0.00    -0.352 N 
ATOM     25  C   UNL     1     -11.492   4.891  -2.067  1.00  0.00     0.251 C 
ATOM     26  H   UNL     1     -10.364   3.314  -1.568  1.00  0.00     0.163 HD
ATOM     27  O   UNL     1     -12.493   4.464  -1.509  1.00  0.00    -0.269 OA
BRANCH  25  28
ATOM     28  C   UNL     1     -11.552   6.155  -2.831  1.00  0.00     0.039 A 
ATOM     29  C   UNL     1     -12.247   7.243  -2.298  1.00  0.00     0.014 A 
ATOM     30  C   UNL     1     -10.908   6.268  -4.063  1.00  0.00     0.014 A 
ATOM     31  C   UNL     1     -12.222   8.470  -2.965  1.00  0.00     0.010 A 
ATOM     32  C   UNL     1     -10.793   7.513  -4.668  1.00  0.00     0.010 A 
ATOM     33  C   UNL     1     -11.456   8.626  -4.131  1.00  0.00    -0.014 A 
BRANCH  33  34
ATOM     34  C   UNL     1     -11.341   9.931  -4.828  1.00  0.00     0.031 A 
ATOM     35  C   UNL     1     -11.802  10.054  -6.256  1.00  0.00     0.074 A 
ATOM     36  C   UNL     1     -10.741  10.972  -4.216  1.00  0.00     0.049 A 
ATOM     37  N   UNL     1     -11.670  11.060  -7.083  1.00  0.00    -0.248 NA
ATOM     38  C   UNL     1     -12.468   8.879  -6.845  1.00  0.00     0.031 C 
ATOM     39  C   UNL     1     -10.215  10.968  -2.848  1.00  0.00     0.029 A 
ATOM     40  N   UNL     1     -10.457  12.234  -4.675  1.00  0.00    -0.354 N 
ATOM     41  C   UNL     1     -12.205  10.626  -8.290  1.00  0.00     0.074 A 
ATOM     42  C   UNL     1     -12.620   9.255  -8.106  1.00  0.00     0.031 C 
ATOM     43  C   UNL     1      -9.691  12.174  -2.575  1.00  0.00     0.029 A 
ATOM     44  C   UNL     1      -9.796  13.019  -3.759  1.00  0.00     0.049 A 
ATOM     45  H   UNL     1     -10.703  12.548  -5.574  1.00  0.00     0.167 HD
ATOM     46  C   UNL     1     -12.354  11.316  -9.444  1.00  0.00     0.031 A 
ATOM     47  C   UNL     1      -9.313  14.271  -3.869  1.00  0.00     0.031 A 
ATOM     48  C   UNL     1     -11.969  12.690  -9.616  1.00  0.00     0.049 A 
ATOM     49  C   UNL     1      -9.490  15.012  -5.167  1.00  0.00     0.074 A 
ATOM     50  C   UNL     1     -12.144  13.499 -10.724  1.00  0.00     0.029 A 
ATOM     51  N   UNL     1     -11.335  13.457  -8.652  1.00  0.00    -0.354 N 
ATOM     52  N   UNL     1     -10.065  14.612  -6.275  1.00  0.00    -0.248 NA
ATOM     53  C   UNL     1      -8.963  16.383  -5.225  1.00  0.00     0.031 C 
ATOM     54  C   UNL     1     -11.564  14.740 -10.452  1.00  0.00     0.029 A 
ATOM     55  C   UNL     1     -11.091  14.724  -9.149  1.00  0.00     0.049 A 
ATOM     56  H   UNL     1     -11.095  13.146  -7.749  1.00  0.00     0.167 HD
ATOM     57  C   UNL     1     -10.005  15.694  -7.144  1.00  0.00     0.074 A 
ATOM     58  C   UNL     1      -9.347  16.769  -6.434  1.00  0.00     0.031 C 
ATOM     59  C   UNL     1     -10.457  15.789  -8.418  1.00  0.00     0.031 A 
BRANCH  46  60
ATOM     60  C   UNL     1     -12.959  10.599 -10.619  1.00  0.00    -0.014 A 
ATOM     61  C   UNL     1     -14.318  10.249 -10.640  1.00  0.00     0.009 A 
ATOM     62  C   UNL     1     -12.172  10.333 -11.751  1.00  0.00     0.009 A 
ATOM     63  C   UNL     1     -14.870   9.625 -11.760  1.00  0.00     0.001 A 
ATOM     64  C   UNL     1     -12.733   9.736 -12.880  1.00  0.00     0.001 A 
ATOM     65  C   UNL     1     -14.080   9.377 -12.882  1.00  0.00     0.000 A 
ENDBRANCH  46  60
BRANCH  47  66
ATOM     66  C   UNL     1      -8.608  14.911  -2.725  1.00  0.00    -0.014 A 
ATOM     67  C   UNL     1      -9.172  16.012  -2.062  1.00  0.00     0.009 A 
ATOM     68  C   UNL     1      -7.348  14.448  -2.313  1.00  0.00     0.009 A 
ATOM     69  C   UNL     1      -8.473  16.662  -1.041  1.00  0.00     0.001 A 
ATOM     70  C   UNL     1      -6.667  15.077  -1.268  1.00  0.00     0.001 A 
ATOM     71  C   UNL     1      -7.223  16.192  -0.644  1.00  0.00     0.000 A 
ENDBRANCH  47  66
BRANCH  59  72
ATOM     72  C   UNL     1     -10.320  17.116  -9.107  1.00  0.00    -0.014 A 
ATOM     73  C   UNL     1      -9.076  17.594  -9.544  1.00  0.00     0.009 A 
ATOM     74  C   UNL     1     -11.475  17.867  -9.384  1.00  0.00     0.009 A 
ATOM     75  C   UNL     1      -8.988  18.812 -10.220  1.00  0.00     0.001 A 
ATOM     76  C   UNL     1     -11.387  19.068 -10.088  1.00  0.00     0.001 A 
ATOM     77  C   UNL     1     -10.143  19.543 -10.498  1.00  0.00     0.000 A 
ENDBRANCH  59  72
ENDBRANCH  33  34
ENDBRANCH  25  28
ENDBRANCH  23  24
ENDBRANCH  22  23
ENDBRANCH   1  22
TORSDOF 15
