REMARK SMILES CC(=O)c1cc(C(=O)NC[C@H]2CC[C@H](C(=O)NCCCNC(=O)c3ccc(-c4c5nc(c(-c6ccccc6)c6ccc([nH]6)c(-c6ccccc6)c6nc(c(-c7ccccc7)c7ccc4[nH]7)C=C6)C=C5)cc3)O2)n(C)c1
REMARK SMILES IDX 18 1 17 2 15 3 16 4 14 6 11 7 12 8 72 9 13 10 10 11 9 12
REMARK SMILES IDX 7 13 8 14 6 16 4 17 5 18 75 19 73 20 74 21 2 22 1 23 3 24
REMARK SMILES IDX 19 25 20 26 21 27 22 28 23 30 24 31 25 32 71 33 26 34 70 35
REMARK SMILES IDX 27 36 28 37 29 38 64 39 30 40 69 41 63 42 65 43 31 44 68 45
REMARK SMILES IDX 62 46 61 47 32 49 54 50 39 51 53 52 40 53 43 54 52 55 66 56
REMARK SMILES IDX 41 57 42 58 51 60 67 61 44 62 33 63 34 64 38 65 35 66 37 67
REMARK SMILES IDX 36 68 55 69 56 70 60 71 57 72 59 73 58 74 45 75 46 76 50 77
REMARK SMILES IDX 47 78 49 79 48 80
REMARK H PARENT 17 5 9 15 21 29 65 48 43 59
REMARK Flexibility Score: inf
ROOT
ATOM      1  C   UNL     1       4.725  -8.496  -1.849  1.00  0.00     0.117 C 
ENDROOT
BRANCH   1   2
ATOM      2  N   UNL     1       5.082  -8.660  -3.242  1.00  0.00    -0.354 N 
ATOM      3  C   UNL     1       4.325  -8.556  -4.372  1.00  0.00     0.249 C 
ATOM      4  O   UNL     1       4.907  -8.731  -5.448  1.00  0.00    -0.272 OA
ATOM      5  H   UNL     1       6.028  -8.882  -3.401  1.00  0.00     0.163 HD
BRANCH   3   6
ATOM      6  C   UNL     1       2.792  -8.326  -4.339  1.00  0.00     0.207 C 
ATOM      7  C   UNL     1       1.292  -7.641  -2.677  1.00  0.00     0.138 C 
ATOM      8  C   UNL     1       1.468  -9.147  -2.523  1.00  0.00     0.037 C 
ATOM      9  O   UNL     1       2.300  -7.210  -3.597  1.00  0.00    -0.363 OA
ATOM     10  C   UNL     1       2.043  -9.560  -3.860  1.00  0.00     0.045 C 
BRANCH   7  11
ATOM     11  C   UNL     1      -0.139  -7.447  -3.169  1.00  0.00     0.148 C 
BRANCH  11  12
ATOM     12  N   UNL     1      -0.509  -6.291  -3.921  1.00  0.00    -0.348 N 
ATOM     13  C   UNL     1      -1.460  -6.233  -4.918  1.00  0.00     0.268 C 
ATOM     14  O   UNL     1      -1.669  -5.127  -5.415  1.00  0.00    -0.268 OA
ATOM     15  H   UNL     1      -0.038  -5.453  -3.708  1.00  0.00     0.163 HD
BRANCH  13  16
ATOM     16  C   UNL     1      -2.104  -7.443  -5.443  1.00  0.00     0.107 A 
ATOM     17  C   UNL     1      -2.974  -8.894  -7.013  1.00  0.00     0.036 A 
ATOM     18  C   UNL     1      -2.429  -7.602  -6.793  1.00  0.00     0.045 A 
ATOM     19  C   UNL     1      -2.970  -9.507  -5.780  1.00  0.00     0.097 A 
ATOM     20  N   UNL     1      -2.583  -8.592  -4.830  1.00  0.00    -0.346 N 
ATOM     21  C   UNL     1      -2.792  -8.875  -3.425  1.00  0.00     0.150 C 
BRANCH  17  22
ATOM     22  C   UNL     1      -3.470  -9.516  -8.239  1.00  0.00     0.161 C 
ATOM     23  C   UNL     1      -3.339  -8.756  -9.532  1.00  0.00     0.093 C 
ATOM     24  O   UNL     1      -3.964 -10.644  -8.228  1.00  0.00    -0.294 OA
ENDBRANCH  17  22
ENDBRANCH  13  16
ENDBRANCH  11  12
ENDBRANCH   7  11
ENDBRANCH   3   6
ENDBRANCH   1   2
BRANCH   1  25
ATOM     25  C   UNL     1       4.450  -9.835  -1.167  1.00  0.00     0.042 C 
BRANCH  25  26
ATOM     26  C   UNL     1       5.687 -10.533  -0.634  1.00  0.00     0.118 C 
BRANCH  26  27
ATOM     27  N   UNL     1       6.205  -9.861   0.547  1.00  0.00    -0.352 N 
ATOM     28  C   UNL     1       6.349 -10.314   1.834  1.00  0.00     0.251 C 
ATOM     29  H   UNL     1       6.499  -8.933   0.400  1.00  0.00     0.163 HD
ATOM     30  O   UNL     1       6.561  -9.504   2.733  1.00  0.00    -0.269 OA
BRANCH  28  31
ATOM     31  C   UNL     1       6.247 -11.757   2.156  1.00  0.00     0.039 A 
ATOM     32  C   UNL     1       5.715 -12.132   3.395  1.00  0.00     0.014 A 
ATOM     33  C   UNL     1       6.724 -12.738   1.283  1.00  0.00     0.014 A 
ATOM     34  C   UNL     1       5.631 -13.483   3.738  1.00  0.00     0.010 A 
ATOM     35  C   UNL     1       6.555 -14.085   1.585  1.00  0.00     0.010 A 
ATOM     36  C   UNL     1       6.030 -14.472   2.825  1.00  0.00    -0.014 A 
BRANCH  36  37
ATOM     37  C   UNL     1       5.940 -15.914   3.163  1.00  0.00     0.031 A 
ATOM     38  C   UNL     1       7.192 -16.745   3.256  1.00  0.00     0.074 A 
ATOM     39  C   UNL     1       4.733 -16.486   3.330  1.00  0.00     0.049 A 
ATOM     40  N   UNL     1       7.317 -18.028   3.484  1.00  0.00    -0.248 NA
ATOM     41  C   UNL     1       8.471 -16.049   3.035  1.00  0.00     0.031 C 
ATOM     42  C   UNL     1       3.445 -15.796   3.224  1.00  0.00     0.029 A 
ATOM     43  N   UNL     1       4.393 -17.783   3.620  1.00  0.00    -0.354 N 
ATOM     44  C   UNL     1       8.679 -18.293   3.410  1.00  0.00     0.074 A 
ATOM     45  C   UNL     1       9.335 -17.051   3.067  1.00  0.00     0.031 C 
ATOM     46  C   UNL     1       2.458 -16.670   3.477  1.00  0.00     0.029 A 
ATOM     47  C   UNL     1       3.038 -17.986   3.724  1.00  0.00     0.049 A 
ATOM     48  H   UNL     1       5.056 -18.500   3.742  1.00  0.00     0.167 HD
ATOM     49  C   UNL     1       9.329 -19.460   3.630  1.00  0.00     0.031 A 
ATOM     50  C   UNL     1       2.343 -19.107   3.987  1.00  0.00     0.031 A 
ATOM     51  C   UNL     1       8.677 -20.689   3.993  1.00  0.00     0.049 A 
ATOM     52  C   UNL     1       3.087 -20.390   4.230  1.00  0.00     0.074 A 
ATOM     53  C   UNL     1       9.248 -21.912   4.298  1.00  0.00     0.029 A 
ATOM     54  N   UNL     1       7.304 -20.849   4.100  1.00  0.00    -0.354 N 
ATOM     55  N   UNL     1       4.380 -20.608   4.223  1.00  0.00    -0.248 NA
ATOM     56  C   UNL     1       2.275 -21.577   4.530  1.00  0.00     0.031 C 
ATOM     57  C   UNL     1       8.217 -22.825   4.545  1.00  0.00     0.029 A 
ATOM     58  C   UNL     1       7.008 -22.156   4.445  1.00  0.00     0.049 A 
ATOM     59  H   UNL     1       6.639 -20.139   3.952  1.00  0.00     0.167 HD
ATOM     60  C   UNL     1       4.538 -21.951   4.540  1.00  0.00     0.074 A 
ATOM     61  C   UNL     1       3.210 -22.491   4.752  1.00  0.00     0.031 C 
ATOM     62  C   UNL     1       5.679 -22.673   4.647  1.00  0.00     0.031 A 
BRANCH  49  63
ATOM     63  C   UNL     1      10.825 -19.458   3.479  1.00  0.00    -0.014 A 
ATOM     64  C   UNL     1      11.650 -18.793   4.401  1.00  0.00     0.009 A 
ATOM     65  C   UNL     1      11.422 -20.153   2.415  1.00  0.00     0.009 A 
ATOM     66  C   UNL     1      13.037 -18.789   4.238  1.00  0.00     0.001 A 
ATOM     67  C   UNL     1      12.810 -20.172   2.271  1.00  0.00     0.001 A 
ATOM     68  C   UNL     1      13.616 -19.482   3.176  1.00  0.00     0.000 A 
ENDBRANCH  49  63
BRANCH  50  69
ATOM     69  C   UNL     1       0.859 -19.063   4.056  1.00  0.00    -0.014 A 
ATOM     70  C   UNL     1       0.202 -19.192   5.289  1.00  0.00     0.009 A 
ATOM     71  C   UNL     1       0.093 -18.889   2.893  1.00  0.00     0.009 A 
ATOM     72  C   UNL     1      -1.193 -19.173   5.353  1.00  0.00     0.001 A 
ATOM     73  C   UNL     1      -1.301 -18.843   2.963  1.00  0.00     0.001 A 
ATOM     74  C   UNL     1      -1.943 -18.994   4.191  1.00  0.00     0.000 A 
ENDBRANCH  50  69
BRANCH  62  75
ATOM     75  C   UNL     1       5.540 -24.117   5.037  1.00  0.00    -0.014 A 
ATOM     76  C   UNL     1       5.048 -25.070   4.133  1.00  0.00     0.009 A 
ATOM     77  C   UNL     1       5.944 -24.533   6.315  1.00  0.00     0.009 A 
ATOM     78  C   UNL     1       4.931 -26.408   4.514  1.00  0.00     0.001 A 
ATOM     79  C   UNL     1       5.854 -25.875   6.683  1.00  0.00     0.001 A 
ATOM     80  C   UNL     1       5.338 -26.810   5.786  1.00  0.00     0.000 A 
ENDBRANCH  62  75
ENDBRANCH  36  37
ENDBRANCH  28  31
ENDBRANCH  26  27
ENDBRANCH  25  26
ENDBRANCH   1  25
TORSDOF 14
