REMARK SMILES O=C1C=C/C(=C\NCc2ccc(C(=O)NCCCNC(=O)c3ccc(-c4c5nc(c(-c6ccccc6)c6ccc([nH]6)c(-c6ccccc6)c6nc(c(-c7ccccc7)c7ccc4[nH]7)C=C6)C=C5)cc3)cc2)C=C1[N+](=O)[O-]
REMARK SMILES IDX 16 1 15 2 13 3 14 4 12 6 9 7 10 8 71 9 11 10 70 11 8 12 7 13
REMARK SMILES IDX 6 15 1 16 2 17 3 18 73 19 4 20 72 21 5 22 74 23 75 24 76 25
REMARK SMILES IDX 17 26 18 27 19 28 20 29 21 31 22 32 23 33 69 34 24 35 68 36
REMARK SMILES IDX 25 37 26 38 27 39 62 40 28 41 67 42 61 43 63 44 29 45 66 46
REMARK SMILES IDX 60 47 59 48 30 50 52 51 37 52 51 53 38 54 41 55 50 56 64 57
REMARK SMILES IDX 39 58 40 59 49 61 65 62 42 63 31 64 32 65 36 66 33 67 35 68
REMARK SMILES IDX 34 69 53 70 54 71 58 72 55 73 57 74 56 75 43 76 44 77 48 78
REMARK SMILES IDX 45 79 47 80 46 81
REMARK H PARENT 15 5 7 14 19 30 63 49 41 60
REMARK Flexibility Score: inf
ROOT
ATOM      1  C   UNL     1       7.075   1.946  -6.379  1.00  0.00     0.118 C 
ENDROOT
BRANCH   1   2
ATOM      2  N   UNL     1       6.577   3.283  -6.115  1.00  0.00    -0.352 N 
ATOM      3  C   UNL     1       6.056   3.859  -4.985  1.00  0.00     0.251 C 
ATOM      4  O   UNL     1       5.794   5.061  -5.022  1.00  0.00    -0.269 OA
ATOM      5  H   UNL     1       6.621   3.888  -6.890  1.00  0.00     0.163 HD
BRANCH   3   6
ATOM      6  C   UNL     1       5.834   3.110  -3.720  1.00  0.00     0.039 A 
ATOM      7  C   UNL     1       5.379   1.856  -1.232  1.00  0.00    -0.029 A 
ATOM      8  C   UNL     1       5.740   3.208  -1.289  1.00  0.00     0.006 A 
ATOM      9  C   UNL     1       5.220   1.149  -2.431  1.00  0.00     0.006 A 
ATOM     10  C   UNL     1       5.969   3.826  -2.521  1.00  0.00     0.014 A 
ATOM     11  C   UNL     1       5.427   1.776  -3.663  1.00  0.00     0.014 A 
BRANCH   7  12
ATOM     12  C   UNL     1       5.066   1.192   0.085  1.00  0.00     0.148 C 
BRANCH  12  13
ATOM     13  N   UNL     1       3.629   1.209   0.275  1.00  0.00    -0.386 N 
ATOM     14  H   UNL     1       3.218   2.083   0.464  1.00  0.00     0.160 HD
BRANCH  13  15
ATOM     15  C   UNL     1       2.782   0.129   0.218  1.00  0.00     0.086 C 
ATOM     16  O   UNL     1      -2.643  -0.012  -0.129  1.00  0.00    -0.282 OA
ATOM     17  C   UNL     1      -1.426  -0.038  -0.010  1.00  0.00     0.255 C 
ATOM     18  C   UNL     1      -0.701   1.263   0.059  1.00  0.00     0.060 C 
ATOM     19  C   UNL     1      -0.587  -1.262   0.047  1.00  0.00     0.316 C 
ATOM     20  C   UNL     1       0.635   1.315   0.137  1.00  0.00     0.014 C 
ATOM     21  C   UNL     1       0.756  -1.194   0.118  1.00  0.00     0.099 C 
ATOM     22  C   UNL     1       1.435   0.099   0.162  1.00  0.00    -0.003 C 
BRANCH  19  23
ATOM     23  N   UNL     1      -1.199  -2.578   0.015  1.00  0.00     0.067 N 
ATOM     24  O   UNL     1      -0.460  -3.550  -0.211  1.00  0.00    -0.258 OA
ATOM     25  O   UNL     1      -2.410  -2.677   0.236  1.00  0.00    -0.258 OA
ENDBRANCH  19  23
ENDBRANCH  13  15
ENDBRANCH  12  13
ENDBRANCH   7  12
ENDBRANCH   3   6
ENDBRANCH   1   2
BRANCH   1  26
ATOM     26  C   UNL     1       6.072   1.129  -7.194  1.00  0.00     0.042 C 
BRANCH  26  27
ATOM     27  C   UNL     1       5.965   1.568  -8.652  1.00  0.00     0.118 C 
BRANCH  27  28
ATOM     28  N   UNL     1       7.158   1.235  -9.414  1.00  0.00    -0.352 N 
ATOM     29  C   UNL     1       7.298   0.494 -10.559  1.00  0.00     0.251 C 
ATOM     30  H   UNL     1       7.998   1.598  -9.049  1.00  0.00     0.163 HD
ATOM     31  O   UNL     1       8.421   0.154 -10.922  1.00  0.00    -0.269 OA
BRANCH  29  32
ATOM     32  C   UNL     1       6.120   0.091 -11.359  1.00  0.00     0.039 A 
ATOM     33  C   UNL     1       6.110  -1.182 -11.939  1.00  0.00     0.014 A 
ATOM     34  C   UNL     1       5.060   0.971 -11.597  1.00  0.00     0.014 A 
ATOM     35  C   UNL     1       5.025  -1.586 -12.720  1.00  0.00     0.010 A 
ATOM     36  C   UNL     1       3.948   0.545 -12.323  1.00  0.00     0.010 A 
ATOM     37  C   UNL     1       3.925  -0.733 -12.900  1.00  0.00    -0.014 A 
BRANCH  37  38
ATOM     38  C   UNL     1       2.750  -1.164 -13.697  1.00  0.00     0.031 A 
ATOM     39  C   UNL     1       2.421  -0.489 -14.999  1.00  0.00     0.074 A 
ATOM     40  C   UNL     1       1.949  -2.138 -13.225  1.00  0.00     0.049 A 
ATOM     41  N   UNL     1       1.430  -0.722 -15.823  1.00  0.00    -0.248 NA
ATOM     42  C   UNL     1       3.309   0.605 -15.420  1.00  0.00     0.031 C 
ATOM     43  C   UNL     1       2.140  -2.853 -11.961  1.00  0.00     0.029 A 
ATOM     44  N   UNL     1       0.815  -2.697 -13.757  1.00  0.00    -0.354 N 
ATOM     45  C   UNL     1       1.564   0.208 -16.847  1.00  0.00     0.074 A 
ATOM     46  C   UNL     1       2.705   1.035 -16.518  1.00  0.00     0.031 C 
ATOM     47  C   UNL     1       1.180  -3.783 -11.835  1.00  0.00     0.029 A 
ATOM     48  C   UNL     1       0.288  -3.705 -12.988  1.00  0.00     0.049 A 
ATOM     49  H   UNL     1       0.417  -2.403 -14.608  1.00  0.00     0.167 HD
ATOM     50  C   UNL     1       0.816   0.352 -17.967  1.00  0.00     0.031 A 
ATOM     51  C   UNL     1      -0.790  -4.484 -13.191  1.00  0.00     0.031 A 
ATOM     52  C   UNL     1      -0.315  -0.474 -18.300  1.00  0.00     0.049 A 
ATOM     53  C   UNL     1      -1.613  -4.296 -14.432  1.00  0.00     0.074 A 
ATOM     54  C   UNL     1      -1.097  -0.449 -19.442  1.00  0.00     0.029 A 
ATOM     55  N   UNL     1      -0.828  -1.471 -17.485  1.00  0.00    -0.354 N 
ATOM     56  N   UNL     1      -1.435  -3.457 -15.423  1.00  0.00    -0.248 NA
ATOM     57  C   UNL     1      -2.784  -5.172 -14.583  1.00  0.00     0.031 C 
ATOM     58  C   UNL     1      -2.114  -1.401 -19.296  1.00  0.00     0.029 A 
ATOM     59  C   UNL     1      -1.934  -2.050 -18.086  1.00  0.00     0.049 A 
ATOM     60  H   UNL     1      -0.461  -1.729 -16.609  1.00  0.00     0.167 HD
ATOM     61  C   UNL     1      -2.455  -3.719 -16.327  1.00  0.00     0.074 A 
ATOM     62  C   UNL     1      -3.240  -4.803 -15.772  1.00  0.00     0.031 C 
ATOM     63  C   UNL     1      -2.714  -3.118 -17.515  1.00  0.00     0.031 A 
BRANCH  50  64
ATOM     64  C   UNL     1       1.195   1.466 -18.904  1.00  0.00    -0.014 A 
ATOM     65  C   UNL     1       2.377   1.413 -19.661  1.00  0.00     0.009 A 
ATOM     66  C   UNL     1       0.359   2.586 -19.031  1.00  0.00     0.009 A 
ATOM     67  C   UNL     1       2.737   2.479 -20.488  1.00  0.00     0.001 A 
ATOM     68  C   UNL     1       0.708   3.639 -19.880  1.00  0.00     0.001 A 
ATOM     69  C   UNL     1       1.902   3.590 -20.597  1.00  0.00     0.000 A 
ENDBRANCH  50  64
BRANCH  51  70
ATOM     70  C   UNL     1      -1.123  -5.548 -12.211  1.00  0.00    -0.014 A 
ATOM     71  C   UNL     1      -0.879  -6.894 -12.525  1.00  0.00     0.009 A 
ATOM     72  C   UNL     1      -1.664  -5.229 -10.957  1.00  0.00     0.009 A 
ATOM     73  C   UNL     1      -1.183  -7.901 -11.607  1.00  0.00     0.001 A 
ATOM     74  C   UNL     1      -1.946  -6.236 -10.032  1.00  0.00     0.001 A 
ATOM     75  C   UNL     1      -1.710  -7.571 -10.359  1.00  0.00     0.000 A 
ENDBRANCH  51  70
BRANCH  63  76
ATOM     76  C   UNL     1      -3.884  -3.639 -18.300  1.00  0.00    -0.014 A 
ATOM     77  C   UNL     1      -5.203  -3.369 -17.904  1.00  0.00     0.009 A 
ATOM     78  C   UNL     1      -3.661  -4.394 -19.462  1.00  0.00     0.009 A 
ATOM     79  C   UNL     1      -6.277  -3.876 -18.640  1.00  0.00     0.001 A 
ATOM     80  C   UNL     1      -4.736  -4.876 -20.209  1.00  0.00     0.001 A 
ATOM     81  C   UNL     1      -6.042  -4.625 -19.793  1.00  0.00     0.000 A 
ENDBRANCH  63  76
ENDBRANCH  37  38
ENDBRANCH  29  32
ENDBRANCH  27  28
ENDBRANCH  26  27
ENDBRANCH   1  26
TORSDOF 14
