REMARK SMILES O=C(NCCCNC(=O)c1ccc(-n2cc(CSc3nc4ccccc4c(=O)n3-c3ccccc3)nn2)cc1)c1ccc(-c2c3nc(c(-c4ccccc4)c4ccc([nH]4)c(-c4ccccc4)c4nc(c(-c5ccccc5)c5ccc2[nH]5)C=C4)C=C3)cc1
REMARK SMILES IDX 7 1 8 2 9 3 6 5 5 6 4 7 3 8 1 9 2 10 40 12 41 13 87 14 42 15
REMARK SMILES IDX 86 16 43 17 44 18 45 19 80 20 46 21 85 22 79 23 81 24 47 25
REMARK SMILES IDX 84 26 78 27 77 28 48 30 70 31 55 32 69 33 56 34 59 35 68 36
REMARK SMILES IDX 82 37 57 38 58 39 67 41 83 42 60 43 49 44 50 45 54 46 51 47
REMARK SMILES IDX 53 48 52 49 71 50 72 51 76 52 73 53 75 54 74 55 61 56 62 57
REMARK SMILES IDX 66 58 63 59 65 60 64 61 10 62 11 63 39 64 12 65 38 66 13 67
REMARK SMILES IDX 14 68 15 69 37 70 16 71 36 72 17 73 18 74 19 75 20 76 29 77
REMARK SMILES IDX 21 78 27 79 22 80 26 81 28 82 23 83 25 84 24 85 30 86 31 87
REMARK SMILES IDX 35 88 32 89 34 90 33 91
REMARK H PARENT 7 4 3 11 81 29 59 40
REMARK Flexibility Score: inf
ROOT
ATOM      1  N   UNL     1       5.018  -2.006  -3.749  1.00  0.00    -0.352 N 
ATOM      2  C   UNL     1       5.899  -2.539  -4.657  1.00  0.00     0.251 C 
ATOM      3  O   UNL     1       6.276  -1.873  -5.611  1.00  0.00    -0.269 OA
ATOM      4  H   UNL     1       4.661  -1.121  -3.990  1.00  0.00     0.163 HD
ENDROOT
BRANCH   1   5
ATOM      5  C   UNL     1       4.526  -2.539  -2.490  1.00  0.00     0.118 C 
BRANCH   5   6
ATOM      6  C   UNL     1       5.090  -1.815  -1.271  1.00  0.00     0.042 C 
BRANCH   6   7
ATOM      7  C   UNL     1       4.780  -0.320  -1.213  1.00  0.00     0.118 C 
BRANCH   7   8
ATOM      8  N   UNL     1       3.375   0.019  -1.318  1.00  0.00    -0.352 N 
ATOM      9  O   UNL     1       1.316   0.669  -0.869  1.00  0.00    -0.269 OA
ATOM     10  C   UNL     1       2.347   0.152  -0.430  1.00  0.00     0.251 C 
ATOM     11  H   UNL     1       3.097   0.195  -2.246  1.00  0.00     0.163 HD
BRANCH  10  12
ATOM     12  C   UNL     1       2.345  -0.360   0.966  1.00  0.00     0.039 A 
ATOM     13  C   UNL     1       3.435  -0.912   1.641  1.00  0.00     0.014 A 
ATOM     14  C   UNL     1       1.090  -0.353   1.605  1.00  0.00     0.014 A 
ATOM     15  C   UNL     1       3.252  -1.566   2.856  1.00  0.00     0.010 A 
ATOM     16  C   UNL     1       0.904  -0.987   2.823  1.00  0.00     0.010 A 
ATOM     17  C   UNL     1       1.976  -1.645   3.415  1.00  0.00    -0.014 A 
BRANCH  17  18
ATOM     18  C   UNL     1       1.804  -2.337   4.686  1.00  0.00     0.031 A 
ATOM     19  C   UNL     1       2.414  -1.656   5.864  1.00  0.00     0.074 A 
ATOM     20  C   UNL     1       1.001  -3.412   4.815  1.00  0.00     0.049 A 
ATOM     21  N   UNL     1       3.278  -2.124   6.704  1.00  0.00    -0.248 NA
ATOM     22  C   UNL     1       2.074  -0.239   6.081  1.00  0.00     0.031 C 
ATOM     23  C   UNL     1       0.116  -3.999   3.804  1.00  0.00     0.029 A 
ATOM     24  N   UNL     1       0.706  -4.132   5.933  1.00  0.00    -0.354 N 
ATOM     25  C   UNL     1       3.474  -1.122   7.653  1.00  0.00     0.074 A 
ATOM     26  C   UNL     1       2.812   0.055   7.150  1.00  0.00     0.031 C 
ATOM     27  C   UNL     1      -0.784  -4.804   4.414  1.00  0.00     0.029 A 
ATOM     28  C   UNL     1      -0.453  -4.892   5.826  1.00  0.00     0.049 A 
ATOM     29  H   UNL     1       1.263  -4.116   6.744  1.00  0.00     0.167 HD
ATOM     30  C   UNL     1       3.978  -1.381   8.891  1.00  0.00     0.031 A 
ATOM     31  C   UNL     1      -1.135  -5.483   6.839  1.00  0.00     0.031 A 
ATOM     32  C   UNL     1       4.655  -2.647   8.948  1.00  0.00     0.049 A 
ATOM     33  C   UNL     1      -0.224  -5.576   8.002  1.00  0.00     0.074 A 
ATOM     34  C   UNL     1       5.757  -3.196   8.324  1.00  0.00     0.029 A 
ATOM     35  N   UNL     1       3.977  -3.704   9.503  1.00  0.00    -0.354 N 
ATOM     36  N   UNL     1       0.828  -6.342   8.028  1.00  0.00    -0.248 NA
ATOM     37  C   UNL     1      -0.227  -4.483   8.962  1.00  0.00     0.031 C 
ATOM     38  C   UNL     1       5.409  -4.561   8.105  1.00  0.00     0.029 A 
ATOM     39  C   UNL     1       4.146  -4.772   8.661  1.00  0.00     0.049 A 
ATOM     40  H   UNL     1       3.466  -3.696  10.344  1.00  0.00     0.167 HD
ATOM     41  C   UNL     1       1.796  -5.587   8.674  1.00  0.00     0.074 A 
ATOM     42  C   UNL     1       1.063  -4.495   9.312  1.00  0.00     0.031 C 
ATOM     43  C   UNL     1       3.122  -5.755   8.396  1.00  0.00     0.031 A 
BRANCH  30  44
ATOM     44  C   UNL     1       3.499  -0.680  10.139  1.00  0.00    -0.014 A 
ATOM     45  C   UNL     1       4.106  -0.993  11.370  1.00  0.00     0.009 A 
ATOM     46  C   UNL     1       2.289   0.038  10.196  1.00  0.00     0.009 A 
ATOM     47  C   UNL     1       3.488  -0.678  12.587  1.00  0.00     0.001 A 
ATOM     48  C   UNL     1       1.691   0.390  11.408  1.00  0.00     0.001 A 
ATOM     49  C   UNL     1       2.276   0.004  12.605  1.00  0.00     0.000 A 
ENDBRANCH  30  44
BRANCH  31  50
ATOM     50  C   UNL     1      -2.597  -5.673   6.969  1.00  0.00    -0.014 A 
ATOM     51  C   UNL     1      -3.133  -6.587   7.890  1.00  0.00     0.009 A 
ATOM     52  C   UNL     1      -3.480  -4.755   6.370  1.00  0.00     0.009 A 
ATOM     53  C   UNL     1      -4.497  -6.561   8.219  1.00  0.00     0.001 A 
ATOM     54  C   UNL     1      -4.840  -4.730   6.697  1.00  0.00     0.001 A 
ATOM     55  C   UNL     1      -5.346  -5.625   7.632  1.00  0.00     0.000 A 
ENDBRANCH  31  50
BRANCH  43  56
ATOM     56  C   UNL     1       3.514  -6.910   7.506  1.00  0.00    -0.014 A 
ATOM     57  C   UNL     1       3.084  -7.023   6.171  1.00  0.00     0.009 A 
ATOM     58  C   UNL     1       4.468  -7.822   7.976  1.00  0.00     0.009 A 
ATOM     59  C   UNL     1       3.573  -8.039   5.343  1.00  0.00     0.001 A 
ATOM     60  C   UNL     1       4.971  -8.824   7.143  1.00  0.00     0.001 A 
ATOM     61  C   UNL     1       4.520  -8.936   5.830  1.00  0.00     0.000 A 
ENDBRANCH  43  56
ENDBRANCH  17  18
ENDBRANCH  10  12
ENDBRANCH   7   8
ENDBRANCH   6   7
ENDBRANCH   5   6
ENDBRANCH   1   5
BRANCH   2  62
ATOM     62  C   UNL     1       6.420  -3.907  -4.466  1.00  0.00     0.039 A 
ATOM     63  C   UNL     1       7.808  -4.095  -4.451  1.00  0.00     0.016 A 
ATOM     64  C   UNL     1       5.554  -4.996  -4.343  1.00  0.00     0.016 A 
ATOM     65  C   UNL     1       8.339  -5.363  -4.212  1.00  0.00     0.029 A 
ATOM     66  C   UNL     1       6.080  -6.272  -4.145  1.00  0.00     0.029 A 
ATOM     67  C   UNL     1       7.473  -6.449  -4.067  1.00  0.00     0.066 A 
BRANCH  67  68
ATOM     68  N   UNL     1       8.006  -7.746  -3.933  1.00  0.00    -0.220 N 
ATOM     69  C   UNL     1       7.469  -8.887  -4.456  1.00  0.00     0.141 A 
ATOM     70  N   UNL     1       9.137  -8.048  -3.260  1.00  0.00    -0.062 NA
ATOM     71  C   UNL     1       8.318  -9.906  -4.103  1.00  0.00     0.093 A 
ATOM     72  N   UNL     1       9.301  -9.371  -3.307  1.00  0.00    -0.134 NA
BRANCH  71  73
ATOM     73  C   UNL     1       8.130 -11.366  -4.265  1.00  0.00     0.138 C 
BRANCH  73  74
ATOM     74  S   UNL     1       8.648 -12.280  -5.720  1.00  0.00    -0.081 SA
BRANCH  74  75
ATOM     75  C   UNL     1       8.826 -11.296  -7.148  1.00  0.00     0.176 A 
ATOM     76  N   UNL     1       9.811 -11.695  -7.903  1.00  0.00    -0.223 NA
ATOM     77  N   UNL     1       8.046 -10.210  -7.502  1.00  0.00    -0.255 N 
ATOM     78  C   UNL     1      10.147 -10.921  -9.023  1.00  0.00     0.079 A 
ATOM     79  C   UNL     1       8.772  -9.160  -8.090  1.00  0.00     0.266 A 
ATOM     80  C   UNL     1      10.924 -11.436 -10.060  1.00  0.00     0.029 A 
ATOM     81  C   UNL     1       9.790  -9.582  -9.065  1.00  0.00     0.066 A 
ATOM     82  O   UNL     1       8.632  -7.971  -7.864  1.00  0.00    -0.268 OA
ATOM     83  C   UNL     1      11.382 -10.593 -11.082  1.00  0.00     0.002 A 
ATOM     84  C   UNL     1      10.286  -8.713 -10.040  1.00  0.00     0.016 A 
ATOM     85  C   UNL     1      11.095  -9.226 -11.051  1.00  0.00     0.001 A 
BRANCH  77  86
ATOM     86  C   UNL     1       6.623 -10.028  -7.312  1.00  0.00     0.051 A 
ATOM     87  C   UNL     1       5.974  -8.922  -7.902  1.00  0.00     0.027 A 
ATOM     88  C   UNL     1       5.807 -10.878  -6.557  1.00  0.00     0.027 A 
ATOM     89  C   UNL     1       4.673  -8.548  -7.558  1.00  0.00     0.002 A 
ATOM     90  C   UNL     1       4.524 -10.476  -6.151  1.00  0.00     0.002 A 
ATOM     91  C   UNL     1       3.973  -9.290  -6.622  1.00  0.00     0.000 A 
ENDBRANCH  77  86
ENDBRANCH  74  75
ENDBRANCH  73  74
ENDBRANCH  71  73
ENDBRANCH  67  68
ENDBRANCH   2  62
TORSDOF 15
