REMARK SMILES CC(C)[C@H](NC(=O)/C(=C\c1ccc(Cl)cc1)NC(=O)c1ccco1)C(=O)NCCCNC(=O)c1ccc(-c2c3nc(c(-c4ccccc4)c4ccc([nH]4)c(-c4ccccc4)c4nc(c(-c5ccccc5)c5ccc2[nH]5)C=C4)C=C3)cc1
REMARK SMILES IDX 28 1 27 2 25 3 26 4 4 6 2 7 1 8 3 9 5 10 6 11 7 13 8 14 9 15
REMARK SMILES IDX 17 16 18 17 19 19 20 20 21 21 24 22 22 23 23 24 10 25 11 26
REMARK SMILES IDX 16 27 12 28 15 29 13 30 14 31 29 32 30 33 31 34 32 35 33 37
REMARK SMILES IDX 34 38 35 39 81 40 36 41 80 42 37 43 38 44 39 45 74 46 40 47
REMARK SMILES IDX 79 48 73 49 75 50 41 51 78 52 72 53 71 54 42 56 64 57 49 58
REMARK SMILES IDX 63 59 50 60 53 61 62 62 76 63 51 64 52 65 61 67 77 68 54 69
REMARK SMILES IDX 43 70 44 71 48 72 45 73 47 74 46 75 65 76 66 77 70 78 67 79
REMARK SMILES IDX 69 80 68 81 55 82 56 83 60 84 57 85 59 86 58 87
REMARK H PARENT 27 5 5 12 17 18 31 36 75 55 53 66
REMARK Flexibility Score: inf
ROOT
ATOM      1  C   UNL     1       0.031  -3.585   2.393  1.00  0.00     0.117 C 
ENDROOT
BRANCH   1   2
ATOM      2  N   UNL     1      -1.091  -2.653   2.398  1.00  0.00    -0.354 N 
ATOM      3  C   UNL     1      -1.480  -1.793   1.400  1.00  0.00     0.242 C 
ATOM      4  O   UNL     1      -2.681  -1.669   1.154  1.00  0.00    -0.273 OA
ATOM      5  H   UNL     1      -1.635  -2.638   3.218  1.00  0.00     0.163 HD
BRANCH   3   6
ATOM      6  C   UNL     1      -0.483  -1.158   0.464  1.00  0.00     0.174 C 
BRANCH   6   7
ATOM      7  C   UNL     1      -0.383  -2.086  -0.826  1.00  0.00     0.015 C 
ATOM      8  C   UNL     1       1.022  -2.440  -1.332  1.00  0.00     0.010 C 
ATOM      9  C   UNL     1      -1.183  -3.415  -0.766  1.00  0.00     0.010 C 
ENDBRANCH   6   7
BRANCH   6  10
ATOM     10  N   UNL     1       0.739  -0.912   1.196  1.00  0.00    -0.339 N 
ATOM     11  C   UNL     1       1.113  -0.482   2.415  1.00  0.00     0.268 C 
ATOM     12  H   UNL     1       1.526  -1.120   0.642  1.00  0.00     0.164 HD
ATOM     13  O   UNL     1       2.330  -0.695   2.468  1.00  0.00    -0.268 OA
BRANCH  11  14
ATOM     14  C   UNL     1       0.374  -0.051   3.725  1.00  0.00     0.107 C 
ATOM     15  C   UNL     1      -0.913   0.275   4.054  1.00  0.00     0.040 C 
BRANCH  14  16
ATOM     16  N   UNL     1       1.164  -0.052   4.904  1.00  0.00    -0.315 N 
ATOM     17  C   UNL     1       2.500  -0.103   5.266  1.00  0.00     0.291 C 
ATOM     18  H   UNL     1       0.591  -0.002   5.703  1.00  0.00     0.170 HD
ATOM     19  O   UNL     1       2.694  -0.439   6.439  1.00  0.00    -0.265 OA
BRANCH  17  20
ATOM     20  C   UNL     1       3.575   0.278   4.386  1.00  0.00     0.191 A 
ATOM     21  C   UNL     1       3.767   1.345   3.524  1.00  0.00     0.056 A 
ATOM     22  O   UNL     1       4.622  -0.599   4.261  1.00  0.00    -0.459 OA
ATOM     23  C   UNL     1       4.901   1.022   2.735  1.00  0.00     0.043 A 
ATOM     24  C   UNL     1       5.380  -0.172   3.220  1.00  0.00     0.196 A 
ENDBRANCH  17  20
ENDBRANCH  14  16
BRANCH  15  25
ATOM     25  C   UNL     1      -2.236   0.504   3.452  1.00  0.00    -0.023 A 
ATOM     26  C   UNL     1      -3.245  -0.470   3.483  1.00  0.00     0.010 A 
ATOM     27  C   UNL     1      -2.586   1.781   3.012  1.00  0.00     0.010 A 
ATOM     28  C   UNL     1      -4.438  -0.281   2.768  1.00  0.00     0.021 A 
ATOM     29  C   UNL     1      -3.805   1.999   2.361  1.00  0.00     0.021 A 
ATOM     30  C   UNL     1      -4.679   0.938   2.151  1.00  0.00     0.041 A 
ATOM     31  Cl  UNL     1      -6.018   1.123   1.088  1.00  0.00    -0.084 Cl
ENDBRANCH  15  25
ENDBRANCH  11  14
ENDBRANCH   6  10
ENDBRANCH   3   6
ENDBRANCH   1   2
BRANCH   1  32
ATOM     32  C   UNL     1       0.944  -3.599   3.617  1.00  0.00     0.042 C 
BRANCH  32  33
ATOM     33  C   UNL     1       0.252  -3.566   4.969  1.00  0.00     0.118 C 
BRANCH  33  34
ATOM     34  N   UNL     1      -0.308  -4.854   5.329  1.00  0.00    -0.352 N 
ATOM     35  C   UNL     1       0.258  -5.920   5.987  1.00  0.00     0.251 C 
ATOM     36  H   UNL     1      -1.246  -4.987   5.058  1.00  0.00     0.163 HD
ATOM     37  O   UNL     1      -0.318  -7.003   5.960  1.00  0.00    -0.269 OA
BRANCH  35  38
ATOM     38  C   UNL     1       1.553  -5.804   6.707  1.00  0.00     0.039 A 
ATOM     39  C   UNL     1       2.446  -6.880   6.641  1.00  0.00     0.014 A 
ATOM     40  C   UNL     1       1.864  -4.710   7.517  1.00  0.00     0.014 A 
ATOM     41  C   UNL     1       3.655  -6.840   7.345  1.00  0.00     0.010 A 
ATOM     42  C   UNL     1       3.105  -4.636   8.159  1.00  0.00     0.010 A 
ATOM     43  C   UNL     1       4.011  -5.705   8.092  1.00  0.00    -0.014 A 
BRANCH  43  44
ATOM     44  C   UNL     1       5.315  -5.632   8.809  1.00  0.00     0.031 A 
ATOM     45  C   UNL     1       5.365  -5.532  10.312  1.00  0.00     0.074 A 
ATOM     46  C   UNL     1       6.466  -5.612   8.107  1.00  0.00     0.049 A 
ATOM     47  N   UNL     1       6.407  -5.423  11.101  1.00  0.00    -0.248 NA
ATOM     48  C   UNL     1       4.077  -5.540  11.023  1.00  0.00     0.031 C 
ATOM     49  C   UNL     1       6.568  -5.669   6.648  1.00  0.00     0.029 A 
ATOM     50  N   UNL     1       7.771  -5.532   8.528  1.00  0.00    -0.354 N 
ATOM     51  C   UNL     1       5.900  -5.329  12.392  1.00  0.00     0.074 A 
ATOM     52  C   UNL     1       4.458  -5.352  12.278  1.00  0.00     0.031 C 
ATOM     53  C   UNL     1       7.864  -5.649   6.297  1.00  0.00     0.029 A 
ATOM     54  C   UNL     1       8.683  -5.531   7.499  1.00  0.00     0.049 A 
ATOM     55  H   UNL     1       8.029  -5.479   9.476  1.00  0.00     0.167 HD
ATOM     56  C   UNL     1       6.569  -5.246  13.568  1.00  0.00     0.031 A 
ATOM     57  C   UNL     1      10.026  -5.435   7.516  1.00  0.00     0.031 A 
ATOM     58  C   UNL     1       8.004  -5.226  13.689  1.00  0.00     0.049 A 
ATOM     59  C   UNL     1      10.745  -5.317   8.832  1.00  0.00     0.074 A 
ATOM     60  C   UNL     1       8.771  -5.197  14.842  1.00  0.00     0.029 A 
ATOM     61  N   UNL     1       8.888  -5.223  12.622  1.00  0.00    -0.354 N 
ATOM     62  N   UNL     1      10.251  -5.300  10.045  1.00  0.00    -0.248 NA
ATOM     63  C   UNL     1      12.211  -5.215   8.777  1.00  0.00     0.031 C 
ATOM     64  C   UNL     1      10.118  -5.121  14.471  1.00  0.00     0.029 A 
ATOM     65  C   UNL     1      10.191  -5.167  13.088  1.00  0.00     0.049 A 
ATOM     66  H   UNL     1       8.628  -5.256  11.673  1.00  0.00     0.167 HD
ATOM     67  C   UNL     1      11.344  -5.215  10.898  1.00  0.00     0.074 A 
ATOM     68  C   UNL     1      12.528  -5.202  10.064  1.00  0.00     0.031 C 
ATOM     69  C   UNL     1      11.364  -5.154  12.252  1.00  0.00     0.031 A 
BRANCH  56  70
ATOM     70  C   UNL     1       5.751  -5.159  14.829  1.00  0.00    -0.014 A 
ATOM     71  C   UNL     1       5.008  -6.256  15.294  1.00  0.00     0.009 A 
ATOM     72  C   UNL     1       5.756  -3.976  15.585  1.00  0.00     0.009 A 
ATOM     73  C   UNL     1       4.257  -6.158  16.467  1.00  0.00     0.001 A 
ATOM     74  C   UNL     1       5.029  -3.890  16.774  1.00  0.00     0.001 A 
ATOM     75  C   UNL     1       4.271  -4.977  17.209  1.00  0.00     0.000 A 
ENDBRANCH  56  70
BRANCH  57  76
ATOM     76  C   UNL     1      10.790  -5.455   6.239  1.00  0.00    -0.014 A 
ATOM     77  C   UNL     1      11.599  -6.553   5.910  1.00  0.00     0.009 A 
ATOM     78  C   UNL     1      10.723  -4.371   5.350  1.00  0.00     0.009 A 
ATOM     79  C   UNL     1      12.346  -6.553   4.729  1.00  0.00     0.001 A 
ATOM     80  C   UNL     1      11.447  -4.387   4.156  1.00  0.00     0.001 A 
ATOM     81  C   UNL     1      12.265  -5.473   3.852  1.00  0.00     0.000 A 
ENDBRANCH  57  76
BRANCH  69  82
ATOM     82  C   UNL     1      12.710  -5.109  12.922  1.00  0.00    -0.014 A 
ATOM     83  C   UNL     1      13.520  -3.965  12.862  1.00  0.00     0.009 A 
ATOM     84  C   UNL     1      13.155  -6.219  13.657  1.00  0.00     0.009 A 
ATOM     85  C   UNL     1      14.765  -3.947  13.496  1.00  0.00     0.001 A 
ATOM     86  C   UNL     1      14.385  -6.187  14.316  1.00  0.00     0.001 A 
ATOM     87  C   UNL     1      15.193  -5.055  14.226  1.00  0.00     0.000 A 
ENDBRANCH  69  82
ENDBRANCH  43  44
ENDBRANCH  35  38
ENDBRANCH  33  34
ENDBRANCH  32  33
ENDBRANCH   1  32
TORSDOF 16
