REMARK SMILES CCC[C@@](C)(NC(=O)N1CCN(C)C(=O)C1(C)C)C(=O)NCCCNC(=O)c1ccc(-c2c3nc(c(-c4ccccc4)c4ccc([nH]4)c(-c4ccccc4)c4nc(c(-c5ccccc5)c5ccc2[nH]5)C=C4)C=C3)cc1
REMARK SMILES IDX 23 1 22 2 21 3 19 4 20 5 4 7 5 8 3 9 2 10 1 11 6 12 7 13
REMARK SMILES IDX 8 15 9 16 10 17 16 18 11 19 14 20 17 21 18 22 12 23 15 24
REMARK SMILES IDX 13 25 24 26 25 27 26 28 27 30 28 31 29 32 75 33 30 34 74 35
REMARK SMILES IDX 31 36 32 37 33 38 68 39 34 40 73 41 67 42 69 43 35 44 72 45
REMARK SMILES IDX 66 46 65 47 36 49 58 50 43 51 57 52 44 53 47 54 56 55 70 56
REMARK SMILES IDX 45 57 46 58 55 60 71 61 48 62 37 63 38 64 42 65 39 66 41 67
REMARK SMILES IDX 40 68 59 69 60 70 64 71 61 72 63 73 62 74 49 75 50 76 54 77
REMARK SMILES IDX 51 78 53 79 52 80
REMARK H PARENT 21 6 6 14 25 29 69 48 47 59
REMARK Flexibility Score: inf
ROOT
ATOM      1  C   UNL     1      -1.426  -4.252   4.402  1.00  0.00     0.042 C 
ENDROOT
BRANCH   1   2
ATOM      2  C   UNL     1      -1.665  -2.884   3.656  1.00  0.00     0.117 C 
BRANCH   2   3
ATOM      3  N   UNL     1      -0.722  -2.084   2.767  1.00  0.00    -0.354 N 
ATOM      4  C   UNL     1      -0.307  -1.762   1.495  1.00  0.00     0.245 C 
ATOM      5  O   UNL     1      -0.626  -0.580   1.244  1.00  0.00    -0.272 OA
ATOM      6  H   UNL     1      -0.153  -1.562   3.378  1.00  0.00     0.163 HD
BRANCH   4   7
ATOM      7  C   UNL     1       0.422  -2.569   0.254  1.00  0.00     0.117 C 
ATOM      8  C   UNL     1      -0.779  -3.222  -0.473  1.00  0.00     0.045 C 
BRANCH   7   9
ATOM      9  C   UNL     1       1.120  -1.540  -0.742  1.00  0.00     0.038 C 
BRANCH   9  10
ATOM     10  C   UNL     1       0.352  -0.417  -1.462  1.00  0.00    -0.000 C 
ATOM     11  C   UNL     1       0.750   0.982  -0.995  1.00  0.00     0.004 C 
ENDBRANCH   9  10
ENDBRANCH   7   9
BRANCH   7  12
ATOM     12  N   UNL     1       1.490  -3.684   0.318  1.00  0.00    -0.324 N 
ATOM     13  C   UNL     1       2.833  -3.696   0.636  1.00  0.00     0.319 C 
ATOM     14  H   UNL     1       1.139  -4.573   0.082  1.00  0.00     0.166 HD
ATOM     15  O   UNL     1       3.639  -3.954  -0.258  1.00  0.00    -0.249 OA
BRANCH  13  16
ATOM     16  N   UNL     1       3.216  -3.648   1.965  1.00  0.00    -0.309 N 
ATOM     17  C   UNL     1       4.605  -3.524   2.335  1.00  0.00     0.144 C 
ATOM     18  C   UNL     1       2.280  -3.320   3.018  1.00  0.00     0.118 C 
ATOM     19  C   UNL     1       4.893  -2.040   2.536  1.00  0.00     0.140 C 
ATOM     20  C   UNL     1       2.393  -1.727   3.008  1.00  0.00     0.247 C 
ATOM     21  C   UNL     1       1.176  -4.374   2.844  1.00  0.00     0.045 C 
ATOM     22  C   UNL     1       2.640  -3.477   4.523  1.00  0.00     0.045 C 
ATOM     23  N   UNL     1       3.743  -1.259   3.037  1.00  0.00    -0.342 N 
ATOM     24  O   UNL     1       1.492  -0.964   3.351  1.00  0.00    -0.272 OA
ATOM     25  C   UNL     1       4.045  -0.018   3.728  1.00  0.00     0.146 C 
ENDBRANCH  13  16
ENDBRANCH   7  12
ENDBRANCH   4   7
ENDBRANCH   2   3
ENDBRANCH   1   2
BRANCH   1  26
ATOM     26  C   UNL     1      -0.679  -4.383   5.767  1.00  0.00     0.118 C 
BRANCH  26  27
ATOM     27  N   UNL     1      -1.213  -3.627   6.889  1.00  0.00    -0.352 N 
ATOM     28  C   UNL     1      -0.942  -3.781   8.234  1.00  0.00     0.251 C 
ATOM     29  H   UNL     1      -1.851  -2.914   6.659  1.00  0.00     0.163 HD
ATOM     30  O   UNL     1      -1.552  -3.108   9.068  1.00  0.00    -0.269 OA
BRANCH  28  31
ATOM     31  C   UNL     1       0.045  -4.777   8.716  1.00  0.00     0.039 A 
ATOM     32  C   UNL     1      -0.394  -5.801   9.561  1.00  0.00     0.014 A 
ATOM     33  C   UNL     1       1.409  -4.652   8.434  1.00  0.00     0.014 A 
ATOM     34  C   UNL     1       0.519  -6.724  10.082  1.00  0.00     0.010 A 
ATOM     35  C   UNL     1       2.321  -5.597   8.933  1.00  0.00     0.010 A 
ATOM     36  C   UNL     1       1.887  -6.643   9.765  1.00  0.00    -0.014 A 
BRANCH  36  37
ATOM     37  C   UNL     1       2.824  -7.662  10.321  1.00  0.00     0.031 A 
ATOM     38  C   UNL     1       3.830  -7.302  11.381  1.00  0.00     0.074 A 
ATOM     39  C   UNL     1       2.742  -8.938   9.895  1.00  0.00     0.049 A 
ATOM     40  N   UNL     1       4.596  -8.090  12.096  1.00  0.00    -0.248 NA
ATOM     41  C   UNL     1       4.012  -5.872  11.664  1.00  0.00     0.031 C 
ATOM     42  C   UNL     1       1.855  -9.411   8.830  1.00  0.00     0.029 A 
ATOM     43  N   UNL     1       3.390 -10.073  10.317  1.00  0.00    -0.354 N 
ATOM     44  C   UNL     1       5.348  -7.252  12.912  1.00  0.00     0.074 A 
ATOM     45  C   UNL     1       4.986  -5.895  12.562  1.00  0.00     0.031 C 
ATOM     46  C   UNL     1       1.980 -10.743   8.714  1.00  0.00     0.029 A 
ATOM     47  C   UNL     1       2.966 -11.216   9.682  1.00  0.00     0.049 A 
ATOM     48  H   UNL     1       4.092 -10.068  11.007  1.00  0.00     0.167 HD
ATOM     49  C   UNL     1       6.246  -7.579  13.876  1.00  0.00     0.031 A 
ATOM     50  C   UNL     1       3.311 -12.505   9.869  1.00  0.00     0.031 A 
ATOM     51  C   UNL     1       6.615  -8.930  14.212  1.00  0.00     0.049 A 
ATOM     52  C   UNL     1       4.284 -12.852  10.961  1.00  0.00     0.074 A 
ATOM     53  C   UNL     1       7.463  -9.374  15.213  1.00  0.00     0.029 A 
ATOM     54  N   UNL     1       6.168 -10.059  13.540  1.00  0.00    -0.354 N 
ATOM     55  N   UNL     1       4.902 -12.055  11.799  1.00  0.00    -0.248 NA
ATOM     56  C   UNL     1       4.588 -14.277  11.147  1.00  0.00     0.031 C 
ATOM     57  C   UNL     1       7.578 -10.765  15.105  1.00  0.00     0.029 A 
ATOM     58  C   UNL     1       6.752 -11.195  14.079  1.00  0.00     0.049 A 
ATOM     59  H   UNL     1       5.530 -10.054  12.791  1.00  0.00     0.167 HD
ATOM     60  C   UNL     1       5.663 -12.880  12.617  1.00  0.00     0.074 A 
ATOM     61  C   UNL     1       5.400 -14.242  12.195  1.00  0.00     0.031 C 
ATOM     62  C   UNL     1       6.507 -12.542  13.624  1.00  0.00     0.031 A 
BRANCH  49  63
ATOM     63  C   UNL     1       6.909  -6.443  14.611  1.00  0.00    -0.014 A 
ATOM     64  C   UNL     1       6.184  -5.604  15.475  1.00  0.00     0.009 A 
ATOM     65  C   UNL     1       8.281  -6.204  14.436  1.00  0.00     0.009 A 
ATOM     66  C   UNL     1       6.805  -4.516  16.096  1.00  0.00     0.001 A 
ATOM     67  C   UNL     1       8.907  -5.136  15.084  1.00  0.00     0.001 A 
ATOM     68  C   UNL     1       8.165  -4.284  15.901  1.00  0.00     0.000 A 
ENDBRANCH  49  63
BRANCH  50  69
ATOM     69  C   UNL     1       2.702 -13.561   9.015  1.00  0.00    -0.014 A 
ATOM     70  C   UNL     1       1.758 -14.459   9.537  1.00  0.00     0.009 A 
ATOM     71  C   UNL     1       3.041 -13.652   7.656  1.00  0.00     0.009 A 
ATOM     72  C   UNL     1       1.177 -15.431   8.718  1.00  0.00     0.001 A 
ATOM     73  C   UNL     1       2.438 -14.605   6.833  1.00  0.00     0.001 A 
ATOM     74  C   UNL     1       1.510 -15.498   7.366  1.00  0.00     0.000 A 
ENDBRANCH  50  69
BRANCH  62  75
ATOM     75  C   UNL     1       7.211 -13.670  14.328  1.00  0.00    -0.014 A 
ATOM     76  C   UNL     1       8.213 -14.415  13.685  1.00  0.00     0.009 A 
ATOM     77  C   UNL     1       6.878 -13.983  15.655  1.00  0.00     0.009 A 
ATOM     78  C   UNL     1       8.835 -15.479  14.341  1.00  0.00     0.001 A 
ATOM     79  C   UNL     1       7.524 -15.027  16.319  1.00  0.00     0.001 A 
ATOM     80  C   UNL     1       8.492 -15.782  15.658  1.00  0.00     0.000 A 
ENDBRANCH  62  75
ENDBRANCH  36  37
ENDBRANCH  28  31
ENDBRANCH  26  27
ENDBRANCH   1  26
TORSDOF 14
