REMARK SMILES CC(=O)Nc1cccc(NC(=O)N[C@H](C(=O)NCCCNC(=O)c2ccc(-c3c4nc(c(-c5ccccc5)c5ccc([nH]5)c(-c5ccccc5)c5nc(c(-c6ccccc6)c6ccc3[nH]6)C=C5)C=C4)cc2)C(C)C)c1
REMARK SMILES IDX 18 1 17 2 15 3 16 4 14 6 13 7 10 8 11 9 12 11 9 13 5 14 6 15
REMARK SMILES IDX 75 16 7 17 8 18 4 19 1 20 2 21 3 22 72 24 73 25 74 26 19 27
REMARK SMILES IDX 20 28 21 29 22 30 23 32 24 33 25 34 71 35 26 36 70 37 27 38
REMARK SMILES IDX 28 39 29 40 64 41 30 42 69 43 63 44 65 45 31 46 68 47 62 48
REMARK SMILES IDX 61 49 32 51 54 52 39 53 53 54 40 55 43 56 52 57 66 58 41 59
REMARK SMILES IDX 42 60 51 62 67 63 44 64 33 65 34 66 38 67 35 68 37 69 36 70
REMARK SMILES IDX 55 71 56 72 60 73 57 74 59 75 58 76 45 77 46 78 50 79 47 80
REMARK SMILES IDX 49 81 48 82
REMARK H PARENT 17 5 10 10 13 12 4 23 21 31 65 50 43 61
REMARK Flexibility Score: inf
ROOT
ATOM      1  C   UNL     1       4.839   5.747   2.708  1.00  0.00     0.117 C 
ENDROOT
BRANCH   1   2
ATOM      2  N   UNL     1       4.972   4.574   1.851  1.00  0.00    -0.354 N 
ATOM      3  C   UNL     1       4.726   4.419   0.506  1.00  0.00     0.242 C 
ATOM      4  O   UNL     1       5.015   3.311   0.045  1.00  0.00    -0.273 OA
ATOM      5  H   UNL     1       5.291   3.763   2.308  1.00  0.00     0.163 HD
BRANCH   3   6
ATOM      6  C   UNL     1       3.976   5.508  -0.338  1.00  0.00     0.175 C 
BRANCH   6   7
ATOM      7  N   UNL     1       3.928   6.846   0.271  1.00  0.00    -0.326 N 
ATOM      8  N   UNL     1       5.879   8.151  -0.203  1.00  0.00    -0.308 N 
ATOM      9  C   UNL     1       4.680   7.943   0.356  1.00  0.00     0.319 C 
ATOM     10  H   UNL     1       6.131   9.102  -0.183  1.00  0.00     0.171 HD
ATOM     11  O   UNL     1       4.169   8.892   0.963  1.00  0.00    -0.248 OA
ATOM     12  H   UNL     1       3.086   6.968   0.765  1.00  0.00     0.166 HD
BRANCH   8  13
ATOM     13  C   UNL     1       6.864   7.366  -0.809  1.00  0.00     0.044 A 
ATOM     14  C   UNL     1       8.533   7.185  -2.548  1.00  0.00     0.043 A 
ATOM     15  C   UNL     1       8.626   5.813  -2.349  1.00  0.00     0.026 A 
ATOM     16  C   UNL     1       7.640   7.960  -1.801  1.00  0.00     0.052 A 
ATOM     17  C   UNL     1       7.971   5.255  -1.260  1.00  0.00     0.004 A 
ATOM     18  C   UNL     1       7.142   6.051  -0.466  1.00  0.00     0.026 A 
BRANCH  14  19
ATOM     19  N   UNL     1       9.414   7.790  -3.444  1.00  0.00    -0.326 N 
ATOM     20  C   UNL     1      10.636   8.897  -1.593  1.00  0.00     0.114 C 
ATOM     21  C   UNL     1      10.439   8.625  -3.069  1.00  0.00     0.221 C 
ATOM     22  O   UNL     1      11.207   9.076  -3.917  1.00  0.00    -0.275 OA
ATOM     23  H   UNL     1       9.294   7.608  -4.404  1.00  0.00     0.169 HD
ENDBRANCH  14  19
ENDBRANCH   8  13
ENDBRANCH   6   7
BRANCH   6  24
ATOM     24  C   UNL     1       4.181   5.590  -1.882  1.00  0.00     0.015 C 
ATOM     25  C   UNL     1       4.522   4.283  -2.598  1.00  0.00     0.010 C 
ATOM     26  C   UNL     1       2.936   6.200  -2.549  1.00  0.00     0.010 C 
ENDBRANCH   6  24
ENDBRANCH   3   6
ENDBRANCH   1   2
BRANCH   1  27
ATOM     27  C   UNL     1       5.030   5.448   4.190  1.00  0.00     0.042 C 
BRANCH  27  28
ATOM     28  C   UNL     1       6.481   5.177   4.573  1.00  0.00     0.118 C 
BRANCH  28  29
ATOM     29  N   UNL     1       7.257   6.387   4.821  1.00  0.00    -0.352 N 
ATOM     30  C   UNL     1       7.589   7.045   5.989  1.00  0.00     0.251 C 
ATOM     31  H   UNL     1       7.609   6.813   4.005  1.00  0.00     0.163 HD
ATOM     32  O   UNL     1       8.163   8.121   5.933  1.00  0.00    -0.269 OA
BRANCH  30  33
ATOM     33  C   UNL     1       7.218   6.486   7.312  1.00  0.00     0.039 A 
ATOM     34  C   UNL     1       6.742   7.350   8.304  1.00  0.00     0.014 A 
ATOM     35  C   UNL     1       7.349   5.128   7.595  1.00  0.00     0.014 A 
ATOM     36  C   UNL     1       6.298   6.836   9.528  1.00  0.00     0.010 A 
ATOM     37  C   UNL     1       6.799   4.604   8.761  1.00  0.00     0.010 A 
ATOM     38  C   UNL     1       6.265   5.449   9.743  1.00  0.00    -0.014 A 
BRANCH  38  39
ATOM     39  C   UNL     1       5.685   4.854  10.978  1.00  0.00     0.031 A 
ATOM     40  C   UNL     1       6.527   3.975  11.866  1.00  0.00     0.074 A 
ATOM     41  C   UNL     1       4.377   5.025  11.257  1.00  0.00     0.049 A 
ATOM     42  N   UNL     1       6.173   3.278  12.917  1.00  0.00    -0.248 NA
ATOM     43  C   UNL     1       7.946   3.833  11.503  1.00  0.00     0.031 C 
ATOM     44  C   UNL     1       3.433   5.816  10.465  1.00  0.00     0.029 A 
ATOM     45  N   UNL     1       3.613   4.534  12.287  1.00  0.00    -0.354 N 
ATOM     46  C   UNL     1       7.315   2.595  13.318  1.00  0.00     0.074 A 
ATOM     47  C   UNL     1       8.354   2.913  12.363  1.00  0.00     0.031 C 
ATOM     48  C   UNL     1       2.230   5.794  11.062  1.00  0.00     0.029 A 
ATOM     49  C   UNL     1       2.303   4.948  12.248  1.00  0.00     0.049 A 
ATOM     50  H   UNL     1       3.969   3.942  12.988  1.00  0.00     0.167 HD
ATOM     51  C   UNL     1       7.497   1.796  14.397  1.00  0.00     0.031 A 
ATOM     52  C   UNL     1       1.274   4.677  13.072  1.00  0.00     0.031 A 
ATOM     53  C   UNL     1       6.475   1.494  15.362  1.00  0.00     0.049 A 
ATOM     54  C   UNL     1       1.493   3.775  14.254  1.00  0.00     0.074 A 
ATOM     55  C   UNL     1       6.575   0.741  16.520  1.00  0.00     0.029 A 
ATOM     56  N   UNL     1       5.163   1.935  15.283  1.00  0.00    -0.354 N 
ATOM     57  N   UNL     1       2.592   3.179  14.646  1.00  0.00    -0.248 NA
ATOM     58  C   UNL     1       0.326   3.513  15.108  1.00  0.00     0.031 C 
ATOM     59  C   UNL     1       5.311   0.691  17.118  1.00  0.00     0.029 A 
ATOM     60  C   UNL     1       4.438   1.456  16.361  1.00  0.00     0.049 A 
ATOM     61  H   UNL     1       4.801   2.506  14.567  1.00  0.00     0.167 HD
ATOM     62  C   UNL     1       2.258   2.499  15.810  1.00  0.00     0.074 A 
ATOM     63  C   UNL     1       0.857   2.764  16.065  1.00  0.00     0.031 C 
ATOM     64  C   UNL     1       3.044   1.727  16.600  1.00  0.00     0.031 A 
BRANCH  51  65
ATOM     65  C   UNL     1       8.864   1.192  14.578  1.00  0.00    -0.014 A 
ATOM     66  C   UNL     1       9.974   1.989  14.902  1.00  0.00     0.009 A 
ATOM     67  C   UNL     1       9.045  -0.191  14.423  1.00  0.00     0.009 A 
ATOM     68  C   UNL     1      11.246   1.422  15.012  1.00  0.00     0.001 A 
ATOM     69  C   UNL     1      10.312  -0.760  14.567  1.00  0.00     0.001 A 
ATOM     70  C   UNL     1      11.413   0.049  14.847  1.00  0.00     0.000 A 
ENDBRANCH  51  65
BRANCH  52  71
ATOM     71  C   UNL     1      -0.055   5.300  12.834  1.00  0.00    -0.014 A 
ATOM     72  C   UNL     1      -0.518   6.315  13.687  1.00  0.00     0.009 A 
ATOM     73  C   UNL     1      -0.864   4.893  11.763  1.00  0.00     0.009 A 
ATOM     74  C   UNL     1      -1.773   6.893  13.485  1.00  0.00     0.001 A 
ATOM     75  C   UNL     1      -2.107   5.492  11.547  1.00  0.00     0.001 A 
ATOM     76  C   UNL     1      -2.564   6.484  12.413  1.00  0.00     0.000 A 
ENDBRANCH  52  71
BRANCH  64  77
ATOM     77  C   UNL     1       2.416   1.146  17.835  1.00  0.00    -0.014 A 
ATOM     78  C   UNL     1       1.497   0.089  17.759  1.00  0.00     0.009 A 
ATOM     79  C   UNL     1       2.780   1.643  19.097  1.00  0.00     0.009 A 
ATOM     80  C   UNL     1       0.930  -0.438  18.921  1.00  0.00     0.001 A 
ATOM     81  C   UNL     1       2.234   1.095  20.258  1.00  0.00     0.001 A 
ATOM     82  C   UNL     1       1.303   0.062  20.169  1.00  0.00     0.000 A 
ENDBRANCH  64  77
ENDBRANCH  38  39
ENDBRANCH  30  33
ENDBRANCH  28  29
ENDBRANCH  27  28
ENDBRANCH   1  27
TORSDOF 14
