REMARK SMILES C[NH+]1CCC(NC(=O)N[C@@H]2C=C[C@H](C(=O)NCCCNC(=O)c3ccc(-c4c5nc(c(-c6ccccc6)c6ccc([nH]6)c(-c6ccccc6)c6nc(c(-c7ccccc7)c7ccc4[nH]7)C=C6)C=C5)cc3)C2)CC1
REMARK SMILES IDX 18 1 17 2 16 3 14 4 15 5 13 7 10 8 11 9 71 10 12 11 9 12
REMARK SMILES IDX 6 13 7 14 8 16 5 18 1 19 2 20 3 21 73 22 4 24 72 25 19 26
REMARK SMILES IDX 20 27 21 28 22 30 23 31 24 32 70 33 25 34 69 35 26 36 27 37
REMARK SMILES IDX 28 38 63 39 29 40 68 41 62 42 64 43 30 44 67 45 61 46 60 47
REMARK SMILES IDX 31 49 53 50 38 51 52 52 39 53 42 54 51 55 65 56 40 57 41 58
REMARK SMILES IDX 50 60 66 61 43 62 32 63 33 64 37 65 34 66 36 67 35 68 54 69
REMARK SMILES IDX 55 70 59 71 56 72 58 73 57 74 44 75 45 76 49 77 46 78 48 79
REMARK SMILES IDX 47 80
REMARK H PARENT 16 6 6 15 9 17 2 23 20 29 64 48 42 59
REMARK Flexibility Score: inf
ROOT
ATOM      1  C   UNL     1      -2.677   2.157   0.088  1.00  0.00     0.042 C 
ENDROOT
BRANCH   1   2
ATOM      2  C   UNL     1      -2.361   0.775  -0.473  1.00  0.00     0.117 C 
BRANCH   2   3
ATOM      3  N   UNL     1      -2.125   0.823  -1.903  1.00  0.00    -0.356 N 
ATOM      4  C   UNL     1      -0.937   0.925  -2.568  1.00  0.00     0.227 C 
ATOM      5  O   UNL     1      -0.956   1.018  -3.795  1.00  0.00    -0.274 OA
ATOM      6  H   UNL     1      -2.928   0.777  -2.470  1.00  0.00     0.163 HD
BRANCH   4   7
ATOM      7  C   UNL     1       0.350   0.860  -1.756  1.00  0.00     0.103 C 
ATOM      8  C   UNL     1       2.599   0.465  -2.684  1.00  0.00     0.107 C 
ATOM      9  C   UNL     1       1.963  -0.790  -2.183  1.00  0.00    -0.006 C 
ATOM     10  C   UNL     1       1.527   1.539  -2.471  1.00  0.00     0.047 C 
ATOM     11  C   UNL     1       0.758  -0.577  -1.655  1.00  0.00    -0.016 C 
BRANCH   8  12
ATOM     12  N   UNL     1       2.983   0.271  -4.060  1.00  0.00    -0.332 N 
ATOM     13  N   UNL     1       5.172  -0.642  -3.967  1.00  0.00    -0.335 N 
ATOM     14  C   UNL     1       4.101  -0.191  -4.649  1.00  0.00     0.315 C 
ATOM     15  H   UNL     1       5.912  -0.946  -4.541  1.00  0.00     0.165 HD
ATOM     16  O   UNL     1       4.147  -0.212  -5.880  1.00  0.00    -0.249 OA
ATOM     17  H   UNL     1       2.283   0.529  -4.701  1.00  0.00     0.165 HD
BRANCH  13  18
ATOM     18  C   UNL     1       5.438  -0.762  -2.549  1.00  0.00     0.095 C 
ATOM     19  C   UNL     1       6.630  -0.983   1.470  1.00  0.00     0.332 C 
ATOM     20  N   UNL     1       6.766  -0.915   0.011  1.00  0.00    -0.337 N 
ATOM     21  C   UNL     1       6.208   0.357  -0.474  1.00  0.00     0.264 C 
ATOM     22  C   UNL     1       6.150  -2.101  -0.609  1.00  0.00     0.264 C 
ATOM     23  H   UNL     1       7.749  -0.931  -0.259  1.00  0.00     0.347 HD
ATOM     24  C   UNL     1       6.189   0.445  -1.998  1.00  0.00     0.086 C 
ATOM     25  C   UNL     1       6.170  -2.034  -2.143  1.00  0.00     0.086 C 
ENDBRANCH  13  18
ENDBRANCH   8  12
ENDBRANCH   4   7
ENDBRANCH   2   3
ENDBRANCH   1   2
BRANCH   1  26
ATOM     26  C   UNL     1      -3.922   2.791  -0.527  1.00  0.00     0.118 C 
BRANCH  26  27
ATOM     27  N   UNL     1      -5.112   1.970  -0.348  1.00  0.00    -0.352 N 
ATOM     28  C   UNL     1      -6.307   2.260   0.258  1.00  0.00     0.251 C 
ATOM     29  H   UNL     1      -5.047   1.062  -0.723  1.00  0.00     0.163 HD
ATOM     30  O   UNL     1      -7.107   1.361   0.486  1.00  0.00    -0.269 OA
BRANCH  28  31
ATOM     31  C   UNL     1      -6.624   3.648   0.648  1.00  0.00     0.039 A 
ATOM     32  C   UNL     1      -7.252   3.875   1.876  1.00  0.00     0.014 A 
ATOM     33  C   UNL     1      -6.330   4.719  -0.200  1.00  0.00     0.014 A 
ATOM     34  C   UNL     1      -7.528   5.182   2.279  1.00  0.00     0.010 A 
ATOM     35  C   UNL     1      -6.529   6.023   0.239  1.00  0.00     0.010 A 
ATOM     36  C   UNL     1      -7.136   6.268   1.479  1.00  0.00    -0.014 A 
BRANCH  36  37
ATOM     37  C   UNL     1      -7.353   7.667   1.923  1.00  0.00     0.031 A 
ATOM     38  C   UNL     1      -8.258   8.579   1.142  1.00  0.00     0.074 A 
ATOM     39  C   UNL     1      -6.685   8.134   2.995  1.00  0.00     0.049 A 
ATOM     40  N   UNL     1      -8.532   9.842   1.346  1.00  0.00    -0.248 NA
ATOM     41  C   UNL     1      -8.921   8.002  -0.038  1.00  0.00     0.031 C 
ATOM     42  C   UNL     1      -5.753   7.359   3.817  1.00  0.00     0.029 A 
ATOM     43  N   UNL     1      -6.687   9.377   3.575  1.00  0.00    -0.354 N 
ATOM     44  C   UNL     1      -9.385  10.214   0.315  1.00  0.00     0.074 A 
ATOM     45  C   UNL     1      -9.535   9.060  -0.545  1.00  0.00     0.031 C 
ATOM     46  C   UNL     1      -5.303   8.133   4.817  1.00  0.00     0.029 A 
ATOM     47  C   UNL     1      -5.875   9.469   4.679  1.00  0.00     0.049 A 
ATOM     48  H   UNL     1      -7.220  10.131   3.233  1.00  0.00     0.167 HD
ATOM     49  C   UNL     1     -10.004  11.401   0.111  1.00  0.00     0.031 A 
ATOM     50  C   UNL     1      -5.616  10.513   5.488  1.00  0.00     0.031 A 
ATOM     51  C   UNL     1      -9.849  12.549   0.965  1.00  0.00     0.049 A 
ATOM     52  C   UNL     1      -6.284  11.832   5.220  1.00  0.00     0.074 A 
ATOM     53  C   UNL     1     -10.469  13.783   0.873  1.00  0.00     0.029 A 
ATOM     54  N   UNL     1      -9.005  12.606   2.064  1.00  0.00    -0.354 N 
ATOM     55  N   UNL     1      -7.140  12.149   4.279  1.00  0.00    -0.248 NA
ATOM     56  C   UNL     1      -5.957  12.934   6.135  1.00  0.00     0.031 C 
ATOM     57  C   UNL     1      -9.954  14.606   1.879  1.00  0.00     0.029 A 
ATOM     58  C   UNL     1      -9.065  13.864   2.640  1.00  0.00     0.049 A 
ATOM     59  H   UNL     1      -8.446  11.862   2.386  1.00  0.00     0.167 HD
ATOM     60  C   UNL     1      -7.477  13.477   4.506  1.00  0.00     0.074 A 
ATOM     61  C   UNL     1      -6.744  13.900   5.682  1.00  0.00     0.031 C 
ATOM     62  C   UNL     1      -8.322  14.273   3.806  1.00  0.00     0.031 A 
BRANCH  49  63
ATOM     63  C   UNL     1     -10.892  11.514  -1.099  1.00  0.00    -0.014 A 
ATOM     64  C   UNL     1     -12.091  10.790  -1.197  1.00  0.00     0.009 A 
ATOM     65  C   UNL     1     -10.528  12.364  -2.155  1.00  0.00     0.009 A 
ATOM     66  C   UNL     1     -12.880  10.874  -2.347  1.00  0.00     0.001 A 
ATOM     67  C   UNL     1     -11.336  12.474  -3.289  1.00  0.00     0.001 A 
ATOM     68  C   UNL     1     -12.503  11.719  -3.390  1.00  0.00     0.000 A 
ENDBRANCH  49  63
BRANCH  50  69
ATOM     69  C   UNL     1      -4.697  10.344   6.644  1.00  0.00    -0.014 A 
ATOM     70  C   UNL     1      -5.198  10.356   7.955  1.00  0.00     0.009 A 
ATOM     71  C   UNL     1      -3.320  10.158   6.445  1.00  0.00     0.009 A 
ATOM     72  C   UNL     1      -4.336  10.208   9.043  1.00  0.00     0.001 A 
ATOM     73  C   UNL     1      -2.465   9.980   7.535  1.00  0.00     0.001 A 
ATOM     74  C   UNL     1      -2.972  10.014   8.833  1.00  0.00     0.000 A 
ENDBRANCH  50  69
BRANCH  62  75
ATOM     75  C   UNL     1      -8.527  15.674   4.315  1.00  0.00    -0.014 A 
ATOM     76  C   UNL     1      -7.519  16.645   4.216  1.00  0.00     0.009 A 
ATOM     77  C   UNL     1      -9.767  16.035   4.867  1.00  0.00     0.009 A 
ATOM     78  C   UNL     1      -7.737  17.939   4.693  1.00  0.00     0.001 A 
ATOM     79  C   UNL     1      -9.993  17.338   5.313  1.00  0.00     0.001 A 
ATOM     80  C   UNL     1      -8.974  18.286   5.235  1.00  0.00     0.000 A 
ENDBRANCH  62  75
ENDBRANCH  36  37
ENDBRANCH  28  31
ENDBRANCH  26  27
ENDBRANCH   1  26
TORSDOF 12
