REMARK SMILES COc1ccc(/C=C/c2ncc(C(=O)NCCCNC(=O)c3ccc(-c4c5nc(c(-c6ccccc6)c6ccc([nH]6)c(-c6ccccc6)c6nc(c(-c7ccccc7)c7ccc4[nH]7)C=C6)C=C5)cc3)s2)cc1O
REMARK SMILES IDX 16 1 15 2 13 3 14 4 12 6 9 7 10 8 70 9 11 10 8 11 7 12 6 13
REMARK SMILES IDX 3 14 4 15 72 16 5 17 71 18 2 19 1 20 73 21 17 23 18 24 19 25
REMARK SMILES IDX 20 26 21 28 22 29 23 30 69 31 24 32 68 33 25 34 26 35 27 36
REMARK SMILES IDX 62 37 28 38 67 39 61 40 63 41 29 42 66 43 60 44 59 45 30 47
REMARK SMILES IDX 52 48 37 49 51 50 38 51 41 52 50 53 64 54 39 55 40 56 49 58
REMARK SMILES IDX 65 59 42 60 31 61 32 62 36 63 33 64 35 65 34 66 53 67 54 68
REMARK SMILES IDX 58 69 55 70 57 71 56 72 43 73 44 74 48 75 45 76 47 77 46 78
REMARK H PARENT 15 5 73 22 19 27 63 46 41 57
REMARK Flexibility Score: inf
ROOT
ATOM      1  C   UNL     1      -4.062  -7.701   9.933  1.00  0.00     0.118 C 
ENDROOT
BRANCH   1   2
ATOM      2  N   UNL     1      -4.884  -6.550  10.256  1.00  0.00    -0.351 N 
ATOM      3  C   UNL     1      -4.832  -5.237   9.855  1.00  0.00     0.263 C 
ATOM      4  O   UNL     1      -5.748  -4.527  10.276  1.00  0.00    -0.268 OA
ATOM      5  H   UNL     1      -5.618  -6.747  10.882  1.00  0.00     0.163 HD
BRANCH   3   6
ATOM      6  C   UNL     1      -3.789  -4.750   8.976  1.00  0.00     0.112 A 
ATOM      7  C   UNL     1      -2.555  -3.477   7.279  1.00  0.00     0.116 A 
ATOM      8  N   UNL     1      -1.818  -4.471   7.739  1.00  0.00    -0.244 NA
ATOM      9  S   UNL     1      -4.099  -3.340   8.037  1.00  0.00    -0.109 S 
ATOM     10  C   UNL     1      -2.497  -5.159   8.728  1.00  0.00     0.137 A 
BRANCH   7  11
ATOM     11  C   UNL     1      -2.198  -2.551   6.258  1.00  0.00     0.040 C 
ATOM     12  C   UNL     1      -1.354  -2.913   5.279  1.00  0.00     0.011 C 
BRANCH  12  13
ATOM     13  C   UNL     1      -0.894  -2.034   4.193  1.00  0.00    -0.022 A 
ATOM     14  C   UNL     1       0.237  -0.457   2.130  1.00  0.00     0.160 A 
ATOM     15  C   UNL     1      -0.147   0.117   3.345  1.00  0.00     0.051 A 
ATOM     16  C   UNL     1       0.057  -1.831   1.962  1.00  0.00     0.158 A 
ATOM     17  C   UNL     1      -0.699  -0.660   4.370  1.00  0.00     0.012 A 
ATOM     18  C   UNL     1      -0.522  -2.608   2.970  1.00  0.00     0.058 A 
BRANCH  14  19
ATOM     19  O   UNL     1       0.815   0.423   1.259  1.00  0.00    -0.493 OA
ATOM     20  C   UNL     1       0.732   0.140  -0.132  1.00  0.00     0.278 C 
ENDBRANCH  14  19
BRANCH  16  21
ATOM     21  O   UNL     1       0.502  -2.519   0.870  1.00  0.00    -0.504 OA
ATOM     22  H   UNL     1       0.901  -2.059   0.157  1.00  0.00     0.293 HD
ENDBRANCH  16  21
ENDBRANCH  12  13
ENDBRANCH   7  11
ENDBRANCH   3   6
ENDBRANCH   1   2
BRANCH   1  23
ATOM     23  C   UNL     1      -3.102  -8.038  11.072  1.00  0.00     0.042 C 
BRANCH  23  24
ATOM     24  C   UNL     1      -3.797  -8.617  12.305  1.00  0.00     0.118 C 
BRANCH  24  25
ATOM     25  N   UNL     1      -4.351  -9.941  12.055  1.00  0.00    -0.352 N 
ATOM     26  C   UNL     1      -4.121 -11.134  12.692  1.00  0.00     0.251 C 
ATOM     27  H   UNL     1      -4.993  -9.987  11.309  1.00  0.00     0.163 HD
ATOM     28  O   UNL     1      -4.535 -12.175  12.190  1.00  0.00    -0.269 OA
BRANCH  26  29
ATOM     29  C   UNL     1      -3.376 -11.185  13.969  1.00  0.00     0.039 A 
ATOM     30  C   UNL     1      -2.461 -12.223  14.170  1.00  0.00     0.014 A 
ATOM     31  C   UNL     1      -3.616 -10.260  14.989  1.00  0.00     0.014 A 
ATOM     32  C   UNL     1      -1.750 -12.305  15.370  1.00  0.00     0.010 A 
ATOM     33  C   UNL     1      -2.864 -10.307  16.162  1.00  0.00     0.010 A 
ATOM     34  C   UNL     1      -1.927 -11.332  16.365  1.00  0.00    -0.014 A 
BRANCH  34  35
ATOM     35  C   UNL     1      -1.143 -11.370  17.625  1.00  0.00     0.031 A 
ATOM     36  C   UNL     1      -1.829 -11.609  18.941  1.00  0.00     0.074 A 
ATOM     37  C   UNL     1       0.180 -11.123  17.592  1.00  0.00     0.049 A 
ATOM     38  N   UNL     1      -1.324 -11.603  20.149  1.00  0.00    -0.248 NA
ATOM     39  C   UNL     1      -3.277 -11.867  18.896  1.00  0.00     0.031 C 
ATOM     40  C   UNL     1       0.961 -10.843  16.385  1.00  0.00     0.029 A 
ATOM     41  N   UNL     1       1.101 -11.057  18.607  1.00  0.00    -0.354 N 
ATOM     42  C   UNL     1      -2.392 -11.832  21.007  1.00  0.00     0.074 A 
ATOM     43  C   UNL     1      -3.579 -11.937  20.185  1.00  0.00     0.031 C 
ATOM     44  C   UNL     1       2.245 -10.655  16.727  1.00  0.00     0.029 A 
ATOM     45  C   UNL     1       2.373 -10.764  18.177  1.00  0.00     0.049 A 
ATOM     46  H   UNL     1       0.873 -11.206  19.552  1.00  0.00     0.167 HD
ATOM     47  C   UNL     1      -2.386 -11.957  22.356  1.00  0.00     0.031 A 
ATOM     48  C   UNL     1       3.513 -10.594  18.872  1.00  0.00     0.031 A 
ATOM     49  C   UNL     1      -1.206 -11.870  23.174  1.00  0.00     0.049 A 
ATOM     50  C   UNL     1       3.494 -10.737  20.367  1.00  0.00     0.074 A 
ATOM     51  C   UNL     1      -1.090 -12.042  24.543  1.00  0.00     0.029 A 
ATOM     52  N   UNL     1       0.064 -11.587  22.697  1.00  0.00    -0.354 N 
ATOM     53  N   UNL     1       2.484 -11.011  21.157  1.00  0.00    -0.248 NA
ATOM     54  C   UNL     1       4.775 -10.557  21.064  1.00  0.00     0.031 C 
ATOM     55  C   UNL     1       0.245 -11.822  24.899  1.00  0.00     0.029 A 
ATOM     56  C   UNL     1       0.967 -11.559  23.747  1.00  0.00     0.049 A 
ATOM     57  H   UNL     1       0.291 -11.429  21.752  1.00  0.00     0.167 HD
ATOM     58  C   UNL     1       3.012 -11.060  22.440  1.00  0.00     0.074 A 
ATOM     59  C   UNL     1       4.432 -10.801  22.321  1.00  0.00     0.031 C 
ATOM     60  C   UNL     1       2.376 -11.299  23.612  1.00  0.00     0.031 A 
BRANCH  47  61
ATOM     61  C   UNL     1      -3.707 -12.194  23.033  1.00  0.00    -0.014 A 
ATOM     62  C   UNL     1      -4.370 -13.426  22.922  1.00  0.00     0.009 A 
ATOM     63  C   UNL     1      -4.281 -11.181  23.817  1.00  0.00     0.009 A 
ATOM     64  C   UNL     1      -5.600 -13.626  23.552  1.00  0.00     0.001 A 
ATOM     65  C   UNL     1      -5.498 -11.393  24.468  1.00  0.00     0.001 A 
ATOM     66  C   UNL     1      -6.161 -12.611  24.327  1.00  0.00     0.000 A 
ENDBRANCH  47  61
BRANCH  48  67
ATOM     67  C   UNL     1       4.776 -10.284  18.156  1.00  0.00    -0.014 A 
ATOM     68  C   UNL     1       5.777 -11.259  18.032  1.00  0.00     0.009 A 
ATOM     69  C   UNL     1       4.986  -9.017  17.591  1.00  0.00     0.009 A 
ATOM     70  C   UNL     1       6.974 -10.964  17.374  1.00  0.00     0.001 A 
ATOM     71  C   UNL     1       6.173  -8.733  16.913  1.00  0.00     0.001 A 
ATOM     72  C   UNL     1       7.168  -9.703  16.812  1.00  0.00     0.000 A 
ENDBRANCH  48  67
BRANCH  60  73
ATOM     73  C   UNL     1       3.218 -11.322  24.855  1.00  0.00    -0.014 A 
ATOM     74  C   UNL     1       3.713 -10.137  25.419  1.00  0.00     0.009 A 
ATOM     75  C   UNL     1       3.488 -12.545  25.488  1.00  0.00     0.009 A 
ATOM     76  C   UNL     1       4.489 -10.180  26.580  1.00  0.00     0.001 A 
ATOM     77  C   UNL     1       4.242 -12.583  26.662  1.00  0.00     0.001 A 
ATOM     78  C   UNL     1       4.749 -11.401  27.201  1.00  0.00     0.000 A 
ENDBRANCH  60  73
ENDBRANCH  34  35
ENDBRANCH  26  29
ENDBRANCH  24  25
ENDBRANCH  23  24
ENDBRANCH   1  23
TORSDOF 14
