REMARK SMILES Cc1ccccc1NC(=S)NN1C(=O)CS[C@H]1c1ccccc1C(=O)NCCCNC(=O)c1ccc(-c2c3nc(c(-c4ccccc4)c4ccc([nH]4)c(-c4ccccc4)c4nc(c(-c5ccccc5)c5ccc2[nH]5)C=C4)C=C3)cc1
REMARK SMILES IDX 24 1 25 2 26 3 23 5 18 6 19 7 20 8 22 9 21 10 17 11 12 12
REMARK SMILES IDX 13 13 14 14 15 15 16 16 11 17 9 19 10 20 8 21 7 23 1 24 2 25
REMARK SMILES IDX 3 26 4 27 6 28 5 29 27 30 28 31 29 32 30 33 31 34 32 36
REMARK SMILES IDX 33 37 34 38 80 39 35 40 79 41 36 42 37 43 38 44 73 45 39 46
REMARK SMILES IDX 78 47 72 48 74 49 40 50 77 51 71 52 70 53 41 55 63 56 48 57
REMARK SMILES IDX 62 58 49 59 52 60 61 61 75 62 50 63 51 64 60 66 76 67 53 68
REMARK SMILES IDX 42 69 43 70 47 71 44 72 46 73 45 74 64 75 65 76 69 77 66 78
REMARK SMILES IDX 68 79 67 80 54 81 55 82 59 83 56 84 58 85 57 86
REMARK H PARENT 26 4 11 18 8 22 30 35 74 54 52 65
REMARK Flexibility Score: inf
ROOT
ATOM      1  C   UNL     1      -1.404   4.572  -0.581  1.00  0.00     0.251 C 
ATOM      2  O   UNL     1      -0.520   5.382  -0.879  1.00  0.00    -0.269 OA
ATOM      3  N   UNL     1      -0.934   3.032  -0.356  1.00  0.00    -0.352 N 
ATOM      4  H   UNL     1       0.037   2.879  -0.296  1.00  0.00     0.163 HD
ENDROOT
BRANCH   1   5
ATOM      5  C   UNL     1      -3.057   5.181  -0.434  1.00  0.00     0.046 A 
ATOM      6  C   UNL     1      -4.333   4.353  -0.342  1.00  0.00    -0.001 A 
ATOM      7  C   UNL     1      -5.571   4.935  -0.056  1.00  0.00     0.007 A 
ATOM      8  C   UNL     1      -5.640   6.312   0.119  1.00  0.00     0.000 A 
ATOM      9  C   UNL     1      -3.215   6.563  -0.283  1.00  0.00     0.014 A 
ATOM     10  C   UNL     1      -4.492   7.112  -0.014  1.00  0.00     0.001 A 
BRANCH   6  11
ATOM     11  C   UNL     1      -4.293   2.907  -0.834  1.00  0.00     0.197 C 
ATOM     12  N   UNL     1      -2.838   2.909  -0.942  1.00  0.00    -0.236 N 
ATOM     13  C   UNL     1      -1.760   1.628  -1.864  1.00  0.00     0.252 C 
ATOM     14  O   UNL     1      -0.766   1.793  -2.546  1.00  0.00    -0.272 OA
ATOM     15  C   UNL     1      -2.648  -0.105  -0.894  1.00  0.00     0.174 C 
ATOM     16  S   UNL     1      -4.498   0.987   0.199  1.00  0.00    -0.120 SA
BRANCH  12  17
ATOM     17  N   UNL     1      -2.607   3.090   0.986  1.00  0.00    -0.270 N 
ATOM     18  H   UNL     1      -3.339   3.611   1.388  1.00  0.00     0.191 HD
BRANCH  17  19
ATOM     19  C   UNL     1      -1.598   2.642   2.043  1.00  0.00     0.189 C 
ATOM     20  S   UNL     1      -1.341   3.709   3.320  1.00  0.00    -0.039 S 
BRANCH  19  21
ATOM     21  N   UNL     1      -0.731   1.501   1.928  1.00  0.00    -0.331 N 
ATOM     22  H   UNL     1       0.160   1.706   1.562  1.00  0.00     0.169 HD
BRANCH  21  23
ATOM     23  C   UNL     1      -0.941   0.047   2.266  1.00  0.00     0.043 A 
ATOM     24  C   UNL     1       1.157  -1.571   2.448  1.00  0.00     0.046 C 
ATOM     25  C   UNL     1      -0.113  -1.026   1.759  1.00  0.00    -0.028 A 
ATOM     26  C   UNL     1      -0.692  -2.173   1.163  1.00  0.00     0.005 A 
ATOM     27  C   UNL     1      -1.994  -2.487   1.486  1.00  0.00     0.000 A 
ATOM     28  C   UNL     1      -2.212  -0.341   2.664  1.00  0.00     0.026 A 
ATOM     29  C   UNL     1      -2.719  -1.607   2.296  1.00  0.00     0.002 A 
ENDBRANCH  21  23
ENDBRANCH  19  21
ENDBRANCH  17  19
ENDBRANCH  12  17
ENDBRANCH   6  11
ENDBRANCH   1   5
BRANCH   3  30
ATOM     30  C   UNL     1      -2.058   1.460  -0.194  1.00  0.00     0.118 C 
BRANCH  30  31
ATOM     31  C   UNL     1      -3.420   1.133  -1.953  1.00  0.00     0.042 C 
BRANCH  31  32
ATOM     32  C   UNL     1      -2.717  -0.116  -3.220  1.00  0.00     0.118 C 
BRANCH  32  33
ATOM     33  N   UNL     1      -1.413  -0.750  -2.801  1.00  0.00    -0.352 N 
ATOM     34  C   UNL     1      -0.714  -1.935  -2.910  1.00  0.00     0.251 C 
ATOM     35  H   UNL     1      -0.886  -0.105  -2.275  1.00  0.00     0.163 HD
ATOM     36  O   UNL     1      -1.152  -3.062  -3.000  1.00  0.00    -0.269 OA
BRANCH  34  37
ATOM     37  C   UNL     1       0.760  -1.571  -2.873  1.00  0.00     0.039 A 
ATOM     38  C   UNL     1       1.744  -2.095  -2.034  1.00  0.00     0.014 A 
ATOM     39  C   UNL     1       0.999  -0.362  -3.542  1.00  0.00     0.014 A 
ATOM     40  C   UNL     1       2.899  -1.319  -1.801  1.00  0.00     0.010 A 
ATOM     41  C   UNL     1       1.955   0.499  -3.079  1.00  0.00     0.010 A 
ATOM     42  C   UNL     1       2.944   0.017  -2.234  1.00  0.00    -0.014 A 
BRANCH  42  43
ATOM     43  C   UNL     1       4.119   0.886  -2.284  1.00  0.00     0.031 A 
ATOM     44  C   UNL     1       5.006   0.585  -3.441  1.00  0.00     0.074 A 
ATOM     45  C   UNL     1       4.255   1.993  -1.510  1.00  0.00     0.049 A 
ATOM     46  N   UNL     1       6.292   0.641  -3.407  1.00  0.00    -0.248 NA
ATOM     47  C   UNL     1       4.502   0.024  -4.710  1.00  0.00     0.031 C 
ATOM     48  C   UNL     1       5.074   3.174  -1.764  1.00  0.00     0.029 A 
ATOM     49  N   UNL     1       3.721   2.261  -0.241  1.00  0.00    -0.354 N 
ATOM     50  C   UNL     1       6.706   0.522  -4.721  1.00  0.00     0.074 A 
ATOM     51  C   UNL     1       5.620  -0.098  -5.426  1.00  0.00     0.031 C 
ATOM     52  C   UNL     1       5.203   3.880  -0.623  1.00  0.00     0.029 A 
ATOM     53  C   UNL     1       4.631   3.096   0.462  1.00  0.00     0.049 A 
ATOM     54  H   UNL     1       2.862   1.928   0.105  1.00  0.00     0.167 HD
ATOM     55  C   UNL     1       7.783   1.235  -5.148  1.00  0.00     0.031 A 
ATOM     56  C   UNL     1       5.301   2.770   1.626  1.00  0.00     0.031 A 
ATOM     57  C   UNL     1       8.317   2.029  -4.051  1.00  0.00     0.049 A 
ATOM     58  C   UNL     1       6.786   2.721   1.477  1.00  0.00     0.074 A 
ATOM     59  C   UNL     1       8.070   3.344  -3.696  1.00  0.00     0.029 A 
ATOM     60  N   UNL     1       8.867   1.405  -2.944  1.00  0.00    -0.354 N 
ATOM     61  N   UNL     1       7.386   2.744   0.333  1.00  0.00    -0.248 NA
ATOM     62  C   UNL     1       7.656   2.345   2.591  1.00  0.00     0.031 C 
ATOM     63  C   UNL     1       8.425   3.492  -2.337  1.00  0.00     0.029 A 
ATOM     64  C   UNL     1       8.906   2.279  -1.874  1.00  0.00     0.049 A 
ATOM     65  H   UNL     1       9.185   0.473  -2.923  1.00  0.00     0.167 HD
ATOM     66  C   UNL     1       8.620   2.195   0.499  1.00  0.00     0.074 A 
ATOM     67  C   UNL     1       8.779   2.036   1.932  1.00  0.00     0.031 C 
ATOM     68  C   UNL     1       9.364   1.820  -0.573  1.00  0.00     0.031 A 
BRANCH  55  69
ATOM     69  C   UNL     1       8.099   1.544  -6.592  1.00  0.00    -0.014 A 
ATOM     70  C   UNL     1       8.873   2.688  -6.871  1.00  0.00     0.009 A 
ATOM     71  C   UNL     1       7.664   0.809  -7.706  1.00  0.00     0.009 A 
ATOM     72  C   UNL     1       9.139   3.115  -8.175  1.00  0.00     0.001 A 
ATOM     73  C   UNL     1       7.912   1.241  -9.020  1.00  0.00     0.001 A 
ATOM     74  C   UNL     1       8.644   2.397  -9.253  1.00  0.00     0.000 A 
ENDBRANCH  55  69
BRANCH  56  75
ATOM     75  C   UNL     1       4.765   1.717   2.569  1.00  0.00    -0.014 A 
ATOM     76  C   UNL     1       3.575   2.042   3.199  1.00  0.00     0.009 A 
ATOM     77  C   UNL     1       4.934   0.429   2.049  1.00  0.00     0.009 A 
ATOM     78  C   UNL     1       2.448   1.496   2.640  1.00  0.00     0.001 A 
ATOM     79  C   UNL     1       3.824  -0.097   1.442  1.00  0.00     0.001 A 
ATOM     80  C   UNL     1       2.611   0.569   1.611  1.00  0.00     0.000 A 
ENDBRANCH  56  75
BRANCH  68  81
ATOM     81  C   UNL     1      10.653   1.088  -0.429  1.00  0.00    -0.014 A 
ATOM     82  C   UNL     1      10.948   0.214   0.625  1.00  0.00     0.009 A 
ATOM     83  C   UNL     1      11.639   1.293  -1.407  1.00  0.00     0.009 A 
ATOM     84  C   UNL     1      12.243  -0.272   0.801  1.00  0.00     0.001 A 
ATOM     85  C   UNL     1      12.910   0.747  -1.276  1.00  0.00     0.001 A 
ATOM     86  C   UNL     1      13.226   0.010  -0.142  1.00  0.00     0.000 A 
ENDBRANCH  68  81
ENDBRANCH  42  43
ENDBRANCH  34  37
ENDBRANCH  32  33
ENDBRANCH  31  32
ENDBRANCH  30  31
ENDBRANCH   3  30
TORSDOF 15
