REMARK SMILES O=C(Nc1cccc(C(=O)NCCCNC(=O)c2ccc(-c3c4nc(c(-c5ccccc5)c5ccc([nH]5)c(-c5ccccc5)c5nc(c(-c6ccccc6)c6ccc3[nH]6)C=C5)C=C4)cc2)c1)Nc1cc(Cl)c(Cl)cc1Cl
REMARK SMILES IDX 13 1 12 2 11 3 9 4 10 5 8 7 4 8 5 9 66 10 6 11 7 12 3 13
REMARK SMILES IDX 1 14 2 15 67 16 68 19 69 20 75 21 70 22 74 23 76 24 71 25
REMARK SMILES IDX 72 26 73 27 14 28 15 29 16 30 17 32 18 33 19 34 65 35 20 36
REMARK SMILES IDX 64 37 21 38 22 39 23 40 58 41 24 42 63 43 57 44 59 45 25 46
REMARK SMILES IDX 62 47 56 48 55 49 26 51 48 52 33 53 47 54 34 55 37 56 46 57
REMARK SMILES IDX 60 58 35 59 36 60 45 62 61 63 38 64 27 65 28 66 32 67 29 68
REMARK SMILES IDX 31 69 30 70 49 71 50 72 54 73 51 74 53 75 52 76 39 77 40 78
REMARK SMILES IDX 44 79 41 80 43 81 42 82
REMARK H PARENT 11 6 3 17 67 18 15 31 59 50 37 61
REMARK Flexibility Score: inf
ROOT
ATOM      1  C   UNL     1       4.396   1.805  -3.396  1.00  0.00     0.042 C 
ENDROOT
BRANCH   1   2
ATOM      2  C   UNL     1       5.351   0.662  -3.049  1.00  0.00     0.118 C 
BRANCH   2   3
ATOM      3  N   UNL     1       6.606   1.163  -2.522  1.00  0.00    -0.352 N 
ATOM      4  C   UNL     1       7.085   1.371  -1.254  1.00  0.00     0.251 C 
ATOM      5  O   UNL     1       8.239   1.794  -1.166  1.00  0.00    -0.269 OA
ATOM      6  H   UNL     1       7.252   1.406  -3.224  1.00  0.00     0.163 HD
BRANCH   4   7
ATOM      7  C   UNL     1       6.326   1.088   0.002  1.00  0.00     0.041 A 
ATOM      8  C   UNL     1       4.320   0.631   1.308  1.00  0.00     0.043 A 
ATOM      9  C   UNL     1       5.074   0.601   2.479  1.00  0.00     0.026 A 
ATOM     10  C   UNL     1       4.941   0.938   0.089  1.00  0.00     0.040 A 
ATOM     11  C   UNL     1       6.454   0.779   2.419  1.00  0.00     0.003 A 
ATOM     12  C   UNL     1       7.075   1.004   1.188  1.00  0.00     0.014 A 
BRANCH   8  13
ATOM     13  N   UNL     1       2.940   0.377   1.399  1.00  0.00    -0.308 N 
ATOM     14  O   UNL     1       0.869  -0.079   0.655  1.00  0.00    -0.248 OA
ATOM     15  C   UNL     1       2.079  -0.142   0.462  1.00  0.00     0.323 C 
ATOM     16  N   UNL     1       2.677  -0.866  -0.544  1.00  0.00    -0.306 N 
ATOM     17  H   UNL     1       2.529   0.605   2.264  1.00  0.00     0.171 HD
ATOM     18  H   UNL     1       3.651  -0.996  -0.485  1.00  0.00     0.171 HD
BRANCH  16  19
ATOM     19  C   UNL     1       2.018  -1.440  -1.654  1.00  0.00     0.063 A 
ATOM     20  C   UNL     1       2.476  -2.707  -2.048  1.00  0.00     0.049 A 
ATOM     21  C   UNL     1       0.985  -0.834  -2.390  1.00  0.00     0.066 A 
ATOM     22  C   UNL     1       1.860  -3.398  -3.098  1.00  0.00     0.061 A 
ATOM     23  C   UNL     1       0.372  -1.527  -3.442  1.00  0.00     0.044 A 
ATOM     24  Cl  UNL     1       0.533   0.825  -2.199  1.00  0.00    -0.082 Cl
ATOM     25  Cl  UNL     1       2.462  -4.971  -3.482  1.00  0.00    -0.083 Cl
ATOM     26  C   UNL     1       0.796  -2.812  -3.787  1.00  0.00     0.061 A 
ATOM     27  Cl  UNL     1      -0.016  -3.610  -5.085  1.00  0.00    -0.083 Cl
ENDBRANCH  16  19
ENDBRANCH   8  13
ENDBRANCH   4   7
ENDBRANCH   2   3
ENDBRANCH   1   2
BRANCH   1  28
ATOM     28  C   UNL     1       4.730   2.486  -4.723  1.00  0.00     0.118 C 
BRANCH  28  29
ATOM     29  N   UNL     1       4.459   1.613  -5.857  1.00  0.00    -0.352 N 
ATOM     30  C   UNL     1       3.608   1.774  -6.920  1.00  0.00     0.251 C 
ATOM     31  H   UNL     1       4.970   0.771  -5.861  1.00  0.00     0.163 HD
ATOM     32  O   UNL     1       3.339   0.805  -7.624  1.00  0.00    -0.269 OA
BRANCH  30  33
ATOM     33  C   UNL     1       3.013   3.093  -7.229  1.00  0.00     0.039 A 
ATOM     34  C   UNL     1       1.691   3.141  -7.687  1.00  0.00     0.014 A 
ATOM     35  C   UNL     1       3.761   4.269  -7.141  1.00  0.00     0.014 A 
ATOM     36  C   UNL     1       1.106   4.369  -8.003  1.00  0.00     0.010 A 
ATOM     37  C   UNL     1       3.159   5.500  -7.399  1.00  0.00     0.010 A 
ATOM     38  C   UNL     1       1.827   5.562  -7.833  1.00  0.00    -0.014 A 
BRANCH  38  39
ATOM     39  C   UNL     1       1.196   6.881  -8.086  1.00  0.00     0.031 A 
ATOM     40  C   UNL     1       1.688   7.764  -9.199  1.00  0.00     0.074 A 
ATOM     41  C   UNL     1       0.220   7.314  -7.264  1.00  0.00     0.049 A 
ATOM     42  N   UNL     1       1.306   8.974  -9.523  1.00  0.00    -0.248 NA
ATOM     43  C   UNL     1       2.765   7.227 -10.046  1.00  0.00     0.031 C 
ATOM     44  C   UNL     1      -0.321   6.569  -6.126  1.00  0.00     0.029 A 
ATOM     45  N   UNL     1      -0.483   8.492  -7.255  1.00  0.00    -0.354 N 
ATOM     46  C   UNL     1       2.107   9.350 -10.595  1.00  0.00     0.074 A 
ATOM     47  C   UNL     1       3.020   8.255 -10.843  1.00  0.00     0.031 C 
ATOM     48  C   UNL     1      -1.285   7.298  -5.542  1.00  0.00     0.029 A 
ATOM     49  C   UNL     1      -1.403   8.574  -6.239  1.00  0.00     0.049 A 
ATOM     50  H   UNL     1      -0.342   9.210  -7.914  1.00  0.00     0.167 HD
ATOM     51  C   UNL     1       2.075  10.496 -11.315  1.00  0.00     0.031 A 
ATOM     52  C   UNL     1      -2.242   9.570  -5.898  1.00  0.00     0.031 A 
ATOM     53  C   UNL     1       1.159  11.580 -11.077  1.00  0.00     0.049 A 
ATOM     54  C   UNL     1      -2.252  10.833  -6.709  1.00  0.00     0.074 A 
ATOM     55  C   UNL     1       1.010  12.757 -11.790  1.00  0.00     0.029 A 
ATOM     56  N   UNL     1       0.236  11.620 -10.043  1.00  0.00    -0.354 N 
ATOM     57  N   UNL     1      -1.531  11.146  -7.758  1.00  0.00    -0.248 NA
ATOM     58  C   UNL     1      -3.200  11.877  -6.293  1.00  0.00     0.031 C 
ATOM     59  C   UNL     1       0.027  13.529 -11.162  1.00  0.00     0.029 A 
ATOM     60  C   UNL     1      -0.469  12.810 -10.086  1.00  0.00     0.049 A 
ATOM     61  H   UNL     1       0.102  10.907  -9.378  1.00  0.00     0.167 HD
ATOM     62  C   UNL     1      -1.952  12.413  -8.141  1.00  0.00     0.074 A 
ATOM     63  C   UNL     1      -3.003  12.802  -7.223  1.00  0.00     0.031 C 
ATOM     64  C   UNL     1      -1.508  13.184  -9.162  1.00  0.00     0.031 A 
BRANCH  51  65
ATOM     65  C   UNL     1       3.072  10.641 -12.431  1.00  0.00    -0.014 A 
ATOM     66  C   UNL     1       2.952   9.895 -13.614  1.00  0.00     0.009 A 
ATOM     67  C   UNL     1       4.122  11.565 -12.315  1.00  0.00     0.009 A 
ATOM     68  C   UNL     1       3.883  10.046 -14.644  1.00  0.00     0.001 A 
ATOM     69  C   UNL     1       5.037  11.733 -13.357  1.00  0.00     0.001 A 
ATOM     70  C   UNL     1       4.922  10.967 -14.516  1.00  0.00     0.000 A 
ENDBRANCH  51  65
BRANCH  52  71
ATOM     71  C   UNL     1      -3.153   9.406  -4.736  1.00  0.00    -0.014 A 
ATOM     72  C   UNL     1      -4.531   9.230  -4.934  1.00  0.00     0.009 A 
ATOM     73  C   UNL     1      -2.651   9.423  -3.426  1.00  0.00     0.009 A 
ATOM     74  C   UNL     1      -5.391   9.097  -3.842  1.00  0.00     0.001 A 
ATOM     75  C   UNL     1      -3.510   9.263  -2.337  1.00  0.00     0.001 A 
ATOM     76  C   UNL     1      -4.880   9.109  -2.546  1.00  0.00     0.000 A 
ENDBRANCH  52  71
BRANCH  64  77
ATOM     77  C   UNL     1      -2.176  14.515  -9.353  1.00  0.00    -0.014 A 
ATOM     78  C   UNL     1      -1.926  15.585  -8.481  1.00  0.00     0.009 A 
ATOM     79  C   UNL     1      -3.043  14.708 -10.440  1.00  0.00     0.009 A 
ATOM     80  C   UNL     1      -2.557  16.816  -8.676  1.00  0.00     0.001 A 
ATOM     81  C   UNL     1      -3.652  15.946 -10.647  1.00  0.00     0.001 A 
ATOM     82  C   UNL     1      -3.416  16.996  -9.761  1.00  0.00     0.000 A 
ENDBRANCH  64  77
ENDBRANCH  38  39
ENDBRANCH  30  33
ENDBRANCH  28  29
ENDBRANCH   1  28
TORSDOF 12
