REMARK SMILES Cc1ccc(CNc2ccc(C(=O)NCCCNC(=O)c3ccc(-c4c5nc(c(-c6ccccc6)c6ccc([nH]6)c(-c6ccccc6)c6nc(c(-c7ccccc7)c7ccc4[nH]7)C=C6)C=C5)cc3)cc2Br)cc1
REMARK SMILES IDX 15 1 14 2 12 3 13 4 11 6 8 7 9 8 70 9 10 10 69 11 71 12 7 13
REMARK SMILES IDX 6 15 5 16 1 17 2 18 3 19 73 20 4 21 72 22 16 23 17 24 18 25
REMARK SMILES IDX 19 26 20 28 21 29 22 30 68 31 23 32 67 33 24 34 25 35 26 36
REMARK SMILES IDX 61 37 27 38 66 39 60 40 62 41 28 42 65 43 59 44 58 45 29 47
REMARK SMILES IDX 51 48 36 49 50 50 37 51 40 52 49 53 63 54 38 55 39 56 48 58
REMARK SMILES IDX 64 59 41 60 30 61 31 62 35 63 32 64 34 65 33 66 52 67 53 68
REMARK SMILES IDX 57 69 54 70 56 71 55 72 42 73 43 74 47 75 44 76 46 77 45 78
REMARK H PARENT 14 5 7 14 18 27 62 46 40 57
REMARK Flexibility Score: inf
ROOT
ATOM      1  C   UNL     1      -8.224  -4.490   1.489  1.00  0.00     0.118 C 
ENDROOT
BRANCH   1   2
ATOM      2  N   UNL     1      -7.894  -5.279   0.311  1.00  0.00    -0.352 N 
ATOM      3  C   UNL     1      -6.993  -5.102  -0.713  1.00  0.00     0.251 C 
ATOM      4  O   UNL     1      -6.890  -6.023  -1.525  1.00  0.00    -0.269 OA
ATOM      5  H   UNL     1      -8.423  -6.106   0.231  1.00  0.00     0.163 HD
BRANCH   3   6
ATOM      6  C   UNL     1      -6.135  -3.889  -0.894  1.00  0.00     0.041 A 
ATOM      7  C   UNL     1      -4.399  -1.670  -1.344  1.00  0.00     0.049 A 
ATOM      8  C   UNL     1      -5.492  -1.576  -0.487  1.00  0.00     0.028 A 
ATOM      9  C   UNL     1      -4.219  -2.886  -2.024  1.00  0.00     0.041 A 
ATOM     10  C   UNL     1      -6.338  -2.663  -0.266  1.00  0.00     0.016 A 
ATOM     11  C   UNL     1      -5.069  -3.979  -1.803  1.00  0.00     0.031 A 
ATOM     12  Br  UNL     1      -2.777  -3.111  -3.245  1.00  0.00    -0.049 Br
BRANCH   7  13
ATOM     13  N   UNL     1      -3.507  -0.616  -1.464  1.00  0.00    -0.380 N 
ATOM     14  H   UNL     1      -3.137  -0.392  -2.349  1.00  0.00     0.160 HD
BRANCH  13  15
ATOM     15  C   UNL     1      -3.109   0.165  -0.302  1.00  0.00     0.148 C 
BRANCH  15  16
ATOM     16  C   UNL     1      -1.607   0.141  -0.175  1.00  0.00    -0.029 A 
ATOM     17  C   UNL     1       2.696   0.024   0.067  1.00  0.00     0.044 C 
ATOM     18  C   UNL     1       1.199   0.075   0.014  1.00  0.00    -0.051 A 
ATOM     19  C   UNL     1       0.464  -1.115   0.024  1.00  0.00     0.004 A 
ATOM     20  C   UNL     1       0.521   1.297  -0.070  1.00  0.00     0.004 A 
ATOM     21  C   UNL     1      -0.927  -1.081  -0.060  1.00  0.00     0.006 A 
ATOM     22  C   UNL     1      -0.871   1.331  -0.162  1.00  0.00     0.006 A 
ENDBRANCH  15  16
ENDBRANCH  13  15
ENDBRANCH   7  13
ENDBRANCH   3   6
ENDBRANCH   1   2
BRANCH   1  23
ATOM     23  C   UNL     1      -9.230  -3.381   1.173  1.00  0.00     0.042 C 
BRANCH  23  24
ATOM     24  C   UNL     1     -10.673  -3.766   1.429  1.00  0.00     0.118 C 
BRANCH  24  25
ATOM     25  N   UNL     1     -11.205  -3.257   2.690  1.00  0.00    -0.352 N 
ATOM     26  C   UNL     1     -12.424  -3.546   3.281  1.00  0.00     0.251 C 
ATOM     27  H   UNL     1     -10.625  -2.631   3.181  1.00  0.00     0.163 HD
ATOM     28  O   UNL     1     -12.739  -3.053   4.350  1.00  0.00    -0.269 OA
BRANCH  26  29
ATOM     29  C   UNL     1     -13.280  -4.568   2.637  1.00  0.00     0.039 A 
ATOM     30  C   UNL     1     -13.618  -5.693   3.392  1.00  0.00     0.014 A 
ATOM     31  C   UNL     1     -13.481  -4.542   1.258  1.00  0.00     0.014 A 
ATOM     32  C   UNL     1     -13.918  -6.879   2.731  1.00  0.00     0.010 A 
ATOM     33  C   UNL     1     -13.680  -5.739   0.601  1.00  0.00     0.010 A 
ATOM     34  C   UNL     1     -13.830  -6.917   1.337  1.00  0.00    -0.014 A 
BRANCH  34  35
ATOM     35  C   UNL     1     -13.750  -8.168   0.593  1.00  0.00     0.031 A 
ATOM     36  C   UNL     1     -14.917  -8.665  -0.157  1.00  0.00     0.074 A 
ATOM     37  C   UNL     1     -12.613  -8.897   0.608  1.00  0.00     0.049 A 
ATOM     38  N   UNL     1     -15.186  -9.918  -0.316  1.00  0.00    -0.248 NA
ATOM     39  C   UNL     1     -15.906  -7.773  -0.753  1.00  0.00     0.031 C 
ATOM     40  C   UNL     1     -12.291 -10.060  -0.213  1.00  0.00     0.029 A 
ATOM     41  N   UNL     1     -11.588  -8.849   1.544  1.00  0.00    -0.354 N 
ATOM     42  C   UNL     1     -16.192  -9.998  -1.245  1.00  0.00     0.074 A 
ATOM     43  C   UNL     1     -16.663  -8.643  -1.429  1.00  0.00     0.031 C 
ATOM     44  C   UNL     1     -11.300 -10.748   0.376  1.00  0.00     0.029 A 
ATOM     45  C   UNL     1     -11.037 -10.130   1.666  1.00  0.00     0.049 A 
ATOM     46  H   UNL     1     -11.298  -8.048   2.038  1.00  0.00     0.167 HD
ATOM     47  C   UNL     1     -16.440 -11.167  -1.895  1.00  0.00     0.031 A 
ATOM     48  C   UNL     1     -11.047 -10.786   2.863  1.00  0.00     0.031 A 
ATOM     49  C   UNL     1     -15.548 -12.238  -1.478  1.00  0.00     0.049 A 
ATOM     50  C   UNL     1     -11.881 -12.051   2.858  1.00  0.00     0.074 A 
ATOM     51  C   UNL     1     -14.372 -12.740  -2.011  1.00  0.00     0.029 A 
ATOM     52  N   UNL     1     -15.639 -12.739  -0.185  1.00  0.00    -0.354 N 
ATOM     53  N   UNL     1     -12.729 -12.361   1.916  1.00  0.00    -0.248 NA
ATOM     54  C   UNL     1     -11.870 -13.038   3.937  1.00  0.00     0.031 C 
ATOM     55  C   UNL     1     -13.711 -13.481  -0.998  1.00  0.00     0.029 A 
ATOM     56  C   UNL     1     -14.503 -13.456   0.135  1.00  0.00     0.049 A 
ATOM     57  H   UNL     1     -16.406 -12.601   0.417  1.00  0.00     0.167 HD
ATOM     58  C   UNL     1     -13.379 -13.521   2.245  1.00  0.00     0.074 A 
ATOM     59  C   UNL     1     -12.793 -13.918   3.511  1.00  0.00     0.031 C 
ATOM     60  C   UNL     1     -14.360 -14.046   1.457  1.00  0.00     0.031 A 
BRANCH  47  61
ATOM     61  C   UNL     1     -17.284 -11.190  -3.136  1.00  0.00    -0.014 A 
ATOM     62  C   UNL     1     -16.866 -11.931  -4.254  1.00  0.00     0.009 A 
ATOM     63  C   UNL     1     -18.465 -10.441  -3.274  1.00  0.00     0.009 A 
ATOM     64  C   UNL     1     -17.536 -11.847  -5.481  1.00  0.00     0.001 A 
ATOM     65  C   UNL     1     -19.114 -10.321  -4.509  1.00  0.00     0.001 A 
ATOM     66  C   UNL     1     -18.641 -11.016  -5.616  1.00  0.00     0.000 A 
ENDBRANCH  47  61
BRANCH  48  67
ATOM     67  C   UNL     1     -10.886  -9.883   4.036  1.00  0.00    -0.014 A 
ATOM     68  C   UNL     1      -9.644  -9.240   4.214  1.00  0.00     0.009 A 
ATOM     69  C   UNL     1     -12.001  -9.385   4.723  1.00  0.00     0.009 A 
ATOM     70  C   UNL     1      -9.545  -8.065   4.965  1.00  0.00     0.001 A 
ATOM     71  C   UNL     1     -11.896  -8.213   5.482  1.00  0.00     0.001 A 
ATOM     72  C   UNL     1     -10.679  -7.535   5.573  1.00  0.00     0.000 A 
ENDBRANCH  48  67
BRANCH  60  73
ATOM     73  C   UNL     1     -15.252 -15.204   1.816  1.00  0.00    -0.014 A 
ATOM     74  C   UNL     1     -15.630 -15.524   3.126  1.00  0.00     0.009 A 
ATOM     75  C   UNL     1     -15.872 -15.929   0.774  1.00  0.00     0.009 A 
ATOM     76  C   UNL     1     -16.556 -16.545   3.382  1.00  0.00     0.001 A 
ATOM     77  C   UNL     1     -16.825 -16.918   1.023  1.00  0.00     0.001 A 
ATOM     78  C   UNL     1     -17.160 -17.233   2.332  1.00  0.00     0.000 A 
ENDBRANCH  60  73
ENDBRANCH  34  35
ENDBRANCH  26  29
ENDBRANCH  24  25
ENDBRANCH  23  24
ENDBRANCH   1  23
TORSDOF 13
