REMARK SMILES C[C@H](Nc1ccc(C(=O)NCCCNC(=O)c2ccc(-c3c4nc(c(-c5ccccc5)c5ccc([nH]5)c(-c5ccccc5)c5nc(c(-c6ccccc6)c6ccc3[nH]6)C=C5)C=C4)cc2)c(F)c1F)c1ccccc1Cl
REMARK SMILES IDX 11 1 10 2 8 3 9 4 7 6 4 7 5 8 67 9 6 10 65 11 68 12 66 13
REMARK SMILES IDX 3 14 2 16 1 17 69 18 70 19 74 20 71 21 73 22 75 23 72 24
REMARK SMILES IDX 12 25 13 26 14 27 15 28 16 30 17 31 18 32 64 33 19 34 63 35
REMARK SMILES IDX 20 36 21 37 22 38 57 39 23 40 62 41 56 42 58 43 24 44 61 45
REMARK SMILES IDX 55 46 54 47 25 49 47 50 32 51 46 52 33 53 36 54 45 55 59 56
REMARK SMILES IDX 34 57 35 58 44 60 60 61 37 62 26 63 27 64 31 65 28 66 30 67
REMARK SMILES IDX 29 68 48 69 49 70 53 71 50 72 52 73 51 74 38 75 39 76 43 77
REMARK SMILES IDX 40 78 42 79 41 80
REMARK H PARENT 10 5 3 15 14 29 58 48 36 59
REMARK Flexibility Score: inf
ROOT
ATOM      1  C   UNL     1       7.097  -0.742   2.574  1.00  0.00     0.118 C 
ENDROOT
BRANCH   1   2
ATOM      2  N   UNL     1       6.779   0.629   2.918  1.00  0.00    -0.352 N 
ATOM      3  C   UNL     1       5.708   1.441   2.667  1.00  0.00     0.254 C 
ATOM      4  O   UNL     1       5.794   2.588   3.117  1.00  0.00    -0.269 OA
ATOM      5  H   UNL     1       7.484   1.070   3.445  1.00  0.00     0.163 HD
BRANCH   3   6
ATOM      6  C   UNL     1       4.457   1.058   1.956  1.00  0.00     0.078 A 
ATOM      7  C   UNL     1       1.929   0.580   0.729  1.00  0.00     0.074 A 
ATOM      8  C   UNL     1       2.125   1.702   1.528  1.00  0.00     0.030 A 
ATOM      9  C   UNL     1       3.019  -0.273   0.531  1.00  0.00     0.182 A 
ATOM     10  C   UNL     1       3.360   1.924   2.149  1.00  0.00     0.019 A 
ATOM     11  C   UNL     1       4.267  -0.022   1.099  1.00  0.00     0.173 A 
ATOM     12  F   UNL     1       2.872  -1.343  -0.269  1.00  0.00    -0.201 F 
ATOM     13  F   UNL     1       5.262  -0.826   0.713  1.00  0.00    -0.203 F 
BRANCH   7  14
ATOM     14  N   UNL     1       0.730   0.343   0.074  1.00  0.00    -0.376 N 
ATOM     15  H   UNL     1       0.243  -0.496   0.243  1.00  0.00     0.161 HD
BRANCH  14  16
ATOM     16  C   UNL     1       0.179   1.316  -0.863  1.00  0.00     0.108 C 
ATOM     17  C   UNL     1       0.761   1.100  -2.262  1.00  0.00     0.036 C 
BRANCH  16  18
ATOM     18  C   UNL     1      -1.339   1.252  -0.842  1.00  0.00    -0.007 A 
ATOM     19  C   UNL     1      -2.042   2.466  -0.689  1.00  0.00     0.007 A 
ATOM     20  C   UNL     1      -2.092   0.067  -0.942  1.00  0.00     0.046 A 
ATOM     21  C   UNL     1      -3.436   2.492  -0.602  1.00  0.00     0.000 A 
ATOM     22  C   UNL     1      -3.488   0.098  -0.843  1.00  0.00     0.021 A 
ATOM     23  Cl  UNL     1      -1.374  -1.490  -1.185  1.00  0.00    -0.084 Cl
ATOM     24  C   UNL     1      -4.158   1.306  -0.666  1.00  0.00     0.002 A 
ENDBRANCH  16  18
ENDBRANCH  14  16
ENDBRANCH   7  14
ENDBRANCH   3   6
ENDBRANCH   1   2
BRANCH   1  25
ATOM     25  C   UNL     1       7.917  -0.803   1.284  1.00  0.00     0.042 C 
BRANCH  25  26
ATOM     26  C   UNL     1       9.392  -0.478   1.500  1.00  0.00     0.118 C 
BRANCH  26  27
ATOM     27  N   UNL     1      10.056  -1.502   2.296  1.00  0.00    -0.352 N 
ATOM     28  C   UNL     1      11.108  -2.322   1.984  1.00  0.00     0.251 C 
ATOM     29  H   UNL     1       9.691  -1.623   3.203  1.00  0.00     0.163 HD
ATOM     30  O   UNL     1      11.346  -3.297   2.691  1.00  0.00    -0.269 OA
BRANCH  28  31
ATOM     31  C   UNL     1      11.964  -2.036   0.815  1.00  0.00     0.039 A 
ATOM     32  C   UNL     1      12.457  -3.107   0.062  1.00  0.00     0.014 A 
ATOM     33  C   UNL     1      12.340  -0.728   0.503  1.00  0.00     0.014 A 
ATOM     34  C   UNL     1      13.301  -2.861  -1.021  1.00  0.00     0.010 A 
ATOM     35  C   UNL     1      13.116  -0.479  -0.625  1.00  0.00     0.010 A 
ATOM     36  C   UNL     1      13.622  -1.544  -1.384  1.00  0.00    -0.014 A 
BRANCH  36  37
ATOM     37  C   UNL     1      14.518  -1.256  -2.529  1.00  0.00     0.031 A 
ATOM     38  C   UNL     1      15.841  -0.577  -2.292  1.00  0.00     0.074 A 
ATOM     39  C   UNL     1      14.117  -1.547  -3.781  1.00  0.00     0.049 A 
ATOM     40  N   UNL     1      16.728  -0.169  -3.164  1.00  0.00    -0.248 NA
ATOM     41  C   UNL     1      16.200  -0.293  -0.893  1.00  0.00     0.031 C 
ATOM     42  C   UNL     1      12.843  -2.173  -4.139  1.00  0.00     0.029 A 
ATOM     43  N   UNL     1      14.741  -1.348  -4.986  1.00  0.00    -0.354 N 
ATOM     44  C   UNL     1      17.732   0.440  -2.421  1.00  0.00     0.074 A 
ATOM     45  C   UNL     1      17.322   0.396  -1.035  1.00  0.00     0.031 C 
ATOM     46  C   UNL     1      12.792  -2.332  -5.472  1.00  0.00     0.029 A 
ATOM     47  C   UNL     1      14.007  -1.782  -6.062  1.00  0.00     0.049 A 
ATOM     48  H   UNL     1      15.630  -0.933  -5.071  1.00  0.00     0.167 HD
ATOM     49  C   UNL     1      18.902   0.970  -2.851  1.00  0.00     0.031 A 
ATOM     50  C   UNL     1      14.282  -1.735  -7.379  1.00  0.00     0.031 A 
ATOM     51  C   UNL     1      19.315   0.994  -4.228  1.00  0.00     0.049 A 
ATOM     52  C   UNL     1      15.585  -1.138  -7.831  1.00  0.00     0.074 A 
ATOM     53  C   UNL     1      20.503   1.457  -4.765  1.00  0.00     0.029 A 
ATOM     54  N   UNL     1      18.549   0.529  -5.286  1.00  0.00    -0.354 N 
ATOM     55  N   UNL     1      16.551  -0.620  -7.112  1.00  0.00    -0.248 NA
ATOM     56  C   UNL     1      15.841  -1.132  -9.278  1.00  0.00     0.031 C 
ATOM     57  C   UNL     1      20.437   1.315  -6.154  1.00  0.00     0.029 A 
ATOM     58  C   UNL     1      19.232   0.711  -6.476  1.00  0.00     0.049 A 
ATOM     59  H   UNL     1      17.653   0.129  -5.203  1.00  0.00     0.167 HD
ATOM     60  C   UNL     1      17.542  -0.257  -8.014  1.00  0.00     0.074 A 
ATOM     61  C   UNL     1      17.065  -0.627  -9.331  1.00  0.00     0.031 C 
ATOM     62  C   UNL     1      18.740   0.331  -7.775  1.00  0.00     0.031 A 
BRANCH  49  63
ATOM     63  C   UNL     1      19.813   1.571  -1.816  1.00  0.00    -0.014 A 
ATOM     64  C   UNL     1      20.477   0.767  -0.874  1.00  0.00     0.009 A 
ATOM     65  C   UNL     1      20.034   2.956  -1.798  1.00  0.00     0.009 A 
ATOM     66  C   UNL     1      21.308   1.343   0.089  1.00  0.00     0.001 A 
ATOM     67  C   UNL     1      20.891   3.526  -0.854  1.00  0.00     0.001 A 
ATOM     68  C   UNL     1      21.519   2.721   0.095  1.00  0.00     0.000 A 
ENDBRANCH  49  63
BRANCH  50  69
ATOM     69  C   UNL     1      13.315  -2.287  -8.364  1.00  0.00    -0.014 A 
ATOM     70  C   UNL     1      13.614  -3.461  -9.073  1.00  0.00     0.009 A 
ATOM     71  C   UNL     1      12.092  -1.642  -8.607  1.00  0.00     0.009 A 
ATOM     72  C   UNL     1      12.723  -3.959 -10.027  1.00  0.00     0.001 A 
ATOM     73  C   UNL     1      11.190  -2.159  -9.539  1.00  0.00     0.001 A 
ATOM     74  C   UNL     1      11.511  -3.311 -10.256  1.00  0.00     0.000 A 
ENDBRANCH  50  69
BRANCH  62  75
ATOM     75  C   UNL     1      19.636   0.567  -8.958  1.00  0.00    -0.014 A 
ATOM     76  C   UNL     1      19.350   1.563  -9.904  1.00  0.00     0.009 A 
ATOM     77  C   UNL     1      20.807  -0.194  -9.101  1.00  0.00     0.009 A 
ATOM     78  C   UNL     1      20.204   1.769 -10.990  1.00  0.00     0.001 A 
ATOM     79  C   UNL     1      21.673   0.034 -10.170  1.00  0.00     0.001 A 
ATOM     80  C   UNL     1      21.366   1.008 -11.119  1.00  0.00     0.000 A 
ENDBRANCH  62  75
ENDBRANCH  36  37
ENDBRANCH  28  31
ENDBRANCH  26  27
ENDBRANCH  25  26
ENDBRANCH   1  25
TORSDOF 13
