REMARK SMILES CCCC[C@@](CC)(C[C@H]1CCOC1)C(=O)NCCCNC(=O)c1ccc(-c2c3nc(c(-c4ccccc4)c4ccc([nH]4)c(-c4ccccc4)c4nc(c(-c5ccccc5)c5ccc2[nH]5)C=C4)C=C3)cc1
REMARK SMILES IDX 17 1 16 2 14 3 15 4 5 6 4 7 3 8 2 9 1 10 6 11 7 12 8 13 9 14
REMARK SMILES IDX 10 15 13 16 11 17 12 18 18 19 19 20 20 21 21 22 22 24 23 25
REMARK SMILES IDX 24 26 70 27 25 28 69 29 26 30 27 31 28 32 63 33 29 34 68 35
REMARK SMILES IDX 62 36 64 37 30 38 67 39 61 40 60 41 31 43 53 44 38 45 52 46
REMARK SMILES IDX 39 47 42 48 51 49 65 50 40 51 41 52 50 54 66 55 43 56 32 57
REMARK SMILES IDX 33 58 37 59 34 60 36 61 35 62 54 63 55 64 59 65 56 66 58 67
REMARK SMILES IDX 57 68 44 69 45 70 49 71 46 72 48 73 47 74
REMARK H PARENT 16 5 20 23 64 42 42 53
REMARK Flexibility Score: inf
ROOT
ATOM      1  C   UNL     1       2.182  -5.269   3.293  1.00  0.00     0.117 C 
ENDROOT
BRANCH   1   2
ATOM      2  N   UNL     1       1.357  -6.231   2.581  1.00  0.00    -0.356 N 
ATOM      3  C   UNL     1       0.701  -6.223   1.393  1.00  0.00     0.226 C 
ATOM      4  O   UNL     1      -0.118  -7.137   1.265  1.00  0.00    -0.274 OA
ATOM      5  H   UNL     1       1.250  -7.079   3.070  1.00  0.00     0.163 HD
BRANCH   3   6
ATOM      6  C   UNL     1       0.912  -5.145   0.304  1.00  0.00     0.049 C 
BRANCH   6   7
ATOM      7  C   UNL     1       0.093  -5.472  -1.000  1.00  0.00     0.017 C 
BRANCH   7   8
ATOM      8  C   UNL     1       0.520  -6.631  -1.925  1.00  0.00     0.001 C 
BRANCH   8   9
ATOM      9  C   UNL     1       0.133  -8.052  -1.505  1.00  0.00    -0.003 C 
ATOM     10  C   UNL     1      -1.368  -8.262  -1.347  1.00  0.00     0.004 C 
ENDBRANCH   8   9
ENDBRANCH   7   8
ENDBRANCH   6   7
BRANCH   6  11
ATOM     11  C   UNL     1       2.439  -5.098  -0.031  1.00  0.00     0.013 C 
ATOM     12  C   UNL     1       2.902  -3.982  -0.959  1.00  0.00     0.005 C 
ENDBRANCH   6  11
BRANCH   6  13
ATOM     13  C   UNL     1       0.379  -3.771   0.848  1.00  0.00     0.023 C 
BRANCH  13  14
ATOM     14  C   UNL     1      -1.144  -3.608   1.047  1.00  0.00     0.018 C 
ATOM     15  C   UNL     1      -1.863  -4.598   1.940  1.00  0.00     0.034 C 
ATOM     16  C   UNL     1      -1.500  -2.291   1.732  1.00  0.00     0.163 C 
ATOM     17  C   UNL     1      -3.131  -3.851   2.297  1.00  0.00     0.160 C 
ATOM     18  O   UNL     1      -2.793  -2.460   2.329  1.00  0.00    -0.381 OA
ENDBRANCH  13  14
ENDBRANCH   6  13
ENDBRANCH   3   6
ENDBRANCH   1   2
BRANCH   1  19
ATOM     19  C   UNL     1       1.432  -4.625   4.454  1.00  0.00     0.042 C 
BRANCH  19  20
ATOM     20  C   UNL     1       0.833  -5.620   5.439  1.00  0.00     0.118 C 
BRANCH  20  21
ATOM     21  N   UNL     1       1.843  -6.457   6.068  1.00  0.00    -0.352 N 
ATOM     22  C   UNL     1       2.219  -6.544   7.382  1.00  0.00     0.251 C 
ATOM     23  H   UNL     1       2.332  -7.052   5.454  1.00  0.00     0.163 HD
ATOM     24  O   UNL     1       3.240  -7.160   7.684  1.00  0.00    -0.269 OA
BRANCH  22  25
ATOM     25  C   UNL     1       1.416  -5.892   8.437  1.00  0.00     0.039 A 
ATOM     26  C   UNL     1       2.077  -5.244   9.484  1.00  0.00     0.014 A 
ATOM     27  C   UNL     1       0.020  -5.948   8.419  1.00  0.00     0.014 A 
ATOM     28  C   UNL     1       1.337  -4.613  10.485  1.00  0.00     0.010 A 
ATOM     29  C   UNL     1      -0.716  -5.245   9.368  1.00  0.00     0.010 A 
ATOM     30  C   UNL     1      -0.066  -4.588  10.422  1.00  0.00    -0.014 A 
BRANCH  30  31
ATOM     31  C   UNL     1      -0.869  -3.911  11.469  1.00  0.00     0.031 A 
ATOM     32  C   UNL     1      -1.795  -4.713  12.343  1.00  0.00     0.074 A 
ATOM     33  C   UNL     1      -0.807  -2.572  11.600  1.00  0.00     0.049 A 
ATOM     34  N   UNL     1      -2.607  -4.300  13.283  1.00  0.00    -0.248 NA
ATOM     35  C   UNL     1      -1.834  -6.166  12.113  1.00  0.00     0.031 C 
ATOM     36  C   UNL     1       0.017  -1.675  10.786  1.00  0.00     0.029 A 
ATOM     37  N   UNL     1      -1.453  -1.731  12.470  1.00  0.00    -0.354 N 
ATOM     38  C   UNL     1      -3.268  -5.435  13.735  1.00  0.00     0.074 A 
ATOM     39  C   UNL     1      -2.800  -6.545  12.936  1.00  0.00     0.031 C 
ATOM     40  C   UNL     1      -0.150  -0.414  11.217  1.00  0.00     0.029 A 
ATOM     41  C   UNL     1      -1.115  -0.410  12.311  1.00  0.00     0.049 A 
ATOM     42  H   UNL     1      -2.098  -2.045  13.145  1.00  0.00     0.167 HD
ATOM     43  C   UNL     1      -4.170  -5.550  14.739  1.00  0.00     0.031 A 
ATOM     44  C   UNL     1      -1.534   0.683  12.975  1.00  0.00     0.031 A 
ATOM     45  C   UNL     1      -4.618  -4.452  15.552  1.00  0.00     0.049 A 
ATOM     46  C   UNL     1      -2.523   0.528  14.096  1.00  0.00     0.074 A 
ATOM     47  C   UNL     1      -5.479  -4.475  16.634  1.00  0.00     0.029 A 
ATOM     48  N   UNL     1      -4.235  -3.132  15.371  1.00  0.00    -0.354 N 
ATOM     49  N   UNL     1      -3.086  -0.562  14.556  1.00  0.00    -0.248 NA
ATOM     50  C   UNL     1      -2.921   1.756  14.799  1.00  0.00     0.031 C 
ATOM     51  C   UNL     1      -5.650  -3.161  17.084  1.00  0.00     0.029 A 
ATOM     52  C   UNL     1      -4.856  -2.328  16.311  1.00  0.00     0.049 A 
ATOM     53  H   UNL     1      -3.615  -2.813  14.676  1.00  0.00     0.167 HD
ATOM     54  C   UNL     1      -3.882  -0.157  15.620  1.00  0.00     0.074 A 
ATOM     55  C   UNL     1      -3.716   1.277  15.745  1.00  0.00     0.031 C 
ATOM     56  C   UNL     1      -4.678  -0.904  16.422  1.00  0.00     0.031 A 
BRANCH  43  57
ATOM     57  C   UNL     1      -4.732  -6.918  15.009  1.00  0.00    -0.014 A 
ATOM     58  C   UNL     1      -3.941  -7.930  15.576  1.00  0.00     0.009 A 
ATOM     59  C   UNL     1      -6.076  -7.191  14.715  1.00  0.00     0.009 A 
ATOM     60  C   UNL     1      -4.475  -9.200  15.806  1.00  0.00     0.001 A 
ATOM     61  C   UNL     1      -6.615  -8.453  14.973  1.00  0.00     0.001 A 
ATOM     62  C   UNL     1      -5.812  -9.459  15.508  1.00  0.00     0.000 A 
ENDBRANCH  43  57
BRANCH  44  63
ATOM     63  C   UNL     1      -0.995   2.022  12.620  1.00  0.00    -0.014 A 
ATOM     64  C   UNL     1      -0.098   2.675  13.479  1.00  0.00     0.009 A 
ATOM     65  C   UNL     1      -1.376   2.653  11.427  1.00  0.00     0.009 A 
ATOM     66  C   UNL     1       0.386   3.946  13.163  1.00  0.00     0.001 A 
ATOM     67  C   UNL     1      -0.870   3.913  11.100  1.00  0.00     0.001 A 
ATOM     68  C   UNL     1       0.003   4.562  11.972  1.00  0.00     0.000 A 
ENDBRANCH  44  63
BRANCH  56  69
ATOM     69  C   UNL     1      -5.398  -0.190  17.529  1.00  0.00    -0.014 A 
ATOM     70  C   UNL     1      -6.494   0.646  17.266  1.00  0.00     0.009 A 
ATOM     71  C   UNL     1      -4.991  -0.384  18.859  1.00  0.00     0.009 A 
ATOM     72  C   UNL     1      -7.147   1.301  18.312  1.00  0.00     0.001 A 
ATOM     73  C   UNL     1      -5.663   0.251  19.904  1.00  0.00     0.001 A 
ATOM     74  C   UNL     1      -6.734   1.100  19.629  1.00  0.00     0.000 A 
ENDBRANCH  56  69
ENDBRANCH  30  31
ENDBRANCH  22  25
ENDBRANCH  20  21
ENDBRANCH  19  20
ENDBRANCH   1  19
TORSDOF 16
