REMARK SMILES Cc1nn(CC(=O)NCCCNC(=O)c2ccc(-c3c4nc(c(-c5ccccc5)c5ccc([nH]5)c(-c5ccccc5)c5nc(c(-c6ccccc6)c6ccc3[nH]6)C=C5)C=C4)cc2)c(C)c1NS(=O)(=O)c1cccc2cccnc12
REMARK SMILES IDX 9 1 8 2 6 3 7 4 5 6 4 7 1 8 2 9 3 10 65 11 63 12 64 13 66 14
REMARK SMILES IDX 67 16 68 17 69 18 70 19 71 20 79 21 72 22 74 23 78 24 73 25
REMARK SMILES IDX 75 26 77 27 76 28 10 29 11 30 12 31 13 32 14 34 15 35 16 36
REMARK SMILES IDX 62 37 17 38 61 39 18 40 19 41 20 42 55 43 21 44 60 45 54 46
REMARK SMILES IDX 56 47 22 48 59 49 53 50 52 51 23 53 45 54 30 55 44 56 31 57
REMARK SMILES IDX 34 58 43 59 57 60 32 61 33 62 42 64 58 65 35 66 24 67 25 68
REMARK SMILES IDX 29 69 26 70 28 71 27 72 46 73 47 74 51 75 48 76 50 77 49 78
REMARK SMILES IDX 36 79 37 80 41 81 38 82 40 83 39 84
REMARK H PARENT 8 5 66 15 12 33 56 52 34 63
REMARK Flexibility Score: inf
ROOT
ATOM      1  C   UNL     1       2.395  -2.807  -4.435  1.00  0.00     0.117 C 
ENDROOT
BRANCH   1   2
ATOM      2  N   UNL     1       2.637  -3.861  -3.468  1.00  0.00    -0.354 N 
ATOM      3  C   UNL     1       1.715  -4.591  -2.764  1.00  0.00     0.241 C 
ATOM      4  O   UNL     1       2.082  -5.697  -2.348  1.00  0.00    -0.273 OA
ATOM      5  H   UNL     1       3.581  -4.079  -3.296  1.00  0.00     0.163 HD
BRANCH   3   6
ATOM      6  C   UNL     1       0.266  -4.157  -2.600  1.00  0.00     0.244 C 
BRANCH   6   7
ATOM      7  N   UNL     1       0.097  -2.745  -2.310  1.00  0.00    -0.258 N 
ATOM      8  C   UNL     1       1.219   0.085  -0.572  1.00  0.00     0.071 C 
ATOM      9  C   UNL     1       0.635  -0.861  -1.555  1.00  0.00     0.084 A 
ATOM     10  N   UNL     1       0.778  -2.171  -1.310  1.00  0.00    -0.175 NA
ATOM     11  C   UNL     1      -0.115  -0.626  -2.763  1.00  0.00     0.093 A 
ATOM     12  C   UNL     1      -0.726  -1.848  -2.947  1.00  0.00     0.060 A 
ATOM     13  C   UNL     1      -2.010  -2.247  -3.549  1.00  0.00     0.069 C 
BRANCH  11  14
ATOM     14  N   UNL     1      -0.339   0.617  -3.379  1.00  0.00    -0.276 N 
ATOM     15  H   UNL     1      -0.465   1.375  -2.764  1.00  0.00     0.180 HD
BRANCH  14  16
ATOM     16  S   UNL     1      -0.424   1.007  -5.050  1.00  0.00     0.264 S 
ATOM     17  O   UNL     1      -1.365   2.115  -5.078  1.00  0.00    -0.201 OA
ATOM     18  O   UNL     1       0.932   1.252  -5.494  1.00  0.00    -0.201 OA
BRANCH  16  19
ATOM     19  C   UNL     1      -1.162  -0.297  -6.004  1.00  0.00     0.114 A 
ATOM     20  C   UNL     1      -2.546  -0.185  -6.251  1.00  0.00     0.024 A 
ATOM     21  C   UNL     1      -0.426  -1.354  -6.567  1.00  0.00     0.091 A 
ATOM     22  C   UNL     1      -3.245  -1.227  -6.845  1.00  0.00     0.002 A 
ATOM     23  C   UNL     1      -1.186  -2.474  -6.992  1.00  0.00     0.002 A 
ATOM     24  N   UNL     1       0.917  -1.384  -6.753  1.00  0.00    -0.255 NA
ATOM     25  C   UNL     1      -2.578  -2.408  -7.123  1.00  0.00     0.010 A 
ATOM     26  C   UNL     1      -0.539  -3.674  -7.309  1.00  0.00     0.012 A 
ATOM     27  C   UNL     1       1.486  -2.488  -7.310  1.00  0.00     0.112 A 
ATOM     28  C   UNL     1       0.829  -3.685  -7.481  1.00  0.00     0.021 A 
ENDBRANCH  16  19
ENDBRANCH  14  16
ENDBRANCH  11  14
ENDBRANCH   6   7
ENDBRANCH   3   6
ENDBRANCH   1   2
BRANCH   1  29
ATOM     29  C   UNL     1       2.902  -1.403  -4.083  1.00  0.00     0.042 C 
BRANCH  29  30
ATOM     30  C   UNL     1       4.278  -1.075  -4.645  1.00  0.00     0.118 C 
BRANCH  30  31
ATOM     31  N   UNL     1       4.336  -0.769  -6.092  1.00  0.00    -0.352 N 
ATOM     32  C   UNL     1       5.472  -0.611  -6.910  1.00  0.00     0.251 C 
ATOM     33  H   UNL     1       3.467  -0.662  -6.542  1.00  0.00     0.163 HD
ATOM     34  O   UNL     1       5.433  -0.058  -7.986  1.00  0.00    -0.269 OA
BRANCH  32  35
ATOM     35  C   UNL     1       6.736  -1.217  -6.436  1.00  0.00     0.039 A 
ATOM     36  C   UNL     1       7.995  -0.595  -6.396  1.00  0.00     0.014 A 
ATOM     37  C   UNL     1       6.546  -2.424  -5.818  1.00  0.00     0.014 A 
ATOM     38  C   UNL     1       9.012  -1.203  -5.643  1.00  0.00     0.010 A 
ATOM     39  C   UNL     1       7.308  -2.580  -4.715  1.00  0.00     0.010 A 
ATOM     40  C   UNL     1       8.638  -2.242  -4.797  1.00  0.00    -0.014 A 
BRANCH  40  41
ATOM     41  C   UNL     1       9.445  -3.000  -3.854  1.00  0.00     0.031 A 
ATOM     42  C   UNL     1       9.914  -2.229  -2.680  1.00  0.00     0.074 A 
ATOM     43  C   UNL     1       9.349  -4.356  -3.832  1.00  0.00     0.049 A 
ATOM     44  N   UNL     1      11.120  -1.856  -2.420  1.00  0.00    -0.248 NA
ATOM     45  C   UNL     1       8.906  -1.669  -1.760  1.00  0.00     0.031 C 
ATOM     46  C   UNL     1       8.558  -5.243  -4.712  1.00  0.00     0.029 A 
ATOM     47  N   UNL     1       9.822  -5.234  -2.910  1.00  0.00    -0.354 N 
ATOM     48  C   UNL     1      11.055  -1.221  -1.185  1.00  0.00     0.074 A 
ATOM     49  C   UNL     1       9.666  -0.908  -0.970  1.00  0.00     0.031 C 
ATOM     50  C   UNL     1       8.434  -6.467  -4.149  1.00  0.00     0.029 A 
ATOM     51  C   UNL     1       9.277  -6.514  -2.972  1.00  0.00     0.049 A 
ATOM     52  H   UNL     1      10.503  -4.982  -2.244  1.00  0.00     0.167 HD
ATOM     53  C   UNL     1      12.085  -1.291  -0.295  1.00  0.00     0.031 A 
ATOM     54  C   UNL     1       9.503  -7.535  -2.107  1.00  0.00     0.031 A 
ATOM     55  C   UNL     1      13.252  -1.891  -0.897  1.00  0.00     0.049 A 
ATOM     56  C   UNL     1      10.750  -7.205  -1.375  1.00  0.00     0.074 A 
ATOM     57  C   UNL     1      14.057  -1.590  -1.977  1.00  0.00     0.029 A 
ATOM     58  N   UNL     1      13.453  -3.228  -0.635  1.00  0.00    -0.354 N 
ATOM     59  N   UNL     1      11.913  -7.119  -1.958  1.00  0.00    -0.248 NA
ATOM     60  C   UNL     1      10.629  -6.486  -0.117  1.00  0.00     0.031 C 
ATOM     61  C   UNL     1      14.314  -2.849  -2.600  1.00  0.00     0.029 A 
ATOM     62  C   UNL     1      13.736  -3.854  -1.821  1.00  0.00     0.049 A 
ATOM     63  H   UNL     1      13.402  -3.658   0.249  1.00  0.00     0.167 HD
ATOM     64  C   UNL     1      12.503  -5.992  -1.402  1.00  0.00     0.074 A 
ATOM     65  C   UNL     1      11.717  -5.710  -0.199  1.00  0.00     0.031 C 
ATOM     66  C   UNL     1      13.371  -5.223  -2.126  1.00  0.00     0.031 A 
BRANCH  53  67
ATOM     67  C   UNL     1      11.921  -1.245   1.206  1.00  0.00    -0.014 A 
ATOM     68  C   UNL     1      13.080  -1.239   2.002  1.00  0.00     0.009 A 
ATOM     69  C   UNL     1      10.702  -1.474   1.871  1.00  0.00     0.009 A 
ATOM     70  C   UNL     1      13.027  -1.524   3.372  1.00  0.00     0.001 A 
ATOM     71  C   UNL     1      10.639  -1.718   3.246  1.00  0.00     0.001 A 
ATOM     72  C   UNL     1      11.806  -1.772   3.991  1.00  0.00     0.000 A 
ENDBRANCH  53  67
BRANCH  54  73
ATOM     73  C   UNL     1       8.598  -8.625  -1.679  1.00  0.00    -0.014 A 
ATOM     74  C   UNL     1       9.098  -9.812  -1.117  1.00  0.00     0.009 A 
ATOM     75  C   UNL     1       7.217  -8.381  -1.563  1.00  0.00     0.009 A 
ATOM     76  C   UNL     1       8.253 -10.699  -0.431  1.00  0.00     0.001 A 
ATOM     77  C   UNL     1       6.375  -9.264  -0.876  1.00  0.00     0.001 A 
ATOM     78  C   UNL     1       6.896 -10.416  -0.297  1.00  0.00     0.000 A 
ENDBRANCH  54  73
BRANCH  66  79
ATOM     79  C   UNL     1      13.805  -5.744  -3.480  1.00  0.00    -0.014 A 
ATOM     80  C   UNL     1      12.923  -5.908  -4.565  1.00  0.00     0.009 A 
ATOM     81  C   UNL     1      15.174  -5.924  -3.715  1.00  0.00     0.009 A 
ATOM     82  C   UNL     1      13.392  -6.264  -5.835  1.00  0.00     0.001 A 
ATOM     83  C   UNL     1      15.646  -6.264  -4.986  1.00  0.00     0.001 A 
ATOM     84  C   UNL     1      14.757  -6.438  -6.044  1.00  0.00     0.000 A 
ENDBRANCH  66  79
ENDBRANCH  40  41
ENDBRANCH  32  35
ENDBRANCH  30  31
ENDBRANCH  29  30
ENDBRANCH   1  29
TORSDOF 14
