REMARK SMILES CC(C)[C@](C)(CC(=O)NC#N)C(=O)NCCCNC(=O)c1ccc(-c2c3nc(c(-c4ccccc4)c4ccc([nH]4)c(-c4ccccc4)c4nc(c(-c5ccccc5)c5ccc2[nH]5)C=C4)C=C3)cc1
REMARK SMILES IDX 15 1 14 2 12 3 13 4 4 6 5 7 2 8 1 9 3 10 6 11 7 12 8 13 9 14
REMARK SMILES IDX 10 16 11 17 16 18 17 19 18 20 19 21 20 23 21 24 22 25 68 26
REMARK SMILES IDX 23 27 67 28 24 29 25 30 26 31 61 32 27 33 66 34 60 35 62 36
REMARK SMILES IDX 28 37 65 38 59 39 58 40 29 42 51 43 36 44 50 45 37 46 40 47
REMARK SMILES IDX 49 48 63 49 38 50 39 51 48 53 64 54 41 55 30 56 31 57 35 58
REMARK SMILES IDX 32 59 34 60 33 61 52 62 53 63 57 64 54 65 56 66 55 67 42 68
REMARK SMILES IDX 43 69 47 70 44 71 46 72 45 73
REMARK H PARENT 14 5 9 15 18 22 62 41 40 52
REMARK Flexibility Score: inf
ROOT
ATOM      1  C   UNL     1      -4.045  -0.342  -1.031  1.00  0.00     0.117 C 
ENDROOT
BRANCH   1   2
ATOM      2  N   UNL     1      -2.964  -1.233  -0.650  1.00  0.00    -0.356 N 
ATOM      3  C   UNL     1      -1.613  -1.115  -0.720  1.00  0.00     0.226 C 
ATOM      4  O   UNL     1      -0.965  -2.092  -0.334  1.00  0.00    -0.274 OA
ATOM      5  H   UNL     1      -3.269  -2.087  -0.268  1.00  0.00     0.163 HD
BRANCH   3   6
ATOM      6  C   UNL     1      -0.915   0.155  -1.263  1.00  0.00     0.057 C 
ATOM      7  C   UNL     1       0.610  -0.058  -1.070  1.00  0.00     0.022 C 
BRANCH   6   8
ATOM      8  C   UNL     1      -1.398   1.427  -0.432  1.00  0.00    -0.002 C 
ATOM      9  C   UNL     1      -0.460   1.862   0.705  1.00  0.00     0.008 C 
ATOM     10  C   UNL     1      -1.730   2.664  -1.280  1.00  0.00     0.008 C 
ENDBRANCH   6   8
BRANCH   6  11
ATOM     11  C   UNL     1      -1.194   0.271  -2.792  1.00  0.00     0.118 C 
BRANCH  11  12
ATOM     12  C   UNL     1      -0.862  -0.964  -3.623  1.00  0.00     0.234 C 
ATOM     13  O   UNL     1      -1.685  -1.859  -3.807  1.00  0.00    -0.274 OA
ATOM     14  N   UNL     1       0.371  -1.043  -4.202  1.00  0.00    -0.263 N 
ATOM     15  H   UNL     1       0.506  -1.867  -4.724  1.00  0.00     0.182 HD
BRANCH  14  16
ATOM     16  C   UNL     1       1.433  -0.229  -4.207  1.00  0.00     0.183 C 
ATOM     17  N   UNL     1       2.354   0.475  -4.194  1.00  0.00    -0.172 NA
ENDBRANCH  14  16
ENDBRANCH  11  12
ENDBRANCH   6  11
ENDBRANCH   3   6
ENDBRANCH   1   2
BRANCH   1  18
ATOM     18  C   UNL     1      -4.906  -0.925  -2.136  1.00  0.00     0.042 C 
BRANCH  18  19
ATOM     19  C   UNL     1      -5.638  -2.190  -1.722  1.00  0.00     0.118 C 
BRANCH  19  20
ATOM     20  N   UNL     1      -6.600  -1.953  -0.650  1.00  0.00    -0.352 N 
ATOM     21  C   UNL     1      -7.968  -2.076  -0.661  1.00  0.00     0.251 C 
ATOM     22  H   UNL     1      -6.212  -1.662   0.207  1.00  0.00     0.163 HD
ATOM     23  O   UNL     1      -8.640  -1.638   0.266  1.00  0.00    -0.269 OA
BRANCH  21  24
ATOM     24  C   UNL     1      -8.625  -2.720  -1.815  1.00  0.00     0.039 A 
ATOM     25  C   UNL     1      -9.754  -2.125  -2.382  1.00  0.00     0.014 A 
ATOM     26  C   UNL     1      -8.094  -3.892  -2.357  1.00  0.00     0.014 A 
ATOM     27  C   UNL     1     -10.300  -2.662  -3.548  1.00  0.00     0.010 A 
ATOM     28  C   UNL     1      -8.571  -4.361  -3.572  1.00  0.00     0.010 A 
ATOM     29  C   UNL     1      -9.682  -3.754  -4.178  1.00  0.00    -0.014 A 
BRANCH  29  30
ATOM     30  C   UNL     1     -10.171  -4.295  -5.470  1.00  0.00     0.031 A 
ATOM     31  C   UNL     1     -10.629  -5.723  -5.553  1.00  0.00     0.074 A 
ATOM     32  C   UNL     1     -10.105  -3.540  -6.583  1.00  0.00     0.049 A 
ATOM     33  N   UNL     1     -10.965  -6.423  -6.606  1.00  0.00    -0.248 NA
ATOM     34  C   UNL     1     -10.684  -6.471  -4.287  1.00  0.00     0.031 C 
ATOM     35  C   UNL     1      -9.647  -2.151  -6.640  1.00  0.00     0.029 A 
ATOM     36  N   UNL     1     -10.405  -3.846  -7.887  1.00  0.00    -0.354 N 
ATOM     37  C   UNL     1     -11.247  -7.697  -6.131  1.00  0.00     0.074 A 
ATOM     38  C   UNL     1     -10.983  -7.689  -4.710  1.00  0.00     0.031 C 
ATOM     39  C   UNL     1      -9.708  -1.721  -7.910  1.00  0.00     0.029 A 
ATOM     40  C   UNL     1     -10.149  -2.820  -8.764  1.00  0.00     0.049 A 
ATOM     41  H   UNL     1     -10.768  -4.717  -8.167  1.00  0.00     0.167 HD
ATOM     42  C   UNL     1     -11.700  -8.775  -6.815  1.00  0.00     0.031 A 
ATOM     43  C   UNL     1     -10.230  -2.774 -10.107  1.00  0.00     0.031 A 
ATOM     44  C   UNL     1     -11.943  -8.781  -8.233  1.00  0.00     0.049 A 
ATOM     45  C   UNL     1     -10.687  -3.994 -10.858  1.00  0.00     0.074 A 
ATOM     46  C   UNL     1     -12.447  -9.803  -9.015  1.00  0.00     0.029 A 
ATOM     47  N   UNL     1     -11.680  -7.716  -9.083  1.00  0.00    -0.354 N 
ATOM     48  N   UNL     1     -11.019  -5.173 -10.390  1.00  0.00    -0.248 NA
ATOM     49  C   UNL     1     -10.789  -3.877 -12.320  1.00  0.00     0.031 C 
ATOM     50  C   UNL     1     -12.410  -9.388 -10.349  1.00  0.00     0.029 A 
ATOM     51  C   UNL     1     -11.973  -8.073 -10.388  1.00  0.00     0.049 A 
ATOM     52  H   UNL     1     -11.336  -6.838  -8.800  1.00  0.00     0.167 HD
ATOM     53  C   UNL     1     -11.400  -5.927 -11.493  1.00  0.00     0.074 A 
ATOM     54  C   UNL     1     -11.263  -5.070 -12.653  1.00  0.00     0.031 C 
ATOM     55  C   UNL     1     -11.833  -7.211 -11.536  1.00  0.00     0.031 A 
BRANCH  42  56
ATOM     56  C   UNL     1     -11.918 -10.044  -6.034  1.00  0.00    -0.014 A 
ATOM     57  C   UNL     1     -12.894 -10.131  -5.027  1.00  0.00     0.009 A 
ATOM     58  C   UNL     1     -11.129 -11.172  -6.308  1.00  0.00     0.009 A 
ATOM     59  C   UNL     1     -13.027 -11.296  -4.268  1.00  0.00     0.001 A 
ATOM     60  C   UNL     1     -11.294 -12.349  -5.577  1.00  0.00     0.001 A 
ATOM     61  C   UNL     1     -12.230 -12.404  -4.545  1.00  0.00     0.000 A 
ENDBRANCH  42  56
BRANCH  43  62
ATOM     62  C   UNL     1      -9.849  -1.526 -10.822  1.00  0.00    -0.014 A 
ATOM     63  C   UNL     1     -10.816  -0.740 -11.465  1.00  0.00     0.009 A 
ATOM     64  C   UNL     1      -8.511  -1.099 -10.838  1.00  0.00     0.009 A 
ATOM     65  C   UNL     1     -10.449   0.437 -12.123  1.00  0.00     0.001 A 
ATOM     66  C   UNL     1      -8.152   0.095 -11.466  1.00  0.00     0.001 A 
ATOM     67  C   UNL     1      -9.120   0.857 -12.116  1.00  0.00     0.000 A 
ENDBRANCH  43  62
BRANCH  55  68
ATOM     68  C   UNL     1     -12.244  -7.770 -12.871  1.00  0.00    -0.014 A 
ATOM     69  C   UNL     1     -11.303  -8.079 -13.864  1.00  0.00     0.009 A 
ATOM     70  C   UNL     1     -13.596  -8.080 -13.096  1.00  0.00     0.009 A 
ATOM     71  C   UNL     1     -11.710  -8.673 -15.061  1.00  0.00     0.001 A 
ATOM     72  C   UNL     1     -13.995  -8.705 -14.278  1.00  0.00     0.001 A 
ATOM     73  C   UNL     1     -13.053  -8.995 -15.262  1.00  0.00     0.000 A 
ENDBRANCH  55  68
ENDBRANCH  29  30
ENDBRANCH  21  24
ENDBRANCH  19  20
ENDBRANCH  18  19
ENDBRANCH   1  18
TORSDOF 14
