REMARK SMILES C[C@@H](NC(=O)CNC(=O)N1CC(=O)Nc2ccccc21)C(=O)NCCCNC(=O)c1ccc(-c2c3nc(c(-c4ccccc4)c4ccc([nH]4)c(-c4ccccc4)c4nc(c(-c5ccccc5)c5ccc2[nH]5)C=C4)C=C3)cc1
REMARK SMILES IDX 24 1 23 2 21 3 22 4 2 6 1 7 3 8 4 9 5 11 6 12 7 13 8 14 9 16
REMARK SMILES IDX 10 17 11 18 20 19 12 20 15 21 19 22 13 23 14 24 16 25 18 26
REMARK SMILES IDX 17 28 25 29 26 30 27 31 28 32 29 34 30 35 31 36 77 37 32 38
REMARK SMILES IDX 76 39 33 40 34 41 35 42 70 43 36 44 75 45 69 46 71 47 37 48
REMARK SMILES IDX 74 49 68 50 67 51 38 53 60 54 45 55 59 56 46 57 49 58 58 59
REMARK SMILES IDX 72 60 47 61 48 62 57 64 73 65 50 66 39 67 40 68 44 69 41 70
REMARK SMILES IDX 43 71 42 72 61 73 62 74 66 75 63 76 65 77 64 78 51 79 52 80
REMARK SMILES IDX 56 81 53 82 55 83 54 84
REMARK H PARENT 23 5 3 10 7 15 14 27 27 33 71 52 49 63
REMARK Flexibility Score: inf
ROOT
ATOM      1  C   UNL     1      -0.444   0.703  -2.287  1.00  0.00     0.117 C 
ENDROOT
BRANCH   1   2
ATOM      2  N   UNL     1      -0.708   0.087  -0.999  1.00  0.00    -0.354 N 
ATOM      3  C   UNL     1      -0.138   0.351   0.209  1.00  0.00     0.242 C 
ATOM      4  O   UNL     1      -0.354  -0.429   1.139  1.00  0.00    -0.273 OA
ATOM      5  H   UNL     1      -1.394  -0.619  -1.000  1.00  0.00     0.163 HD
BRANCH   3   6
ATOM      6  C   UNL     1       0.901   1.470   0.378  1.00  0.00     0.168 C 
ATOM      7  C   UNL     1       2.265   0.835   0.105  1.00  0.00     0.041 C 
BRANCH   6   8
ATOM      8  N   UNL     1       0.692   2.645  -0.467  1.00  0.00    -0.343 N 
ATOM      9  C   UNL     1      -0.341   3.539  -0.454  1.00  0.00     0.240 C 
ATOM     10  H   UNL     1       1.393   2.816  -1.138  1.00  0.00     0.164 HD
ATOM     11  O   UNL     1      -0.345   4.424  -1.313  1.00  0.00    -0.273 OA
BRANCH   9  12
ATOM     12  C   UNL     1      -1.537   3.337   0.482  1.00  0.00     0.218 C 
BRANCH  12  13
ATOM     13  N   UNL     1      -2.612   2.579  -0.158  1.00  0.00    -0.329 N 
ATOM     14  C   UNL     1      -3.329   1.545   0.389  1.00  0.00     0.322 C 
ATOM     15  H   UNL     1      -2.845   2.837  -1.078  1.00  0.00     0.165 HD
ATOM     16  O   UNL     1      -3.803   0.703  -0.372  1.00  0.00    -0.248 OA
BRANCH  14  17
ATOM     17  N   UNL     1      -3.397   1.509   1.764  1.00  0.00    -0.283 N 
ATOM     18  C   UNL     1      -3.772   2.700   2.522  1.00  0.00     0.227 C 
ATOM     19  C   UNL     1      -3.132   0.340   2.537  1.00  0.00     0.070 A 
ATOM     20  C   UNL     1      -2.859   2.945   3.709  1.00  0.00     0.244 C 
ATOM     21  C   UNL     1      -2.589   0.526   3.826  1.00  0.00     0.065 A 
ATOM     22  C   UNL     1      -3.244  -0.961   2.038  1.00  0.00     0.028 A 
ATOM     23  O   UNL     1      -2.672   4.062   4.185  1.00  0.00    -0.273 OA
ATOM     24  N   UNL     1      -2.395   1.819   4.338  1.00  0.00    -0.323 N 
ATOM     25  C   UNL     1      -2.139  -0.560   4.579  1.00  0.00     0.028 A 
ATOM     26  C   UNL     1      -2.814  -2.050   2.804  1.00  0.00     0.002 A 
ATOM     27  H   UNL     1      -1.905   1.922   5.186  1.00  0.00     0.170 HD
ATOM     28  C   UNL     1      -2.252  -1.849   4.064  1.00  0.00     0.002 A 
ENDBRANCH  14  17
ENDBRANCH  12  13
ENDBRANCH   9  12
ENDBRANCH   6   8
ENDBRANCH   3   6
ENDBRANCH   1   2
BRANCH   1  29
ATOM     29  C   UNL     1      -0.939  -0.149  -3.438  1.00  0.00     0.042 C 
BRANCH  29  30
ATOM     30  C   UNL     1      -2.454  -0.136  -3.569  1.00  0.00     0.118 C 
BRANCH  30  31
ATOM     31  N   UNL     1      -2.974   1.086  -4.173  1.00  0.00    -0.352 N 
ATOM     32  C   UNL     1      -3.888   1.193  -5.197  1.00  0.00     0.251 C 
ATOM     33  H   UNL     1      -2.631   1.933  -3.807  1.00  0.00     0.163 HD
ATOM     34  O   UNL     1      -4.200   2.281  -5.669  1.00  0.00    -0.269 OA
BRANCH  32  35
ATOM     35  C   UNL     1      -4.438  -0.054  -5.761  1.00  0.00     0.039 A 
ATOM     36  C   UNL     1      -4.189  -0.351  -7.101  1.00  0.00     0.014 A 
ATOM     37  C   UNL     1      -5.041  -0.988  -4.915  1.00  0.00     0.014 A 
ATOM     38  C   UNL     1      -4.460  -1.634  -7.577  1.00  0.00     0.010 A 
ATOM     39  C   UNL     1      -5.233  -2.287  -5.370  1.00  0.00     0.010 A 
ATOM     40  C   UNL     1      -4.933  -2.625  -6.701  1.00  0.00    -0.014 A 
BRANCH  40  41
ATOM     41  C   UNL     1      -5.122  -4.027  -7.148  1.00  0.00     0.031 A 
ATOM     42  C   UNL     1      -6.497  -4.631  -7.126  1.00  0.00     0.074 A 
ATOM     43  C   UNL     1      -4.058  -4.780  -7.491  1.00  0.00     0.049 A 
ATOM     44  N   UNL     1      -6.862  -5.864  -7.367  1.00  0.00    -0.248 NA
ATOM     45  C   UNL     1      -7.605  -3.735  -6.755  1.00  0.00     0.031 C 
ATOM     46  C   UNL     1      -2.666  -4.326  -7.524  1.00  0.00     0.029 A 
ATOM     47  N   UNL     1      -3.984  -6.099  -7.868  1.00  0.00    -0.354 N 
ATOM     48  C   UNL     1      -8.234  -5.896  -7.151  1.00  0.00     0.074 A 
ATOM     49  C   UNL     1      -8.628  -4.575  -6.715  1.00  0.00     0.031 C 
ATOM     50  C   UNL     1      -1.881  -5.341  -7.922  1.00  0.00     0.029 A 
ATOM     51  C   UNL     1      -2.705  -6.528  -8.129  1.00  0.00     0.049 A 
ATOM     52  H   UNL     1      -4.774  -6.682  -7.944  1.00  0.00     0.167 HD
ATOM     53  C   UNL     1      -9.094  -6.928  -7.319  1.00  0.00     0.031 A 
ATOM     54  C   UNL     1      -2.246  -7.744  -8.483  1.00  0.00     0.031 A 
ATOM     55  C   UNL     1      -8.707  -8.237  -7.768  1.00  0.00     0.049 A 
ATOM     56  C   UNL     1      -3.220  -8.878  -8.649  1.00  0.00     0.074 A 
ATOM     57  C   UNL     1      -9.512  -9.334  -8.016  1.00  0.00     0.029 A 
ATOM     58  N   UNL     1      -7.404  -8.623  -8.039  1.00  0.00    -0.354 N 
ATOM     59  N   UNL     1      -4.522  -8.879  -8.494  1.00  0.00    -0.248 NA
ATOM     60  C   UNL     1      -2.661 -10.178  -9.050  1.00  0.00     0.031 C 
ATOM     61  C   UNL     1      -8.690 -10.400  -8.396  1.00  0.00     0.029 A 
ATOM     62  C   UNL     1      -7.380  -9.949  -8.436  1.00  0.00     0.049 A 
ATOM     63  H   UNL     1      -6.614  -8.042  -7.960  1.00  0.00     0.167 HD
ATOM     64  C   UNL     1      -4.941 -10.165  -8.812  1.00  0.00     0.074 A 
ATOM     65  C   UNL     1      -3.756 -10.915  -9.174  1.00  0.00     0.031 C 
ATOM     66  C   UNL     1      -6.195 -10.676  -8.807  1.00  0.00     0.031 A 
BRANCH  53  67
ATOM     67  C   UNL     1     -10.540  -6.674  -7.003  1.00  0.00    -0.014 A 
ATOM     68  C   UNL     1     -11.329  -5.848  -7.820  1.00  0.00     0.009 A 
ATOM     69  C   UNL     1     -11.127  -7.284  -5.884  1.00  0.00     0.009 A 
ATOM     70  C   UNL     1     -12.666  -5.607  -7.500  1.00  0.00     0.001 A 
ATOM     71  C   UNL     1     -12.473  -7.065  -5.584  1.00  0.00     0.001 A 
ATOM     72  C   UNL     1     -13.237  -6.219  -6.386  1.00  0.00     0.000 A 
ENDBRANCH  53  67
BRANCH  54  73
ATOM     73  C   UNL     1      -0.794  -7.957  -8.719  1.00  0.00    -0.014 A 
ATOM     74  C   UNL     1      -0.309  -8.173 -10.018  1.00  0.00     0.009 A 
ATOM     75  C   UNL     1       0.113  -7.962  -7.648  1.00  0.00     0.009 A 
ATOM     76  C   UNL     1       1.048  -8.418 -10.237  1.00  0.00     0.001 A 
ATOM     77  C   UNL     1       1.475  -8.179  -7.873  1.00  0.00     0.001 A 
ATOM     78  C   UNL     1       1.940  -8.417  -9.165  1.00  0.00     0.000 A 
ENDBRANCH  54  73
BRANCH  66  79
ATOM     79  C   UNL     1      -6.365 -12.098  -9.259  1.00  0.00    -0.014 A 
ATOM     80  C   UNL     1      -5.976 -13.175  -8.448  1.00  0.00     0.009 A 
ATOM     81  C   UNL     1      -6.981 -12.361 -10.493  1.00  0.00     0.009 A 
ATOM     82  C   UNL     1      -6.178 -14.489  -8.878  1.00  0.00     0.001 A 
ATOM     83  C   UNL     1      -7.206 -13.673 -10.907  1.00  0.00     0.001 A 
ATOM     84  C   UNL     1      -6.798 -14.736 -10.103  1.00  0.00     0.000 A 
ENDBRANCH  66  79
ENDBRANCH  40  41
ENDBRANCH  32  35
ENDBRANCH  30  31
ENDBRANCH  29  30
ENDBRANCH   1  29
TORSDOF 14
