REMARK SMILES Cc1ccccc1CNc1ccc(C(=O)NCCCNC(=O)c2ccc(-c3c4nc(c(-c5ccccc5)c5ccc([nH]5)c(-c5ccccc5)c5nc(c(-c6ccccc6)c6ccc3[nH]6)C=C5)C=C4)cc2)c(F)c1F
REMARK SMILES IDX 17 1 16 2 14 3 15 4 13 6 10 7 11 8 73 9 12 10 71 11 74 12
REMARK SMILES IDX 72 13 9 14 8 16 7 17 1 18 2 19 3 20 4 21 6 22 5 23 18 24
REMARK SMILES IDX 19 25 20 26 21 27 22 29 23 30 24 31 70 32 25 33 69 34 26 35
REMARK SMILES IDX 27 36 28 37 63 38 29 39 68 40 62 41 64 42 30 43 67 44 61 45
REMARK SMILES IDX 60 46 31 48 53 49 38 50 52 51 39 52 42 53 51 54 65 55 40 56
REMARK SMILES IDX 41 57 50 59 66 60 43 61 32 62 33 63 37 64 34 65 36 66 35 67
REMARK SMILES IDX 54 68 55 69 59 70 56 71 58 72 57 73 44 74 45 75 49 76 46 77
REMARK SMILES IDX 48 78 47 79
REMARK H PARENT 16 5 9 15 20 28 64 47 42 58
REMARK Flexibility Score: inf
ROOT
ATOM      1  C   UNL     1      -0.376   9.119   1.524  1.00  0.00     0.118 C 
ENDROOT
BRANCH   1   2
ATOM      2  N   UNL     1      -1.253   9.215   0.366  1.00  0.00    -0.352 N 
ATOM      3  C   UNL     1      -1.576   8.353  -0.660  1.00  0.00     0.254 C 
ATOM      4  O   UNL     1      -2.410   8.769  -1.464  1.00  0.00    -0.269 OA
ATOM      5  H   UNL     1      -1.715  10.082   0.302  1.00  0.00     0.163 HD
BRANCH   3   6
ATOM      6  C   UNL     1      -0.984   6.993  -0.848  1.00  0.00     0.078 A 
ATOM      7  C   UNL     1       0.054   4.365  -1.263  1.00  0.00     0.074 A 
ATOM      8  C   UNL     1       0.680   5.258  -0.403  1.00  0.00     0.030 A 
ATOM      9  C   UNL     1      -1.070   4.827  -1.958  1.00  0.00     0.182 A 
ATOM     10  C   UNL     1       0.168   6.541  -0.201  1.00  0.00     0.019 A 
ATOM     11  C   UNL     1      -1.587   6.110  -1.754  1.00  0.00     0.173 A 
ATOM     12  F   UNL     1      -1.697   3.995  -2.807  1.00  0.00    -0.201 F 
ATOM     13  F   UNL     1      -2.695   6.447  -2.432  1.00  0.00    -0.203 F 
BRANCH   7  14
ATOM     14  N   UNL     1       0.473   3.051  -1.377  1.00  0.00    -0.379 N 
ATOM     15  H   UNL     1       0.413   2.599  -2.249  1.00  0.00     0.161 HD
BRANCH  14  16
ATOM     16  C   UNL     1       1.002   2.325  -0.231  1.00  0.00     0.149 C 
BRANCH  16  17
ATOM     17  C   UNL     1       0.329   0.974  -0.127  1.00  0.00    -0.026 A 
ATOM     18  C   UNL     1       2.526  -0.369  -0.073  1.00  0.00     0.044 C 
ATOM     19  C   UNL     1       1.027  -0.247  -0.049  1.00  0.00    -0.046 A 
ATOM     20  C   UNL     1       0.291  -1.445   0.022  1.00  0.00     0.004 A 
ATOM     21  C   UNL     1      -1.103  -1.442   0.053  1.00  0.00     0.000 A 
ATOM     22  C   UNL     1      -1.083   0.955  -0.065  1.00  0.00     0.006 A 
ATOM     23  C   UNL     1      -1.793  -0.239   0.017  1.00  0.00     0.000 A 
ENDBRANCH  16  17
ENDBRANCH  14  16
ENDBRANCH   7  14
ENDBRANCH   3   6
ENDBRANCH   1   2
BRANCH   1  24
ATOM     24  C   UNL     1       1.085   9.399   1.160  1.00  0.00     0.042 C 
BRANCH  24  25
ATOM     25  C   UNL     1       1.514  10.833   1.397  1.00  0.00     0.118 C 
BRANCH  25  26
ATOM     26  N   UNL     1       2.326  11.016   2.597  1.00  0.00    -0.352 N 
ATOM     27  C   UNL     1       2.738  12.202   3.183  1.00  0.00     0.251 C 
ATOM     28  H   UNL     1       2.619  10.190   3.048  1.00  0.00     0.163 HD
ATOM     29  O   UNL     1       3.414  12.201   4.195  1.00  0.00    -0.269 OA
BRANCH  27  30
ATOM     30  C   UNL     1       2.212  13.470   2.624  1.00  0.00     0.039 A 
ATOM     31  C   UNL     1       1.517  14.313   3.495  1.00  0.00     0.014 A 
ATOM     32  C   UNL     1       2.154  13.662   1.246  1.00  0.00     0.014 A 
ATOM     33  C   UNL     1       0.553  15.169   2.974  1.00  0.00     0.010 A 
ATOM     34  C   UNL     1       1.131  14.435   0.733  1.00  0.00     0.010 A 
ATOM     35  C   UNL     1       0.287  15.128   1.604  1.00  0.00    -0.014 A 
BRANCH  35  36
ATOM     36  C   UNL     1      -0.907  15.724   1.022  1.00  0.00     0.031 A 
ATOM     37  C   UNL     1      -0.831  17.063   0.421  1.00  0.00     0.074 A 
ATOM     38  C   UNL     1      -2.103  15.096   1.069  1.00  0.00     0.049 A 
ATOM     39  N   UNL     1      -1.778  17.938   0.491  1.00  0.00    -0.248 NA
ATOM     40  C   UNL     1       0.360  17.537  -0.269  1.00  0.00     0.031 C 
ATOM     41  C   UNL     1      -3.342  15.517   0.420  1.00  0.00     0.029 A 
ATOM     42  N   UNL     1      -2.503  14.074   1.928  1.00  0.00    -0.354 N 
ATOM     43  C   UNL     1      -1.461  18.935  -0.398  1.00  0.00     0.074 A 
ATOM     44  C   UNL     1      -0.080  18.699  -0.759  1.00  0.00     0.031 C 
ATOM     45  C   UNL     1      -4.375  15.020   1.117  1.00  0.00     0.029 A 
ATOM     46  C   UNL     1      -3.832  14.356   2.289  1.00  0.00     0.049 A 
ATOM     47  H   UNL     1      -1.962  13.306   2.223  1.00  0.00     0.167 HD
ATOM     48  C   UNL     1      -2.436  19.760  -0.871  1.00  0.00     0.031 A 
ATOM     49  C   UNL     1      -4.237  14.535   3.580  1.00  0.00     0.031 A 
ATOM     50  C   UNL     1      -3.752  19.460  -0.308  1.00  0.00     0.049 A 
ATOM     51  C   UNL     1      -4.867  15.892   3.838  1.00  0.00     0.074 A 
ATOM     52  C   UNL     1      -4.884  18.829  -0.801  1.00  0.00     0.029 A 
ATOM     53  N   UNL     1      -3.949  19.580   1.058  1.00  0.00    -0.354 N 
ATOM     54  N   UNL     1      -5.003  16.825   2.938  1.00  0.00    -0.248 NA
ATOM     55  C   UNL     1      -5.268  16.350   5.169  1.00  0.00     0.031 C 
ATOM     56  C   UNL     1      -5.775  18.595   0.282  1.00  0.00     0.029 A 
ATOM     57  C   UNL     1      -5.186  19.087   1.431  1.00  0.00     0.049 A 
ATOM     58  H   UNL     1      -3.293  19.966   1.682  1.00  0.00     0.167 HD
ATOM     59  C   UNL     1      -5.431  17.984   3.534  1.00  0.00     0.074 A 
ATOM     60  C   UNL     1      -5.584  17.635   4.934  1.00  0.00     0.031 C 
ATOM     61  C   UNL     1      -5.574  19.147   2.832  1.00  0.00     0.031 A 
BRANCH  48  62
ATOM     62  C   UNL     1      -2.227  20.651  -2.072  1.00  0.00    -0.014 A 
ATOM     63  C   UNL     1      -3.308  20.943  -2.922  1.00  0.00     0.009 A 
ATOM     64  C   UNL     1      -0.986  21.197  -2.442  1.00  0.00     0.009 A 
ATOM     65  C   UNL     1      -3.137  21.631  -4.130  1.00  0.00     0.001 A 
ATOM     66  C   UNL     1      -0.796  21.844  -3.670  1.00  0.00     0.001 A 
ATOM     67  C   UNL     1      -1.872  22.049  -4.522  1.00  0.00     0.000 A 
ENDBRANCH  48  62
BRANCH  49  68
ATOM     68  C   UNL     1      -3.414  13.782   4.565  1.00  0.00    -0.014 A 
ATOM     69  C   UNL     1      -3.467  12.374   4.525  1.00  0.00     0.009 A 
ATOM     70  C   UNL     1      -2.326  14.397   5.201  1.00  0.00     0.009 A 
ATOM     71  C   UNL     1      -2.391  11.607   4.979  1.00  0.00     0.001 A 
ATOM     72  C   UNL     1      -1.260  13.622   5.670  1.00  0.00     0.001 A 
ATOM     73  C   UNL     1      -1.272  12.235   5.519  1.00  0.00     0.000 A 
ENDBRANCH  49  68
BRANCH  61  74
ATOM     74  C   UNL     1      -6.054  20.466   3.391  1.00  0.00    -0.014 A 
ATOM     75  C   UNL     1      -6.929  20.586   4.478  1.00  0.00     0.009 A 
ATOM     76  C   UNL     1      -5.703  21.669   2.735  1.00  0.00     0.009 A 
ATOM     77  C   UNL     1      -7.360  21.841   4.934  1.00  0.00     0.001 A 
ATOM     78  C   UNL     1      -6.147  22.920   3.170  1.00  0.00     0.001 A 
ATOM     79  C   UNL     1      -6.965  23.007   4.284  1.00  0.00     0.000 A 
ENDBRANCH  61  74
ENDBRANCH  35  36
ENDBRANCH  27  30
ENDBRANCH  25  26
ENDBRANCH  24  25
ENDBRANCH   1  24
TORSDOF 13
