REMARK SMILES COc1ccc(N2C(=O)/C(=C/c3c(C(=O)NCCCNC(=O)c4ccc(-c5c6nc(c(-c7ccccc7)c7ccc([nH]7)c(-c7ccccc7)c7nc(c(-c8ccccc8)c8ccc5[nH]8)C=C7)C=C6)cc4)[nH]c4cc(OC)ccc34)SC2=S)cc1
REMARK SMILES IDX 17 1 16 2 14 3 15 4 13 6 12 7 79 8 71 9 72 10 78 11 73 13
REMARK SMILES IDX 77 14 74 15 11 16 7 17 8 18 81 19 9 20 10 21 80 22 82 23
REMARK SMILES IDX 6 24 3 25 4 26 84 27 5 28 83 29 2 30 1 31 75 32 76 33 18 34
REMARK SMILES IDX 19 35 20 36 21 37 22 39 23 40 24 41 70 42 25 43 69 44 26 45
REMARK SMILES IDX 27 46 28 47 63 48 29 49 68 50 62 51 64 52 30 53 67 54 61 55
REMARK SMILES IDX 60 56 31 58 53 59 38 60 52 61 39 62 42 63 51 64 65 65 40 66
REMARK SMILES IDX 41 67 50 69 66 70 43 71 32 72 33 73 37 74 34 75 36 76 35 77
REMARK SMILES IDX 54 78 55 79 59 80 56 81 58 82 57 83 44 84 45 85 49 86 46 87
REMARK SMILES IDX 48 88 47 89
REMARK H PARENT 16 5 71 12 20 38 64 57 42 68
REMARK Flexibility Score: inf
ROOT
ATOM      1  C   UNL     1       0.031  -9.156  -2.630  1.00  0.00     0.118 C 
ENDROOT
BRANCH   1   2
ATOM      2  N   UNL     1       1.192  -9.455  -1.807  1.00  0.00    -0.351 N 
ATOM      3  C   UNL     1       2.258 -10.268  -2.136  1.00  0.00     0.268 C 
ATOM      4  O   UNL     1       3.041 -10.597  -1.258  1.00  0.00    -0.268 OA
ATOM      5  H   UNL     1       1.222  -9.031  -0.919  1.00  0.00     0.163 HD
BRANCH   3   6
ATOM      6  C   UNL     1       2.325 -10.781  -3.484  1.00  0.00     0.112 A 
ATOM      7  C   UNL     1       2.178 -10.206  -4.748  1.00  0.00     0.014 A 
ATOM      8  C   UNL     1       1.723 -11.288  -5.592  1.00  0.00     0.008 A 
ATOM      9  N   UNL     1       2.557 -12.114  -3.699  1.00  0.00    -0.350 N 
ATOM     10  C   UNL     1       1.951 -12.466  -4.875  1.00  0.00     0.050 A 
ATOM     11  C   UNL     1       1.082 -11.429  -6.847  1.00  0.00     0.015 A 
ATOM     12  H   UNL     1       3.071 -12.714  -3.111  1.00  0.00     0.167 HD
ATOM     13  C   UNL     1       1.565 -13.736  -5.305  1.00  0.00     0.073 A 
ATOM     14  C   UNL     1       0.642 -12.709  -7.278  1.00  0.00     0.047 A 
ATOM     15  C   UNL     1       0.872 -13.848  -6.507  1.00  0.00     0.120 A 
BRANCH   7  16
ATOM     16  C   UNL     1       2.158  -8.769  -4.946  1.00  0.00     0.032 C 
ATOM     17  N   UNL     1       3.229  -6.064  -2.824  1.00  0.00    -0.261 N 
ATOM     18  C   UNL     1       2.510  -6.502  -3.943  1.00  0.00     0.270 C 
ATOM     19  C   UNL     1       4.259  -6.885  -2.387  1.00  0.00     0.152 C 
ATOM     20  O   UNL     1       1.533  -5.979  -4.461  1.00  0.00    -0.268 OA
ATOM     21  C   UNL     1       2.971  -7.885  -4.322  1.00  0.00     0.081 C 
ATOM     22  S   UNL     1       4.449  -8.227  -3.505  1.00  0.00    -0.054 SA
ATOM     23  S   UNL     1       5.265  -6.718  -1.061  1.00  0.00    -0.051 S 
BRANCH  17  24
ATOM     24  C   UNL     1       2.838  -4.899  -2.097  1.00  0.00     0.051 A 
ATOM     25  C   UNL     1       2.265  -2.611  -0.544  1.00  0.00     0.119 A 
ATOM     26  C   UNL     1       2.015  -3.886  -0.043  1.00  0.00     0.048 A 
ATOM     27  C   UNL     1       2.842  -2.480  -1.808  1.00  0.00     0.048 A 
ATOM     28  C   UNL     1       2.292  -5.022  -0.812  1.00  0.00     0.030 A 
ATOM     29  C   UNL     1       3.115  -3.619  -2.589  1.00  0.00     0.030 A 
BRANCH  25  30
ATOM     30  O   UNL     1       1.939  -1.585   0.300  1.00  0.00    -0.497 OA
ATOM     31  C   UNL     1       1.636  -0.341  -0.322  1.00  0.00     0.278 C 
ENDBRANCH  25  30
ENDBRANCH  17  24
ENDBRANCH   7  16
BRANCH  15  32
ATOM     32  O   UNL     1       0.458 -15.126  -6.756  1.00  0.00    -0.497 OA
ATOM     33  C   UNL     1      -0.084 -15.423  -8.031  1.00  0.00     0.278 C 
ENDBRANCH  15  32
ENDBRANCH   3   6
ENDBRANCH   1   2
BRANCH   1  34
ATOM     34  C   UNL     1      -1.172  -8.637  -1.867  1.00  0.00     0.042 C 
BRANCH  34  35
ATOM     35  C   UNL     1      -0.957  -7.267  -1.241  1.00  0.00     0.118 C 
BRANCH  35  36
ATOM     36  N   UNL     1      -0.721  -6.170  -2.169  1.00  0.00    -0.352 N 
ATOM     37  C   UNL     1      -0.875  -4.810  -1.992  1.00  0.00     0.251 C 
ATOM     38  H   UNL     1      -0.403  -6.441  -3.060  1.00  0.00     0.163 HD
ATOM     39  O   UNL     1      -0.666  -4.060  -2.944  1.00  0.00    -0.269 OA
BRANCH  37  40
ATOM     40  C   UNL     1      -1.365  -4.228  -0.713  1.00  0.00     0.039 A 
ATOM     41  C   UNL     1      -2.059  -3.012  -0.776  1.00  0.00     0.014 A 
ATOM     42  C   UNL     1      -1.220  -4.862   0.522  1.00  0.00     0.014 A 
ATOM     43  C   UNL     1      -2.756  -2.546   0.338  1.00  0.00     0.010 A 
ATOM     44  C   UNL     1      -1.974  -4.452   1.609  1.00  0.00     0.010 A 
ATOM     45  C   UNL     1      -2.803  -3.335   1.494  1.00  0.00    -0.014 A 
BRANCH  45  46
ATOM     46  C   UNL     1      -3.891  -3.187   2.482  1.00  0.00     0.031 A 
ATOM     47  C   UNL     1      -3.603  -2.845   3.907  1.00  0.00     0.074 A 
ATOM     48  C   UNL     1      -5.119  -3.581   2.086  1.00  0.00     0.049 A 
ATOM     49  N   UNL     1      -4.434  -2.770   4.913  1.00  0.00    -0.248 NA
ATOM     50  C   UNL     1      -2.197  -2.598   4.259  1.00  0.00     0.031 C 
ATOM     51  C   UNL     1      -5.457  -4.065   0.741  1.00  0.00     0.029 A 
ATOM     52  N   UNL     1      -6.299  -3.675   2.772  1.00  0.00    -0.354 N 
ATOM     53  C   UNL     1      -3.653  -2.474   6.022  1.00  0.00     0.074 A 
ATOM     54  C   UNL     1      -2.277  -2.434   5.573  1.00  0.00     0.031 C 
ATOM     55  C   UNL     1      -6.758  -4.381   0.696  1.00  0.00     0.029 A 
ATOM     56  C   UNL     1      -7.337  -4.155   2.010  1.00  0.00     0.049 A 
ATOM     57  H   UNL     1      -6.395  -3.423   3.719  1.00  0.00     0.167 HD
ATOM     58  C   UNL     1      -4.060  -2.248   7.293  1.00  0.00     0.031 A 
ATOM     59  C   UNL     1      -8.620  -4.385   2.335  1.00  0.00     0.031 A 
ATOM     60  C   UNL     1      -5.437  -2.323   7.709  1.00  0.00     0.049 A 
ATOM     61  C   UNL     1      -9.058  -4.067   3.731  1.00  0.00     0.074 A 
ATOM     62  C   UNL     1      -5.988  -2.035   8.945  1.00  0.00     0.029 A 
ATOM     63  N   UNL     1      -6.483  -2.731   6.890  1.00  0.00    -0.354 N 
ATOM     64  N   UNL     1      -8.331  -3.658   4.744  1.00  0.00    -0.248 NA
ATOM     65  C   UNL     1     -10.487  -4.212   4.023  1.00  0.00     0.031 C 
ATOM     66  C   UNL     1      -7.359  -2.313   8.886  1.00  0.00     0.029 A 
ATOM     67  C   UNL     1      -7.673  -2.723   7.598  1.00  0.00     0.049 A 
ATOM     68  H   UNL     1      -6.391  -2.989   5.944  1.00  0.00     0.167 HD
ATOM     69  C   UNL     1      -9.217  -3.474   5.793  1.00  0.00     0.074 A 
ATOM     70  C   UNL     1     -10.537  -3.800   5.283  1.00  0.00     0.031 C 
ATOM     71  C   UNL     1      -8.965  -3.071   7.062  1.00  0.00     0.031 A 
BRANCH  58  72
ATOM     72  C   UNL     1      -3.003  -1.907   8.310  1.00  0.00    -0.014 A 
ATOM     73  C   UNL     1      -2.284  -0.701   8.235  1.00  0.00     0.009 A 
ATOM     74  C   UNL     1      -2.729  -2.788   9.367  1.00  0.00     0.009 A 
ATOM     75  C   UNL     1      -1.285  -0.408   9.167  1.00  0.00     0.001 A 
ATOM     76  C   UNL     1      -1.750  -2.480  10.315  1.00  0.00     0.001 A 
ATOM     77  C   UNL     1      -1.021  -1.296  10.207  1.00  0.00     0.000 A 
ENDBRANCH  58  72
BRANCH  59  78
ATOM     78  C   UNL     1      -9.565  -4.869   1.297  1.00  0.00    -0.014 A 
ATOM     79  C   UNL     1     -10.498  -3.989   0.728  1.00  0.00     0.009 A 
ATOM     80  C   UNL     1      -9.491  -6.184   0.812  1.00  0.00     0.009 A 
ATOM     81  C   UNL     1     -11.347  -4.419  -0.294  1.00  0.00     0.001 A 
ATOM     82  C   UNL     1     -10.324  -6.604  -0.228  1.00  0.00     0.001 A 
ATOM     83  C   UNL     1     -11.254  -5.723  -0.777  1.00  0.00     0.000 A 
ENDBRANCH  59  78
BRANCH  71  84
ATOM     84  C   UNL     1     -10.153  -2.951   7.970  1.00  0.00    -0.014 A 
ATOM     85  C   UNL     1     -10.800  -4.091   8.471  1.00  0.00     0.009 A 
ATOM     86  C   UNL     1     -10.615  -1.680   8.342  1.00  0.00     0.009 A 
ATOM     87  C   UNL     1     -11.914  -3.958   9.301  1.00  0.00     0.001 A 
ATOM     88  C   UNL     1     -11.711  -1.551   9.194  1.00  0.00     0.001 A 
ATOM     89  C   UNL     1     -12.365  -2.689   9.664  1.00  0.00     0.000 A 
ENDBRANCH  71  84
ENDBRANCH  45  46
ENDBRANCH  37  40
ENDBRANCH  35  36
ENDBRANCH  34  35
ENDBRANCH   1  34
TORSDOF 14
