REMARK SMILES CC(=O)O[C@H]1C[C@@H](C(=O)NCCCNC(=O)c2ccc(-c3c4nc(c(-c5ccccc5)c5ccc([nH]5)c(-c5ccccc5)c5nc(c(-c6ccccc6)c6ccc3[nH]6)C=C5)C=C4)cc2)N(S(=O)(=O)c2ccc(F)cc2)C1
REMARK SMILES IDX 12 1 11 2 10 3 8 4 9 5 7 7 5 8 6 9 76 10 65 11 4 12 2 13
REMARK SMILES IDX 1 14 3 15 66 16 67 17 68 18 69 19 70 20 75 21 71 22 74 23
REMARK SMILES IDX 72 24 73 25 13 26 14 27 15 28 16 30 17 31 18 32 64 33 19 34
REMARK SMILES IDX 63 35 20 36 21 37 22 38 57 39 23 40 62 41 56 42 58 43 24 44
REMARK SMILES IDX 61 45 55 46 54 47 25 49 47 50 32 51 46 52 33 53 36 54 45 55
REMARK SMILES IDX 59 56 34 57 35 58 44 60 60 61 37 62 26 63 27 64 31 65 28 66
REMARK SMILES IDX 30 67 29 68 48 69 49 70 53 71 50 72 52 73 51 74 38 75 39 76
REMARK SMILES IDX 43 77 40 78 42 79 41 80
REMARK H PARENT 10 6 14 29 58 48 36 59
REMARK Flexibility Score: inf
ROOT
ATOM      1  C   UNL     1      -3.779   0.730   3.559  1.00  0.00     0.042 C 
ENDROOT
BRANCH   1   2
ATOM      2  C   UNL     1      -3.316   0.549   2.119  1.00  0.00     0.117 C 
BRANCH   2   3
ATOM      3  N   UNL     1      -3.484   1.736   1.306  1.00  0.00    -0.355 N 
ATOM      4  C   UNL     1      -2.616   2.686   0.881  1.00  0.00     0.238 C 
ATOM      5  O   UNL     1      -3.022   3.386  -0.056  1.00  0.00    -0.273 OA
ATOM      6  H   UNL     1      -4.409   1.881   1.003  1.00  0.00     0.163 HD
BRANCH   4   7
ATOM      7  C   UNL     1      -1.202   2.896   1.404  1.00  0.00     0.166 C 
ATOM      8  C   UNL     1       0.762   2.764   2.722  1.00  0.00     0.193 C 
ATOM      9  C   UNL     1      -0.640   2.172   2.613  1.00  0.00     0.077 C 
ATOM     10  C   UNL     1       0.620   4.202   2.202  1.00  0.00     0.148 C 
ATOM     11  N   UNL     1      -0.773   4.328   1.641  1.00  0.00    -0.182 NA
BRANCH   8  12
ATOM     12  O   UNL     1       1.181   2.694   4.094  1.00  0.00    -0.461 OA
BRANCH  12  13
ATOM     13  C   UNL     1       2.476   2.820   4.478  1.00  0.00     0.302 C 
ATOM     14  C   UNL     1       3.493   3.081   3.406  1.00  0.00     0.139 C 
ATOM     15  O   UNL     1       2.796   2.718   5.657  1.00  0.00    -0.253 OA
ENDBRANCH  12  13
ENDBRANCH   8  12
BRANCH  11  16
ATOM     16  S   UNL     1      -1.756   5.349   2.616  1.00  0.00     0.243 S 
ATOM     17  O   UNL     1      -2.216   4.562   3.740  1.00  0.00    -0.207 OA
ATOM     18  O   UNL     1      -0.997   6.565   2.840  1.00  0.00    -0.207 OA
BRANCH  16  19
ATOM     19  C   UNL     1      -3.182   5.824   1.672  1.00  0.00     0.082 A 
ATOM     20  C   UNL     1      -3.142   6.984   0.886  1.00  0.00     0.025 A 
ATOM     21  C   UNL     1      -4.390   5.138   1.853  1.00  0.00     0.025 A 
ATOM     22  C   UNL     1      -4.297   7.407   0.224  1.00  0.00     0.040 A 
ATOM     23  C   UNL     1      -5.529   5.541   1.158  1.00  0.00     0.040 A 
ATOM     24  C   UNL     1      -5.472   6.671   0.349  1.00  0.00     0.123 A 
ATOM     25  F   UNL     1      -6.572   7.067  -0.303  1.00  0.00    -0.207 F 
ENDBRANCH  16  19
ENDBRANCH  11  16
ENDBRANCH   4   7
ENDBRANCH   2   3
ENDBRANCH   1   2
BRANCH   1  26
ATOM     26  C   UNL     1      -5.287   0.928   3.716  1.00  0.00     0.118 C 
BRANCH  26  27
ATOM     27  N   UNL     1      -6.059  -0.177   3.164  1.00  0.00    -0.352 N 
ATOM     28  C   UNL     1      -6.876  -1.101   3.761  1.00  0.00     0.251 C 
ATOM     29  H   UNL     1      -5.980  -0.278   2.188  1.00  0.00     0.163 HD
ATOM     30  O   UNL     1      -7.225  -2.086   3.114  1.00  0.00    -0.269 OA
BRANCH  28  31
ATOM     31  C   UNL     1      -7.347  -0.941   5.155  1.00  0.00     0.039 A 
ATOM     32  C   UNL     1      -7.526  -2.090   5.932  1.00  0.00     0.014 A 
ATOM     33  C   UNL     1      -7.693   0.307   5.679  1.00  0.00     0.014 A 
ATOM     34  C   UNL     1      -8.005  -1.983   7.239  1.00  0.00     0.010 A 
ATOM     35  C   UNL     1      -8.094   0.422   7.011  1.00  0.00     0.010 A 
ATOM     36  C   UNL     1      -8.265  -0.722   7.802  1.00  0.00    -0.014 A 
BRANCH  36  37
ATOM     37  C   UNL     1      -8.703  -0.601   9.217  1.00  0.00     0.031 A 
ATOM     38  C   UNL     1     -10.060  -0.048   9.562  1.00  0.00     0.074 A 
ATOM     39  C   UNL     1      -7.856  -0.967  10.199  1.00  0.00     0.049 A 
ATOM     40  N   UNL     1     -10.613   0.103  10.740  1.00  0.00    -0.248 NA
ATOM     41  C   UNL     1     -10.898   0.416   8.445  1.00  0.00     0.031 C 
ATOM     42  C   UNL     1      -6.495  -1.473   9.999  1.00  0.00     0.029 A 
ATOM     43  N   UNL     1      -8.017  -0.978  11.562  1.00  0.00    -0.354 N 
ATOM     44  C   UNL     1     -11.851   0.689  10.507  1.00  0.00     0.074 A 
ATOM     45  C   UNL     1     -11.950   0.912   9.081  1.00  0.00     0.031 C 
ATOM     46  C   UNL     1      -5.964  -1.788  11.191  1.00  0.00     0.029 A 
ATOM     47  C   UNL     1      -6.927  -1.470  12.239  1.00  0.00     0.049 A 
ATOM     48  H   UNL     1      -8.834  -0.664  12.011  1.00  0.00     0.167 HD
ATOM     49  C   UNL     1     -12.826   0.999  11.396  1.00  0.00     0.031 A 
ATOM     50  C   UNL     1      -6.726  -1.651  13.558  1.00  0.00     0.031 A 
ATOM     51  C   UNL     1     -12.730   0.771  12.815  1.00  0.00     0.049 A 
ATOM     52  C   UNL     1      -7.823  -1.294  14.520  1.00  0.00     0.074 A 
ATOM     53  C   UNL     1     -13.688   0.991  13.790  1.00  0.00     0.029 A 
ATOM     54  N   UNL     1     -11.608   0.279  13.462  1.00  0.00    -0.354 N 
ATOM     55  N   UNL     1      -9.021  -0.822  14.273  1.00  0.00    -0.248 NA
ATOM     56  C   UNL     1      -7.542  -1.512  15.946  1.00  0.00     0.031 C 
ATOM     57  C   UNL     1     -13.125   0.687  15.034  1.00  0.00     0.029 A 
ATOM     58  C   UNL     1     -11.839   0.216  14.827  1.00  0.00     0.049 A 
ATOM     59  H   UNL     1     -10.771   0.013  13.018  1.00  0.00     0.167 HD
ATOM     60  C   UNL     1      -9.646  -0.714  15.509  1.00  0.00     0.074 A 
ATOM     61  C   UNL     1      -8.704  -1.195  16.498  1.00  0.00     0.031 C 
ATOM     62  C   UNL     1     -10.889  -0.256  15.800  1.00  0.00     0.031 A 
BRANCH  49  63
ATOM     63  C   UNL     1     -14.084   1.630  10.862  1.00  0.00    -0.014 A 
ATOM     64  C   UNL     1     -14.993   0.899  10.080  1.00  0.00     0.009 A 
ATOM     65  C   UNL     1     -14.389   2.961  11.188  1.00  0.00     0.009 A 
ATOM     66  C   UNL     1     -16.163   1.498   9.608  1.00  0.00     0.001 A 
ATOM     67  C   UNL     1     -15.575   3.548  10.740  1.00  0.00     0.001 A 
ATOM     68  C   UNL     1     -16.456   2.819   9.944  1.00  0.00     0.000 A 
ENDBRANCH  49  63
BRANCH  50  69
ATOM     69  C   UNL     1      -5.443  -2.219  14.051  1.00  0.00    -0.014 A 
ATOM     70  C   UNL     1      -5.407  -3.497  14.630  1.00  0.00     0.009 A 
ATOM     71  C   UNL     1      -4.254  -1.479  13.967  1.00  0.00     0.009 A 
ATOM     72  C   UNL     1      -4.214  -4.007  15.147  1.00  0.00     0.001 A 
ATOM     73  C   UNL     1      -3.056  -2.005  14.456  1.00  0.00     0.001 A 
ATOM     74  C   UNL     1      -3.039  -3.262  15.056  1.00  0.00     0.000 A 
ENDBRANCH  50  69
BRANCH  62  75
ATOM     75  C   UNL     1     -11.303  -0.287  17.245  1.00  0.00    -0.014 A 
ATOM     76  C   UNL     1     -10.720   0.568  18.194  1.00  0.00     0.009 A 
ATOM     77  C   UNL     1     -12.296  -1.188  17.663  1.00  0.00     0.009 A 
ATOM     78  C   UNL     1     -11.086   0.486  19.539  1.00  0.00     0.001 A 
ATOM     79  C   UNL     1     -12.685  -1.243  19.002  1.00  0.00     0.001 A 
ATOM     80  C   UNL     1     -12.069  -0.417  19.941  1.00  0.00     0.000 A 
ENDBRANCH  62  75
ENDBRANCH  36  37
ENDBRANCH  28  31
ENDBRANCH  26  27
ENDBRANCH   1  26
TORSDOF 14
