REMARK SMILES Cc1ccc(S(=O)(=O)N2CCN(C(=O)[C@H]3CCCC[C@@H]3C(=O)NCCCNC(=O)c3ccc(-c4c5nc(c(-c6ccccc6)c6ccc([nH]6)c(-c6ccccc6)c6nc(c(-c7ccccc7)c7ccc4[nH]7)C=C6)C=C5)cc3)CC2)cc1C
REMARK SMILES IDX 24 1 23 2 21 3 22 4 20 6 15 7 16 8 17 9 19 10 18 11 13 12
REMARK SMILES IDX 9 13 10 14 79 15 11 16 78 17 12 18 14 19 6 20 7 21 8 22 5 23
REMARK SMILES IDX 1 24 2 25 3 26 81 27 4 28 80 29 82 30 25 31 26 32 27 33
REMARK SMILES IDX 28 34 29 36 30 37 31 38 77 39 32 40 76 41 33 42 34 43 35 44
REMARK SMILES IDX 70 45 36 46 75 47 69 48 71 49 37 50 74 51 68 52 67 53 38 55
REMARK SMILES IDX 60 56 45 57 59 58 46 59 49 60 58 61 72 62 47 63 48 64 57 66
REMARK SMILES IDX 73 67 50 68 39 69 40 70 44 71 41 72 43 73 42 74 61 75 62 76
REMARK SMILES IDX 66 77 63 78 65 79 64 80 51 81 52 82 56 83 53 84 55 85 54 86
REMARK H PARENT 23 5 27 35 71 54 49 65
REMARK Flexibility Score: inf
ROOT
ATOM      1  C   UNL     1      -3.384   5.801  -2.940  1.00  0.00     0.117 C 
ENDROOT
BRANCH   1   2
ATOM      2  N   UNL     1      -3.625   4.476  -2.415  1.00  0.00    -0.356 N 
ATOM      3  C   UNL     1      -4.399   4.104  -1.364  1.00  0.00     0.223 C 
ATOM      4  O   UNL     1      -4.416   2.905  -1.082  1.00  0.00    -0.275 OA
ATOM      5  H   UNL     1      -3.165   3.743  -2.883  1.00  0.00     0.163 HD
BRANCH   3   6
ATOM      6  C   UNL     1      -5.131   5.158  -0.537  1.00  0.00     0.091 C 
ATOM      7  C   UNL     1      -6.024   4.457   0.538  1.00  0.00     0.091 C 
ATOM      8  C   UNL     1      -7.247   3.829  -0.174  1.00  0.00     0.014 C 
ATOM      9  C   UNL     1      -8.059   4.817  -0.997  1.00  0.00     0.001 C 
ATOM     10  C   UNL     1      -6.002   6.172  -1.320  1.00  0.00     0.014 C 
ATOM     11  C   UNL     1      -7.183   5.518  -2.014  1.00  0.00     0.001 C 
BRANCH   7  12
ATOM     12  C   UNL     1      -6.284   5.505   1.630  1.00  0.00     0.226 C 
ATOM     13  N   UNL     1      -9.489   5.363   4.398  1.00  0.00    -0.194 NA
ATOM     14  C   UNL     1      -9.101   6.628   3.754  1.00  0.00     0.124 C 
ATOM     15  C   UNL     1      -9.259   4.153   3.580  1.00  0.00     0.124 C 
ATOM     16  C   UNL     1      -7.646   6.567   3.307  1.00  0.00     0.136 C 
ATOM     17  C   UNL     1      -7.832   4.086   3.017  1.00  0.00     0.136 C 
ATOM     18  N   UNL     1      -7.341   5.371   2.503  1.00  0.00    -0.340 N 
ATOM     19  O   UNL     1      -5.532   6.481   1.744  1.00  0.00    -0.275 OA
BRANCH  13  20
ATOM     20  S   UNL     1      -9.883   5.298   6.027  1.00  0.00     0.243 S 
ATOM     21  O   UNL     1     -10.475   4.008   6.293  1.00  0.00    -0.207 OA
ATOM     22  O   UNL     1     -10.583   6.530   6.337  1.00  0.00    -0.207 OA
BRANCH  20  23
ATOM     23  C   UNL     1      -8.356   5.350   6.942  1.00  0.00     0.082 A 
ATOM     24  C   UNL     1      -4.665   5.393   9.188  1.00  0.00     0.044 C 
ATOM     25  C   UNL     1      -5.969   5.410   8.441  1.00  0.00    -0.048 A 
ATOM     26  C   UNL     1      -5.968   4.992   7.110  1.00  0.00     0.005 A 
ATOM     27  C   UNL     1      -7.187   5.806   9.031  1.00  0.00    -0.047 A 
ATOM     28  C   UNL     1      -7.152   4.957   6.383  1.00  0.00     0.022 A 
ATOM     29  C   UNL     1      -8.373   5.787   8.267  1.00  0.00     0.025 A 
ATOM     30  C   UNL     1      -7.289   6.244  10.465  1.00  0.00     0.044 C 
ENDBRANCH  20  23
ENDBRANCH  13  20
ENDBRANCH   7  12
ENDBRANCH   3   6
ENDBRANCH   1   2
BRANCH   1  31
ATOM     31  C   UNL     1      -1.982   5.997  -3.467  1.00  0.00     0.042 C 
BRANCH  31  32
ATOM     32  C   UNL     1      -1.560   4.983  -4.510  1.00  0.00     0.118 C 
BRANCH  32  33
ATOM     33  N   UNL     1      -2.335   5.056  -5.740  1.00  0.00    -0.352 N 
ATOM     34  C   UNL     1      -1.940   5.404  -7.010  1.00  0.00     0.251 C 
ATOM     35  H   UNL     1      -3.286   4.820  -5.648  1.00  0.00     0.163 HD
ATOM     36  O   UNL     1      -2.777   5.545  -7.896  1.00  0.00    -0.269 OA
BRANCH  34  37
ATOM     37  C   UNL     1      -0.509   5.647  -7.298  1.00  0.00     0.039 A 
ATOM     38  C   UNL     1      -0.156   6.721  -8.117  1.00  0.00     0.014 A 
ATOM     39  C   UNL     1       0.484   4.839  -6.745  1.00  0.00     0.014 A 
ATOM     40  C   UNL     1       1.192   7.024  -8.313  1.00  0.00     0.010 A 
ATOM     41  C   UNL     1       1.815   5.226  -6.822  1.00  0.00     0.010 A 
ATOM     42  C   UNL     1       2.189   6.307  -7.631  1.00  0.00    -0.014 A 
BRANCH  42  43
ATOM     43  C   UNL     1       3.627   6.646  -7.779  1.00  0.00     0.031 A 
ATOM     44  C   UNL     1       4.592   5.618  -8.312  1.00  0.00     0.074 A 
ATOM     45  C   UNL     1       4.076   7.856  -7.393  1.00  0.00     0.049 A 
ATOM     46  N   UNL     1       5.885   5.716  -8.495  1.00  0.00    -0.248 NA
ATOM     47  C   UNL     1       4.041   4.296  -8.655  1.00  0.00     0.031 C 
ATOM     48  C   UNL     1       3.256   8.921  -6.810  1.00  0.00     0.029 A 
ATOM     49  N   UNL     1       5.336   8.397  -7.438  1.00  0.00    -0.354 N 
ATOM     50  C   UNL     1       6.296   4.471  -8.954  1.00  0.00     0.074 A 
ATOM     51  C   UNL     1       5.135   3.612  -8.953  1.00  0.00     0.031 C 
ATOM     52  C   UNL     1       4.024  10.002  -6.597  1.00  0.00     0.029 A 
ATOM     53  C   UNL     1       5.397   9.692  -6.983  1.00  0.00     0.049 A 
ATOM     54  H   UNL     1       6.123   7.903  -7.764  1.00  0.00     0.167 HD
ATOM     55  C   UNL     1       7.524   4.080  -9.368  1.00  0.00     0.031 A 
ATOM     56  C   UNL     1       6.441  10.536  -6.887  1.00  0.00     0.031 A 
ATOM     57  C   UNL     1       8.678   4.937  -9.382  1.00  0.00     0.049 A 
ATOM     58  C   UNL     1       7.798  10.076  -7.344  1.00  0.00     0.074 A 
ATOM     59  C   UNL     1       9.954   4.656  -9.839  1.00  0.00     0.029 A 
ATOM     60  N   UNL     1       8.696   6.242  -8.915  1.00  0.00    -0.354 N 
ATOM     61  N   UNL     1       8.152   8.920  -7.851  1.00  0.00    -0.248 NA
ATOM     62  C   UNL     1       8.896  11.046  -7.229  1.00  0.00     0.031 C 
ATOM     63  C   UNL     1      10.759   5.771  -9.589  1.00  0.00     0.029 A 
ATOM     64  C   UNL     1       9.968   6.771  -9.045  1.00  0.00     0.049 A 
ATOM     65  H   UNL     1       7.919   6.721  -8.546  1.00  0.00     0.167 HD
ATOM     66  C   UNL     1       9.506   9.034  -8.144  1.00  0.00     0.074 A 
ATOM     67  C   UNL     1       9.901  10.378  -7.777  1.00  0.00     0.031 C 
ATOM     68  C   UNL     1      10.346   8.109  -8.671  1.00  0.00     0.031 A 
BRANCH  55  69
ATOM     69  C   UNL     1       7.678   2.657  -9.835  1.00  0.00    -0.014 A 
ATOM     70  C   UNL     1       7.063   2.203 -11.014  1.00  0.00     0.009 A 
ATOM     71  C   UNL     1       8.470   1.763  -9.098  1.00  0.00     0.009 A 
ATOM     72  C   UNL     1       7.205   0.875 -11.421  1.00  0.00     0.001 A 
ATOM     73  C   UNL     1       8.639   0.445  -9.527  1.00  0.00     0.001 A 
ATOM     74  C   UNL     1       7.997  -0.001 -10.681  1.00  0.00     0.000 A 
ENDBRANCH  55  69
BRANCH  56  75
ATOM     75  C   UNL     1       6.244  11.912  -6.356  1.00  0.00    -0.014 A 
ATOM     76  C   UNL     1       6.374  13.029  -7.196  1.00  0.00     0.009 A 
ATOM     77  C   UNL     1       5.937  12.117  -5.002  1.00  0.00     0.009 A 
ATOM     78  C   UNL     1       6.233  14.321  -6.685  1.00  0.00     0.001 A 
ATOM     79  C   UNL     1       5.762  13.409  -4.501  1.00  0.00     0.001 A 
ATOM     80  C   UNL     1       5.922  14.510  -5.340  1.00  0.00     0.000 A 
ENDBRANCH  56  75
BRANCH  68  81
ATOM     81  C   UNL     1      11.767   8.535  -8.920  1.00  0.00    -0.014 A 
ATOM     82  C   UNL     1      12.657   8.780  -7.863  1.00  0.00     0.009 A 
ATOM     83  C   UNL     1      12.230   8.659 -10.240  1.00  0.00     0.009 A 
ATOM     84  C   UNL     1      13.968   9.184  -8.123  1.00  0.00     0.001 A 
ATOM     85  C   UNL     1      13.550   9.027 -10.497  1.00  0.00     0.001 A 
ATOM     86  C   UNL     1      14.415   9.302  -9.439  1.00  0.00     0.000 A 
ENDBRANCH  68  81
ENDBRANCH  42  43
ENDBRANCH  34  37
ENDBRANCH  32  33
ENDBRANCH  31  32
ENDBRANCH   1  31
TORSDOF 13
