REMARK SMILES CC(C)C[C@H](NC(=O)CNC(=O)[C@@H](NC(=O)OCc1ccccc1)C(C)C)C(=O)NCCCNC(=O)c1ccc(-c2c3nc(c(-c4ccccc4)c4ccc([nH]4)c(-c4ccccc4)c4nc(c(-c5ccccc5)c5ccc2[nH]5)C=C4)C=C3)cc1
REMARK SMILES IDX 5 1 4 2 2 3 1 4 3 5 28 6 29 7 30 8 31 10 32 11 33 12 34 13
REMARK SMILES IDX 35 14 36 16 37 17 38 18 84 19 39 20 83 21 40 22 41 23 42 24
REMARK SMILES IDX 77 25 43 26 82 27 76 28 78 29 44 30 81 31 75 32 74 33 45 35
REMARK SMILES IDX 67 36 52 37 66 38 53 39 56 40 65 41 79 42 54 43 55 44 64 46
REMARK SMILES IDX 80 47 57 48 46 49 47 50 51 51 48 52 50 53 49 54 68 55 69 56
REMARK SMILES IDX 73 57 70 58 72 59 71 60 58 61 59 62 63 63 60 64 62 65 61 66
REMARK SMILES IDX 6 67 7 68 8 70 9 71 10 72 11 73 12 75 13 76 14 77 15 78
REMARK SMILES IDX 16 80 17 81 18 82 19 83 20 84 24 85 21 86 23 87 22 88 25 89
REMARK SMILES IDX 26 90 27 91
REMARK H PARENT 30 9 34 15 78 34 56 45 6 69 10 74 14 79
REMARK Flexibility Score: inf
ROOT
ATOM      1  C   UNL     1      -1.907  -1.446   1.014  1.00  0.00     0.171 C 
ENDROOT
BRANCH   1   2
ATOM      2  C   UNL     1      -1.746  -2.835   1.649  1.00  0.00     0.038 C 
BRANCH   2   3
ATOM      3  C   UNL     1      -2.845  -3.889   1.412  1.00  0.00    -0.015 C 
ATOM      4  C   UNL     1      -3.014  -4.225  -0.070  1.00  0.00     0.007 C 
ATOM      5  C   UNL     1      -2.476  -5.160   2.187  1.00  0.00     0.007 C 
ENDBRANCH   2   3
ENDBRANCH   1   2
BRANCH   1   6
ATOM      6  C   UNL     1      -3.377  -1.004   1.092  1.00  0.00     0.242 C 
ATOM      7  O   UNL     1      -4.089  -0.892   0.095  1.00  0.00    -0.273 OA
ATOM      8  N   UNL     1      -3.936  -0.791   2.320  1.00  0.00    -0.354 N 
ATOM      9  H   UNL     1      -4.870  -0.479   2.315  1.00  0.00     0.163 HD
BRANCH   8  10
ATOM     10  C   UNL     1      -3.336  -0.964   3.631  1.00  0.00     0.117 C 
BRANCH  10  11
ATOM     11  C   UNL     1      -3.634   0.202   4.542  1.00  0.00     0.042 C 
BRANCH  11  12
ATOM     12  C   UNL     1      -5.113   0.353   4.821  1.00  0.00     0.118 C 
BRANCH  12  13
ATOM     13  N   UNL     1      -5.690  -0.828   5.453  1.00  0.00    -0.352 N 
ATOM     14  C   UNL     1      -6.426  -0.901   6.609  1.00  0.00     0.251 C 
ATOM     15  H   UNL     1      -5.532  -1.682   4.990  1.00  0.00     0.163 HD
ATOM     16  O   UNL     1      -6.692  -1.982   7.120  1.00  0.00    -0.269 OA
BRANCH  14  17
ATOM     17  C   UNL     1      -6.861   0.359   7.234  1.00  0.00     0.039 A 
ATOM     18  C   UNL     1      -6.643   0.555   8.596  1.00  0.00     0.014 A 
ATOM     19  C   UNL     1      -7.396   1.375   6.436  1.00  0.00     0.014 A 
ATOM     20  C   UNL     1      -6.905   1.807   9.147  1.00  0.00     0.010 A 
ATOM     21  C   UNL     1      -7.535   2.648   6.960  1.00  0.00     0.010 A 
ATOM     22  C   UNL     1      -7.315   2.871   8.325  1.00  0.00    -0.014 A 
BRANCH  22  23
ATOM     23  C   UNL     1      -7.544   4.223   8.883  1.00  0.00     0.031 A 
ATOM     24  C   UNL     1      -8.913   4.839   8.807  1.00  0.00     0.074 A 
ATOM     25  C   UNL     1      -6.511   4.908   9.411  1.00  0.00     0.049 A 
ATOM     26  N   UNL     1      -9.317   6.005   9.243  1.00  0.00    -0.248 NA
ATOM     27  C   UNL     1      -9.960   4.063   8.119  1.00  0.00     0.031 C 
ATOM     28  C   UNL     1      -5.122   4.444   9.470  1.00  0.00     0.029 A 
ATOM     29  N   UNL     1      -6.474   6.141  10.007  1.00  0.00    -0.354 N 
ATOM     30  C   UNL     1     -10.649   6.105   8.864  1.00  0.00     0.074 A 
ATOM     31  C   UNL     1     -10.968   4.919   8.104  1.00  0.00     0.031 C 
ATOM     32  C   UNL     1      -4.381   5.357  10.118  1.00  0.00     0.029 A 
ATOM     33  C   UNL     1      -5.234   6.480  10.490  1.00  0.00     0.049 A 
ATOM     34  H   UNL     1      -7.262   6.727  10.083  1.00  0.00     0.167 HD
ATOM     35  C   UNL     1     -11.540   7.082   9.152  1.00  0.00     0.031 A 
ATOM     36  C   UNL     1      -4.837   7.568  11.174  1.00  0.00     0.031 A 
ATOM     37  C   UNL     1     -11.226   8.246   9.931  1.00  0.00     0.049 A 
ATOM     38  C   UNL     1      -5.854   8.620  11.518  1.00  0.00     0.074 A 
ATOM     39  C   UNL     1     -12.066   9.267  10.337  1.00  0.00     0.029 A 
ATOM     40  N   UNL     1      -9.965   8.540  10.427  1.00  0.00    -0.354 N 
ATOM     41  N   UNL     1      -7.131   8.661  11.225  1.00  0.00    -0.248 NA
ATOM     42  C   UNL     1      -5.376   9.763  12.306  1.00  0.00     0.031 C 
ATOM     43  C   UNL     1     -11.303  10.200  11.047  1.00  0.00     0.029 A 
ATOM     44  C   UNL     1     -10.000   9.733  11.126  1.00  0.00     0.049 A 
ATOM     45  H   UNL     1      -9.163   7.982  10.301  1.00  0.00     0.167 HD
ATOM     46  C   UNL     1      -7.617   9.820  11.815  1.00  0.00     0.074 A 
ATOM     47  C   UNL     1      -6.499  10.440  12.499  1.00  0.00     0.031 C 
ATOM     48  C   UNL     1      -8.873  10.330  11.793  1.00  0.00     0.031 A 
BRANCH  35  49
ATOM     49  C   UNL     1     -12.937   6.915   8.622  1.00  0.00    -0.014 A 
ATOM     50  C   UNL     1     -13.792   5.920   9.124  1.00  0.00     0.009 A 
ATOM     51  C   UNL     1     -13.409   7.769   7.614  1.00  0.00     0.009 A 
ATOM     52  C   UNL     1     -15.075   5.757   8.600  1.00  0.00     0.001 A 
ATOM     53  C   UNL     1     -14.705   7.624   7.113  1.00  0.00     0.001 A 
ATOM     54  C   UNL     1     -15.532   6.612   7.599  1.00  0.00     0.000 A 
ENDBRANCH  35  49
BRANCH  36  55
ATOM     55  C   UNL     1      -3.427   7.693  11.624  1.00  0.00    -0.014 A 
ATOM     56  C   UNL     1      -3.101   7.560  12.983  1.00  0.00     0.009 A 
ATOM     57  C   UNL     1      -2.400   7.944  10.701  1.00  0.00     0.009 A 
ATOM     58  C   UNL     1      -1.780   7.706  13.412  1.00  0.00     0.001 A 
ATOM     59  C   UNL     1      -1.076   8.062  11.130  1.00  0.00     0.001 A 
ATOM     60  C   UNL     1      -0.768   7.953  12.486  1.00  0.00     0.000 A 
ENDBRANCH  36  55
BRANCH  48  61
ATOM     61  C   UNL     1      -9.102  11.601  12.559  1.00  0.00    -0.014 A 
ATOM     62  C   UNL     1      -8.594  12.828  12.104  1.00  0.00     0.009 A 
ATOM     63  C   UNL     1      -9.854  11.570  13.743  1.00  0.00     0.009 A 
ATOM     64  C   UNL     1      -8.798  13.992  12.845  1.00  0.00     0.001 A 
ATOM     65  C   UNL     1     -10.083  12.741  14.466  1.00  0.00     0.001 A 
ATOM     66  C   UNL     1      -9.544  13.948  14.023  1.00  0.00     0.000 A 
ENDBRANCH  48  61
ENDBRANCH  22  23
ENDBRANCH  14  17
ENDBRANCH  12  13
ENDBRANCH  11  12
ENDBRANCH  10  11
ENDBRANCH   8  10
ENDBRANCH   1   6
BRANCH   1  67
ATOM     67  N   UNL     1      -1.124  -0.350   1.629  1.00  0.00    -0.343 N 
ATOM     68  C   UNL     1       0.158  -0.068   1.939  1.00  0.00     0.240 C 
ATOM     69  H   UNL     1      -1.715   0.394   1.887  1.00  0.00     0.164 HD
ATOM     70  O   UNL     1       0.362   1.098   2.309  1.00  0.00    -0.273 OA
BRANCH  68  71
ATOM     71  C   UNL     1       1.358  -1.003   1.770  1.00  0.00     0.216 C 
BRANCH  71  72
ATOM     72  N   UNL     1       1.242  -2.353   2.267  1.00  0.00    -0.345 N 
ATOM     73  C   UNL     1       1.384  -3.563   1.673  1.00  0.00     0.243 C 
ATOM     74  H   UNL     1       1.017  -2.405   3.224  1.00  0.00     0.164 HD
ATOM     75  O   UNL     1       1.395  -4.534   2.440  1.00  0.00    -0.273 OA
BRANCH  73  76
ATOM     76  C   UNL     1       1.555  -3.786   0.138  1.00  0.00     0.177 C 
BRANCH  76  77
ATOM     77  N   UNL     1       0.736  -2.888  -0.690  1.00  0.00    -0.309 N 
ATOM     78  C   UNL     1       0.997  -1.741  -1.362  1.00  0.00     0.408 C 
ATOM     79  H   UNL     1      -0.201  -3.182  -0.772  1.00  0.00     0.167 HD
ATOM     80  O   UNL     1       0.079  -1.006  -1.702  1.00  0.00    -0.225 OA
BRANCH  78  81
ATOM     81  O   UNL     1       2.301  -1.539  -1.635  1.00  0.00    -0.445 OA
BRANCH  81  82
ATOM     82  C   UNL     1       2.580  -0.409  -2.475  1.00  0.00     0.270 C 
BRANCH  82  83
ATOM     83  C   UNL     1       2.166  -0.550  -3.929  1.00  0.00    -0.011 A 
ATOM     84  C   UNL     1       2.455   0.504  -4.809  1.00  0.00     0.007 A 
ATOM     85  C   UNL     1       1.458  -1.653  -4.430  1.00  0.00     0.007 A 
ATOM     86  C   UNL     1       2.022   0.467  -6.137  1.00  0.00     0.000 A 
ATOM     87  C   UNL     1       1.006  -1.681  -5.750  1.00  0.00     0.000 A 
ATOM     88  C   UNL     1       1.286  -0.620  -6.603  1.00  0.00     0.000 A 
ENDBRANCH  82  83
ENDBRANCH  81  82
ENDBRANCH  78  81
ENDBRANCH  76  77
BRANCH  76  89
ATOM     89  C   UNL     1       3.022  -4.003  -0.285  1.00  0.00     0.015 C 
ATOM     90  C   UNL     1       3.726  -5.032   0.613  1.00  0.00     0.010 C 
ATOM     91  C   UNL     1       3.107  -4.521  -1.728  1.00  0.00     0.010 C 
ENDBRANCH  76  89
ENDBRANCH  73  76
ENDBRANCH  71  72
ENDBRANCH  68  71
ENDBRANCH   1  67
TORSDOF 21
