REMARK SMILES C=CC[C@@H](Cc1ccc(C)cc1)C(=O)NCCCNC(=O)c1ccc(-c2c3nc(c(-c4ccccc4)c4ccc([nH]4)c(-c4ccccc4)c4nc(c(-c5ccccc5)c5ccc2[nH]5)C=C4)C=C3)cc1
REMARK SMILES IDX 17 1 16 2 15 3 13 4 14 5 4 7 3 8 2 9 1 10 5 11 6 12 7 13
REMARK SMILES IDX 12 14 8 15 11 16 9 17 10 18 18 19 19 20 20 21 21 23 22 24
REMARK SMILES IDX 23 25 69 26 24 27 68 28 25 29 26 30 27 31 62 32 28 33 67 34
REMARK SMILES IDX 61 35 63 36 29 37 66 38 60 39 59 40 30 42 52 43 37 44 51 45
REMARK SMILES IDX 38 46 41 47 50 48 64 49 39 50 40 51 49 53 65 54 42 55 31 56
REMARK SMILES IDX 32 57 36 58 33 59 35 60 34 61 53 62 54 63 58 64 55 65 57 66
REMARK SMILES IDX 56 67 43 68 44 69 48 70 45 71 47 72 46 73
REMARK H PARENT 15 6 19 22 63 41 41 52
REMARK Flexibility Score: inf
ROOT
ATOM      1  C   UNL     1      -2.797   3.781  -0.354  1.00  0.00     0.042 C 
ENDROOT
BRANCH   1   2
ATOM      2  C   UNL     1      -3.042   3.648   1.144  1.00  0.00     0.117 C 
BRANCH   2   3
ATOM      3  N   UNL     1      -3.614   2.356   1.497  1.00  0.00    -0.356 N 
ATOM      4  C   UNL     1      -3.047   1.194   1.932  1.00  0.00     0.223 C 
ATOM      5  O   UNL     1      -3.812   0.246   2.133  1.00  0.00    -0.275 OA
ATOM      6  H   UNL     1      -4.593   2.313   1.405  1.00  0.00     0.163 HD
BRANCH   4   7
ATOM      7  C   UNL     1      -1.541   1.022   2.148  1.00  0.00     0.086 C 
BRANCH   7   8
ATOM      8  C   UNL     1      -0.822   0.981   0.788  1.00  0.00     0.040 C 
BRANCH   8   9
ATOM      9  C   UNL     1       0.646   0.663   0.847  1.00  0.00    -0.034 C 
ATOM     10  C   UNL     1       1.222  -0.348   0.186  1.00  0.00     0.004 C 
ENDBRANCH   8   9
ENDBRANCH   7   8
BRANCH   7  11
ATOM     11  C   UNL     1      -0.994   2.079   3.125  1.00  0.00     0.049 C 
BRANCH  11  12
ATOM     12  C   UNL     1      -0.106   1.682   4.284  1.00  0.00    -0.047 A 
ATOM     13  C   UNL     1       0.270   2.708   5.170  1.00  0.00     0.004 A 
ATOM     14  C   UNL     1       0.346   0.386   4.545  1.00  0.00     0.004 A 
ATOM     15  C   UNL     1       1.047   2.444   6.296  1.00  0.00     0.004 A 
ATOM     16  C   UNL     1       1.123   0.119   5.679  1.00  0.00     0.004 A 
ATOM     17  C   UNL     1       1.470   1.142   6.567  1.00  0.00    -0.051 A 
ATOM     18  C   UNL     1       2.284   0.865   7.795  1.00  0.00     0.044 C 
ENDBRANCH  11  12
ENDBRANCH   7  11
ENDBRANCH   4   7
ENDBRANCH   2   3
ENDBRANCH   1   2
BRANCH   1  19
ATOM     19  C   UNL     1      -4.025   4.237  -1.123  1.00  0.00     0.118 C 
BRANCH  19  20
ATOM     20  N   UNL     1      -4.063   5.670  -1.399  1.00  0.00    -0.352 N 
ATOM     21  C   UNL     1      -5.059   6.387  -2.049  1.00  0.00     0.251 C 
ATOM     22  H   UNL     1      -3.288   6.192  -1.087  1.00  0.00     0.163 HD
ATOM     23  O   UNL     1      -4.985   7.595  -2.183  1.00  0.00    -0.269 OA
BRANCH  21  24
ATOM     24  C   UNL     1      -6.277   5.652  -2.461  1.00  0.00     0.039 A 
ATOM     25  C   UNL     1      -7.486   6.037  -1.877  1.00  0.00     0.014 A 
ATOM     26  C   UNL     1      -6.159   4.438  -3.134  1.00  0.00     0.014 A 
ATOM     27  C   UNL     1      -8.490   5.088  -1.731  1.00  0.00     0.010 A 
ATOM     28  C   UNL     1      -7.114   3.467  -2.902  1.00  0.00     0.010 A 
ATOM     29  C   UNL     1      -8.239   3.774  -2.127  1.00  0.00    -0.014 A 
BRANCH  29  30
ATOM     30  C   UNL     1      -9.007   2.644  -1.613  1.00  0.00     0.031 A 
ATOM     31  C   UNL     1      -9.927   1.894  -2.487  1.00  0.00     0.074 A 
ATOM     32  C   UNL     1      -8.868   2.274  -0.319  1.00  0.00     0.049 A 
ATOM     33  N   UNL     1     -10.915   1.188  -2.046  1.00  0.00    -0.248 NA
ATOM     34  C   UNL     1      -9.874   1.960  -3.945  1.00  0.00     0.031 C 
ATOM     35  C   UNL     1      -9.327   1.039   0.311  1.00  0.00     0.029 A 
ATOM     36  N   UNL     1      -8.480   3.082   0.750  1.00  0.00    -0.354 N 
ATOM     37  C   UNL     1     -11.415   0.477  -3.107  1.00  0.00     0.074 A 
ATOM     38  C   UNL     1     -10.843   1.100  -4.276  1.00  0.00     0.031 C 
ATOM     39  C   UNL     1      -9.432   1.239   1.635  1.00  0.00     0.029 A 
ATOM     40  C   UNL     1      -9.188   2.649   1.884  1.00  0.00     0.049 A 
ATOM     41  H   UNL     1      -7.830   3.820   0.716  1.00  0.00     0.167 HD
ATOM     42  C   UNL     1     -12.133  -0.654  -2.868  1.00  0.00     0.031 A 
ATOM     43  C   UNL     1     -10.037   3.482   2.552  1.00  0.00     0.031 A 
ATOM     44  C   UNL     1     -12.499  -0.778  -1.457  1.00  0.00     0.049 A 
ATOM     45  C   UNL     1     -11.474   3.007   2.583  1.00  0.00     0.074 A 
ATOM     46  C   UNL     1     -12.061  -1.587  -0.423  1.00  0.00     0.029 A 
ATOM     47  N   UNL     1     -13.294   0.205  -0.879  1.00  0.00    -0.354 N 
ATOM     48  N   UNL     1     -11.942   2.053   1.827  1.00  0.00    -0.248 NA
ATOM     49  C   UNL     1     -12.511   3.609   3.419  1.00  0.00     0.031 C 
ATOM     50  C   UNL     1     -12.531  -1.028   0.797  1.00  0.00     0.029 A 
ATOM     51  C   UNL     1     -13.289   0.090   0.496  1.00  0.00     0.049 A 
ATOM     52  H   UNL     1     -13.792   0.889  -1.381  1.00  0.00     0.167 HD
ATOM     53  C   UNL     1     -13.292   1.926   2.026  1.00  0.00     0.074 A 
ATOM     54  C   UNL     1     -13.598   2.906   3.052  1.00  0.00     0.031 C 
ATOM     55  C   UNL     1     -14.041   1.042   1.305  1.00  0.00     0.031 A 
BRANCH  42  56
ATOM     56  C   UNL     1     -12.322  -1.774  -3.868  1.00  0.00    -0.014 A 
ATOM     57  C   UNL     1     -12.963  -2.960  -3.464  1.00  0.00     0.009 A 
ATOM     58  C   UNL     1     -11.794  -1.782  -5.173  1.00  0.00     0.009 A 
ATOM     59  C   UNL     1     -13.047  -4.084  -4.301  1.00  0.00     0.001 A 
ATOM     60  C   UNL     1     -11.897  -2.891  -6.024  1.00  0.00     0.001 A 
ATOM     61  C   UNL     1     -12.515  -4.048  -5.583  1.00  0.00     0.000 A 
ENDBRANCH  42  56
BRANCH  43  62
ATOM     62  C   UNL     1      -9.618   4.911   2.521  1.00  0.00    -0.014 A 
ATOM     63  C   UNL     1      -8.426   5.271   3.181  1.00  0.00     0.009 A 
ATOM     64  C   UNL     1     -10.159   5.801   1.583  1.00  0.00     0.009 A 
ATOM     65  C   UNL     1      -7.733   6.432   2.828  1.00  0.00     0.001 A 
ATOM     66  C   UNL     1      -9.468   6.970   1.241  1.00  0.00     0.001 A 
ATOM     67  C   UNL     1      -8.241   7.266   1.836  1.00  0.00     0.000 A 
ENDBRANCH  43  62
BRANCH  55  68
ATOM     68  C   UNL     1     -15.548   0.947   1.291  1.00  0.00    -0.014 A 
ATOM     69  C   UNL     1     -16.415   1.995   1.626  1.00  0.00     0.009 A 
ATOM     70  C   UNL     1     -16.146  -0.227   0.777  1.00  0.00     0.009 A 
ATOM     71  C   UNL     1     -17.806   1.862   1.490  1.00  0.00     0.001 A 
ATOM     72  C   UNL     1     -17.526  -0.348   0.599  1.00  0.00     0.001 A 
ATOM     73  C   UNL     1     -18.359   0.697   0.967  1.00  0.00     0.000 A 
ENDBRANCH  55  68
ENDBRANCH  29  30
ENDBRANCH  21  24
ENDBRANCH  19  20
ENDBRANCH   1  19
TORSDOF 14
