REMARK SMILES C[C@@H]1C[N@@H+]([C@@H]2CC[C@]([NH2+]C3CC3)(C(=O)NCCCNC(=O)c3ccc(-c4c5nc(c(-c6ccccc6)c6ccc([nH]6)c(-c6ccccc6)c6nc(c(-c7ccccc7)c7ccc4[nH]7)C=C6)C=C5)cc3)C2)CC(C)(C)O1
REMARK SMILES IDX 17 1 16 2 15 3 13 4 14 5 8 7 5 8 6 9 70 10 7 11 4 12 1 13
REMARK SMILES IDX 2 14 3 15 75 16 72 17 71 18 73 20 74 21 9 22 10 25 11 26
REMARK SMILES IDX 12 27 18 28 19 29 20 30 21 32 22 33 23 34 69 35 24 36 68 37
REMARK SMILES IDX 25 38 26 39 27 40 62 41 28 42 67 43 61 44 63 45 29 46 66 47
REMARK SMILES IDX 60 48 59 49 30 51 52 52 37 53 51 54 38 55 41 56 50 57 64 58
REMARK SMILES IDX 39 59 40 60 49 62 65 63 42 64 31 65 32 66 36 67 33 68 35 69
REMARK SMILES IDX 34 70 53 71 54 72 58 73 55 74 57 75 56 76 43 77 44 78 48 79
REMARK SMILES IDX 45 80 47 81 46 82
REMARK H PARENT 15 6 4 19 9 23 9 24 19 31 63 50 41 61
REMARK Flexibility Score: inf
ROOT
ATOM      1  C   UNL     1      -4.026  -2.357  -0.027  1.00  0.00     0.042 C 
ENDROOT
BRANCH   1   2
ATOM      2  C   UNL     1      -3.110  -2.726   1.122  1.00  0.00     0.118 C 
BRANCH   2   3
ATOM      3  N   UNL     1      -3.528  -3.832   1.952  1.00  0.00    -0.351 N 
ATOM      4  C   UNL     1      -2.778  -4.796   2.571  1.00  0.00     0.281 C 
ATOM      5  O   UNL     1      -3.405  -5.547   3.332  1.00  0.00    -0.268 OA
ATOM      6  H   UNL     1      -4.500  -3.903   2.095  1.00  0.00     0.163 HD
BRANCH   4   7
ATOM      7  C   UNL     1      -1.264  -5.076   2.224  1.00  0.00     0.181 C 
ATOM      8  C   UNL     1       0.455  -4.058   0.811  1.00  0.00     0.191 C 
ATOM      9  C   UNL     1      -0.414  -4.943  -0.089  1.00  0.00     0.072 C 
ATOM     10  C   UNL     1      -0.361  -3.829   2.094  1.00  0.00     0.144 C 
ATOM     11  C   UNL     1      -1.256  -5.793   0.851  1.00  0.00     0.085 C 
BRANCH   8  12
ATOM     12  N   UNL     1       1.025  -2.839   0.212  1.00  0.00    -0.328 N 
ATOM     13  C   UNL     1       0.974   0.430  -0.081  1.00  0.00     0.045 C 
ATOM     14  C   UNL     1       0.709  -0.685  -1.088  1.00  0.00     0.171 C 
ATOM     15  C   UNL     1       0.063  -1.937  -0.452  1.00  0.00     0.294 C 
ATOM     16  O   UNL     1       1.863  -0.988  -1.883  1.00  0.00    -0.361 OA
ATOM     17  C   UNL     1       2.793  -1.923  -1.308  1.00  0.00     0.112 C 
ATOM     18  C   UNL     1       2.066  -3.183  -0.780  1.00  0.00     0.297 C 
ATOM     19  H   UNL     1       1.401  -2.335   1.014  1.00  0.00     0.348 HD
ATOM     20  C   UNL     1       3.646  -1.264  -0.216  1.00  0.00     0.048 C 
ATOM     21  C   UNL     1       3.718  -2.338  -2.461  1.00  0.00     0.048 C 
ENDBRANCH   8  12
BRANCH   7  22
ATOM     22  N   UNL     1      -0.736  -5.976   3.294  1.00  0.00    -0.331 N 
ATOM     23  H   UNL     1      -1.315  -6.816   3.304  1.00  0.00     0.347 HD
ATOM     24  H   UNL     1      -0.772  -5.421   4.149  1.00  0.00     0.347 HD
BRANCH  22  25
ATOM     25  C   UNL     1       0.663  -6.402   3.171  1.00  0.00     0.183 C 
ATOM     26  C   UNL     1       1.698  -5.671   3.986  1.00  0.00     0.071 C 
ATOM     27  C   UNL     1       1.346  -7.087   4.320  1.00  0.00     0.071 C 
ENDBRANCH  22  25
ENDBRANCH   7  22
ENDBRANCH   4   7
ENDBRANCH   2   3
ENDBRANCH   1   2
BRANCH   1  28
ATOM     28  C   UNL     1      -5.418  -1.910   0.376  1.00  0.00     0.118 C 
BRANCH  28  29
ATOM     29  N   UNL     1      -5.443  -0.637   1.084  1.00  0.00    -0.352 N 
ATOM     30  C   UNL     1      -5.784   0.632   0.675  1.00  0.00     0.251 C 
ATOM     31  H   UNL     1      -5.165  -0.695   2.027  1.00  0.00     0.163 HD
ATOM     32  O   UNL     1      -5.608   1.577   1.442  1.00  0.00    -0.269 OA
BRANCH  30  33
ATOM     33  C   UNL     1      -6.304   0.890  -0.688  1.00  0.00     0.039 A 
ATOM     34  C   UNL     1      -5.866   2.030  -1.371  1.00  0.00     0.014 A 
ATOM     35  C   UNL     1      -7.209   0.028  -1.304  1.00  0.00     0.014 A 
ATOM     36  C   UNL     1      -6.234   2.229  -2.705  1.00  0.00     0.010 A 
ATOM     37  C   UNL     1      -7.481   0.162  -2.662  1.00  0.00     0.010 A 
ATOM     38  C   UNL     1      -6.984   1.256  -3.383  1.00  0.00    -0.014 A 
BRANCH  38  39
ATOM     39  C   UNL     1      -7.224   1.329  -4.847  1.00  0.00     0.031 A 
ATOM     40  C   UNL     1      -8.624   1.377  -5.392  1.00  0.00     0.074 A 
ATOM     41  C   UNL     1      -6.178   1.248  -5.694  1.00  0.00     0.049 A 
ATOM     42  N   UNL     1      -9.028   1.336  -6.636  1.00  0.00    -0.248 NA
ATOM     43  C   UNL     1      -9.714   1.453  -4.407  1.00  0.00     0.031 C 
ATOM     44  C   UNL     1      -4.770   1.163  -5.299  1.00  0.00     0.029 A 
ATOM     45  N   UNL     1      -6.138   1.214  -7.066  1.00  0.00    -0.354 N 
ATOM     46  C   UNL     1     -10.416   1.363  -6.583  1.00  0.00     0.074 A 
ATOM     47  C   UNL     1     -10.784   1.365  -5.183  1.00  0.00     0.031 C 
ATOM     48  C   UNL     1      -4.004   1.124  -6.400  1.00  0.00     0.029 A 
ATOM     49  C   UNL     1      -4.866   1.121  -7.577  1.00  0.00     0.049 A 
ATOM     50  H   UNL     1      -6.944   1.251  -7.630  1.00  0.00     0.167 HD
ATOM     51  C   UNL     1     -11.306   1.400  -7.604  1.00  0.00     0.031 A 
ATOM     52  C   UNL     1      -4.437   1.030  -8.850  1.00  0.00     0.031 A 
ATOM     53  C   UNL     1     -10.940   1.391  -8.996  1.00  0.00     0.049 A 
ATOM     54  C   UNL     1      -5.443   1.008  -9.964  1.00  0.00     0.074 A 
ATOM     55  C   UNL     1     -11.761   1.487 -10.105  1.00  0.00     0.029 A 
ATOM     56  N   UNL     1      -9.642   1.265  -9.469  1.00  0.00    -0.354 N 
ATOM     57  N   UNL     1      -6.748   1.106  -9.899  1.00  0.00    -0.248 NA
ATOM     58  C   UNL     1      -4.915   0.856 -11.328  1.00  0.00     0.031 C 
ATOM     59  C   UNL     1     -10.968   1.350 -11.249  1.00  0.00     0.029 A 
ATOM     60  C   UNL     1      -9.645   1.232 -10.854  1.00  0.00     0.049 A 
ATOM     61  H   UNL     1      -8.838   1.207  -8.904  1.00  0.00     0.167 HD
ATOM     62  C   UNL     1      -7.198   1.045 -11.211  1.00  0.00     0.074 A 
ATOM     63  C   UNL     1      -6.024   0.921 -12.052  1.00  0.00     0.031 C 
ATOM     64  C   UNL     1      -8.471   1.088 -11.677  1.00  0.00     0.031 A 
BRANCH  51  65
ATOM     65  C   UNL     1     -12.767   1.430  -7.241  1.00  0.00    -0.014 A 
ATOM     66  C   UNL     1     -13.339   2.543  -6.604  1.00  0.00     0.009 A 
ATOM     67  C   UNL     1     -13.584   0.330  -7.543  1.00  0.00     0.009 A 
ATOM     68  C   UNL     1     -14.684   2.531  -6.229  1.00  0.00     0.001 A 
ATOM     69  C   UNL     1     -14.937   0.335  -7.198  1.00  0.00     0.001 A 
ATOM     70  C   UNL     1     -15.482   1.428  -6.527  1.00  0.00     0.000 A 
ENDBRANCH  51  65
BRANCH  52  71
ATOM     71  C   UNL     1      -2.979   0.963  -9.135  1.00  0.00    -0.014 A 
ATOM     72  C   UNL     1      -2.325   2.056  -9.723  1.00  0.00     0.009 A 
ATOM     73  C   UNL     1      -2.230  -0.176  -8.802  1.00  0.00     0.009 A 
ATOM     74  C   UNL     1      -0.954   2.005  -9.982  1.00  0.00     0.001 A 
ATOM     75  C   UNL     1      -0.854  -0.213  -9.035  1.00  0.00     0.001 A 
ATOM     76  C   UNL     1      -0.218   0.875  -9.630  1.00  0.00     0.000 A 
ENDBRANCH  52  71
BRANCH  64  77
ATOM     77  C   UNL     1      -8.661   1.003 -13.165  1.00  0.00    -0.014 A 
ATOM     78  C   UNL     1      -8.466  -0.205 -13.853  1.00  0.00     0.009 A 
ATOM     79  C   UNL     1      -9.092   2.131 -13.881  1.00  0.00     0.009 A 
ATOM     80  C   UNL     1      -8.675  -0.274 -15.232  1.00  0.00     0.001 A 
ATOM     81  C   UNL     1      -9.329   2.051 -15.254  1.00  0.00     0.001 A 
ATOM     82  C   UNL     1      -9.113   0.851 -15.929  1.00  0.00     0.000 A 
ENDBRANCH  64  77
ENDBRANCH  38  39
ENDBRANCH  30  33
ENDBRANCH  28  29
ENDBRANCH   1  28
TORSDOF 13
