REMARK SMILES C=C(C)CN(CC)c1ccc(F)cc1C(=O)NCCCNC(=O)c1ccc(-c2c3nc(c(-c4ccccc4)c4ccc([nH]4)c(-c4ccccc4)c4nc(c(-c5ccccc5)c5ccc2[nH]5)C=C4)C=C3)cc1
REMARK SMILES IDX 18 1 17 2 15 3 16 4 14 6 8 7 9 8 10 9 13 10 11 11 12 12 5 13
REMARK SMILES IDX 4 14 2 15 1 16 3 17 6 18 7 19 19 20 20 21 21 22 22 23 23 25
REMARK SMILES IDX 24 26 25 27 71 28 26 29 70 30 27 31 28 32 29 33 64 34 30 35
REMARK SMILES IDX 69 36 63 37 65 38 31 39 68 40 62 41 61 42 32 44 54 45 39 46
REMARK SMILES IDX 53 47 40 48 43 49 52 50 66 51 41 52 42 53 51 55 67 56 44 57
REMARK SMILES IDX 33 58 34 59 38 60 35 61 37 62 36 63 55 64 56 65 60 66 57 67
REMARK SMILES IDX 59 68 58 69 45 70 46 71 50 72 47 73 49 74 48 75
REMARK H PARENT 17 5 21 24 65 43 43 54
REMARK Flexibility Score: inf
ROOT
ATOM      1  C   UNL     1       2.120  -3.000   3.881  1.00  0.00     0.118 C 
ENDROOT
BRANCH   1   2
ATOM      2  N   UNL     1       2.629  -4.314   3.613  1.00  0.00    -0.352 N 
ATOM      3  C   UNL     1       2.501  -5.044   2.461  1.00  0.00     0.253 C 
ATOM      4  O   UNL     1       3.126  -6.106   2.398  1.00  0.00    -0.269 OA
ATOM      5  H   UNL     1       3.130  -4.742   4.344  1.00  0.00     0.163 HD
BRANCH   3   6
ATOM      6  C   UNL     1       1.579  -4.687   1.342  1.00  0.00     0.066 A 
ATOM      7  C   UNL     1       1.466  -3.452   0.648  1.00  0.00     0.050 A 
ATOM      8  C   UNL     1       0.611  -3.427  -0.478  1.00  0.00     0.030 A 
ATOM      9  C   UNL     1      -0.136  -4.534  -0.883  1.00  0.00     0.041 A 
ATOM     10  C   UNL     1       0.825  -5.803   0.912  1.00  0.00     0.055 A 
ATOM     11  C   UNL     1      -0.024  -5.714  -0.178  1.00  0.00     0.124 A 
ATOM     12  F   UNL     1      -0.724  -6.787  -0.564  1.00  0.00    -0.207 F 
BRANCH   7  13
ATOM     13  N   UNL     1       2.169  -2.285   0.952  1.00  0.00    -0.367 N 
BRANCH  13  14
ATOM     14  C   UNL     1       1.440  -1.098   1.444  1.00  0.00     0.146 C 
BRANCH  14  15
ATOM     15  C   UNL     1       0.640  -0.345   0.412  1.00  0.00    -0.061 C 
ATOM     16  C   UNL     1       1.196   0.359  -0.588  1.00  0.00     0.009 C 
ATOM     17  C   UNL     1      -0.850  -0.348   0.635  1.00  0.00     0.041 C 
ENDBRANCH  14  15
ENDBRANCH  13  14
BRANCH  13  18
ATOM     18  C   UNL     1       3.488  -2.078   0.338  1.00  0.00     0.113 C 
ATOM     19  C   UNL     1       4.542  -3.061   0.825  1.00  0.00     0.027 C 
ENDBRANCH  13  18
ENDBRANCH   7  13
ENDBRANCH   3   6
ENDBRANCH   1   2
BRANCH   1  20
ATOM     20  C   UNL     1       2.265  -2.520   5.306  1.00  0.00     0.042 C 
BRANCH  20  21
ATOM     21  C   UNL     1       3.699  -2.519   5.818  1.00  0.00     0.118 C 
BRANCH  21  22
ATOM     22  N   UNL     1       4.637  -1.705   5.046  1.00  0.00    -0.352 N 
ATOM     23  C   UNL     1       5.327  -0.545   5.323  1.00  0.00     0.251 C 
ATOM     24  H   UNL     1       4.811  -2.058   4.144  1.00  0.00     0.163 HD
ATOM     25  O   UNL     1       6.041  -0.053   4.456  1.00  0.00    -0.269 OA
BRANCH  23  26
ATOM     26  C   UNL     1       5.163   0.161   6.617  1.00  0.00     0.039 A 
ATOM     27  C   UNL     1       5.177   1.559   6.635  1.00  0.00     0.014 A 
ATOM     28  C   UNL     1       4.952  -0.527   7.805  1.00  0.00     0.014 A 
ATOM     29  C   UNL     1       4.836   2.245   7.806  1.00  0.00     0.010 A 
ATOM     30  C   UNL     1       4.444   0.142   8.910  1.00  0.00     0.010 A 
ATOM     31  C   UNL     1       4.378   1.540   8.931  1.00  0.00    -0.014 A 
BRANCH  31  32
ATOM     32  C   UNL     1       3.823   2.229  10.128  1.00  0.00     0.031 A 
ATOM     33  C   UNL     1       4.365   1.931  11.505  1.00  0.00     0.074 A 
ATOM     34  C   UNL     1       2.760   3.049   9.997  1.00  0.00     0.049 A 
ATOM     35  N   UNL     1       3.935   2.346  12.671  1.00  0.00    -0.248 NA
ATOM     36  C   UNL     1       5.505   1.004  11.588  1.00  0.00     0.031 C 
ATOM     37  C   UNL     1       2.075   3.369   8.741  1.00  0.00     0.029 A 
ATOM     38  N   UNL     1       2.067   3.769  10.939  1.00  0.00    -0.354 N 
ATOM     39  C   UNL     1       4.716   1.691  13.616  1.00  0.00     0.074 A 
ATOM     40  C   UNL     1       5.597   0.802  12.892  1.00  0.00     0.031 C 
ATOM     41  C   UNL     1       1.110   4.270   8.981  1.00  0.00     0.029 A 
ATOM     42  C   UNL     1       1.072   4.555  10.410  1.00  0.00     0.049 A 
ATOM     43  H   UNL     1       2.264   3.726  11.903  1.00  0.00     0.167 HD
ATOM     44  C   UNL     1       4.731   1.835  14.963  1.00  0.00     0.031 A 
ATOM     45  C   UNL     1       0.230   5.420  11.005  1.00  0.00     0.031 A 
ATOM     46  C   UNL     1       3.900   2.759  15.684  1.00  0.00     0.049 A 
ATOM     47  C   UNL     1       0.307   5.615  12.491  1.00  0.00     0.074 A 
ATOM     48  C   UNL     1       3.893   3.039  17.040  1.00  0.00     0.029 A 
ATOM     49  N   UNL     1       2.939   3.570  15.102  1.00  0.00    -0.354 N 
ATOM     50  N   UNL     1       1.092   5.030  13.362  1.00  0.00    -0.248 NA
ATOM     51  C   UNL     1      -0.612   6.604  13.072  1.00  0.00     0.031 C 
ATOM     52  C   UNL     1       2.906   4.003  17.281  1.00  0.00     0.029 A 
ATOM     53  C   UNL     1       2.330   4.350  16.070  1.00  0.00     0.049 A 
ATOM     54  H   UNL     1       2.721   3.588  14.142  1.00  0.00     0.167 HD
ATOM     55  C   UNL     1       0.781   5.597  14.590  1.00  0.00     0.074 A 
ATOM     56  C   UNL     1      -0.252   6.584  14.347  1.00  0.00     0.031 C 
ATOM     57  C   UNL     1       1.304   5.325  15.810  1.00  0.00     0.031 A 
BRANCH  44  58
ATOM     58  C   UNL     1       5.696   0.974  15.732  1.00  0.00    -0.014 A 
ATOM     59  C   UNL     1       7.084   1.170  15.631  1.00  0.00     0.009 A 
ATOM     60  C   UNL     1       5.215  -0.052  16.559  1.00  0.00     0.009 A 
ATOM     61  C   UNL     1       7.970   0.321  16.297  1.00  0.00     0.001 A 
ATOM     62  C   UNL     1       6.104  -0.878  17.252  1.00  0.00     0.001 A 
ATOM     63  C   UNL     1       7.479  -0.701  17.108  1.00  0.00     0.000 A 
ENDBRANCH  44  58
BRANCH  45  64
ATOM     64  C   UNL     1      -0.716   6.219  10.184  1.00  0.00    -0.014 A 
ATOM     65  C   UNL     1      -0.472   7.585   9.968  1.00  0.00     0.009 A 
ATOM     66  C   UNL     1      -1.854   5.633   9.613  1.00  0.00     0.009 A 
ATOM     67  C   UNL     1      -1.363   8.353   9.216  1.00  0.00     0.001 A 
ATOM     68  C   UNL     1      -2.731   6.399   8.840  1.00  0.00     0.001 A 
ATOM     69  C   UNL     1      -2.489   7.759   8.650  1.00  0.00     0.000 A 
ENDBRANCH  45  64
BRANCH  57  70
ATOM     70  C   UNL     1       0.789   6.135  16.965  1.00  0.00    -0.014 A 
ATOM     71  C   UNL     1      -0.496   5.923  17.488  1.00  0.00     0.009 A 
ATOM     72  C   UNL     1       1.610   7.115  17.544  1.00  0.00     0.009 A 
ATOM     73  C   UNL     1      -0.963   6.707  18.545  1.00  0.00     0.001 A 
ATOM     74  C   UNL     1       1.149   7.878  18.617  1.00  0.00     0.001 A 
ATOM     75  C   UNL     1      -0.140   7.681  19.109  1.00  0.00     0.000 A 
ENDBRANCH  57  70
ENDBRANCH  31  32
ENDBRANCH  23  26
ENDBRANCH  21  22
ENDBRANCH  20  21
ENDBRANCH   1  20
TORSDOF 14
