REMARK SMILES CC[NH+]1CCC2(CC1)OC[C@@H](C(=O)NCCCNC(=O)c1ccc(-c3c4nc(c(-c5ccccc5)c5ccc([nH]5)c(-c5ccccc5)c5nc(c(-c6ccccc6)c6ccc3[nH]6)C=C5)C=C4)cc1)N2C(=O)c1ccc(Cl)c([N+](=O)[O-])c1
REMARK SMILES IDX 15 1 14 2 12 3 13 4 11 6 3 7 4 8 8 9 5 11 7 12 6 13 9 14
REMARK SMILES IDX 69 15 10 16 2 17 1 18 70 19 71 20 72 21 73 22 81 23 74 24
REMARK SMILES IDX 77 25 75 26 76 27 78 28 79 29 80 30 16 31 17 32 18 33 19 34
REMARK SMILES IDX 20 36 21 37 22 38 68 39 23 40 67 41 24 42 25 43 26 44 61 45
REMARK SMILES IDX 27 46 66 47 60 48 62 49 28 50 65 51 59 52 58 53 29 55 51 56
REMARK SMILES IDX 36 57 50 58 37 59 40 60 49 61 63 62 38 63 39 64 48 66 64 67
REMARK SMILES IDX 41 68 30 69 31 70 35 71 32 72 34 73 33 74 52 75 53 76 57 77
REMARK SMILES IDX 54 78 56 79 55 80 42 81 43 82 47 83 44 84 46 85 45 86
REMARK H PARENT 14 5 3 10 18 35 62 54 40 65
REMARK Flexibility Score: inf
ROOT
ATOM      1  C   UNL     1       7.154   2.313  -0.855  1.00  0.00     0.117 C 
ENDROOT
BRANCH   1   2
ATOM      2  N   UNL     1       7.516   3.615  -0.341  1.00  0.00    -0.354 N 
ATOM      3  C   UNL     1       6.822   4.476   0.452  1.00  0.00     0.245 C 
ATOM      4  O   UNL     1       7.440   5.469   0.853  1.00  0.00    -0.273 OA
ATOM      5  H   UNL     1       8.410   3.930  -0.608  1.00  0.00     0.163 HD
BRANCH   3   6
ATOM      6  C   UNL     1       5.443   4.132   1.046  1.00  0.00     0.203 C 
ATOM      7  N   UNL     1       0.911   1.674   0.349  1.00  0.00    -0.335 N 
ATOM      8  C   UNL     1       1.194   2.830   1.206  1.00  0.00     0.267 C 
ATOM      9  C   UNL     1       2.025   1.199  -0.461  1.00  0.00     0.267 C 
ATOM     10  H   UNL     1       0.291   2.003  -0.391  1.00  0.00     0.348 HD
ATOM     11  C   UNL     1       2.558   2.850   1.875  1.00  0.00     0.120 C 
ATOM     12  C   UNL     1       3.387   1.188   0.191  1.00  0.00     0.120 C 
ATOM     13  C   UNL     1       3.724   2.466   0.951  1.00  0.00     0.155 C 
ATOM     14  O   UNL     1       4.769   2.019   1.864  1.00  0.00    -0.352 OA
ATOM     15  N   UNL     1       4.362   3.587   0.218  1.00  0.00    -0.295 N 
ATOM     16  C   UNL     1       5.679   3.088   2.120  1.00  0.00     0.198 C 
BRANCH   7  17
ATOM     17  C   UNL     1       0.155   0.653   1.082  1.00  0.00     0.258 C 
ATOM     18  C   UNL     1      -0.044  -0.677   0.364  1.00  0.00     0.071 C 
ENDBRANCH   7  17
BRANCH  15  19
ATOM     19  C   UNL     1       3.985   4.399  -0.859  1.00  0.00     0.257 C 
ATOM     20  O   UNL     1       4.599   5.426  -1.149  1.00  0.00    -0.269 OA
BRANCH  19  21
ATOM     21  C   UNL     1       2.884   4.081  -1.788  1.00  0.00     0.047 A 
ATOM     22  C   UNL     1       3.132   3.399  -2.982  1.00  0.00     0.016 A 
ATOM     23  C   UNL     1       1.597   4.557  -1.544  1.00  0.00     0.101 A 
ATOM     24  C   UNL     1       2.072   3.036  -3.821  1.00  0.00     0.028 A 
ATOM     25  C   UNL     1       0.509   4.099  -2.324  1.00  0.00     0.288 A 
ATOM     26  C   UNL     1       0.746   3.334  -3.474  1.00  0.00     0.118 A 
ATOM     27  Cl  UNL     1      -0.454   2.717  -4.551  1.00  0.00    -0.077 Cl
BRANCH  25  28
ATOM     28  N   UNL     1      -0.841   4.367  -1.806  1.00  0.00     0.064 N 
ATOM     29  O   UNL     1      -1.796   3.712  -2.237  1.00  0.00    -0.258 OA
ATOM     30  O   UNL     1      -0.941   5.222  -0.913  1.00  0.00    -0.258 OA
ENDBRANCH  25  28
ENDBRANCH  19  21
ENDBRANCH  15  19
ENDBRANCH   3   6
ENDBRANCH   1   2
BRANCH   1  31
ATOM     31  C   UNL     1       6.755   2.392  -2.315  1.00  0.00     0.042 C 
BRANCH  31  32
ATOM     32  C   UNL     1       7.862   2.865  -3.246  1.00  0.00     0.118 C 
BRANCH  32  33
ATOM     33  N   UNL     1       8.985   1.944  -3.296  1.00  0.00    -0.352 N 
ATOM     34  C   UNL     1       9.491   1.220  -4.348  1.00  0.00     0.251 C 
ATOM     35  H   UNL     1       9.458   1.820  -2.441  1.00  0.00     0.163 HD
ATOM     36  O   UNL     1      10.334   0.357  -4.142  1.00  0.00    -0.269 OA
BRANCH  34  37
ATOM     37  C   UNL     1       8.996   1.459  -5.721  1.00  0.00     0.039 A 
ATOM     38  C   UNL     1       8.755   0.358  -6.548  1.00  0.00     0.014 A 
ATOM     39  C   UNL     1       8.775   2.753  -6.197  1.00  0.00     0.014 A 
ATOM     40  C   UNL     1       8.221   0.555  -7.823  1.00  0.00     0.010 A 
ATOM     41  C   UNL     1       8.155   2.941  -7.428  1.00  0.00     0.010 A 
ATOM     42  C   UNL     1       7.876   1.845  -8.257  1.00  0.00    -0.014 A 
BRANCH  42  43
ATOM     43  C   UNL     1       7.220   2.068  -9.570  1.00  0.00     0.031 A 
ATOM     44  C   UNL     1       7.898   2.902 -10.623  1.00  0.00     0.074 A 
ATOM     45  C   UNL     1       5.983   1.579  -9.789  1.00  0.00     0.049 A 
ATOM     46  N   UNL     1       7.454   3.264 -11.800  1.00  0.00    -0.248 NA
ATOM     47  C   UNL     1       9.239   3.418 -10.302  1.00  0.00     0.031 C 
ATOM     48  C   UNL     1       5.202   0.787  -8.835  1.00  0.00     0.029 A 
ATOM     49  N   UNL     1       5.162   1.683 -10.883  1.00  0.00    -0.354 N 
ATOM     50  C   UNL     1       8.450   4.063 -12.348  1.00  0.00     0.074 A 
ATOM     51  C   UNL     1       9.497   4.176 -11.357  1.00  0.00     0.031 C 
ATOM     52  C   UNL     1       4.029   0.455  -9.397  1.00  0.00     0.029 A 
ATOM     53  C   UNL     1       3.953   1.048 -10.727  1.00  0.00     0.049 A 
ATOM     54  H   UNL     1       5.415   2.166 -11.703  1.00  0.00     0.167 HD
ATOM     55  C   UNL     1       8.498   4.636 -13.574  1.00  0.00     0.031 A 
ATOM     56  C   UNL     1       2.895   0.964 -11.556  1.00  0.00     0.031 A 
ATOM     57  C   UNL     1       7.460   4.516 -14.563  1.00  0.00     0.049 A 
ATOM     58  C   UNL     1       2.964   1.631 -12.902  1.00  0.00     0.074 A 
ATOM     59  C   UNL     1       7.442   5.009 -15.856  1.00  0.00     0.029 A 
ATOM     60  N   UNL     1       6.253   3.864 -14.365  1.00  0.00    -0.354 N 
ATOM     61  N   UNL     1       3.945   2.318 -13.435  1.00  0.00    -0.248 NA
ATOM     62  C   UNL     1       1.781   1.502 -13.765  1.00  0.00     0.031 C 
ATOM     63  C   UNL     1       6.198   4.710 -16.419  1.00  0.00     0.029 A 
ATOM     64  C   UNL     1       5.469   3.970 -15.501  1.00  0.00     0.049 A 
ATOM     65  H   UNL     1       5.992   3.394 -13.540  1.00  0.00     0.167 HD
ATOM     66  C   UNL     1       3.510   2.679 -14.704  1.00  0.00     0.074 A 
ATOM     67  C   UNL     1       2.185   2.118 -14.867  1.00  0.00     0.031 C 
ATOM     68  C   UNL     1       4.151   3.408 -15.649  1.00  0.00     0.031 A 
BRANCH  55  69
ATOM     69  C   UNL     1       9.711   5.460 -13.911  1.00  0.00    -0.014 A 
ATOM     70  C   UNL     1      10.969   4.865 -14.097  1.00  0.00     0.009 A 
ATOM     71  C   UNL     1       9.584   6.847 -14.088  1.00  0.00     0.009 A 
ATOM     72  C   UNL     1      12.082   5.647 -14.417  1.00  0.00     0.001 A 
ATOM     73  C   UNL     1      10.691   7.621 -14.439  1.00  0.00     0.001 A 
ATOM     74  C   UNL     1      11.941   7.023 -14.594  1.00  0.00     0.000 A 
ENDBRANCH  55  69
BRANCH  56  75
ATOM     75  C   UNL     1       1.677   0.219 -11.140  1.00  0.00    -0.014 A 
ATOM     76  C   UNL     1       1.322  -0.982 -11.773  1.00  0.00     0.009 A 
ATOM     77  C   UNL     1       0.856   0.711 -10.113  1.00  0.00     0.009 A 
ATOM     78  C   UNL     1       0.154  -1.657 -11.409  1.00  0.00     0.001 A 
ATOM     79  C   UNL     1      -0.293   0.017  -9.728  1.00  0.00     0.001 A 
ATOM     80  C   UNL     1      -0.649  -1.160 -10.384  1.00  0.00     0.000 A 
ENDBRANCH  56  75
BRANCH  68  81
ATOM     81  C   UNL     1       3.444   3.614 -16.960  1.00  0.00    -0.014 A 
ATOM     82  C   UNL     1       2.327   4.457 -17.065  1.00  0.00     0.009 A 
ATOM     83  C   UNL     1       3.938   2.991 -18.118  1.00  0.00     0.009 A 
ATOM     84  C   UNL     1       1.700   4.646 -18.299  1.00  0.00     0.001 A 
ATOM     85  C   UNL     1       3.329   3.208 -19.355  1.00  0.00     0.001 A 
ATOM     86  C   UNL     1       2.205   4.028 -19.442  1.00  0.00     0.000 A 
ENDBRANCH  68  81
ENDBRANCH  42  43
ENDBRANCH  34  37
ENDBRANCH  32  33
ENDBRANCH  31  32
ENDBRANCH   1  31
TORSDOF 14
