REMARK SMILES C=CCOc1cccc(NS(=O)(=O)c2c[nH]c(C(=O)NCCCNC(=O)c3ccc(-c4c5nc(c(-c6ccccc6)c6ccc([nH]6)c(-c6ccccc6)c6nc(c(-c7ccccc7)c7ccc4[nH]7)C=C6)C=C5)cc3)c2)c1
REMARK SMILES IDX 18 1 19 2 20 3 17 5 14 6 15 7 75 8 16 9 11 11 12 12 13 13
REMARK SMILES IDX 10 14 9 16 5 17 6 18 76 19 7 20 8 21 4 22 3 23 2 24 1 25
REMARK SMILES IDX 21 26 22 27 23 28 24 29 25 30 26 32 27 33 28 34 74 35 29 36
REMARK SMILES IDX 73 37 30 38 31 39 32 40 67 41 33 42 72 43 66 44 68 45 34 46
REMARK SMILES IDX 71 47 65 48 64 49 35 51 57 52 42 53 56 54 43 55 46 56 55 57
REMARK SMILES IDX 69 58 44 59 45 60 54 62 70 63 47 64 36 65 37 66 41 67 38 68
REMARK SMILES IDX 40 69 39 70 58 71 59 72 63 73 60 74 62 75 61 76 48 77 49 78
REMARK SMILES IDX 53 79 50 80 52 81 51 82
REMARK H PARENT 20 4 16 10 10 15 24 31 68 50 46 61
REMARK Flexibility Score: inf
ROOT
ATOM      1  C   UNL     1      -1.897   6.611   5.708  1.00  0.00     0.267 C 
ATOM      2  O   UNL     1      -2.401   7.669   6.081  1.00  0.00    -0.268 OA
ATOM      3  N   UNL     1      -2.703   5.499   5.669  1.00  0.00    -0.351 N 
ATOM      4  H   UNL     1      -3.598   5.628   6.059  1.00  0.00     0.163 HD
ENDROOT
BRANCH   1   5
ATOM      5  C   UNL     1      -0.534   6.546   5.229  1.00  0.00     0.105 A 
ATOM      6  C   UNL     1       1.384   5.934   4.209  1.00  0.00     0.106 A 
ATOM      7  C   UNL     1       1.260   7.301   4.079  1.00  0.00     0.105 A 
ATOM      8  C   UNL     1       0.363   5.503   5.090  1.00  0.00     0.055 A 
ATOM      9  N   UNL     1       0.130   7.672   4.768  1.00  0.00    -0.356 N 
ATOM     10  H   UNL     1      -0.165   8.600   4.912  1.00  0.00     0.166 HD
BRANCH   6  11
ATOM     11  S   UNL     1       2.433   4.859   3.360  1.00  0.00     0.263 S 
ATOM     12  O   UNL     1       2.354   3.611   4.104  1.00  0.00    -0.201 OA
ATOM     13  O   UNL     1       3.674   5.576   3.233  1.00  0.00    -0.201 OA
BRANCH  11  14
ATOM     14  N   UNL     1       1.868   4.546   1.790  1.00  0.00    -0.279 N 
ATOM     15  H   UNL     1       2.498   4.609   1.036  1.00  0.00     0.180 HD
BRANCH  14  16
ATOM     16  C   UNL     1       0.498   4.189   1.522  1.00  0.00     0.052 A 
ATOM     17  C   UNL     1      -1.065   2.876   0.195  1.00  0.00     0.121 A 
ATOM     18  C   UNL     1      -2.114   3.707   0.584  1.00  0.00     0.046 A 
ATOM     19  C   UNL     1       0.233   3.106   0.674  1.00  0.00     0.073 A 
ATOM     20  C   UNL     1      -1.861   4.790   1.415  1.00  0.00     0.006 A 
ATOM     21  C   UNL     1      -0.555   5.048   1.839  1.00  0.00     0.027 A 
BRANCH  17  22
ATOM     22  O   UNL     1      -1.344   2.008  -0.826  1.00  0.00    -0.489 OA
BRANCH  22  23
ATOM     23  C   UNL     1      -1.028   0.635  -0.590  1.00  0.00     0.257 C 
BRANCH  23  24
ATOM     24  C   UNL     1       0.374   0.328  -1.022  1.00  0.00     0.006 C 
ATOM     25  C   UNL     1       1.240  -0.391  -0.295  1.00  0.00     0.007 C 
ENDBRANCH  23  24
ENDBRANCH  22  23
ENDBRANCH  17  22
ENDBRANCH  14  16
ENDBRANCH  11  14
ENDBRANCH   6  11
ENDBRANCH   1   5
BRANCH   3  26
ATOM     26  C   UNL     1      -2.455   4.164   5.146  1.00  0.00     0.118 C 
BRANCH  26  27
ATOM     27  C   UNL     1      -2.011   3.192   6.242  1.00  0.00     0.042 C 
BRANCH  27  28
ATOM     28  C   UNL     1      -3.194   2.638   7.028  1.00  0.00     0.118 C 
BRANCH  28  29
ATOM     29  N   UNL     1      -3.974   1.722   6.209  1.00  0.00    -0.352 N 
ATOM     30  C   UNL     1      -5.170   1.101   6.453  1.00  0.00     0.251 C 
ATOM     31  H   UNL     1      -3.576   1.514   5.333  1.00  0.00     0.163 HD
ATOM     32  O   UNL     1      -5.501   0.152   5.746  1.00  0.00    -0.269 OA
BRANCH  30  33
ATOM     33  C   UNL     1      -6.048   1.518   7.564  1.00  0.00     0.039 A 
ATOM     34  C   UNL     1      -6.712   0.511   8.277  1.00  0.00     0.014 A 
ATOM     35  C   UNL     1      -6.285   2.863   7.866  1.00  0.00     0.014 A 
ATOM     36  C   UNL     1      -7.548   0.845   9.337  1.00  0.00     0.010 A 
ATOM     37  C   UNL     1      -7.095   3.201   8.946  1.00  0.00     0.010 A 
ATOM     38  C   UNL     1      -7.711   2.189   9.692  1.00  0.00    -0.014 A 
BRANCH  38  39
ATOM     39  C   UNL     1      -8.433   2.517  10.942  1.00  0.00     0.031 A 
ATOM     40  C   UNL     1      -7.576   2.321  12.194  1.00  0.00     0.074 A 
ATOM     41  C   UNL     1      -9.729   2.923  10.824  1.00  0.00     0.049 A 
ATOM     42  N   UNL     1      -7.938   2.126  13.425  1.00  0.00    -0.248 NA
ATOM     43  C   UNL     1      -6.095   2.293  12.053  1.00  0.00     0.031 C 
ATOM     44  C   UNL     1     -10.425   3.092   9.533  1.00  0.00     0.029 A 
ATOM     45  N   UNL     1     -10.715   3.271  11.725  1.00  0.00    -0.354 N 
ATOM     46  C   UNL     1      -6.768   2.099  14.213  1.00  0.00     0.074 A 
ATOM     47  C   UNL     1      -5.663   2.121  13.303  1.00  0.00     0.031 C 
ATOM     48  C   UNL     1     -11.711   3.446   9.727  1.00  0.00     0.029 A 
ATOM     49  C   UNL     1     -11.978   3.546  11.149  1.00  0.00     0.049 A 
ATOM     50  H   UNL     1     -10.552   3.324  12.695  1.00  0.00     0.167 HD
ATOM     51  C   UNL     1      -6.775   2.184  15.576  1.00  0.00     0.031 A 
ATOM     52  C   UNL     1     -13.176   3.796  11.757  1.00  0.00     0.031 A 
ATOM     53  C   UNL     1      -8.106   2.151  16.080  1.00  0.00     0.049 A 
ATOM     54  C   UNL     1     -12.922   3.864  13.205  1.00  0.00     0.074 A 
ATOM     55  C   UNL     1      -9.061   1.173  16.175  1.00  0.00     0.029 A 
ATOM     56  N   UNL     1      -8.698   3.366  16.315  1.00  0.00    -0.354 N 
ATOM     57  N   UNL     1     -12.341   4.851  13.814  1.00  0.00    -0.248 NA
ATOM     58  C   UNL     1     -13.302   2.724  14.050  1.00  0.00     0.031 C 
ATOM     59  C   UNL     1     -10.281   1.870  16.013  1.00  0.00     0.029 A 
ATOM     60  C   UNL     1     -10.014   3.241  15.946  1.00  0.00     0.049 A 
ATOM     61  H   UNL     1      -8.263   4.172  16.677  1.00  0.00     0.167 HD
ATOM     62  C   UNL     1     -11.949   4.278  15.000  1.00  0.00     0.074 A 
ATOM     63  C   UNL     1     -12.815   3.141  15.216  1.00  0.00     0.031 C 
ATOM     64  C   UNL     1     -10.665   4.414  15.414  1.00  0.00     0.031 A 
BRANCH  51  65
ATOM     65  C   UNL     1      -5.675   2.551  16.538  1.00  0.00    -0.014 A 
ATOM     66  C   UNL     1      -5.931   2.381  17.921  1.00  0.00     0.009 A 
ATOM     67  C   UNL     1      -4.563   3.325  16.188  1.00  0.00     0.009 A 
ATOM     68  C   UNL     1      -5.185   3.043  18.899  1.00  0.00     0.001 A 
ATOM     69  C   UNL     1      -3.788   3.957  17.173  1.00  0.00     0.001 A 
ATOM     70  C   UNL     1      -4.120   3.846  18.521  1.00  0.00     0.000 A 
ENDBRANCH  51  65
BRANCH  52  71
ATOM     71  C   UNL     1     -14.613   3.931  11.328  1.00  0.00    -0.014 A 
ATOM     72  C   UNL     1     -15.069   3.997  10.009  1.00  0.00     0.009 A 
ATOM     73  C   UNL     1     -15.627   3.947  12.324  1.00  0.00     0.009 A 
ATOM     74  C   UNL     1     -16.446   3.984   9.707  1.00  0.00     0.001 A 
ATOM     75  C   UNL     1     -16.993   3.900  12.032  1.00  0.00     0.001 A 
ATOM     76  C   UNL     1     -17.405   3.904  10.714  1.00  0.00     0.000 A 
ENDBRANCH  52  71
BRANCH  64  77
ATOM     77  C   UNL     1      -9.933   5.610  14.825  1.00  0.00    -0.014 A 
ATOM     78  C   UNL     1     -10.378   6.913  15.092  1.00  0.00     0.009 A 
ATOM     79  C   UNL     1      -8.875   5.464  13.911  1.00  0.00     0.009 A 
ATOM     80  C   UNL     1      -9.800   8.020  14.455  1.00  0.00     0.001 A 
ATOM     81  C   UNL     1      -8.289   6.568  13.278  1.00  0.00     0.001 A 
ATOM     82  C   UNL     1      -8.757   7.848  13.548  1.00  0.00     0.000 A 
ENDBRANCH  64  77
ENDBRANCH  38  39
ENDBRANCH  30  33
ENDBRANCH  28  29
ENDBRANCH  27  28
ENDBRANCH  26  27
ENDBRANCH   3  26
TORSDOF 16
