REMARK SMILES COc1cccc(Cn2c(=O)c(=O)n(CC(=O)NCCCNC(=O)c3ccc(-c4c5nc(c(-c6ccccc6)c6ccc([nH]6)c(-c6ccccc6)c6nc(c(-c7ccccc7)c7ccc4[nH]7)C=C6)C=C5)cc3)c3ccccc32)c1
REMARK SMILES IDX 19 1 18 2 16 3 17 4 15 6 14 7 9 8 10 9 78 10 11 11 12 12
REMARK SMILES IDX 73 13 77 14 13 15 74 16 76 17 75 18 8 19 7 20 3 21 4 22
REMARK SMILES IDX 79 23 5 24 6 25 2 26 1 27 20 28 21 29 22 30 23 31 24 33
REMARK SMILES IDX 25 34 26 35 72 36 27 37 71 38 28 39 29 40 30 41 65 42 31 43
REMARK SMILES IDX 70 44 64 45 66 46 32 47 69 48 63 49 62 50 33 52 55 53 40 54
REMARK SMILES IDX 54 55 41 56 44 57 53 58 67 59 42 60 43 61 52 63 68 64 45 65
REMARK SMILES IDX 34 66 35 67 39 68 36 69 38 70 37 71 56 72 57 73 61 74 58 75
REMARK SMILES IDX 60 76 59 77 46 78 47 79 51 80 48 81 50 82 49 83
REMARK H PARENT 18 5 22 32 66 51 44 62
REMARK Flexibility Score: inf
ROOT
ATOM      1  C   UNL     1       1.161   5.542  -3.430  1.00  0.00     0.117 C 
ENDROOT
BRANCH   1   2
ATOM      2  N   UNL     1       1.620   5.870  -4.765  1.00  0.00    -0.354 N 
ATOM      3  C   UNL     1       2.821   5.695  -5.372  1.00  0.00     0.240 C 
ATOM      4  O   UNL     1       2.905   6.107  -6.537  1.00  0.00    -0.273 OA
ATOM      5  H   UNL     1       0.938   6.296  -5.334  1.00  0.00     0.163 HD
BRANCH   3   6
ATOM      6  C   UNL     1       3.963   4.844  -4.799  1.00  0.00     0.226 C 
BRANCH   6   7
ATOM      7  N   UNL     1       4.439   4.924  -3.423  1.00  0.00    -0.293 N 
ATOM      8  N   UNL     1       5.407   4.863  -0.776  1.00  0.00    -0.298 N 
ATOM      9  C   UNL     1       5.147   3.666  -1.419  1.00  0.00     0.317 A 
ATOM     10  C   UNL     1       5.724   5.977  -1.598  1.00  0.00     0.068 A 
ATOM     11  O   UNL     1       5.529   2.562  -1.039  1.00  0.00    -0.263 OA
ATOM     12  C   UNL     1       4.245   3.791  -2.639  1.00  0.00     0.317 A 
ATOM     13  C   UNL     1       5.280   5.982  -2.950  1.00  0.00     0.069 A 
ATOM     14  C   UNL     1       6.595   6.979  -1.147  1.00  0.00     0.028 A 
ATOM     15  O   UNL     1       3.447   2.890  -2.884  1.00  0.00    -0.263 OA
ATOM     16  C   UNL     1       5.696   7.020  -3.796  1.00  0.00     0.028 A 
ATOM     17  C   UNL     1       7.051   7.962  -2.028  1.00  0.00     0.002 A 
ATOM     18  C   UNL     1       6.597   7.987  -3.343  1.00  0.00     0.002 A 
BRANCH   8  19
ATOM     19  C   UNL     1       5.395   4.860   0.687  1.00  0.00     0.162 C 
BRANCH  19  20
ATOM     20  C   UNL     1       3.965   4.579   1.165  1.00  0.00    -0.024 A 
ATOM     21  C   UNL     1       2.034   3.092   1.038  1.00  0.00     0.119 A 
ATOM     22  C   UNL     1       1.205   4.159   1.370  1.00  0.00     0.046 A 
ATOM     23  C   UNL     1       3.412   3.289   1.006  1.00  0.00     0.052 A 
ATOM     24  C   UNL     1       1.747   5.407   1.676  1.00  0.00     0.004 A 
ATOM     25  C   UNL     1       3.120   5.627   1.550  1.00  0.00     0.006 A 
BRANCH  21  26
ATOM     26  O   UNL     1       1.393   1.965   0.607  1.00  0.00    -0.497 OA
ATOM     27  C   UNL     1       1.996   0.716   0.919  1.00  0.00     0.278 C 
ENDBRANCH  21  26
ENDBRANCH  19  20
ENDBRANCH   8  19
ENDBRANCH   6   7
ENDBRANCH   3   6
ENDBRANCH   1   2
BRANCH   1  28
ATOM     28  C   UNL     1       1.379   6.707  -2.467  1.00  0.00     0.042 C 
BRANCH  28  29
ATOM     29  C   UNL     1       0.457   7.901  -2.724  1.00  0.00     0.118 C 
BRANCH  29  30
ATOM     30  N   UNL     1      -0.902   7.673  -2.258  1.00  0.00    -0.352 N 
ATOM     31  C   UNL     1      -1.772   8.532  -1.632  1.00  0.00     0.251 C 
ATOM     32  H   UNL     1      -1.250   6.765  -2.414  1.00  0.00     0.163 HD
ATOM     33  O   UNL     1      -2.825   8.092  -1.173  1.00  0.00    -0.269 OA
BRANCH  31  34
ATOM     34  C   UNL     1      -1.465   9.975  -1.484  1.00  0.00     0.039 A 
ATOM     35  C   UNL     1      -1.851  10.618  -0.300  1.00  0.00     0.014 A 
ATOM     36  C   UNL     1      -0.881  10.719  -2.513  1.00  0.00     0.014 A 
ATOM     37  C   UNL     1      -1.632  11.989  -0.138  1.00  0.00     0.010 A 
ATOM     38  C   UNL     1      -0.614  12.078  -2.331  1.00  0.00     0.010 A 
ATOM     39  C   UNL     1      -1.002  12.729  -1.150  1.00  0.00    -0.014 A 
BRANCH  39  40
ATOM     40  C   UNL     1      -0.788  14.191  -1.009  1.00  0.00     0.031 A 
ATOM     41  C   UNL     1      -1.544  15.150  -1.889  1.00  0.00     0.074 A 
ATOM     42  C   UNL     1       0.115  14.658  -0.126  1.00  0.00     0.049 A 
ATOM     43  N   UNL     1      -1.448  16.454  -1.966  1.00  0.00    -0.248 NA
ATOM     44  C   UNL     1      -2.520  14.563  -2.822  1.00  0.00     0.031 C 
ATOM     45  C   UNL     1       0.930  13.834   0.768  1.00  0.00     0.029 A 
ATOM     46  N   UNL     1       0.501  15.943   0.160  1.00  0.00    -0.354 N 
ATOM     47  C   UNL     1      -2.327  16.838  -2.971  1.00  0.00     0.074 A 
ATOM     48  C   UNL     1      -2.923  15.629  -3.497  1.00  0.00     0.031 C 
ATOM     49  C   UNL     1       1.706  14.636   1.516  1.00  0.00     0.029 A 
ATOM     50  C   UNL     1       1.466  16.024   1.134  1.00  0.00     0.049 A 
ATOM     51  H   UNL     1       0.123  16.732  -0.291  1.00  0.00     0.167 HD
ATOM     52  C   UNL     1      -2.623  18.085  -3.409  1.00  0.00     0.031 A 
ATOM     53  C   UNL     1       2.089  17.095   1.658  1.00  0.00     0.031 A 
ATOM     54  C   UNL     1      -2.056  19.290  -2.868  1.00  0.00     0.049 A 
ATOM     55  C   UNL     1       1.732  18.470   1.168  1.00  0.00     0.074 A 
ATOM     56  C   UNL     1      -2.335  20.604  -3.205  1.00  0.00     0.029 A 
ATOM     57  N   UNL     1      -1.096  19.327  -1.869  1.00  0.00    -0.354 N 
ATOM     58  N   UNL     1       0.866  18.817   0.247  1.00  0.00    -0.248 NA
ATOM     59  C   UNL     1       2.433  19.599   1.796  1.00  0.00     0.031 C 
ATOM     60  C   UNL     1      -1.520  21.436  -2.429  1.00  0.00     0.029 A 
ATOM     61  C   UNL     1      -0.762  20.640  -1.585  1.00  0.00     0.049 A 
ATOM     62  H   UNL     1      -0.710  18.537  -1.427  1.00  0.00     0.167 HD
ATOM     63  C   UNL     1       0.902  20.204   0.200  1.00  0.00     0.074 A 
ATOM     64  C   UNL     1       1.865  20.635   1.192  1.00  0.00     0.031 C 
ATOM     65  C   UNL     1       0.199  21.047  -0.595  1.00  0.00     0.031 A 
BRANCH  52  66
ATOM     66  C   UNL     1      -3.607  18.203  -4.538  1.00  0.00    -0.014 A 
ATOM     67  C   UNL     1      -4.977  17.972  -4.336  1.00  0.00     0.009 A 
ATOM     68  C   UNL     1      -3.161  18.573  -5.816  1.00  0.00     0.009 A 
ATOM     69  C   UNL     1      -5.875  18.073  -5.400  1.00  0.00     0.001 A 
ATOM     70  C   UNL     1      -4.066  18.697  -6.873  1.00  0.00     0.001 A 
ATOM     71  C   UNL     1      -5.420  18.438  -6.666  1.00  0.00     0.000 A 
ENDBRANCH  52  66
BRANCH  53  72
ATOM     72  C   UNL     1       3.104  16.912   2.726  1.00  0.00    -0.014 A 
ATOM     73  C   UNL     1       2.799  17.238   4.056  1.00  0.00     0.009 A 
ATOM     74  C   UNL     1       4.378  16.407   2.423  1.00  0.00     0.009 A 
ATOM     75  C   UNL     1       3.757  17.078   5.060  1.00  0.00     0.001 A 
ATOM     76  C   UNL     1       5.326  16.228   3.433  1.00  0.00     0.001 A 
ATOM     77  C   UNL     1       5.017  16.570   4.748  1.00  0.00     0.000 A 
ENDBRANCH  53  72
BRANCH  65  78
ATOM     78  C   UNL     1       0.429  22.517  -0.404  1.00  0.00    -0.014 A 
ATOM     79  C   UNL     1       1.583  23.138  -0.903  1.00  0.00     0.009 A 
ATOM     80  C   UNL     1      -0.541  23.294   0.248  1.00  0.00     0.009 A 
ATOM     81  C   UNL     1       1.773  24.511  -0.731  1.00  0.00     0.001 A 
ATOM     82  C   UNL     1      -0.357  24.669   0.400  1.00  0.00     0.001 A 
ATOM     83  C   UNL     1       0.802  25.274  -0.083  1.00  0.00     0.000 A 
ENDBRANCH  65  78
ENDBRANCH  39  40
ENDBRANCH  31  34
ENDBRANCH  29  30
ENDBRANCH  28  29
ENDBRANCH   1  28
TORSDOF 14
