REMARK SMILES COc1ccc([C@H]2O[C@@H]2C(=O)NCCCNC(=O)c2ccc(-c3c4nc(c(-c5ccccc5)c5ccc([nH]5)c(-c5ccccc5)c5nc(c(-c6ccccc6)c6ccc3[nH]6)C=C5)C=C4)cc2)cc1Oc1ccccc1
REMARK SMILES IDX 13 1 12 2 10 3 11 4 9 6 7 7 8 8 6 9 3 10 4 11 68 12 5 13
REMARK SMILES IDX 67 14 2 15 1 16 69 17 70 18 71 19 75 20 72 21 74 22 73 23
REMARK SMILES IDX 14 24 15 25 16 26 17 27 18 29 19 30 20 31 66 32 21 33 65 34
REMARK SMILES IDX 22 35 23 36 24 37 59 38 25 39 64 40 58 41 60 42 26 43 63 44
REMARK SMILES IDX 57 45 56 46 27 48 49 49 34 50 48 51 35 52 38 53 47 54 61 55
REMARK SMILES IDX 36 56 37 57 46 59 62 60 39 61 28 62 29 63 33 64 30 65 32 66
REMARK SMILES IDX 31 67 50 68 51 69 55 70 52 71 54 72 53 73 40 74 41 75 45 76
REMARK SMILES IDX 42 77 44 78 43 79
REMARK H PARENT 12 5 16 28 60 47 38 58
REMARK Flexibility Score: inf
ROOT
ATOM      1  C   UNL     1       5.930   4.253   5.676  1.00  0.00     0.117 C 
ENDROOT
BRANCH   1   2
ATOM      2  N   UNL     1       5.524   2.946   5.195  1.00  0.00    -0.354 N 
ATOM      3  C   UNL     1       4.298   2.352   5.311  1.00  0.00     0.252 C 
ATOM      4  O   UNL     1       4.120   1.204   4.912  1.00  0.00    -0.272 OA
ATOM      5  H   UNL     1       6.215   2.423   4.728  1.00  0.00     0.163 HD
BRANCH   3   6
ATOM      6  C   UNL     1       3.187   3.107   5.924  1.00  0.00     0.241 C 
ATOM      7  C   UNL     1       1.917   3.276   5.120  1.00  0.00     0.188 C 
ATOM      8  O   UNL     1       2.857   4.349   5.282  1.00  0.00    -0.354 OA
BRANCH   7   9
ATOM      9  C   UNL     1       0.576   3.467   5.766  1.00  0.00    -0.012 A 
ATOM     10  C   UNL     1      -2.024   3.770   6.834  1.00  0.00     0.161 A 
ATOM     11  C   UNL     1      -1.524   4.689   5.907  1.00  0.00     0.051 A 
ATOM     12  C   UNL     1      -1.238   2.681   7.235  1.00  0.00     0.169 A 
ATOM     13  C   UNL     1      -0.238   4.543   5.390  1.00  0.00     0.010 A 
ATOM     14  C   UNL     1       0.058   2.556   6.702  1.00  0.00     0.057 A 
BRANCH  10  15
ATOM     15  O   UNL     1      -3.338   3.923   7.178  1.00  0.00    -0.493 OA
ATOM     16  C   UNL     1      -3.511   4.871   8.227  1.00  0.00     0.278 C 
ENDBRANCH  10  15
BRANCH  12  17
ATOM     17  O   UNL     1      -1.544   1.665   8.120  1.00  0.00    -0.453 OA
BRANCH  17  18
ATOM     18  C   UNL     1      -2.809   1.554   8.629  1.00  0.00     0.127 A 
ATOM     19  C   UNL     1      -2.984   1.757   9.998  1.00  0.00     0.047 A 
ATOM     20  C   UNL     1      -3.889   1.196   7.822  1.00  0.00     0.047 A 
ATOM     21  C   UNL     1      -4.267   1.711  10.543  1.00  0.00     0.004 A 
ATOM     22  C   UNL     1      -5.172   1.165   8.366  1.00  0.00     0.004 A 
ATOM     23  C   UNL     1      -5.362   1.436   9.723  1.00  0.00     0.000 A 
ENDBRANCH  17  18
ENDBRANCH  12  17
ENDBRANCH   7   9
ENDBRANCH   3   6
ENDBRANCH   1   2
BRANCH   1  24
ATOM     24  C   UNL     1       6.922   4.144   6.825  1.00  0.00     0.042 C 
BRANCH  24  25
ATOM     25  C   UNL     1       8.234   3.469   6.447  1.00  0.00     0.118 C 
BRANCH  25  26
ATOM     26  N   UNL     1       8.981   4.208   5.438  1.00  0.00    -0.352 N 
ATOM     27  C   UNL     1      10.237   4.759   5.491  1.00  0.00     0.251 C 
ATOM     28  H   UNL     1       8.510   4.332   4.582  1.00  0.00     0.163 HD
ATOM     29  O   UNL     1      10.617   5.497   4.586  1.00  0.00    -0.269 OA
BRANCH  27  30
ATOM     30  C   UNL     1      11.125   4.489   6.641  1.00  0.00     0.039 A 
ATOM     31  C   UNL     1      11.882   5.539   7.169  1.00  0.00     0.014 A 
ATOM     32  C   UNL     1      11.228   3.210   7.191  1.00  0.00     0.014 A 
ATOM     33  C   UNL     1      12.687   5.319   8.289  1.00  0.00     0.010 A 
ATOM     34  C   UNL     1      11.954   3.014   8.361  1.00  0.00     0.010 A 
ATOM     35  C   UNL     1      12.699   4.064   8.918  1.00  0.00    -0.014 A 
BRANCH  35  36
ATOM     36  C   UNL     1      13.487   3.826  10.153  1.00  0.00     0.031 A 
ATOM     37  C   UNL     1      14.604   2.819  10.159  1.00  0.00     0.074 A 
ATOM     38  C   UNL     1      13.160   4.472  11.289  1.00  0.00     0.049 A 
ATOM     39  N   UNL     1      15.373   2.442  11.150  1.00  0.00    -0.248 NA
ATOM     40  C   UNL     1      14.876   2.125   8.890  1.00  0.00     0.031 C 
ATOM     41  C   UNL     1      12.079   5.450  11.427  1.00  0.00     0.029 A 
ATOM     42  N   UNL     1      13.706   4.401  12.545  1.00  0.00    -0.354 N 
ATOM     43  C   UNL     1      16.205   1.460  10.628  1.00  0.00     0.074 A 
ATOM     44  C   UNL     1      15.804   1.254   9.254  1.00  0.00     0.031 C 
ATOM     45  C   UNL     1      12.070   5.918  12.685  1.00  0.00     0.029 A 
ATOM     46  C   UNL     1      13.108   5.239  13.454  1.00  0.00     0.049 A 
ATOM     47  H   UNL     1      14.456   3.805  12.774  1.00  0.00     0.167 HD
ATOM     48  C   UNL     1      17.226   0.802  11.228  1.00  0.00     0.031 A 
ATOM     49  C   UNL     1      13.364   5.439  14.760  1.00  0.00     0.031 A 
ATOM     50  C   UNL     1      17.619   1.000  12.598  1.00  0.00     0.049 A 
ATOM     51  C   UNL     1      14.471   4.665  15.419  1.00  0.00     0.074 A 
ATOM     52  C   UNL     1      18.666   0.416  13.289  1.00  0.00     0.029 A 
ATOM     53  N   UNL     1      16.972   1.843  13.490  1.00  0.00    -0.354 N 
ATOM     54  N   UNL     1      15.291   3.786  14.896  1.00  0.00    -0.248 NA
ATOM     55  C   UNL     1      14.693   4.922  16.849  1.00  0.00     0.031 C 
ATOM     56  C   UNL     1      18.613   0.856  14.616  1.00  0.00     0.029 A 
ATOM     57  C   UNL     1      17.579   1.771  14.734  1.00  0.00     0.049 A 
ATOM     58  H   UNL     1      16.197   2.409  13.272  1.00  0.00     0.167 HD
ATOM     59  C   UNL     1      16.148   3.409  15.923  1.00  0.00     0.074 A 
ATOM     60  C   UNL     1      15.754   4.166  17.095  1.00  0.00     0.031 C 
ATOM     61  C   UNL     1      17.173   2.522  15.895  1.00  0.00     0.031 A 
BRANCH  48  62
ATOM     62  C   UNL     1      17.970  -0.212  10.399  1.00  0.00    -0.014 A 
ATOM     63  C   UNL     1      18.749   0.174   9.296  1.00  0.00     0.009 A 
ATOM     64  C   UNL     1      17.888  -1.575  10.723  1.00  0.00     0.009 A 
ATOM     65  C   UNL     1      19.382  -0.785   8.502  1.00  0.00     0.001 A 
ATOM     66  C   UNL     1      18.553  -2.530   9.951  1.00  0.00     0.001 A 
ATOM     67  C   UNL     1      19.286  -2.136   8.832  1.00  0.00     0.000 A 
ENDBRANCH  48  62
BRANCH  49  68
ATOM     68  C   UNL     1      12.575   6.441  15.524  1.00  0.00    -0.014 A 
ATOM     69  C   UNL     1      13.173   7.640  15.944  1.00  0.00     0.009 A 
ATOM     70  C   UNL     1      11.223   6.215  15.826  1.00  0.00     0.009 A 
ATOM     71  C   UNL     1      12.438   8.581  16.669  1.00  0.00     0.001 A 
ATOM     72  C   UNL     1      10.483   7.172  16.524  1.00  0.00     0.001 A 
ATOM     73  C   UNL     1      11.093   8.350  16.952  1.00  0.00     0.000 A 
ENDBRANCH  49  68
BRANCH  61  74
ATOM     74  C   UNL     1      17.970   2.350  17.160  1.00  0.00    -0.014 A 
ATOM     75  C   UNL     1      17.430   1.715  18.289  1.00  0.00     0.009 A 
ATOM     76  C   UNL     1      19.299   2.802  17.206  1.00  0.00     0.009 A 
ATOM     77  C   UNL     1      18.194   1.569  19.450  1.00  0.00     0.001 A 
ATOM     78  C   UNL     1      20.070   2.624  18.355  1.00  0.00     0.001 A 
ATOM     79  C   UNL     1      19.514   2.018  19.479  1.00  0.00     0.000 A 
ENDBRANCH  61  74
ENDBRANCH  35  36
ENDBRANCH  27  30
ENDBRANCH  25  26
ENDBRANCH  24  25
ENDBRANCH   1  24
TORSDOF 14
