REMARK SMILES C[C@]1(C(=O)NCCCNC(=O)c2ccc(-c3c4nc(c(-c5ccccc5)c5ccc([nH]5)c(-c5ccccc5)c5nc(c(-c6ccccc6)c6ccc3[nH]6)C=C5)C=C4)cc2)[NH2+]C2(C(=O)c3ccccc3C2=O)[C@@H]2C(=O)N(c3ccccc3)C(=O)[C@H]21
REMARK SMILES IDX 7 1 6 2 5 3 3 4 4 5 2 7 1 8 60 9 84 10 61 11 72 14 82 15
REMARK SMILES IDX 62 16 70 17 73 18 75 19 83 20 63 21 64 22 69 23 71 24 74 25
REMARK SMILES IDX 65 26 68 27 66 28 67 29 76 30 77 31 81 32 78 33 80 34 79 35
REMARK SMILES IDX 8 36 9 37 10 38 11 40 12 41 13 42 59 43 14 44 58 45 15 46
REMARK SMILES IDX 16 47 17 48 52 49 18 50 57 51 51 52 53 53 19 54 56 55 50 56
REMARK SMILES IDX 49 57 20 59 42 60 27 61 41 62 28 63 31 64 40 65 54 66 29 67
REMARK SMILES IDX 30 68 39 70 55 71 32 72 21 73 22 74 26 75 23 76 25 77 24 78
REMARK SMILES IDX 43 79 44 80 48 81 45 82 47 83 46 84 33 85 34 86 38 87 35 88
REMARK SMILES IDX 37 89 36 90
REMARK H PARENT 5 6 60 12 60 13 9 39 53 58 31 69
REMARK Flexibility Score: inf
ROOT
ATOM      1  C   UNL     1       1.792  -0.577   5.694  1.00  0.00     0.042 C 
ENDROOT
BRANCH   1   2
ATOM      2  C   UNL     1       0.967  -0.018   4.547  1.00  0.00     0.118 C 
BRANCH   2   3
ATOM      3  N   UNL     1       1.675   0.572   3.446  1.00  0.00    -0.351 N 
ATOM      4  C   UNL     1       1.514   0.439   2.099  1.00  0.00     0.281 C 
ATOM      5  O   UNL     1       2.364   1.061   1.442  1.00  0.00    -0.268 OA
ATOM      6  H   UNL     1       2.403   1.179   3.711  1.00  0.00     0.163 HD
BRANCH   4   7
ATOM      7  C   UNL     1       0.390  -0.405   1.347  1.00  0.00     0.186 C 
ATOM      8  C   UNL     1       0.675  -0.206  -0.168  1.00  0.00     0.091 C 
ATOM      9  N   UNL     1       0.446  -1.892   1.640  1.00  0.00    -0.314 N 
ATOM     10  C   UNL     1      -1.065  -0.103   1.581  1.00  0.00     0.170 C 
ATOM     11  C   UNL     1      -0.837  -2.316   2.348  1.00  0.00     0.236 C 
ATOM     12  H   UNL     1       1.247  -2.091   2.240  1.00  0.00     0.348 HD
ATOM     13  H   UNL     1       0.540  -2.409   0.766  1.00  0.00     0.348 HD
ATOM     14  C   UNL     1      -1.499  -1.017   2.707  1.00  0.00     0.177 C 
ATOM     15  C   UNL     1      -1.634   1.190   2.037  1.00  0.00     0.244 C 
ATOM     16  C   UNL     1      -1.698  -3.281   1.531  1.00  0.00     0.232 C 
ATOM     17  C   UNL     1      -0.420  -3.200   3.543  1.00  0.00     0.232 C 
ATOM     18  C   UNL     1      -2.913  -0.564   2.856  1.00  0.00     0.245 C 
ATOM     19  N   UNL     1      -2.833   0.820   2.653  1.00  0.00    -0.250 N 
ATOM     20  O   UNL     1      -1.133   2.282   1.877  1.00  0.00    -0.273 OA
ATOM     21  O   UNL     1      -2.185  -3.066   0.435  1.00  0.00    -0.286 OA
ATOM     22  C   UNL     1      -1.813  -4.553   2.268  1.00  0.00     0.036 A 
ATOM     23  C   UNL     1      -1.049  -4.496   3.421  1.00  0.00     0.036 A 
ATOM     24  O   UNL     1       0.337  -2.971   4.468  1.00  0.00    -0.286 OA
ATOM     25  O   UNL     1      -3.829  -1.256   3.264  1.00  0.00    -0.273 OA
ATOM     26  C   UNL     1      -2.512  -5.705   1.960  1.00  0.00     0.013 A 
ATOM     27  C   UNL     1      -0.914  -5.558   4.300  1.00  0.00     0.013 A 
ATOM     28  C   UNL     1      -2.409  -6.792   2.845  1.00  0.00     0.001 A 
ATOM     29  C   UNL     1      -1.611  -6.722   4.003  1.00  0.00     0.001 A 
BRANCH  19  30
ATOM     30  C   UNL     1      -3.654   1.787   3.261  1.00  0.00     0.052 A 
ATOM     31  C   UNL     1      -4.106   2.886   2.521  1.00  0.00     0.027 A 
ATOM     32  C   UNL     1      -3.864   1.753   4.644  1.00  0.00     0.027 A 
ATOM     33  C   UNL     1      -4.776   3.934   3.154  1.00  0.00     0.002 A 
ATOM     34  C   UNL     1      -4.485   2.830   5.282  1.00  0.00     0.002 A 
ATOM     35  C   UNL     1      -4.947   3.914   4.537  1.00  0.00     0.000 A 
ENDBRANCH  19  30
ENDBRANCH   4   7
ENDBRANCH   2   3
ENDBRANCH   1   2
BRANCH   1  36
ATOM     36  C   UNL     1       2.185   0.473   6.712  1.00  0.00     0.118 C 
BRANCH  36  37
ATOM     37  N   UNL     1       1.110   0.785   7.653  1.00  0.00    -0.352 N 
ATOM     38  C   UNL     1       0.620   0.191   8.795  1.00  0.00     0.251 C 
ATOM     39  H   UNL     1       0.627   1.610   7.417  1.00  0.00     0.163 HD
ATOM     40  O   UNL     1      -0.403   0.674   9.286  1.00  0.00    -0.269 OA
BRANCH  38  41
ATOM     41  C   UNL     1       1.220  -1.010   9.443  1.00  0.00     0.039 A 
ATOM     42  C   UNL     1       2.550  -1.373   9.290  1.00  0.00     0.014 A 
ATOM     43  C   UNL     1       0.425  -1.789  10.304  1.00  0.00     0.014 A 
ATOM     44  C   UNL     1       3.030  -2.570   9.813  1.00  0.00     0.010 A 
ATOM     45  C   UNL     1       0.949  -2.923  10.952  1.00  0.00     0.010 A 
ATOM     46  C   UNL     1       2.254  -3.350  10.681  1.00  0.00    -0.014 A 
BRANCH  46  47
ATOM     47  C   UNL     1       2.880  -4.552  11.308  1.00  0.00     0.031 A 
ATOM     48  C   UNL     1       2.314  -5.933  11.105  1.00  0.00     0.074 A 
ATOM     49  C   UNL     1       4.035  -4.402  11.992  1.00  0.00     0.049 A 
ATOM     50  N   UNL     1       2.806  -7.084  11.496  1.00  0.00    -0.248 NA
ATOM     51  C   UNL     1       1.036  -6.046  10.387  1.00  0.00     0.031 C 
ATOM     52  C   UNL     1       4.686  -3.118  12.270  1.00  0.00     0.029 A 
ATOM     53  N   UNL     1       4.900  -5.327  12.526  1.00  0.00    -0.354 N 
ATOM     54  C   UNL     1       1.890  -8.048  11.093  1.00  0.00     0.074 A 
ATOM     55  C   UNL     1       0.797  -7.349  10.453  1.00  0.00     0.031 C 
ATOM     56  C   UNL     1       5.888  -3.340  12.817  1.00  0.00     0.029 A 
ATOM     57  C   UNL     1       6.058  -4.773  13.024  1.00  0.00     0.049 A 
ATOM     58  H   UNL     1       4.710  -6.292  12.550  1.00  0.00     0.167 HD
ATOM     59  C   UNL     1       1.959  -9.393  11.235  1.00  0.00     0.031 A 
ATOM     60  C   UNL     1       7.139  -5.340  13.593  1.00  0.00     0.031 A 
ATOM     61  C   UNL     1       3.059 -10.090  11.850  1.00  0.00     0.049 A 
ATOM     62  C   UNL     1       7.180  -6.831  13.754  1.00  0.00     0.074 A 
ATOM     63  C   UNL     1       3.229 -11.456  12.001  1.00  0.00     0.029 A 
ATOM     64  N   UNL     1       4.173  -9.485  12.411  1.00  0.00    -0.354 N 
ATOM     65  N   UNL     1       6.312  -7.724  13.346  1.00  0.00    -0.248 NA
ATOM     66  C   UNL     1       8.339  -7.393  14.461  1.00  0.00     0.031 C 
ATOM     67  C   UNL     1       4.410 -11.674  12.713  1.00  0.00     0.029 A 
ATOM     68  C   UNL     1       5.015 -10.449  12.941  1.00  0.00     0.049 A 
ATOM     69  H   UNL     1       4.340  -8.515  12.430  1.00  0.00     0.167 HD
ATOM     70  C   UNL     1       6.816  -8.952  13.749  1.00  0.00     0.074 A 
ATOM     71  C   UNL     1       8.084  -8.693  14.400  1.00  0.00     0.031 C 
ATOM     72  C   UNL     1       6.266 -10.182  13.603  1.00  0.00     0.031 A 
BRANCH  59  73
ATOM     73  C   UNL     1       0.811 -10.224  10.727  1.00  0.00    -0.014 A 
ATOM     74  C   UNL     1       0.002 -10.920  11.640  1.00  0.00     0.009 A 
ATOM     75  C   UNL     1       0.600 -10.415   9.353  1.00  0.00     0.009 A 
ATOM     76  C   UNL     1      -0.982 -11.802  11.190  1.00  0.00     0.001 A 
ATOM     77  C   UNL     1      -0.405 -11.276   8.905  1.00  0.00     0.001 A 
ATOM     78  C   UNL     1      -1.187 -11.977   9.823  1.00  0.00     0.000 A 
ENDBRANCH  59  73
BRANCH  60  79
ATOM     79  C   UNL     1       8.259  -4.476  14.058  1.00  0.00    -0.014 A 
ATOM     80  C   UNL     1       8.064  -3.563  15.109  1.00  0.00     0.009 A 
ATOM     81  C   UNL     1       9.507  -4.511  13.420  1.00  0.00     0.009 A 
ATOM     82  C   UNL     1       9.076  -2.676  15.481  1.00  0.00     0.001 A 
ATOM     83  C   UNL     1      10.532  -3.648  13.820  1.00  0.00     0.001 A 
ATOM     84  C   UNL     1      10.311  -2.722  14.839  1.00  0.00     0.000 A 
ENDBRANCH  60  79
BRANCH  72  85
ATOM     85  C   UNL     1       7.020 -11.355  14.165  1.00  0.00    -0.014 A 
ATOM     86  C   UNL     1       7.573 -12.313  13.300  1.00  0.00     0.009 A 
ATOM     87  C   UNL     1       7.103 -11.561  15.550  1.00  0.00     0.009 A 
ATOM     88  C   UNL     1       8.179 -13.461  13.810  1.00  0.00     0.001 A 
ATOM     89  C   UNL     1       7.739 -12.695  16.058  1.00  0.00     0.001 A 
ATOM     90  C   UNL     1       8.267 -13.649  15.189  1.00  0.00     0.000 A 
ENDBRANCH  72  85
ENDBRANCH  46  47
ENDBRANCH  38  41
ENDBRANCH  36  37
ENDBRANCH   1  36
TORSDOF 11
