REMARK SMILES CC(C)[NH2+][C@@]1(C(=O)NCCCNC(=O)c2ccc(-c3c4nc(c(-c5ccccc5)c5ccc([nH]5)c(-c5ccccc5)c5nc(c(-c6ccccc6)c6ccc3[nH]6)C=C5)C=C4)cc2)CCC[C@H](SC2CCCCC2)C1
REMARK SMILES IDX 10 1 9 2 8 3 6 4 7 5 5 7 63 8 74 9 64 10 66 11 65 12 4 13
REMARK SMILES IDX 2 16 1 17 3 18 67 19 68 20 69 21 73 22 70 23 72 24 71 25
REMARK SMILES IDX 11 26 12 27 13 28 14 30 15 31 16 32 62 33 17 34 61 35 18 36
REMARK SMILES IDX 19 37 20 38 55 39 21 40 60 41 54 42 56 43 22 44 59 45 53 46
REMARK SMILES IDX 52 47 23 49 45 50 30 51 44 52 31 53 34 54 43 55 57 56 32 57
REMARK SMILES IDX 33 58 42 60 58 61 35 62 24 63 25 64 29 65 26 66 28 67 27 68
REMARK SMILES IDX 46 69 47 70 51 71 48 72 50 73 49 74 36 75 37 76 41 77 38 78
REMARK SMILES IDX 40 79 39 80
REMARK H PARENT 8 6 4 14 4 15 12 29 56 48 34 59
REMARK Flexibility Score: inf
ROOT
ATOM      1  C   UNL     1      -4.345  -1.202   5.265  1.00  0.00     0.042 C 
ENDROOT
BRANCH   1   2
ATOM      2  C   UNL     1      -4.291  -2.078   4.025  1.00  0.00     0.118 C 
BRANCH   2   3
ATOM      3  N   UNL     1      -3.963  -1.272   2.860  1.00  0.00    -0.351 N 
ATOM      4  C   UNL     1      -2.878  -0.565   2.458  1.00  0.00     0.281 C 
ATOM      5  O   UNL     1      -3.162   0.306   1.610  1.00  0.00    -0.268 OA
ATOM      6  H   UNL     1      -4.702  -1.229   2.211  1.00  0.00     0.163 HD
BRANCH   4   7
ATOM      7  C   UNL     1      -1.335  -0.699   2.932  1.00  0.00     0.176 C 
ATOM      8  C   UNL     1      -0.939  -2.135   3.312  1.00  0.00     0.079 C 
ATOM      9  C   UNL     1      -1.050   0.412   3.990  1.00  0.00     0.093 C 
ATOM     10  C   UNL     1      -0.859  -2.435   4.805  1.00  0.00     0.008 C 
ATOM     11  C   UNL     1      -0.699   0.033   5.461  1.00  0.00     0.053 C 
ATOM     12  C   UNL     1      -0.102  -1.363   5.559  1.00  0.00     0.015 C 
BRANCH   7  13
ATOM     13  N   UNL     1      -0.654  -0.348   1.632  1.00  0.00    -0.332 N 
ATOM     14  H   UNL     1      -1.039  -0.999   0.948  1.00  0.00     0.347 HD
ATOM     15  H   UNL     1      -0.836   0.655   1.613  1.00  0.00     0.347 HD
BRANCH  13  16
ATOM     16  C   UNL     1       0.782  -0.337   1.378  1.00  0.00     0.176 C 
ATOM     17  C   UNL     1       0.937  -0.166  -0.144  1.00  0.00     0.075 C 
ATOM     18  C   UNL     1       1.584   0.776   2.054  1.00  0.00     0.075 C 
ENDBRANCH  13  16
ENDBRANCH   7  13
BRANCH  11  19
ATOM     19  S   UNL     1      -2.091   0.682   6.479  1.00  0.00    -0.155 SA
BRANCH  19  20
ATOM     20  C   UNL     1      -2.261  -0.141   8.104  1.00  0.00     0.047 C 
ATOM     21  C   UNL     1      -1.969  -1.626   8.317  1.00  0.00     0.014 C 
ATOM     22  C   UNL     1      -1.615   0.730   9.184  1.00  0.00     0.014 C 
ATOM     23  C   UNL     1      -2.391  -2.079   9.719  1.00  0.00     0.001 C 
ATOM     24  C   UNL     1      -2.057   0.261  10.567  1.00  0.00     0.001 C 
ATOM     25  C   UNL     1      -1.748  -1.212  10.797  1.00  0.00     0.000 C 
ENDBRANCH  19  20
ENDBRANCH  11  19
ENDBRANCH   4   7
ENDBRANCH   2   3
ENDBRANCH   1   2
BRANCH   1  26
ATOM     26  C   UNL     1      -5.672  -0.961   5.975  1.00  0.00     0.118 C 
BRANCH  26  27
ATOM     27  N   UNL     1      -5.987  -1.985   6.956  1.00  0.00    -0.352 N 
ATOM     28  C   UNL     1      -6.207  -1.982   8.312  1.00  0.00     0.251 C 
ATOM     29  H   UNL     1      -6.061  -2.883   6.560  1.00  0.00     0.163 HD
ATOM     30  O   UNL     1      -6.356  -3.096   8.832  1.00  0.00    -0.269 OA
BRANCH  28  31
ATOM     31  C   UNL     1      -6.266  -0.779   9.208  1.00  0.00     0.039 A 
ATOM     32  C   UNL     1      -6.113  -1.011  10.590  1.00  0.00     0.014 A 
ATOM     33  C   UNL     1      -6.539   0.530   8.809  1.00  0.00     0.014 A 
ATOM     34  C   UNL     1      -6.221   0.023  11.534  1.00  0.00     0.010 A 
ATOM     35  C   UNL     1      -6.582   1.582   9.748  1.00  0.00     0.010 A 
ATOM     36  C   UNL     1      -6.451   1.341  11.126  1.00  0.00    -0.014 A 
BRANCH  36  37
ATOM     37  C   UNL     1      -6.622   2.438  12.129  1.00  0.00     0.031 A 
ATOM     38  C   UNL     1      -7.957   3.121  12.296  1.00  0.00     0.074 A 
ATOM     39  C   UNL     1      -5.596   2.837  12.909  1.00  0.00     0.049 A 
ATOM     40  N   UNL     1      -8.302   4.075  13.127  1.00  0.00    -0.248 NA
ATOM     41  C   UNL     1      -9.046   2.675  11.413  1.00  0.00     0.031 C 
ATOM     42  C   UNL     1      -4.252   2.272  12.884  1.00  0.00     0.029 A 
ATOM     43  N   UNL     1      -5.520   3.814  13.876  1.00  0.00    -0.354 N 
ATOM     44  C   UNL     1      -9.640   4.343  12.866  1.00  0.00     0.074 A 
ATOM     45  C   UNL     1     -10.031   3.489  11.765  1.00  0.00     0.031 C 
ATOM     46  C   UNL     1      -3.480   2.907  13.780  1.00  0.00     0.029 A 
ATOM     47  C   UNL     1      -4.272   3.936  14.443  1.00  0.00     0.049 A 
ATOM     48  H   UNL     1      -6.286   4.373  14.138  1.00  0.00     0.167 HD
ATOM     49  C   UNL     1     -10.480   5.202  13.495  1.00  0.00     0.031 A 
ATOM     50  C   UNL     1      -3.807   4.772  15.392  1.00  0.00     0.031 A 
ATOM     51  C   UNL     1     -10.106   6.064  14.588  1.00  0.00     0.049 A 
ATOM     52  C   UNL     1      -4.744   5.752  16.041  1.00  0.00     0.074 A 
ATOM     53  C   UNL     1     -10.903   6.940  15.306  1.00  0.00     0.029 A 
ATOM     54  N   UNL     1      -8.829   6.167  15.115  1.00  0.00    -0.354 N 
ATOM     55  N   UNL     1      -6.022   5.943  15.821  1.00  0.00    -0.248 NA
ATOM     56  C   UNL     1      -4.179   6.609  17.093  1.00  0.00     0.031 C 
ATOM     57  C   UNL     1     -10.097   7.615  16.228  1.00  0.00     0.029 A 
ATOM     58  C   UNL     1      -8.811   7.109  16.132  1.00  0.00     0.049 A 
ATOM     59  H   UNL     1      -8.049   5.647  14.813  1.00  0.00     0.167 HD
ATOM     60  C   UNL     1      -6.421   6.911  16.734  1.00  0.00     0.074 A 
ATOM     61  C   UNL     1      -5.254   7.256  17.518  1.00  0.00     0.031 C 
ATOM     62  C   UNL     1      -7.650   7.456  16.910  1.00  0.00     0.031 A 
BRANCH  49  63
ATOM     63  C   UNL     1     -11.900   5.264  13.000  1.00  0.00    -0.014 A 
ATOM     64  C   UNL     1     -12.789   4.195  13.200  1.00  0.00     0.009 A 
ATOM     65  C   UNL     1     -12.366   6.421  12.356  1.00  0.00     0.009 A 
ATOM     66  C   UNL     1     -14.102   4.268  12.729  1.00  0.00     0.001 A 
ATOM     67  C   UNL     1     -13.688   6.504  11.915  1.00  0.00     0.001 A 
ATOM     68  C   UNL     1     -14.552   5.424  12.091  1.00  0.00     0.000 A 
ENDBRANCH  49  63
BRANCH  50  69
ATOM     69  C   UNL     1      -2.381   4.706  15.815  1.00  0.00    -0.014 A 
ATOM     70  C   UNL     1      -2.034   4.232  17.090  1.00  0.00     0.009 A 
ATOM     71  C   UNL     1      -1.362   5.143  14.954  1.00  0.00     0.009 A 
ATOM     72  C   UNL     1      -0.700   4.228  17.506  1.00  0.00     0.001 A 
ATOM     73  C   UNL     1      -0.026   5.108  15.361  1.00  0.00     0.001 A 
ATOM     74  C   UNL     1       0.303   4.662  16.640  1.00  0.00     0.000 A 
ENDBRANCH  50  69
BRANCH  62  75
ATOM     75  C   UNL     1      -7.808   8.449  18.030  1.00  0.00    -0.014 A 
ATOM     76  C   UNL     1      -7.213   9.720  17.980  1.00  0.00     0.009 A 
ATOM     77  C   UNL     1      -8.577   8.107  19.154  1.00  0.00     0.009 A 
ATOM     78  C   UNL     1      -7.344  10.605  19.052  1.00  0.00     0.001 A 
ATOM     79  C   UNL     1      -8.736   9.007  20.209  1.00  0.00     0.001 A 
ATOM     80  C   UNL     1      -8.108  10.250  20.163  1.00  0.00     0.000 A 
ENDBRANCH  62  75
ENDBRANCH  36  37
ENDBRANCH  28  31
ENDBRANCH  26  27
ENDBRANCH   1  26
TORSDOF 14
