REMARK SMILES O=C(NCCCNC(=O)c1cccnc1-c1ccccn1)c1ccc(-c2c3nc(c(-c4ccccc4)c4ccc([nH]4)c(-c4ccccc4)c4nc(c(-c5ccccc5)c5ccc2[nH]5)C=C4)C=C3)cc1
REMARK SMILES IDX 4 1 3 2 1 3 2 4 22 6 23 7 69 8 24 9 68 10 25 11 26 12 27 13
REMARK SMILES IDX 62 14 28 15 67 16 61 17 63 18 29 19 66 20 60 21 59 22 30 24
REMARK SMILES IDX 52 25 37 26 51 27 38 28 41 29 50 30 64 31 39 32 40 33 49 35
REMARK SMILES IDX 65 36 42 37 31 38 32 39 36 40 33 41 35 42 34 43 53 44 54 45
REMARK SMILES IDX 58 46 55 47 57 48 56 49 43 50 44 51 48 52 45 53 47 54 46 55
REMARK SMILES IDX 5 56 6 57 7 58 8 59 9 61 10 62 11 63 15 64 12 65 14 66 13 67
REMARK SMILES IDX 16 68 17 69 21 70 18 71 20 72 19 73
REMARK H PARENT 3 5 63 23 41 34 7 60
REMARK Flexibility Score: inf
ROOT
ATOM      1  C   UNL     1       4.442   0.403  -1.413  1.00  0.00     0.118 C 
ENDROOT
BRANCH   1   2
ATOM      2  N   UNL     1       3.018   0.456  -1.107  1.00  0.00    -0.352 N 
ATOM      3  O   UNL     1       1.101   0.077   0.005  1.00  0.00    -0.269 OA
ATOM      4  C   UNL     1       2.328   0.121   0.033  1.00  0.00     0.251 C 
ATOM      5  H   UNL     1       2.455   0.788  -1.843  1.00  0.00     0.163 HD
BRANCH   4   6
ATOM      6  C   UNL     1       3.044  -0.207   1.285  1.00  0.00     0.039 A 
ATOM      7  C   UNL     1       4.167   0.517   1.682  1.00  0.00     0.014 A 
ATOM      8  C   UNL     1       2.557  -1.234   2.102  1.00  0.00     0.014 A 
ATOM      9  C   UNL     1       4.899   0.108   2.790  1.00  0.00     0.010 A 
ATOM     10  C   UNL     1       3.234  -1.574   3.278  1.00  0.00     0.010 A 
ATOM     11  C   UNL     1       4.433  -0.928   3.613  1.00  0.00    -0.014 A 
BRANCH  11  12
ATOM     12  C   UNL     1       5.189  -1.262   4.847  1.00  0.00     0.031 A 
ATOM     13  C   UNL     1       5.834  -2.608   5.031  1.00  0.00     0.074 A 
ATOM     14  C   UNL     1       5.338  -0.309   5.789  1.00  0.00     0.049 A 
ATOM     15  N   UNL     1       6.576  -3.034   6.024  1.00  0.00    -0.248 NA
ATOM     16  C   UNL     1       5.619  -3.607   3.973  1.00  0.00     0.031 C 
ATOM     17  C   UNL     1       4.755   1.035   5.729  1.00  0.00     0.029 A 
ATOM     18  N   UNL     1       6.047  -0.309   6.963  1.00  0.00    -0.354 N 
ATOM     19  C   UNL     1       6.908  -4.348   5.716  1.00  0.00     0.074 A 
ATOM     20  C   UNL     1       6.260  -4.662   4.460  1.00  0.00     0.031 C 
ATOM     21  C   UNL     1       5.177   1.746   6.783  1.00  0.00     0.029 A 
ATOM     22  C   UNL     1       6.002   0.892   7.628  1.00  0.00     0.049 A 
ATOM     23  H   UNL     1       6.540  -1.093   7.296  1.00  0.00     0.167 HD
ATOM     24  C   UNL     1       7.689  -5.210   6.410  1.00  0.00     0.031 A 
ATOM     25  C   UNL     1       6.550   1.266   8.798  1.00  0.00     0.031 A 
ATOM     26  C   UNL     1       8.326  -4.901   7.665  1.00  0.00     0.049 A 
ATOM     27  C   UNL     1       7.376   0.276   9.565  1.00  0.00     0.074 A 
ATOM     28  C   UNL     1       9.141  -5.708   8.441  1.00  0.00     0.029 A 
ATOM     29  N   UNL     1       8.219  -3.688   8.327  1.00  0.00    -0.354 N 
ATOM     30  N   UNL     1       7.698  -0.954   9.243  1.00  0.00    -0.248 NA
ATOM     31  C   UNL     1       7.915   0.727  10.854  1.00  0.00     0.031 C 
ATOM     32  C   UNL     1       9.488  -4.998   9.596  1.00  0.00     0.029 A 
ATOM     33  C   UNL     1       8.937  -3.731   9.512  1.00  0.00     0.049 A 
ATOM     34  H   UNL     1       7.708  -2.911   8.004  1.00  0.00     0.167 HD
ATOM     35  C   UNL     1       8.491  -1.418  10.283  1.00  0.00     0.074 A 
ATOM     36  C   UNL     1       8.623  -0.329  11.229  1.00  0.00     0.031 C 
ATOM     37  C   UNL     1       9.054  -2.640  10.444  1.00  0.00     0.031 A 
BRANCH  24  38
ATOM     38  C   UNL     1       7.889  -6.586   5.835  1.00  0.00    -0.014 A 
ATOM     39  C   UNL     1       8.693  -6.791   4.703  1.00  0.00     0.009 A 
ATOM     40  C   UNL     1       7.309  -7.699   6.465  1.00  0.00     0.009 A 
ATOM     41  C   UNL     1       8.889  -8.078   4.197  1.00  0.00     0.001 A 
ATOM     42  C   UNL     1       7.528  -8.987   5.972  1.00  0.00     0.001 A 
ATOM     43  C   UNL     1       8.311  -9.175   4.835  1.00  0.00     0.000 A 
ENDBRANCH  24  38
BRANCH  25  44
ATOM     44  C   UNL     1       6.314   2.635   9.326  1.00  0.00    -0.014 A 
ATOM     45  C   UNL     1       7.361   3.564   9.412  1.00  0.00     0.009 A 
ATOM     46  C   UNL     1       5.031   3.016   9.752  1.00  0.00     0.009 A 
ATOM     47  C   UNL     1       7.134   4.837   9.940  1.00  0.00     0.001 A 
ATOM     48  C   UNL     1       4.800   4.300  10.247  1.00  0.00     0.001 A 
ATOM     49  C   UNL     1       5.854   5.205  10.352  1.00  0.00     0.000 A 
ENDBRANCH  25  44
BRANCH  37  50
ATOM     50  C   UNL     1       9.888  -2.845  11.676  1.00  0.00    -0.014 A 
ATOM     51  C   UNL     1       9.298  -2.949  12.946  1.00  0.00     0.009 A 
ATOM     52  C   UNL     1      11.283  -2.946  11.562  1.00  0.00     0.009 A 
ATOM     53  C   UNL     1      10.094  -3.109  14.082  1.00  0.00     0.001 A 
ATOM     54  C   UNL     1      12.073  -3.137  12.696  1.00  0.00     0.001 A 
ATOM     55  C   UNL     1      11.480  -3.207  13.955  1.00  0.00     0.000 A 
ENDBRANCH  37  50
ENDBRANCH  11  12
ENDBRANCH   4   6
ENDBRANCH   1   2
BRANCH   1  56
ATOM     56  C   UNL     1       4.792  -0.672  -2.434  1.00  0.00     0.042 C 
BRANCH  56  57
ATOM     57  C   UNL     1       4.160  -0.454  -3.801  1.00  0.00     0.118 C 
BRANCH  57  58
ATOM     58  N   UNL     1       4.589   0.791  -4.423  1.00  0.00    -0.352 N 
ATOM     59  C   UNL     1       5.485   1.017  -5.439  1.00  0.00     0.253 C 
ATOM     60  H   UNL     1       4.169   1.602  -4.055  1.00  0.00     0.163 HD
ATOM     61  O   UNL     1       5.765   2.171  -5.747  1.00  0.00    -0.269 OA
BRANCH  59  62
ATOM     62  C   UNL     1       6.091  -0.122  -6.148  1.00  0.00     0.067 A 
ATOM     63  C   UNL     1       5.253  -1.056  -6.772  1.00  0.00     0.018 A 
ATOM     64  C   UNL     1       7.475  -0.275  -6.256  1.00  0.00     0.101 A 
ATOM     65  C   UNL     1       5.806  -2.162  -7.405  1.00  0.00     0.021 A 
ATOM     66  N   UNL     1       8.018  -1.377  -6.859  1.00  0.00    -0.254 NA
ATOM     67  C   UNL     1       7.182  -2.283  -7.412  1.00  0.00     0.112 A 
BRANCH  64  68
ATOM     68  C   UNL     1       8.454   0.708  -5.756  1.00  0.00     0.089 A 
ATOM     69  C   UNL     1       8.587   1.012  -4.401  1.00  0.00     0.031 A 
ATOM     70  N   UNL     1       9.228   1.304  -6.704  1.00  0.00    -0.255 NA
ATOM     71  C   UNL     1       9.519   1.973  -4.011  1.00  0.00     0.004 A 
ATOM     72  C   UNL     1      10.120   2.231  -6.297  1.00  0.00     0.112 A 
ATOM     73  C   UNL     1      10.298   2.599  -4.976  1.00  0.00     0.020 A 
ENDBRANCH  64  68
ENDBRANCH  59  62
ENDBRANCH  57  58
ENDBRANCH  56  57
ENDBRANCH   1  56
TORSDOF 11
