REMARK SMILES C[C@]1(c2nnnn2CCC(=O)NCCCNC(=O)c2ccc(-c3c4nc(c(-c5ccccc5)c5ccc([nH]5)c(-c5ccccc5)c5nc(c(-c6ccccc6)c6ccc3[nH]6)C=C5)C=C4)cc2)CCCO1
REMARK SMILES IDX 13 1 12 2 10 3 11 4 9 6 8 7 7 8 3 9 4 10 5 11 6 12 2 13 1 14
REMARK SMILES IDX 67 15 70 16 68 17 69 18 14 19 15 20 16 21 17 22 18 24 19 25
REMARK SMILES IDX 20 26 66 27 21 28 65 29 22 30 23 31 24 32 59 33 25 34 64 35
REMARK SMILES IDX 58 36 60 37 26 38 63 39 57 40 56 41 27 43 49 44 34 45 48 46
REMARK SMILES IDX 35 47 38 48 47 49 61 50 36 51 37 52 46 54 62 55 39 56 28 57
REMARK SMILES IDX 29 58 33 59 30 60 32 61 31 62 50 63 51 64 55 65 52 66 54 67
REMARK SMILES IDX 53 68 40 69 41 70 45 71 42 72 44 73 43 74
REMARK H PARENT 12 5 16 23 60 42 38 53
REMARK Flexibility Score: inf
ROOT
ATOM      1  C   UNL     1       0.516   2.131   2.704  1.00  0.00     0.117 C 
ENDROOT
BRANCH   1   2
ATOM      2  N   UNL     1      -0.820   2.671   2.458  1.00  0.00    -0.356 N 
ATOM      3  C   UNL     1      -1.871   2.138   1.773  1.00  0.00     0.221 C 
ATOM      4  O   UNL     1      -2.871   2.838   1.597  1.00  0.00    -0.275 OA
ATOM      5  H   UNL     1      -0.986   3.560   2.849  1.00  0.00     0.163 HD
BRANCH   3   6
ATOM      6  C   UNL     1      -1.833   0.712   1.261  1.00  0.00     0.124 C 
BRANCH   6   7
ATOM      7  C   UNL     1      -1.777   0.647  -0.267  1.00  0.00     0.158 C 
BRANCH   7   8
ATOM      8  N   UNL     1      -0.432   0.615  -0.800  1.00  0.00    -0.226 N 
ATOM      9  C   UNL     1       0.523  -0.376  -0.823  1.00  0.00     0.183 A 
ATOM     10  N   UNL     1       1.674   0.207  -1.119  1.00  0.00    -0.111 NA
ATOM     11  N   UNL     1       1.363   1.471  -1.547  1.00  0.00    -0.024 NA
ATOM     12  N   UNL     1       0.066   1.708  -1.413  1.00  0.00    -0.045 NA
BRANCH   9  13
ATOM     13  C   UNL     1       0.269  -1.835  -0.992  1.00  0.00     0.126 C 
ATOM     14  C   UNL     1       0.256  -2.092  -2.511  1.00  0.00     0.051 C 
ATOM     15  C   UNL     1       1.264  -2.745  -0.277  1.00  0.00     0.046 C 
ATOM     16  O   UNL     1      -1.012  -2.188  -0.439  1.00  0.00    -0.367 OA
ATOM     17  C   UNL     1       0.473  -4.030  -0.171  1.00  0.00     0.032 C 
ATOM     18  C   UNL     1      -0.918  -3.510   0.126  1.00  0.00     0.161 C 
ENDBRANCH   9  13
ENDBRANCH   7   8
ENDBRANCH   6   7
ENDBRANCH   3   6
ENDBRANCH   1   2
BRANCH   1  19
ATOM     19  C   UNL     1       1.444   2.373   1.521  1.00  0.00     0.042 C 
BRANCH  19  20
ATOM     20  C   UNL     1       1.999   3.773   1.426  1.00  0.00     0.118 C 
BRANCH  20  21
ATOM     21  N   UNL     1       3.241   4.014   2.168  1.00  0.00    -0.352 N 
ATOM     22  C   UNL     1       4.117   5.088   2.031  1.00  0.00     0.251 C 
ATOM     23  H   UNL     1       3.483   3.338   2.841  1.00  0.00     0.163 HD
ATOM     24  O   UNL     1       5.254   5.039   2.503  1.00  0.00    -0.269 OA
BRANCH  22  25
ATOM     25  C   UNL     1       3.666   6.294   1.303  1.00  0.00     0.039 A 
ATOM     26  C   UNL     1       4.484   7.125   0.532  1.00  0.00     0.014 A 
ATOM     27  C   UNL     1       2.310   6.541   1.342  1.00  0.00     0.014 A 
ATOM     28  C   UNL     1       3.880   8.179  -0.163  1.00  0.00     0.010 A 
ATOM     29  C   UNL     1       1.750   7.167   0.283  1.00  0.00     0.010 A 
ATOM     30  C   UNL     1       2.482   8.200  -0.242  1.00  0.00    -0.014 A 
BRANCH  30  31
ATOM     31  C   UNL     1       1.677   9.242  -0.854  1.00  0.00     0.031 A 
ATOM     32  C   UNL     1       1.843   9.356  -2.313  1.00  0.00     0.074 A 
ATOM     33  C   UNL     1       0.634   9.825  -0.211  1.00  0.00     0.049 A 
ATOM     34  N   UNL     1       2.421  10.305  -2.963  1.00  0.00    -0.248 NA
ATOM     35  C   UNL     1       1.445   8.206  -3.139  1.00  0.00     0.031 C 
ATOM     36  C   UNL     1       0.069   9.525   1.117  1.00  0.00     0.029 A 
ATOM     37  N   UNL     1      -0.234  10.758  -0.683  1.00  0.00    -0.354 N 
ATOM     38  C   UNL     1       2.295   9.971  -4.305  1.00  0.00     0.074 A 
ATOM     39  C   UNL     1       1.879   8.592  -4.340  1.00  0.00     0.031 C 
ATOM     40  C   UNL     1      -1.153  10.096   1.238  1.00  0.00     0.029 A 
ATOM     41  C   UNL     1      -1.381  10.941   0.082  1.00  0.00     0.049 A 
ATOM     42  H   UNL     1      -0.064  11.268  -1.508  1.00  0.00     0.167 HD
ATOM     43  C   UNL     1       2.298  10.928  -5.274  1.00  0.00     0.031 A 
ATOM     44  C   UNL     1      -2.447  11.718  -0.234  1.00  0.00     0.031 A 
ATOM     45  C   UNL     1       2.708  12.207  -4.747  1.00  0.00     0.049 A 
ATOM     46  C   UNL     1      -1.998  12.666  -1.282  1.00  0.00     0.074 A 
ATOM     47  C   UNL     1       3.856  12.692  -4.153  1.00  0.00     0.029 A 
ATOM     48  N   UNL     1       1.704  13.084  -4.403  1.00  0.00    -0.354 N 
ATOM     49  N   UNL     1      -1.106  13.593  -1.075  1.00  0.00    -0.248 NA
ATOM     50  C   UNL     1      -2.183  12.278  -2.671  1.00  0.00     0.031 C 
ATOM     51  C   UNL     1       3.393  13.540  -3.102  1.00  0.00     0.029 A 
ATOM     52  C   UNL     1       1.997  13.589  -3.161  1.00  0.00     0.049 A 
ATOM     53  H   UNL     1       0.917  13.309  -4.949  1.00  0.00     0.167 HD
ATOM     54  C   UNL     1      -0.317  13.588  -2.218  1.00  0.00     0.074 A 
ATOM     55  C   UNL     1      -1.088  12.829  -3.203  1.00  0.00     0.031 C 
ATOM     56  C   UNL     1       1.002  13.944  -2.169  1.00  0.00     0.031 A 
BRANCH  43  57
ATOM     57  C   UNL     1       1.554  10.809  -6.579  1.00  0.00    -0.014 A 
ATOM     58  C   UNL     1       1.680  11.847  -7.518  1.00  0.00     0.009 A 
ATOM     59  C   UNL     1       0.544   9.858  -6.821  1.00  0.00     0.009 A 
ATOM     60  C   UNL     1       0.798  11.965  -8.598  1.00  0.00     0.001 A 
ATOM     61  C   UNL     1      -0.312   9.949  -7.921  1.00  0.00     0.001 A 
ATOM     62  C   UNL     1      -0.203  11.020  -8.794  1.00  0.00     0.000 A 
ENDBRANCH  43  57
BRANCH  44  63
ATOM     63  C   UNL     1      -3.879  11.502   0.072  1.00  0.00    -0.014 A 
ATOM     64  C   UNL     1      -4.803  12.558   0.015  1.00  0.00     0.009 A 
ATOM     65  C   UNL     1      -4.389  10.192   0.139  1.00  0.00     0.009 A 
ATOM     66  C   UNL     1      -6.184  12.308  -0.011  1.00  0.00     0.001 A 
ATOM     67  C   UNL     1      -5.766   9.942   0.110  1.00  0.00     0.001 A 
ATOM     68  C   UNL     1      -6.664  11.000   0.020  1.00  0.00     0.000 A 
ENDBRANCH  44  63
BRANCH  56  69
ATOM     69  C   UNL     1       1.523  14.541  -0.880  1.00  0.00    -0.014 A 
ATOM     70  C   UNL     1       1.545  13.843   0.342  1.00  0.00     0.009 A 
ATOM     71  C   UNL     1       2.158  15.790  -0.936  1.00  0.00     0.009 A 
ATOM     72  C   UNL     1       2.162  14.391   1.474  1.00  0.00     0.001 A 
ATOM     73  C   UNL     1       2.790  16.328   0.187  1.00  0.00     0.001 A 
ATOM     74  C   UNL     1       2.788  15.632   1.394  1.00  0.00     0.000 A 
ENDBRANCH  56  69
ENDBRANCH  30  31
ENDBRANCH  22  25
ENDBRANCH  20  21
ENDBRANCH  19  20
ENDBRANCH   1  19
TORSDOF 13
