REMARK SMILES Cc1c(Cl)cccc1NC(=O)C[C@H](C(=O)NCCCNC(=O)c1ccc(-c2c3nc(c(-c4ccccc4)c4ccc([nH]4)c(-c4ccccc4)c4nc(c(-c5ccccc5)c5ccc2[nH]5)C=C4)C=C3)cc1)[C@H](C)c1ccccc1
REMARK SMILES IDX 17 1 16 2 14 3 15 4 13 6 12 7 10 8 9 9 11 11 8 12 1 13 2 14
REMARK SMILES IDX 3 15 4 16 5 17 7 18 6 19 71 20 72 21 73 22 74 23 78 24 75 25
REMARK SMILES IDX 77 26 76 27 18 28 19 29 20 30 21 31 22 33 23 34 24 35 70 36
REMARK SMILES IDX 25 37 69 38 26 39 27 40 28 41 63 42 29 43 68 44 62 45 64 46
REMARK SMILES IDX 30 47 67 48 61 49 60 50 31 52 53 53 38 54 52 55 39 56 42 57
REMARK SMILES IDX 51 58 65 59 40 60 41 61 50 63 66 64 43 65 32 66 33 67 37 68
REMARK SMILES IDX 34 69 36 70 35 71 54 72 55 73 59 74 56 75 58 76 57 77 44 78
REMARK SMILES IDX 45 79 49 80 46 81 48 82 47 83
REMARK H PARENT 16 5 9 10 20 32 64 51 42 62
REMARK Flexibility Score: inf
ROOT
ATOM      1  C   UNL     1      -4.788  -0.950   0.778  1.00  0.00     0.117 C 
ENDROOT
BRANCH   1   2
ATOM      2  N   UNL     1      -6.048  -1.639   0.042  1.00  0.00    -0.356 N 
ATOM      3  C   UNL     1      -6.746  -1.364  -1.086  1.00  0.00     0.224 C 
ATOM      4  O   UNL     1      -7.810  -1.963  -1.254  1.00  0.00    -0.275 OA
ATOM      5  H   UNL     1      -6.382  -2.434   0.516  1.00  0.00     0.163 HD
BRANCH   3   6
ATOM      6  C   UNL     1      -6.241  -0.351  -2.096  1.00  0.00     0.095 C 
BRANCH   6   7
ATOM      7  C   UNL     1      -6.718   1.051  -1.640  1.00  0.00     0.114 C 
BRANCH   7   8
ATOM      8  C   UNL     1      -5.784   2.176  -1.248  1.00  0.00     0.225 C 
ATOM      9  N   UNL     1      -5.117   2.207  -0.059  1.00  0.00    -0.326 N 
ATOM     10  H   UNL     1      -4.697   3.063   0.185  1.00  0.00     0.169 HD
ATOM     11  O   UNL     1      -5.580   3.108  -2.034  1.00  0.00    -0.275 OA
BRANCH   9  12
ATOM     12  C   UNL     1      -4.966   1.161   0.849  1.00  0.00     0.045 A 
ATOM     13  C   UNL     1      -2.110   1.374   0.625  1.00  0.00     0.048 C 
ATOM     14  C   UNL     1      -3.280   0.566   1.107  1.00  0.00    -0.009 A 
ATOM     15  C   UNL     1      -2.986  -1.005   1.926  1.00  0.00     0.046 A 
ATOM     16  Cl  UNL     1      -1.385  -1.578   2.170  1.00  0.00    -0.084 Cl
ATOM     17  C   UNL     1      -4.371  -1.974   2.541  1.00  0.00     0.021 A 
ATOM     18  C   UNL     1      -6.360   0.235   1.509  1.00  0.00     0.026 A 
ATOM     19  C   UNL     1      -6.072  -1.356   2.346  1.00  0.00     0.004 A 
ENDBRANCH   9  12
ENDBRANCH   7   8
ENDBRANCH   6   7
BRANCH   6  20
ATOM     20  C   UNL     1      -4.800  -0.755  -2.549  1.00  0.00     0.029 C 
ATOM     21  C   UNL     1      -3.811   0.384  -2.780  1.00  0.00     0.013 C 
BRANCH  20  22
ATOM     22  C   UNL     1      -4.782  -1.813  -3.663  1.00  0.00    -0.044 A 
ATOM     23  C   UNL     1      -5.195  -3.129  -3.373  1.00  0.00     0.004 A 
ATOM     24  C   UNL     1      -4.226  -1.561  -4.923  1.00  0.00     0.004 A 
ATOM     25  C   UNL     1      -4.998  -4.165  -4.287  1.00  0.00     0.000 A 
ATOM     26  C   UNL     1      -4.014  -2.601  -5.829  1.00  0.00     0.000 A 
ATOM     27  C   UNL     1      -4.386  -3.903  -5.507  1.00  0.00     0.000 A 
ENDBRANCH  20  22
ENDBRANCH   6  20
ENDBRANCH   3   6
ENDBRANCH   1   2
BRANCH   1  28
ATOM     28  C   UNL     1      -4.649   0.095   2.694  1.00  0.00     0.042 C 
BRANCH  28  29
ATOM     29  C   UNL     1      -5.356  -0.129   4.254  1.00  0.00     0.118 C 
BRANCH  29  30
ATOM     30  N   UNL     1      -5.153  -1.403   4.964  1.00  0.00    -0.352 N 
ATOM     31  C   UNL     1      -4.306  -1.685   6.000  1.00  0.00     0.251 C 
ATOM     32  H   UNL     1      -5.702  -2.157   4.649  1.00  0.00     0.163 HD
ATOM     33  O   UNL     1      -3.905  -2.820   6.217  1.00  0.00    -0.269 OA
BRANCH  31  34
ATOM     34  C   UNL     1      -3.979  -0.570   6.886  1.00  0.00     0.039 A 
ATOM     35  C   UNL     1      -2.688  -0.386   7.370  1.00  0.00     0.014 A 
ATOM     36  C   UNL     1      -5.017   0.316   7.189  1.00  0.00     0.014 A 
ATOM     37  C   UNL     1      -2.438   0.730   8.160  1.00  0.00     0.010 A 
ATOM     38  C   UNL     1      -4.730   1.494   7.828  1.00  0.00     0.010 A 
ATOM     39  C   UNL     1      -3.459   1.672   8.379  1.00  0.00    -0.014 A 
BRANCH  39  40
ATOM     40  C   UNL     1      -3.287   2.818   9.282  1.00  0.00     0.031 A 
ATOM     41  C   UNL     1      -4.170   2.905  10.497  1.00  0.00     0.074 A 
ATOM     42  C   UNL     1      -2.430   3.794   8.944  1.00  0.00     0.049 A 
ATOM     43  N   UNL     1      -4.282   3.872  11.366  1.00  0.00    -0.248 NA
ATOM     44  C   UNL     1      -5.101   1.783  10.730  1.00  0.00     0.031 C 
ATOM     45  C   UNL     1      -1.597   3.818   7.738  1.00  0.00     0.029 A 
ATOM     46  N   UNL     1      -2.123   4.957   9.588  1.00  0.00    -0.354 N 
ATOM     47  C   UNL     1      -5.316   3.489  12.212  1.00  0.00     0.074 A 
ATOM     48  C   UNL     1      -5.861   2.256  11.702  1.00  0.00     0.031 C 
ATOM     49  C   UNL     1      -0.830   4.920   7.760  1.00  0.00     0.029 A 
ATOM     50  C   UNL     1      -1.150   5.689   8.956  1.00  0.00     0.049 A 
ATOM     51  H   UNL     1      -2.556   5.243  10.425  1.00  0.00     0.167 HD
ATOM     52  C   UNL     1      -5.742   4.094  13.343  1.00  0.00     0.031 A 
ATOM     53  C   UNL     1      -0.579   6.848   9.326  1.00  0.00     0.031 A 
ATOM     54  C   UNL     1      -5.143   5.294  13.853  1.00  0.00     0.049 A 
ATOM     55  C   UNL     1      -1.024   7.469  10.620  1.00  0.00     0.074 A 
ATOM     56  C   UNL     1      -5.421   5.972  15.023  1.00  0.00     0.029 A 
ATOM     57  N   UNL     1      -4.119   5.982  13.216  1.00  0.00    -0.354 N 
ATOM     58  N   UNL     1      -1.954   7.066  11.455  1.00  0.00    -0.248 NA
ATOM     59  C   UNL     1      -0.325   8.690  11.034  1.00  0.00     0.031 C 
ATOM     60  C   UNL     1      -4.591   7.098  15.073  1.00  0.00     0.029 A 
ATOM     61  C   UNL     1      -3.757   7.085  13.964  1.00  0.00     0.049 A 
ATOM     62  H   UNL     1      -3.712   5.722  12.358  1.00  0.00     0.167 HD
ATOM     63  C   UNL     1      -1.930   7.965  12.511  1.00  0.00     0.074 A 
ATOM     64  C   UNL     1      -0.878   8.920  12.216  1.00  0.00     0.031 C 
ATOM     65  C   UNL     1      -2.702   8.007  13.626  1.00  0.00     0.031 A 
BRANCH  52  66
ATOM     66  C   UNL     1      -6.883   3.454  14.085  1.00  0.00    -0.014 A 
ATOM     67  C   UNL     1      -6.748   2.191  14.690  1.00  0.00     0.009 A 
ATOM     68  C   UNL     1      -8.117   4.114  14.175  1.00  0.00     0.009 A 
ATOM     69  C   UNL     1      -7.835   1.584  15.322  1.00  0.00     0.001 A 
ATOM     70  C   UNL     1      -9.193   3.521  14.841  1.00  0.00     0.001 A 
ATOM     71  C   UNL     1      -9.056   2.252  15.402  1.00  0.00     0.000 A 
ENDBRANCH  52  66
BRANCH  53  72
ATOM     72  C   UNL     1       0.505   7.441   8.503  1.00  0.00    -0.014 A 
ATOM     73  C   UNL     1       1.829   7.443   8.969  1.00  0.00     0.009 A 
ATOM     74  C   UNL     1       0.231   7.987   7.240  1.00  0.00     0.009 A 
ATOM     75  C   UNL     1       2.850   8.011   8.203  1.00  0.00     0.001 A 
ATOM     76  C   UNL     1       1.259   8.526   6.462  1.00  0.00     0.001 A 
ATOM     77  C   UNL     1       2.565   8.548   6.949  1.00  0.00     0.000 A 
ENDBRANCH  53  72
BRANCH  65  78
ATOM     78  C   UNL     1      -2.398   9.094  14.614  1.00  0.00    -0.014 A 
ATOM     79  C   UNL     1      -2.693  10.437  14.336  1.00  0.00     0.009 A 
ATOM     80  C   UNL     1      -1.832   8.759  15.854  1.00  0.00     0.009 A 
ATOM     81  C   UNL     1      -2.382  11.430  15.264  1.00  0.00     0.001 A 
ATOM     82  C   UNL     1      -1.556   9.750  16.794  1.00  0.00     0.001 A 
ATOM     83  C   UNL     1      -1.819  11.086  16.492  1.00  0.00     0.000 A 
ENDBRANCH  65  78
ENDBRANCH  39  40
ENDBRANCH  31  34
ENDBRANCH  29  30
ENDBRANCH  28  29
ENDBRANCH   1  28
TORSDOF 15
