REMARK SMILES C[C@@H]1CC[C@@](C(=O)NCCCNC(=O)c2ccc(-c3c4nc(c(-c5ccccc5)c5ccc([nH]5)c(-c5ccccc5)c5nc(c(-c6ccccc6)c6ccc3[nH]6)C=C5)C=C4)cc2)([C@@H]2CCC[C@H](S(C)(=O)=O)C2)C1
REMARK SMILES IDX 10 1 9 2 8 3 6 4 7 5 5 7 1 8 2 9 3 10 73 11 4 12 63 13 64 14
REMARK SMILES IDX 72 15 65 16 67 17 66 18 68 19 69 20 70 21 71 22 11 23 12 24
REMARK SMILES IDX 13 25 14 27 15 28 16 29 62 30 17 31 61 32 18 33 19 34 20 35
REMARK SMILES IDX 55 36 21 37 60 38 54 39 56 40 22 41 59 42 53 43 52 44 23 46
REMARK SMILES IDX 45 47 30 48 44 49 31 50 34 51 43 52 57 53 32 54 33 55 42 57
REMARK SMILES IDX 58 58 35 59 24 60 25 61 29 62 26 63 28 64 27 65 46 66 47 67
REMARK SMILES IDX 51 68 48 69 50 70 49 71 36 72 37 73 41 74 38 75 40 76 39 77
REMARK H PARENT 8 6 12 26 56 45 34 56
REMARK Flexibility Score: inf
ROOT
ATOM      1  C   UNL     1       1.228  -1.052  -3.368  1.00  0.00     0.042 C 
ENDROOT
BRANCH   1   2
ATOM      2  C   UNL     1       1.139   0.016  -2.294  1.00  0.00     0.117 C 
BRANCH   2   3
ATOM      3  N   UNL     1       0.021   0.916  -2.478  1.00  0.00    -0.356 N 
ATOM      4  C   UNL     1      -0.952   1.355  -1.640  1.00  0.00     0.226 C 
ATOM      5  O   UNL     1      -1.588   2.331  -2.058  1.00  0.00    -0.274 OA
ATOM      6  H   UNL     1      -0.048   1.281  -3.390  1.00  0.00     0.163 HD
BRANCH   4   7
ATOM      7  C   UNL     1      -1.208   0.786  -0.214  1.00  0.00     0.052 C 
ATOM      8  C   UNL     1       2.205   0.322   0.842  1.00  0.00     0.007 C 
ATOM      9  C   UNL     1       0.737   0.252   1.275  1.00  0.00    -0.013 C 
ATOM     10  C   UNL     1       0.022  -1.050   0.913  1.00  0.00     0.004 C 
ATOM     11  C   UNL     1      -0.113   1.391   0.705  1.00  0.00     0.020 C 
ATOM     12  C   UNL     1      -1.072  -0.744  -0.106  1.00  0.00     0.017 C 
BRANCH   7  13
ATOM     13  C   UNL     1      -2.661   1.249   0.240  1.00  0.00     0.006 C 
ATOM     14  C   UNL     1      -3.022   0.865   1.695  1.00  0.00     0.005 C 
ATOM     15  C   UNL     1      -3.775   0.727  -0.710  1.00  0.00     0.024 C 
ATOM     16  C   UNL     1      -4.409   1.369   2.087  1.00  0.00     0.002 C 
ATOM     17  C   UNL     1      -5.176   1.214  -0.309  1.00  0.00     0.108 C 
ATOM     18  C   UNL     1      -5.486   0.851   1.142  1.00  0.00     0.020 C 
BRANCH  17  19
ATOM     19  S   UNL     1      -6.402   0.528  -1.449  1.00  0.00     0.150 S 
ATOM     20  C   UNL     1      -7.958   1.174  -0.883  1.00  0.00     0.158 C 
ATOM     21  O   UNL     1      -6.165   1.104  -2.760  1.00  0.00    -0.229 OA
ATOM     22  O   UNL     1      -6.439  -0.911  -1.275  1.00  0.00    -0.229 OA
ENDBRANCH  17  19
ENDBRANCH   7  13
ENDBRANCH   4   7
ENDBRANCH   2   3
ENDBRANCH   1   2
BRANCH   1  23
ATOM     23  C   UNL     1       1.681  -0.495  -4.708  1.00  0.00     0.118 C 
BRANCH  23  24
ATOM     24  N   UNL     1       3.049   0.020  -4.667  1.00  0.00    -0.352 N 
ATOM     25  C   UNL     1       4.229  -0.519  -5.123  1.00  0.00     0.251 C 
ATOM     26  H   UNL     1       3.141   0.903  -4.241  1.00  0.00     0.163 HD
ATOM     27  O   UNL     1       5.300  -0.020  -4.790  1.00  0.00    -0.269 OA
BRANCH  25  28
ATOM     28  C   UNL     1       4.211  -1.712  -5.993  1.00  0.00     0.039 A 
ATOM     29  C   UNL     1       5.158  -2.724  -5.804  1.00  0.00     0.014 A 
ATOM     30  C   UNL     1       3.254  -1.833  -6.997  1.00  0.00     0.014 A 
ATOM     31  C   UNL     1       5.075  -3.899  -6.557  1.00  0.00     0.010 A 
ATOM     32  C   UNL     1       3.096  -3.044  -7.653  1.00  0.00     0.010 A 
ATOM     33  C   UNL     1       4.009  -4.090  -7.448  1.00  0.00    -0.014 A 
BRANCH  33  34
ATOM     34  C   UNL     1       3.809  -5.348  -8.212  1.00  0.00     0.031 A 
ATOM     35  C   UNL     1       3.729  -5.290  -9.715  1.00  0.00     0.074 A 
ATOM     36  C   UNL     1       3.565  -6.504  -7.564  1.00  0.00     0.049 A 
ATOM     37  N   UNL     1       3.329  -6.205 -10.559  1.00  0.00    -0.248 NA
ATOM     38  C   UNL     1       4.099  -4.011 -10.347  1.00  0.00     0.031 C 
ATOM     39  C   UNL     1       3.579  -6.692  -6.112  1.00  0.00     0.029 A 
ATOM     40  N   UNL     1       3.230  -7.743  -8.053  1.00  0.00    -0.354 N 
ATOM     41  C   UNL     1       3.339  -5.592 -11.807  1.00  0.00     0.074 A 
ATOM     42  C   UNL     1       3.748  -4.221 -11.606  1.00  0.00     0.031 C 
ATOM     43  C   UNL     1       3.293  -7.974  -5.829  1.00  0.00     0.029 A 
ATOM     44  C   UNL     1       3.018  -8.684  -7.073  1.00  0.00     0.049 A 
ATOM     45  H   UNL     1       3.150  -7.939  -9.014  1.00  0.00     0.167 HD
ATOM     46  C   UNL     1       3.050  -6.129 -13.015  1.00  0.00     0.031 A 
ATOM     47  C   UNL     1       2.625  -9.968  -7.167  1.00  0.00     0.031 A 
ATOM     48  C   UNL     1       2.705  -7.509 -13.216  1.00  0.00     0.049 A 
ATOM     49  C   UNL     1       2.337 -10.549  -8.524  1.00  0.00     0.074 A 
ATOM     50  C   UNL     1       2.479  -8.174 -14.408  1.00  0.00     0.029 A 
ATOM     51  N   UNL     1       2.554  -8.437 -12.199  1.00  0.00    -0.354 N 
ATOM     52  N   UNL     1       2.399  -9.972  -9.699  1.00  0.00    -0.248 NA
ATOM     53  C   UNL     1       1.929 -11.961  -8.567  1.00  0.00     0.031 C 
ATOM     54  C   UNL     1       2.154  -9.500 -14.109  1.00  0.00     0.029 A 
ATOM     55  C   UNL     1       2.228  -9.669 -12.735  1.00  0.00     0.049 A 
ATOM     56  H   UNL     1       2.662  -8.248 -11.239  1.00  0.00     0.167 HD
ATOM     57  C   UNL     1       2.081 -10.959 -10.623  1.00  0.00     0.074 A 
ATOM     58  C   UNL     1       1.826 -12.171  -9.873  1.00  0.00     0.031 C 
ATOM     59  C   UNL     1       2.010 -10.870 -11.972  1.00  0.00     0.031 A 
BRANCH  46  60
ATOM     60  C   UNL     1       3.096  -5.221 -14.212  1.00  0.00    -0.014 A 
ATOM     61  C   UNL     1       4.311  -4.715 -14.700  1.00  0.00     0.009 A 
ATOM     62  C   UNL     1       1.907  -4.899 -14.885  1.00  0.00     0.009 A 
ATOM     63  C   UNL     1       4.330  -3.873 -15.814  1.00  0.00     0.001 A 
ATOM     64  C   UNL     1       1.932  -4.082 -16.017  1.00  0.00     0.001 A 
ATOM     65  C   UNL     1       3.142  -3.562 -16.474  1.00  0.00     0.000 A 
ENDBRANCH  46  60
BRANCH  47  66
ATOM     66  C   UNL     1       2.500 -10.806  -5.945  1.00  0.00    -0.014 A 
ATOM     67  C   UNL     1       3.423 -11.834  -5.699  1.00  0.00     0.009 A 
ATOM     68  C   UNL     1       1.460 -10.595  -5.027  1.00  0.00     0.009 A 
ATOM     69  C   UNL     1       3.290 -12.654  -4.575  1.00  0.00     0.001 A 
ATOM     70  C   UNL     1       1.346 -11.398  -3.889  1.00  0.00     0.001 A 
ATOM     71  C   UNL     1       2.254 -12.433  -3.670  1.00  0.00     0.000 A 
ENDBRANCH  47  66
BRANCH  59  72
ATOM     72  C   UNL     1       1.717 -12.126 -12.737  1.00  0.00    -0.014 A 
ATOM     73  C   UNL     1       0.424 -12.666 -12.789  1.00  0.00     0.009 A 
ATOM     74  C   UNL     1       2.741 -12.728 -13.486  1.00  0.00     0.009 A 
ATOM     75  C   UNL     1       0.167 -13.798 -13.565  1.00  0.00     0.001 A 
ATOM     76  C   UNL     1       2.475 -13.843 -14.281  1.00  0.00     0.001 A 
ATOM     77  C   UNL     1       1.189 -14.379 -14.316  1.00  0.00     0.000 A 
ENDBRANCH  59  72
ENDBRANCH  33  34
ENDBRANCH  25  28
ENDBRANCH  23  24
ENDBRANCH   1  23
TORSDOF 12
