REMARK SMILES CCCCCCCCNC(=O)Oc1cccc(-c2ccc([C@@H](C)C(=O)NCCCNC(=O)c3ccc(-c4c5nc(c(-c6ccccc6)c6ccc([nH]6)c(-c6ccccc6)c6nc(c(-c7ccccc7)c7ccc4[nH]7)C=C6)C=C5)cc3)cc2F)c1
REMARK SMILES IDX 13 1 14 2 15 3 16 4 17 5 84 6 12 7 10 8 9 9 11 11 8 12 7 13
REMARK SMILES IDX 6 14 5 15 4 16 3 17 2 18 1 19 18 20 19 21 82 22 20 23 81 24
REMARK SMILES IDX 83 25 21 26 22 27 23 28 24 29 25 30 26 31 27 33 28 34 29 35
REMARK SMILES IDX 30 36 31 37 32 39 33 40 34 41 80 42 35 43 79 44 36 45 37 46
REMARK SMILES IDX 38 47 73 48 39 49 78 50 72 51 74 52 40 53 77 54 71 55 70 56
REMARK SMILES IDX 41 58 63 59 48 60 62 61 49 62 52 63 61 64 75 65 50 66 51 67
REMARK SMILES IDX 60 69 76 70 53 71 42 72 43 73 47 74 44 75 46 76 45 77 64 78
REMARK SMILES IDX 65 79 69 80 66 81 68 82 67 83 54 84 55 85 59 86 56 87 58 88
REMARK SMILES IDX 57 89
REMARK H PARENT 9 10 26 32 30 38 74 57 52 68
REMARK Flexibility Score: inf
ROOT
ATOM      1  C   UNL     1      -3.580   7.724  -5.587  1.00  0.00     0.133 A 
ATOM      2  C   UNL     1      -3.091   7.923  -6.873  1.00  0.00     0.047 A 
ATOM      3  C   UNL     1      -3.602   8.966  -7.633  1.00  0.00     0.004 A 
ATOM      4  C   UNL     1      -4.584   9.803  -7.093  1.00  0.00     0.009 A 
ATOM      5  C   UNL     1      -5.098   9.612  -5.791  1.00  0.00    -0.012 A 
ATOM      6  C   UNL     1      -4.565   8.550  -5.041  1.00  0.00     0.056 A 
ENDROOT
BRANCH   1   7
ATOM      7  O   UNL     1      -2.942   6.741  -4.818  1.00  0.00    -0.410 OA
BRANCH   7   8
ATOM      8  C   UNL     1      -3.717   5.723  -4.288  1.00  0.00     0.412 C 
ATOM      9  N   UNL     1      -2.979   4.828  -3.564  1.00  0.00    -0.321 N 
ATOM     10  H   UNL     1      -3.466   4.075  -3.157  1.00  0.00     0.167 HD
ATOM     11  O   UNL     1      -4.924   5.581  -4.434  1.00  0.00    -0.224 OA
BRANCH   9  12
ATOM     12  C   UNL     1      -1.548   4.879  -3.337  1.00  0.00     0.119 C 
BRANCH  12  13
ATOM     13  C   UNL     1      -1.206   4.920  -1.848  1.00  0.00     0.021 C 
BRANCH  13  14
ATOM     14  C   UNL     1      -1.610   3.665  -1.065  1.00  0.00     0.002 C 
BRANCH  14  15
ATOM     15  C   UNL     1      -1.024   2.351  -1.592  1.00  0.00     0.000 C 
BRANCH  15  16
ATOM     16  C   UNL     1       0.507   2.284  -1.606  1.00  0.00    -0.000 C 
BRANCH  16  17
ATOM     17  C   UNL     1       1.172   2.373  -0.228  1.00  0.00    -0.000 C 
BRANCH  17  18
ATOM     18  C   UNL     1       0.754   1.290   0.770  1.00  0.00    -0.003 C 
ATOM     19  C   UNL     1       1.069  -0.121   0.298  1.00  0.00     0.004 C 
ENDBRANCH  17  18
ENDBRANCH  16  17
ENDBRANCH  15  16
ENDBRANCH  14  15
ENDBRANCH  13  14
ENDBRANCH  12  13
ENDBRANCH   9  12
ENDBRANCH   7   8
ENDBRANCH   1   7
BRANCH   5  20
ATOM     20  C   UNL     1      -6.170  10.486  -5.260  1.00  0.00     0.018 A 
ATOM     21  C   UNL     1      -7.165  10.993  -6.114  1.00  0.00     0.012 A 
ATOM     22  C   UNL     1      -6.271  10.844  -3.907  1.00  0.00     0.131 A 
ATOM     23  C   UNL     1      -8.196  11.815  -5.644  1.00  0.00     0.005 A 
ATOM     24  C   UNL     1      -7.331  11.619  -3.422  1.00  0.00     0.044 A 
ATOM     25  F   UNL     1      -5.337  10.456  -3.025  1.00  0.00    -0.206 F 
ATOM     26  C   UNL     1      -8.323  12.107  -4.284  1.00  0.00    -0.033 A 
BRANCH  26  27
ATOM     27  C   UNL     1      -9.496  12.889  -3.717  1.00  0.00     0.105 C 
ATOM     28  C   UNL     1      -9.880  14.153  -4.486  1.00  0.00     0.023 C 
BRANCH  27  29
ATOM     29  C   UNL     1     -10.685  12.003  -3.314  1.00  0.00     0.227 C 
ATOM     30  O   UNL     1     -10.890  11.759  -2.119  1.00  0.00    -0.274 OA
ATOM     31  N   UNL     1     -11.561  11.450  -4.196  1.00  0.00    -0.356 N 
ATOM     32  H   UNL     1     -12.296  10.954  -3.768  1.00  0.00     0.163 HD
BRANCH  31  33
ATOM     33  C   UNL     1     -11.618  11.451  -5.644  1.00  0.00     0.117 C 
BRANCH  33  34
ATOM     34  C   UNL     1     -11.049  10.170  -6.250  1.00  0.00     0.042 C 
BRANCH  34  35
ATOM     35  C   UNL     1     -12.023   8.997  -6.253  1.00  0.00     0.118 C 
BRANCH  35  36
ATOM     36  N   UNL     1     -13.119   9.192  -7.192  1.00  0.00    -0.352 N 
ATOM     37  C   UNL     1     -13.476   8.490  -8.317  1.00  0.00     0.251 C 
ATOM     38  H   UNL     1     -13.704   9.956  -6.984  1.00  0.00     0.163 HD
ATOM     39  O   UNL     1     -14.319   8.968  -9.073  1.00  0.00    -0.269 OA
BRANCH  37  40
ATOM     40  C   UNL     1     -12.863   7.182  -8.645  1.00  0.00     0.039 A 
ATOM     41  C   UNL     1     -12.630   6.873  -9.991  1.00  0.00     0.014 A 
ATOM     42  C   UNL     1     -12.575   6.234  -7.661  1.00  0.00     0.014 A 
ATOM     43  C   UNL     1     -12.056   5.647 -10.340  1.00  0.00     0.010 A 
ATOM     44  C   UNL     1     -11.932   5.044  -8.002  1.00  0.00     0.010 A 
ATOM     45  C   UNL     1     -11.671   4.735  -9.345  1.00  0.00    -0.014 A 
BRANCH  45  46
ATOM     46  C   UNL     1     -10.990   3.461  -9.691  1.00  0.00     0.031 A 
ATOM     47  C   UNL     1     -11.642   2.138  -9.392  1.00  0.00     0.074 A 
ATOM     48  C   UNL     1      -9.749   3.493 -10.214  1.00  0.00     0.049 A 
ATOM     49  N   UNL     1     -11.174   0.928  -9.569  1.00  0.00    -0.248 NA
ATOM     50  C   UNL     1     -12.987   2.181  -8.797  1.00  0.00     0.031 C 
ATOM     51  C   UNL     1      -8.986   4.707 -10.510  1.00  0.00     0.029 A 
ATOM     52  N   UNL     1      -8.906   2.474 -10.580  1.00  0.00    -0.354 N 
ATOM     53  C   UNL     1     -12.153   0.069  -9.085  1.00  0.00     0.074 A 
ATOM     54  C   UNL     1     -13.224   0.896  -8.573  1.00  0.00     0.031 C 
ATOM     55  C   UNL     1      -7.797   4.363 -11.030  1.00  0.00     0.029 A 
ATOM     56  C   UNL     1      -7.698   2.908 -11.068  1.00  0.00     0.049 A 
ATOM     57  H   UNL     1      -9.145   1.522 -10.501  1.00  0.00     0.167 HD
ATOM     58  C   UNL     1     -12.168  -1.286  -9.080  1.00  0.00     0.031 A 
ATOM     59  C   UNL     1      -6.623   2.215 -11.489  1.00  0.00     0.031 A 
ATOM     60  C   UNL     1     -11.109  -2.110  -9.600  1.00  0.00     0.049 A 
ATOM     61  C   UNL     1      -6.662   0.714 -11.472  1.00  0.00     0.074 A 
ATOM     62  C   UNL     1     -11.062  -3.489  -9.705  1.00  0.00     0.029 A 
ATOM     63  N   UNL     1      -9.907  -1.630 -10.097  1.00  0.00    -0.354 N 
ATOM     64  N   UNL     1      -7.628  -0.083 -11.083  1.00  0.00    -0.248 NA
ATOM     65  C   UNL     1      -5.465   0.016 -11.961  1.00  0.00     0.031 C 
ATOM     66  C   UNL     1      -9.811  -3.847 -10.219  1.00  0.00     0.029 A 
ATOM     67  C   UNL     1      -9.101  -2.688 -10.484  1.00  0.00     0.049 A 
ATOM     68  H   UNL     1      -9.663  -0.679 -10.165  1.00  0.00     0.167 HD
ATOM     69  C   UNL     1      -7.164  -1.373 -11.297  1.00  0.00     0.074 A 
ATOM     70  C   UNL     1      -5.838  -1.253 -11.870  1.00  0.00     0.031 C 
ATOM     71  C   UNL     1      -7.780  -2.553 -11.042  1.00  0.00     0.031 A 
BRANCH  58  72
ATOM     72  C   UNL     1     -13.368  -1.963  -8.480  1.00  0.00    -0.014 A 
ATOM     73  C   UNL     1     -14.617  -1.937  -9.121  1.00  0.00     0.009 A 
ATOM     74  C   UNL     1     -13.241  -2.667  -7.272  1.00  0.00     0.009 A 
ATOM     75  C   UNL     1     -15.722  -2.568  -8.546  1.00  0.00     0.001 A 
ATOM     76  C   UNL     1     -14.341  -3.322  -6.714  1.00  0.00     0.001 A 
ATOM     77  C   UNL     1     -15.582  -3.264  -7.346  1.00  0.00     0.000 A 
ENDBRANCH  58  72
BRANCH  59  78
ATOM     78  C   UNL     1      -5.420   2.939 -11.974  1.00  0.00    -0.014 A 
ATOM     79  C   UNL     1      -5.097   2.947 -13.339  1.00  0.00     0.009 A 
ATOM     80  C   UNL     1      -4.594   3.633 -11.076  1.00  0.00     0.009 A 
ATOM     81  C   UNL     1      -3.959   3.618 -13.793  1.00  0.00     0.001 A 
ATOM     82  C   UNL     1      -3.472   4.326 -11.536  1.00  0.00     0.001 A 
ATOM     83  C   UNL     1      -3.151   4.311 -12.893  1.00  0.00     0.000 A 
ENDBRANCH  59  78
BRANCH  71  84
ATOM     84  C   UNL     1      -7.034  -3.807 -11.400  1.00  0.00    -0.014 A 
ATOM     85  C   UNL     1      -5.938  -4.241 -10.640  1.00  0.00     0.009 A 
ATOM     86  C   UNL     1      -7.457  -4.582 -12.491  1.00  0.00     0.009 A 
ATOM     87  C   UNL     1      -5.260  -5.412 -10.986  1.00  0.00     0.001 A 
ATOM     88  C   UNL     1      -6.795  -5.765 -12.818  1.00  0.00     0.001 A 
ATOM     89  C   UNL     1      -5.691  -6.175 -12.070  1.00  0.00     0.000 A 
ENDBRANCH  71  84
ENDBRANCH  45  46
ENDBRANCH  37  40
ENDBRANCH  35  36
ENDBRANCH  34  35
ENDBRANCH  33  34
ENDBRANCH  31  33
ENDBRANCH  27  29
ENDBRANCH  26  27
ENDBRANCH   5  20
TORSDOF 21
