REMARK SMILES Cc1nn(C)cc1-c1cc(C(F)(F)F)nc(N2CCC[C@@H]2C(=O)NCCCNC(=O)c2ccc(-c3c4nc(c(-c5ccccc5)c5ccc([nH]5)c(-c5ccccc5)c5nc(c(-c6ccccc6)c6ccc3[nH]6)C=C5)C=C4)cc2)n1
REMARK SMILES IDX 26 1 25 2 24 3 22 4 23 5 21 7 17 8 18 9 19 10 20 11 16 12
REMARK SMILES IDX 8 13 9 14 79 15 10 16 15 17 7 18 1 19 2 20 3 21 4 22 6 23
REMARK SMILES IDX 5 24 11 25 12 26 13 27 14 28 27 29 28 30 29 31 30 33 31 34
REMARK SMILES IDX 32 35 78 36 33 37 77 38 34 39 35 40 36 41 71 42 37 43 76 44
REMARK SMILES IDX 70 45 72 46 38 47 75 48 69 49 68 50 39 52 61 53 46 54 60 55
REMARK SMILES IDX 47 56 50 57 59 58 73 59 48 60 49 61 58 63 74 64 51 65 40 66
REMARK SMILES IDX 41 67 45 68 42 69 44 70 43 71 62 72 63 73 67 74 64 75 66 76
REMARK SMILES IDX 65 77 52 78 53 79 57 80 54 81 56 82 55 83
REMARK H PARENT 24 6 28 32 72 51 50 62
REMARK Flexibility Score: inf
ROOT
ATOM      1  C   UNL     1      -5.890  -6.802   2.772  1.00  0.00     0.042 C 
ENDROOT
BRANCH   1   2
ATOM      2  C   UNL     1      -5.048  -5.730   2.092  1.00  0.00     0.117 C 
BRANCH   2   3
ATOM      3  N   UNL     1      -4.681  -4.661   3.001  1.00  0.00    -0.354 N 
ATOM      4  C   UNL     1      -3.478  -4.303   3.536  1.00  0.00     0.242 C 
ATOM      5  O   UNL     1      -3.494  -3.333   4.304  1.00  0.00    -0.273 OA
ATOM      6  H   UNL     1      -5.434  -4.092   3.281  1.00  0.00     0.163 HD
BRANCH   4   7
ATOM      7  C   UNL     1      -2.166  -5.085   3.300  1.00  0.00     0.174 C 
ATOM      8  N   UNL     1      -1.928  -5.475   1.920  1.00  0.00    -0.329 N 
ATOM      9  C   UNL     1      -1.592  -6.866   1.751  1.00  0.00     0.120 C 
ATOM     10  C   UNL     1      -2.123  -7.518   3.025  1.00  0.00     0.024 C 
ATOM     11  C   UNL     1      -2.127  -6.409   4.076  1.00  0.00     0.037 C 
BRANCH   8  12
ATOM     12  C   UNL     1      -1.985  -4.583   0.900  1.00  0.00     0.227 A 
ATOM     13  C   UNL     1      -1.558  -2.506   0.043  1.00  0.00     0.080 A 
ATOM     14  C   UNL     1      -2.397  -2.714  -1.026  1.00  0.00     0.062 A 
ATOM     15  N   UNL     1      -1.374  -3.405   1.028  1.00  0.00    -0.213 NA
ATOM     16  C   UNL     1      -3.009  -3.947  -1.079  1.00  0.00     0.150 A 
ATOM     17  N   UNL     1      -2.764  -4.898  -0.143  1.00  0.00    -0.208 NA
BRANCH  13  18
ATOM     18  C   UNL     1      -0.770  -1.295   0.118  1.00  0.00     0.041 A 
ATOM     19  C   UNL     1      -2.480   0.691   0.044  1.00  0.00     0.069 C 
ATOM     20  C   UNL     1      -1.129   0.077   0.075  1.00  0.00     0.069 A 
ATOM     21  N   UNL     1      -0.048   0.869   0.058  1.00  0.00    -0.178 NA
ATOM     22  N   UNL     1       0.987   0.012   0.119  1.00  0.00    -0.275 N 
ATOM     23  C   UNL     1       0.609  -1.294   0.164  1.00  0.00     0.119 A 
ATOM     24  C   UNL     1       2.335   0.524   0.083  1.00  0.00     0.173 C 
ENDBRANCH  13  18
BRANCH  16  25
ATOM     25  C   UNL     1      -4.035  -4.241  -2.155  1.00  0.00     0.433 C 
ATOM     26  F   UNL     1      -3.799  -5.403  -2.826  1.00  0.00    -0.165 F 
ATOM     27  F   UNL     1      -5.299  -4.345  -1.651  1.00  0.00    -0.165 F 
ATOM     28  F   UNL     1      -4.105  -3.270  -3.113  1.00  0.00    -0.165 F 
ENDBRANCH  16  25
ENDBRANCH   8  12
ENDBRANCH   4   7
ENDBRANCH   2   3
ENDBRANCH   1   2
BRANCH   1  29
ATOM     29  C   UNL     1      -7.322  -6.369   3.053  1.00  0.00     0.118 C 
BRANCH  29  30
ATOM     30  N   UNL     1      -8.086  -6.154   1.832  1.00  0.00    -0.352 N 
ATOM     31  C   UNL     1      -9.289  -6.674   1.435  1.00  0.00     0.251 C 
ATOM     32  H   UNL     1      -7.671  -5.535   1.188  1.00  0.00     0.163 HD
ATOM     33  O   UNL     1      -9.672  -6.491   0.278  1.00  0.00    -0.269 OA
BRANCH  31  34
ATOM     34  C   UNL     1     -10.134  -7.456   2.364  1.00  0.00     0.039 A 
ATOM     35  C   UNL     1     -10.859  -8.539   1.854  1.00  0.00     0.014 A 
ATOM     36  C   UNL     1     -10.274  -7.098   3.707  1.00  0.00     0.014 A 
ATOM     37  C   UNL     1     -11.698  -9.275   2.692  1.00  0.00     0.010 A 
ATOM     38  C   UNL     1     -11.051  -7.879   4.560  1.00  0.00     0.010 A 
ATOM     39  C   UNL     1     -11.790  -8.959   4.056  1.00  0.00    -0.014 A 
BRANCH  39  40
ATOM     40  C   UNL     1     -12.697  -9.711   4.956  1.00  0.00     0.031 A 
ATOM     41  C   UNL     1     -13.881  -9.020   5.577  1.00  0.00     0.074 A 
ATOM     42  C   UNL     1     -12.437 -10.999   5.250  1.00  0.00     0.049 A 
ATOM     43  N   UNL     1     -14.764  -9.490   6.422  1.00  0.00    -0.248 NA
ATOM     44  C   UNL     1     -14.086  -7.606   5.221  1.00  0.00     0.031 C 
ATOM     45  C   UNL     1     -11.303 -11.773   4.741  1.00  0.00     0.029 A 
ATOM     46  N   UNL     1     -13.112 -11.883   6.052  1.00  0.00    -0.354 N 
ATOM     47  C   UNL     1     -15.608  -8.427   6.716  1.00  0.00     0.074 A 
ATOM     48  C   UNL     1     -15.108  -7.277   5.996  1.00  0.00     0.031 C 
ATOM     49  C   UNL     1     -11.377 -13.025   5.222  1.00  0.00     0.029 A 
ATOM     50  C   UNL     1     -12.542 -13.131   6.095  1.00  0.00     0.049 A 
ATOM     51  H   UNL     1     -13.927 -11.645   6.550  1.00  0.00     0.167 HD
ATOM     52  C   UNL     1     -16.713  -8.411   7.499  1.00  0.00     0.031 A 
ATOM     53  C   UNL     1     -12.918 -14.239   6.761  1.00  0.00     0.031 A 
ATOM     54  C   UNL     1     -17.227  -9.559   8.195  1.00  0.00     0.049 A 
ATOM     55  C   UNL     1     -14.159 -14.202   7.608  1.00  0.00     0.074 A 
ATOM     56  C   UNL     1     -18.368  -9.658   8.973  1.00  0.00     0.029 A 
ATOM     57  N   UNL     1     -16.634 -10.811   8.191  1.00  0.00    -0.354 N 
ATOM     58  N   UNL     1     -14.977 -13.203   7.832  1.00  0.00    -0.248 NA
ATOM     59  C   UNL     1     -14.537 -15.454   8.278  1.00  0.00     0.031 C 
ATOM     60  C   UNL     1     -18.446 -10.965   9.467  1.00  0.00     0.029 A 
ATOM     61  C   UNL     1     -17.379 -11.688   8.959  1.00  0.00     0.049 A 
ATOM     62  H   UNL     1     -15.805 -11.043   7.712  1.00  0.00     0.167 HD
ATOM     63  C   UNL     1     -15.982 -13.712   8.643  1.00  0.00     0.074 A 
ATOM     64  C   UNL     1     -15.678 -15.111   8.861  1.00  0.00     0.031 C 
ATOM     65  C   UNL     1     -17.064 -13.078   9.159  1.00  0.00     0.031 A 
BRANCH  52  66
ATOM     66  C   UNL     1     -17.437  -7.101   7.643  1.00  0.00    -0.014 A 
ATOM     67  C   UNL     1     -18.168  -6.554   6.576  1.00  0.00     0.009 A 
ATOM     68  C   UNL     1     -17.403  -6.415   8.866  1.00  0.00     0.009 A 
ATOM     69  C   UNL     1     -18.818  -5.327   6.721  1.00  0.00     0.001 A 
ATOM     70  C   UNL     1     -18.077  -5.201   9.016  1.00  0.00     0.001 A 
ATOM     71  C   UNL     1     -18.775  -4.654   7.941  1.00  0.00     0.000 A 
ENDBRANCH  52  66
BRANCH  53  72
ATOM     72  C   UNL     1     -12.129 -15.490   6.627  1.00  0.00    -0.014 A 
ATOM     73  C   UNL     1     -12.634 -16.570   5.886  1.00  0.00     0.009 A 
ATOM     74  C   UNL     1     -10.872 -15.612   7.238  1.00  0.00     0.009 A 
ATOM     75  C   UNL     1     -11.907 -17.757   5.782  1.00  0.00     0.001 A 
ATOM     76  C   UNL     1     -10.136 -16.792   7.110  1.00  0.00     0.001 A 
ATOM     77  C   UNL     1     -10.658 -17.866   6.391  1.00  0.00     0.000 A 
ENDBRANCH  53  72
BRANCH  65  78
ATOM     78  C   UNL     1     -18.018 -13.905   9.971  1.00  0.00    -0.014 A 
ATOM     79  C   UNL     1     -17.695 -14.329  11.269  1.00  0.00     0.009 A 
ATOM     80  C   UNL     1     -19.274 -14.235   9.438  1.00  0.00     0.009 A 
ATOM     81  C   UNL     1     -18.599 -15.097  12.004  1.00  0.00     0.001 A 
ATOM     82  C   UNL     1     -20.186 -14.981  10.185  1.00  0.00     0.001 A 
ATOM     83  C   UNL     1     -19.844 -15.419  11.464  1.00  0.00     0.000 A 
ENDBRANCH  65  78
ENDBRANCH  39  40
ENDBRANCH  31  34
ENDBRANCH  29  30
ENDBRANCH   1  29
TORSDOF 13
