REMARK SMILES C=CCN(CC(=O)NCCCNC(=O)c1ccc(-c2c3nc(c(-c4ccccc4)c4ccc([nH]4)c(-c4ccccc4)c4nc(c(-c5ccccc5)c5ccc2[nH]5)C=C4)C=C3)cc1)S(=O)(=O)Cc1cc(C)on1
REMARK SMILES IDX 9 1 8 2 6 3 7 4 5 6 4 7 3 8 2 9 1 10 63 11 64 12 65 13 66 14
REMARK SMILES IDX 67 15 68 16 72 17 69 18 71 19 70 20 10 21 11 22 12 23 13 24
REMARK SMILES IDX 14 26 15 27 16 28 62 29 17 30 61 31 18 32 19 33 20 34 55 35
REMARK SMILES IDX 21 36 60 37 54 38 56 39 22 40 59 41 53 42 52 43 23 45 45 46
REMARK SMILES IDX 30 47 44 48 31 49 34 50 43 51 57 52 32 53 33 54 42 56 58 57
REMARK SMILES IDX 35 58 24 59 25 60 29 61 26 62 28 63 27 64 46 65 47 66 51 67
REMARK SMILES IDX 48 68 50 69 49 70 36 71 37 72 41 73 38 74 40 75 39 76
REMARK H PARENT 8 5 12 25 56 44 34 55
REMARK Flexibility Score: inf
ROOT
ATOM      1  C   UNL     1      -3.211   0.691   0.985  1.00  0.00     0.117 C 
ENDROOT
BRANCH   1   2
ATOM      2  N   UNL     1      -3.815   0.156  -0.222  1.00  0.00    -0.355 N 
ATOM      3  C   UNL     1      -3.750  -1.095  -0.768  1.00  0.00     0.235 C 
ATOM      4  O   UNL     1      -4.416  -1.318  -1.784  1.00  0.00    -0.274 OA
ATOM      5  H   UNL     1      -4.361   0.799  -0.729  1.00  0.00     0.163 HD
BRANCH   3   6
ATOM      6  C   UNL     1      -2.936  -2.209  -0.122  1.00  0.00     0.202 C 
BRANCH   6   7
ATOM      7  N   UNL     1      -1.466  -2.287  -0.399  1.00  0.00    -0.188 NA
BRANCH   7   8
ATOM      8  C   UNL     1      -0.662  -1.755   0.715  1.00  0.00     0.129 C 
BRANCH   8   9
ATOM      9  C   UNL     1       0.815  -1.738   0.535  1.00  0.00    -0.018 C 
ATOM     10  C   UNL     1       1.517  -0.653   0.177  1.00  0.00     0.005 C 
ENDBRANCH   8   9
ENDBRANCH   7   8
BRANCH   7  11
ATOM     11  S   UNL     1      -0.985  -2.197  -2.029  1.00  0.00     0.220 S 
ATOM     12  O   UNL     1      -1.600  -1.024  -2.606  1.00  0.00    -0.212 OA
ATOM     13  O   UNL     1       0.452  -2.360  -2.135  1.00  0.00    -0.212 OA
BRANCH  11  14
ATOM     14  C   UNL     1      -1.705  -3.691  -2.740  1.00  0.00     0.214 C 
BRANCH  14  15
ATOM     15  C   UNL     1      -1.308  -4.948  -2.032  1.00  0.00     0.100 A 
ATOM     16  C   UNL     1      -0.313  -5.174  -1.048  1.00  0.00     0.073 A 
ATOM     17  N   UNL     1      -1.952  -6.093  -2.312  1.00  0.00    -0.084 NA
ATOM     18  C   UNL     1      -0.436  -6.496  -0.713  1.00  0.00     0.133 A 
ATOM     19  O   UNL     1      -1.402  -7.058  -1.484  1.00  0.00    -0.361 OA
ATOM     20  C   UNL     1       0.232  -7.360   0.276  1.00  0.00     0.091 C 
ENDBRANCH  14  15
ENDBRANCH  11  14
ENDBRANCH   7  11
ENDBRANCH   6   7
ENDBRANCH   3   6
ENDBRANCH   1   2
BRANCH   1  21
ATOM     21  C   UNL     1      -1.943   1.487   0.685  1.00  0.00     0.042 C 
BRANCH  21  22
ATOM     22  C   UNL     1      -2.185   2.900   0.185  1.00  0.00     0.118 C 
BRANCH  22  23
ATOM     23  N   UNL     1      -2.608   3.803   1.245  1.00  0.00    -0.352 N 
ATOM     24  C   UNL     1      -1.960   4.856   1.845  1.00  0.00     0.251 C 
ATOM     25  H   UNL     1      -3.513   3.630   1.592  1.00  0.00     0.163 HD
ATOM     26  O   UNL     1      -2.449   5.354   2.857  1.00  0.00    -0.269 OA
BRANCH  24  27
ATOM     27  C   UNL     1      -0.680   5.390   1.317  1.00  0.00     0.039 A 
ATOM     28  C   UNL     1       0.270   5.874   2.224  1.00  0.00     0.014 A 
ATOM     29  C   UNL     1      -0.419   5.475  -0.052  1.00  0.00     0.014 A 
ATOM     30  C   UNL     1       1.489   6.383   1.763  1.00  0.00     0.010 A 
ATOM     31  C   UNL     1       0.835   5.881  -0.505  1.00  0.00     0.010 A 
ATOM     32  C   UNL     1       1.798   6.359   0.395  1.00  0.00    -0.014 A 
BRANCH  32  33
ATOM     33  C   UNL     1       3.099   6.867  -0.118  1.00  0.00     0.031 A 
ATOM     34  C   UNL     1       3.131   8.036  -1.070  1.00  0.00     0.074 A 
ATOM     35  C   UNL     1       4.249   6.259   0.236  1.00  0.00     0.049 A 
ATOM     36  N   UNL     1       4.156   8.584  -1.673  1.00  0.00    -0.248 NA
ATOM     37  C   UNL     1       1.839   8.661  -1.403  1.00  0.00     0.031 C 
ATOM     38  C   UNL     1       4.361   5.107   1.134  1.00  0.00     0.029 A 
ATOM     39  N   UNL     1       5.548   6.528  -0.118  1.00  0.00    -0.354 N 
ATOM     40  C   UNL     1       3.632   9.606  -2.457  1.00  0.00     0.074 A 
ATOM     41  C   UNL     1       2.195   9.563  -2.305  1.00  0.00     0.031 C 
ATOM     42  C   UNL     1       5.657   4.792   1.287  1.00  0.00     0.029 A 
ATOM     43  C   UNL     1       6.465   5.683   0.460  1.00  0.00     0.049 A 
ATOM     44  H   UNL     1       5.800   7.258  -0.729  1.00  0.00     0.167 HD
ATOM     45  C   UNL     1       4.286  10.519  -3.214  1.00  0.00     0.031 A 
ATOM     46  C   UNL     1       7.804   5.625   0.331  1.00  0.00     0.031 A 
ATOM     47  C   UNL     1       5.715  10.570  -3.367  1.00  0.00     0.049 A 
ATOM     48  C   UNL     1       8.498   6.613  -0.568  1.00  0.00     0.074 A 
ATOM     49  C   UNL     1       6.472  11.470  -4.096  1.00  0.00     0.029 A 
ATOM     50  N   UNL     1       6.601   9.683  -2.778  1.00  0.00    -0.354 N 
ATOM     51  N   UNL     1       7.990   7.603  -1.261  1.00  0.00    -0.248 NA
ATOM     52  C   UNL     1       9.958   6.480  -0.693  1.00  0.00     0.031 C 
ATOM     53  C   UNL     1       7.815  11.097  -3.989  1.00  0.00     0.029 A 
ATOM     54  C   UNL     1       7.898  10.005  -3.141  1.00  0.00     0.049 A 
ATOM     55  H   UNL     1       6.348   8.936  -2.190  1.00  0.00     0.167 HD
ATOM     56  C   UNL     1       9.069   8.233  -1.869  1.00  0.00     0.074 A 
ATOM     57  C   UNL     1      10.260   7.525  -1.449  1.00  0.00     0.031 C 
ATOM     58  C   UNL     1       9.074   9.303  -2.700  1.00  0.00     0.031 A 
BRANCH  45  59
ATOM     59  C   UNL     1       3.456  11.550  -3.931  1.00  0.00    -0.014 A 
ATOM     60  C   UNL     1       2.788  12.562  -3.221  1.00  0.00     0.009 A 
ATOM     61  C   UNL     1       3.382  11.544  -5.332  1.00  0.00     0.009 A 
ATOM     62  C   UNL     1       2.038  13.525  -3.897  1.00  0.00     0.001 A 
ATOM     63  C   UNL     1       2.657  12.527  -6.008  1.00  0.00     0.001 A 
ATOM     64  C   UNL     1       1.979  13.511  -5.290  1.00  0.00     0.000 A 
ENDBRANCH  45  59
BRANCH  46  65
ATOM     65  C   UNL     1       8.594   4.598   1.065  1.00  0.00    -0.014 A 
ATOM     66  C   UNL     1       9.504   4.979   2.065  1.00  0.00     0.009 A 
ATOM     67  C   UNL     1       8.484   3.238   0.736  1.00  0.00     0.009 A 
ATOM     68  C   UNL     1      10.319   4.028   2.684  1.00  0.00     0.001 A 
ATOM     69  C   UNL     1       9.273   2.284   1.383  1.00  0.00     0.001 A 
ATOM     70  C   UNL     1      10.201   2.682   2.344  1.00  0.00     0.000 A 
ENDBRANCH  46  65
BRANCH  58  71
ATOM     71  C   UNL     1      10.411   9.813  -3.161  1.00  0.00    -0.014 A 
ATOM     72  C   UNL     1      11.197   9.095  -4.075  1.00  0.00     0.009 A 
ATOM     73  C   UNL     1      10.869  11.059  -2.702  1.00  0.00     0.009 A 
ATOM     74  C   UNL     1      12.432   9.598  -4.491  1.00  0.00     0.001 A 
ATOM     75  C   UNL     1      12.087  11.575  -3.146  1.00  0.00     0.001 A 
ATOM     76  C   UNL     1      12.872  10.839  -4.032  1.00  0.00     0.000 A 
ENDBRANCH  58  71
ENDBRANCH  32  33
ENDBRANCH  24  27
ENDBRANCH  22  23
ENDBRANCH  21  22
ENDBRANCH   1  21
TORSDOF 16
