REMARK SMILES C[C@@H](C(=O)NCCCNC(=O)c1ccc(-c2c3nc(c(-c4ccccc4)c4ccc([nH]4)c(-c4ccccc4)c4nc(c(-c5ccccc5)c5ccc2[nH]5)C=C4)C=C3)cc1)c1ccc(-c2ccn(C(F)F)c(=O)c2)cc1
REMARK SMILES IDX 6 1 5 2 3 3 4 4 2 6 1 7 60 8 61 9 75 10 62 11 74 12 63 13
REMARK SMILES IDX 64 14 65 15 73 16 66 17 71 18 67 19 72 20 68 21 69 22 70 23
REMARK SMILES IDX 7 24 8 25 9 26 10 27 11 29 12 30 13 31 59 32 14 33 58 34
REMARK SMILES IDX 15 35 16 36 17 37 52 38 18 39 57 40 51 41 53 42 19 43 56 44
REMARK SMILES IDX 50 45 49 46 20 48 42 49 27 50 41 51 28 52 31 53 40 54 54 55
REMARK SMILES IDX 29 56 30 57 39 59 55 60 32 61 21 62 22 63 26 64 23 65 25 66
REMARK SMILES IDX 24 67 43 68 44 69 48 70 45 71 47 72 46 73 33 74 34 75 38 76
REMARK SMILES IDX 35 77 37 78 36 79
REMARK H PARENT 5 5 9 28 53 47 31 58
REMARK Flexibility Score: inf
ROOT
ATOM      1  C   UNL     1       3.462   2.173  -0.061  1.00  0.00     0.117 C 
ENDROOT
BRANCH   1   2
ATOM      2  N   UNL     1       2.352   2.593  -0.898  1.00  0.00    -0.356 N 
ATOM      3  C   UNL     1       1.043   2.201  -0.911  1.00  0.00     0.227 C 
ATOM      4  O   UNL     1       0.353   2.632  -1.837  1.00  0.00    -0.274 OA
ATOM      5  H   UNL     1       2.581   3.275  -1.570  1.00  0.00     0.163 HD
BRANCH   3   6
ATOM      6  C   UNL     1       0.489   1.293   0.205  1.00  0.00     0.105 C 
ATOM      7  C   UNL     1       1.030  -0.131   0.021  1.00  0.00     0.023 C 
BRANCH   6   8
ATOM      8  C   UNL     1      -1.043   1.347   0.308  1.00  0.00    -0.036 A 
ATOM      9  C   UNL     1      -1.697   2.586   0.447  1.00  0.00     0.005 A 
ATOM     10  C   UNL     1      -1.839   0.191   0.284  1.00  0.00     0.005 A 
ATOM     11  C   UNL     1      -3.096   2.667   0.509  1.00  0.00     0.009 A 
ATOM     12  C   UNL     1      -3.230   0.269   0.359  1.00  0.00     0.009 A 
ATOM     13  C   UNL     1      -3.871   1.506   0.457  1.00  0.00    -0.018 A 
BRANCH  13  14
ATOM     14  C   UNL     1      -5.344   1.530   0.462  1.00  0.00    -0.011 A 
ATOM     15  C   UNL     1      -6.129   0.917   1.516  1.00  0.00     0.027 A 
ATOM     16  C   UNL     1      -5.972   2.027  -0.617  1.00  0.00     0.080 A 
ATOM     17  C   UNL     1      -7.455   0.790   1.390  1.00  0.00     0.095 A 
ATOM     18  C   UNL     1      -7.451   1.920  -0.758  1.00  0.00     0.255 A 
ATOM     19  N   UNL     1      -8.111   1.265   0.270  1.00  0.00    -0.258 N 
ATOM     20  O   UNL     1      -7.980   2.382  -1.765  1.00  0.00    -0.269 OA
BRANCH  19  21
ATOM     21  C   UNL     1      -9.528   1.065   0.114  1.00  0.00     0.451 C 
ATOM     22  F   UNL     1     -10.181   2.242  -0.035  1.00  0.00    -0.185 F 
ATOM     23  F   UNL     1      -9.790   0.297  -0.973  1.00  0.00    -0.185 F 
ENDBRANCH  19  21
ENDBRANCH  13  14
ENDBRANCH   6   8
ENDBRANCH   3   6
ENDBRANCH   1   2
BRANCH   1  24
ATOM     24  C   UNL     1       4.387   1.203  -0.800  1.00  0.00     0.042 C 
BRANCH  24  25
ATOM     25  C   UNL     1       5.107   1.809  -2.003  1.00  0.00     0.118 C 
BRANCH  25  26
ATOM     26  N   UNL     1       6.083   2.818  -1.622  1.00  0.00    -0.352 N 
ATOM     27  C   UNL     1       7.446   2.836  -1.777  1.00  0.00     0.251 C 
ATOM     28  H   UNL     1       5.706   3.615  -1.184  1.00  0.00     0.163 HD
ATOM     29  O   UNL     1       8.109   3.705  -1.211  1.00  0.00    -0.269 OA
BRANCH  27  30
ATOM     30  C   UNL     1       8.133   1.807  -2.588  1.00  0.00     0.039 A 
ATOM     31  C   UNL     1       9.305   1.232  -2.088  1.00  0.00     0.014 A 
ATOM     32  C   UNL     1       7.646   1.418  -3.839  1.00  0.00     0.014 A 
ATOM     33  C   UNL     1       9.934   0.204  -2.795  1.00  0.00     0.010 A 
ATOM     34  C   UNL     1       8.238   0.349  -4.514  1.00  0.00     0.010 A 
ATOM     35  C   UNL     1       9.375  -0.282  -3.988  1.00  0.00    -0.014 A 
BRANCH  35  36
ATOM     36  C   UNL     1       9.918  -1.496  -4.652  1.00  0.00     0.031 A 
ATOM     37  C   UNL     1      10.519  -1.422  -6.028  1.00  0.00     0.074 A 
ATOM     38  C   UNL     1       9.790  -2.690  -4.037  1.00  0.00     0.049 A 
ATOM     39  N   UNL     1      10.963  -2.395  -6.785  1.00  0.00    -0.248 NA
ATOM     40  C   UNL     1      10.622  -0.089  -6.643  1.00  0.00     0.031 C 
ATOM     41  C   UNL     1       9.192  -2.903  -2.716  1.00  0.00     0.029 A 
ATOM     42  N   UNL     1      10.139  -3.953  -4.448  1.00  0.00    -0.354 N 
ATOM     43  C   UNL     1      11.380  -1.797  -7.967  1.00  0.00     0.074 A 
ATOM     44  C   UNL     1      11.112  -0.380  -7.841  1.00  0.00     0.031 C 
ATOM     45  C   UNL     1       9.226  -4.212  -2.422  1.00  0.00     0.029 A 
ATOM     46  C   UNL     1       9.802  -4.937  -3.549  1.00  0.00     0.049 A 
ATOM     47  H   UNL     1      10.588  -4.136  -5.304  1.00  0.00     0.167 HD
ATOM     48  C   UNL     1      11.943  -2.376  -9.054  1.00  0.00     0.031 A 
ATOM     49  C   UNL     1       9.917  -6.277  -3.630  1.00  0.00     0.031 A 
ATOM     50  C   UNL     1      12.222  -3.783  -9.174  1.00  0.00     0.049 A 
ATOM     51  C   UNL     1      10.511  -6.890  -4.867  1.00  0.00     0.074 A 
ATOM     52  C   UNL     1      12.866  -4.445 -10.206  1.00  0.00     0.029 A 
ATOM     53  N   UNL     1      11.863  -4.744  -8.245  1.00  0.00    -0.354 N 
ATOM     54  N   UNL     1      10.989  -6.298  -5.934  1.00  0.00    -0.248 NA
ATOM     55  C   UNL     1      10.582  -8.358  -4.911  1.00  0.00     0.031 C 
ATOM     56  C   UNL     1      12.838  -5.816  -9.931  1.00  0.00     0.029 A 
ATOM     57  C   UNL     1      12.229  -6.000  -8.701  1.00  0.00     0.049 A 
ATOM     58  H   UNL     1      11.414  -4.562  -7.387  1.00  0.00     0.167 HD
ATOM     59  C   UNL     1      11.432  -7.318  -6.765  1.00  0.00     0.074 A 
ATOM     60  C   UNL     1      11.193  -8.564  -6.069  1.00  0.00     0.031 C 
ATOM     61  C   UNL     1      11.981  -7.231  -8.000  1.00  0.00     0.031 A 
BRANCH  48  62
ATOM     62  C   UNL     1      12.295  -1.498 -10.222  1.00  0.00    -0.014 A 
ATOM     63  C   UNL     1      13.394  -0.627 -10.173  1.00  0.00     0.009 A 
ATOM     64  C   UNL     1      11.576  -1.619 -11.422  1.00  0.00     0.009 A 
ATOM     65  C   UNL     1      13.757   0.116 -11.299  1.00  0.00     0.001 A 
ATOM     66  C   UNL     1      11.955  -0.893 -12.553  1.00  0.00     0.001 A 
ATOM     67  C   UNL     1      13.043  -0.024 -12.489  1.00  0.00     0.000 A 
ENDBRANCH  48  62
BRANCH  49  68
ATOM     68  C   UNL     1       9.430  -7.144  -2.524  1.00  0.00    -0.014 A 
ATOM     69  C   UNL     1      10.330  -7.896  -1.754  1.00  0.00     0.009 A 
ATOM     70  C   UNL     1       8.055  -7.257  -2.262  1.00  0.00     0.009 A 
ATOM     71  C   UNL     1       9.862  -8.773  -0.772  1.00  0.00     0.001 A 
ATOM     72  C   UNL     1       7.592  -8.109  -1.257  1.00  0.00     0.001 A 
ATOM     73  C   UNL     1       8.494  -8.876  -0.523  1.00  0.00     0.000 A 
ENDBRANCH  49  68
BRANCH  61  74
ATOM     74  C   UNL     1      12.374  -8.517  -8.670  1.00  0.00    -0.014 A 
ATOM     75  C   UNL     1      11.403  -9.396  -9.175  1.00  0.00     0.009 A 
ATOM     76  C   UNL     1      13.732  -8.833  -8.837  1.00  0.00     0.009 A 
ATOM     77  C   UNL     1      11.785 -10.581  -9.807  1.00  0.00     0.001 A 
ATOM     78  C   UNL     1      14.110 -10.003  -9.496  1.00  0.00     0.001 A 
ATOM     79  C   UNL     1      13.137 -10.880  -9.973  1.00  0.00     0.000 A 
ENDBRANCH  61  74
ENDBRANCH  35  36
ENDBRANCH  27  30
ENDBRANCH  25  26
ENDBRANCH  24  25
ENDBRANCH   1  24
TORSDOF 13
