REMARK SMILES CC1(C)[C@H](O)CC[C@@]2(C)[C@@H]1CC[C@@]1(C)Oc3oc(C(=O)NCCCNC(=O)c4ccc(-c5c6nc(c(-c7ccccc7)c7ccc([nH]7)c(-c7ccccc7)c7nc(c(-c8ccccc8)c8ccc5[nH]8)C=C7)C=C6)cc4)cc(=O)c3C[C@@H]21
REMARK SMILES IDX 23 1 22 2 21 3 19 4 20 5 18 7 1 8 2 9 4 10 10 11 3 12 6 13
REMARK SMILES IDX 8 14 11 15 7 16 81 17 9 18 12 19 13 20 80 21 15 22 14 23
REMARK SMILES IDX 79 24 16 25 77 26 17 27 76 28 78 29 5 30 24 32 25 33 26 34
REMARK SMILES IDX 27 36 28 37 29 38 75 39 30 40 74 41 31 42 32 43 33 44 68 45
REMARK SMILES IDX 34 46 73 47 67 48 69 49 35 50 72 51 66 52 65 53 36 55 58 56
REMARK SMILES IDX 43 57 57 58 44 59 47 60 56 61 70 62 45 63 46 64 55 66 71 67
REMARK SMILES IDX 48 68 37 69 38 70 42 71 39 72 41 73 40 74 59 75 60 76 64 77
REMARK SMILES IDX 61 78 63 79 62 80 49 81 50 82 54 83 51 84 53 85 52 86
REMARK H PARENT 21 6 5 31 25 35 69 54 47 65
REMARK Flexibility Score: inf
ROOT
ATOM      1  C   UNL     1       4.471   8.439   9.780  1.00  0.00     0.042 C 
ENDROOT
BRANCH   1   2
ATOM      2  C   UNL     1       5.248   7.833   8.619  1.00  0.00     0.118 C 
BRANCH   2   3
ATOM      3  N   UNL     1       6.136   6.752   9.035  1.00  0.00    -0.349 N 
ATOM      4  C   UNL     1       6.245   5.460   8.597  1.00  0.00     0.287 C 
ATOM      5  O   UNL     1       6.985   4.689   9.202  1.00  0.00    -0.266 OA
ATOM      6  H   UNL     1       6.764   6.994   9.754  1.00  0.00     0.163 HD
BRANCH   4   7
ATOM      7  C   UNL     1       5.455   4.997   7.422  1.00  0.00     0.199 A 
ATOM      8  C   UNL     1       0.675  -0.597   1.045  1.00  0.00     0.014 C 
ATOM      9  C   UNL     1       0.757   0.874   1.527  1.00  0.00    -0.006 C 
ATOM     10  C   UNL     1      -0.643   1.530   1.363  1.00  0.00     0.120 C 
ATOM     11  C   UNL     1       1.139   0.897   3.080  1.00  0.00     0.004 C 
ATOM     12  C   UNL     1       1.798   1.594   0.622  1.00  0.00     0.014 C 
ATOM     13  C   UNL     1      -0.665   3.001   1.789  1.00  0.00     0.033 C 
ATOM     14  C   UNL     1       0.738   2.233   3.831  1.00  0.00    -0.022 C 
ATOM     15  C   UNL     1       2.550   0.292   3.346  1.00  0.00     0.009 C 
ATOM     16  C   UNL     1       0.425   3.357   2.801  1.00  0.00     0.010 C 
ATOM     17  C   UNL     1       1.792   2.697   4.900  1.00  0.00     0.044 C 
ATOM     18  C   UNL     1      -0.609   2.025   4.610  1.00  0.00     0.012 C 
ATOM     19  C   UNL     1       3.370   0.770   4.547  1.00  0.00     0.049 C 
ATOM     20  C   UNL     1       2.575   1.552   5.596  1.00  0.00     0.113 C 
ATOM     21  C   UNL     1       2.813   3.716   4.342  1.00  0.00     0.055 C 
ATOM     22  O   UNL     1       3.473   2.068   6.614  1.00  0.00    -0.458 OA
ATOM     23  C   UNL     1       1.703   0.565   6.388  1.00  0.00     0.057 C 
ATOM     24  C   UNL     1       3.824   4.067   5.375  1.00  0.00     0.081 A 
ATOM     25  C   UNL     1       4.056   3.308   6.455  1.00  0.00     0.292 A 
ATOM     26  C   UNL     1       4.541   5.348   5.227  1.00  0.00     0.192 A 
ATOM     27  O   UNL     1       4.870   3.742   7.496  1.00  0.00    -0.420 OA
ATOM     28  C   UNL     1       5.421   5.755   6.322  1.00  0.00     0.105 A 
ATOM     29  O   UNL     1       4.392   6.077   4.255  1.00  0.00    -0.289 OA
BRANCH  10  30
ATOM     30  O   UNL     1      -1.154   1.415   0.036  1.00  0.00    -0.393 OA
ATOM     31  H   UNL     1      -0.586   1.911  -0.573  1.00  0.00     0.210 HD
ENDBRANCH  10  30
ENDBRANCH   4   7
ENDBRANCH   2   3
ENDBRANCH   1   2
BRANCH   1  32
ATOM     32  C   UNL     1       5.335   9.168  10.802  1.00  0.00     0.118 C 
BRANCH  32  33
ATOM     33  N   UNL     1       5.888  10.414  10.290  1.00  0.00    -0.352 N 
ATOM     34  C   UNL     1       5.604  11.713  10.641  1.00  0.00     0.251 C 
ATOM     35  H   UNL     1       6.569  10.311   9.587  1.00  0.00     0.163 HD
ATOM     36  O   UNL     1       6.061  12.642   9.988  1.00  0.00    -0.269 OA
BRANCH  34  37
ATOM     37  C   UNL     1       4.722  11.992  11.795  1.00  0.00     0.039 A 
ATOM     38  C   UNL     1       3.689  12.922  11.648  1.00  0.00     0.014 A 
ATOM     39  C   UNL     1       4.920  11.349  13.020  1.00  0.00     0.014 A 
ATOM     40  C   UNL     1       2.810  13.154  12.708  1.00  0.00     0.010 A 
ATOM     41  C   UNL     1       4.003  11.528  14.052  1.00  0.00     0.010 A 
ATOM     42  C   UNL     1       2.944  12.436  13.907  1.00  0.00    -0.014 A 
BRANCH  42  43
ATOM     43  C   UNL     1       2.009  12.646  15.036  1.00  0.00     0.031 A 
ATOM     44  C   UNL     1       2.499  13.291  16.300  1.00  0.00     0.074 A 
ATOM     45  C   UNL     1       0.734  12.220  14.945  1.00  0.00     0.049 A 
ATOM     46  N   UNL     1       1.850  13.515  17.414  1.00  0.00    -0.248 NA
ATOM     47  C   UNL     1       3.904  13.733  16.322  1.00  0.00     0.031 C 
ATOM     48  C   UNL     1       0.141  11.568  13.776  1.00  0.00     0.029 A 
ATOM     49  N   UNL     1      -0.292  12.272  15.856  1.00  0.00    -0.354 N 
ATOM     50  C   UNL     1       2.765  14.119  18.265  1.00  0.00     0.074 A 
ATOM     51  C   UNL     1       4.026  14.185  17.562  1.00  0.00     0.031 C 
ATOM     52  C   UNL     1      -1.152  11.306  14.032  1.00  0.00     0.029 A 
ATOM     53  C   UNL     1      -1.468  11.736  15.392  1.00  0.00     0.049 A 
ATOM     54  H   UNL     1      -0.193  12.657  16.756  1.00  0.00     0.167 HD
ATOM     55  C   UNL     1       2.565  14.598  19.514  1.00  0.00     0.031 A 
ATOM     56  C   UNL     1      -2.667  11.604  15.992  1.00  0.00     0.031 A 
ATOM     57  C   UNL     1       1.311  14.547  20.210  1.00  0.00     0.049 A 
ATOM     58  C   UNL     1      -2.852  12.103  17.397  1.00  0.00     0.074 A 
ATOM     59  C   UNL     1       1.009  15.043  21.466  1.00  0.00     0.029 A 
ATOM     60  N   UNL     1       0.154  13.970  19.714  1.00  0.00    -0.354 N 
ATOM     61  N   UNL     1      -1.985  12.701  18.176  1.00  0.00    -0.248 NA
ATOM     62  C   UNL     1      -4.178  11.913  18.004  1.00  0.00     0.031 C 
ATOM     63  C   UNL     1      -0.320  14.725  21.750  1.00  0.00     0.029 A 
ATOM     64  C   UNL     1      -0.859  14.078  20.650  1.00  0.00     0.049 A 
ATOM     65  H   UNL     1       0.066  13.547  18.830  1.00  0.00     0.167 HD
ATOM     66  C   UNL     1      -2.663  12.978  19.356  1.00  0.00     0.074 A 
ATOM     67  C   UNL     1      -4.016  12.489  19.190  1.00  0.00     0.031 C 
ATOM     68  C   UNL     1      -2.201  13.587  20.474  1.00  0.00     0.031 A 
BRANCH  55  69
ATOM     69  C   UNL     1       3.726  15.242  20.212  1.00  0.00    -0.014 A 
ATOM     70  C   UNL     1       4.158  16.526  19.849  1.00  0.00     0.009 A 
ATOM     71  C   UNL     1       4.328  14.601  21.306  1.00  0.00     0.009 A 
ATOM     72  C   UNL     1       5.177  17.155  20.565  1.00  0.00     0.001 A 
ATOM     73  C   UNL     1       5.331  15.242  22.034  1.00  0.00     0.001 A 
ATOM     74  C   UNL     1       5.756  16.517  21.662  1.00  0.00     0.000 A 
ENDBRANCH  55  69
BRANCH  56  75
ATOM     75  C   UNL     1      -3.794  10.995  15.240  1.00  0.00    -0.014 A 
ATOM     76  C   UNL     1      -4.824  11.802  14.736  1.00  0.00     0.009 A 
ATOM     77  C   UNL     1      -3.818   9.616  14.978  1.00  0.00     0.009 A 
ATOM     78  C   UNL     1      -5.858  11.239  13.984  1.00  0.00     0.001 A 
ATOM     79  C   UNL     1      -4.843   9.060  14.209  1.00  0.00     0.001 A 
ATOM     80  C   UNL     1      -5.862   9.872  13.714  1.00  0.00     0.000 A 
ENDBRANCH  56  75
BRANCH  68  81
ATOM     81  C   UNL     1      -3.151  13.782  21.619  1.00  0.00    -0.014 A 
ATOM     82  C   UNL     1      -3.483  12.716  22.468  1.00  0.00     0.009 A 
ATOM     83  C   UNL     1      -3.610  15.073  21.929  1.00  0.00     0.009 A 
ATOM     84  C   UNL     1      -4.259  12.941  23.607  1.00  0.00     0.001 A 
ATOM     85  C   UNL     1      -4.365  15.297  23.081  1.00  0.00     0.001 A 
ATOM     86  C   UNL     1      -4.690  14.231  23.918  1.00  0.00     0.000 A 
ENDBRANCH  68  81
ENDBRANCH  42  43
ENDBRANCH  34  37
ENDBRANCH  32  33
ENDBRANCH   1  32
TORSDOF 11
