REMARK SMILES Cc1ccc(-c2c(C)sc(NC(=O)[C@H]3CC=CC[C@H]3C(=O)NCCCNC(=O)c3ccc(-c4c5nc(c(-c6ccccc6)c6ccc([nH]6)c(-c6ccccc6)c6nc(c(-c7ccccc7)c7ccc4[nH]7)C=C6)C=C5)cc3)c2C(N)=O)cc1
REMARK SMILES IDX 23 1 22 2 20 3 21 4 19 6 14 7 15 8 16 9 18 10 17 11 12 12
REMARK SMILES IDX 11 13 13 15 10 16 6 17 7 18 77 19 8 20 9 21 5 22 1 23 2 24
REMARK SMILES IDX 3 25 82 26 4 27 81 28 78 29 79 30 80 31 24 34 25 35 26 36
REMARK SMILES IDX 27 37 28 39 29 40 30 41 76 42 31 43 75 44 32 45 33 46 34 47
REMARK SMILES IDX 69 48 35 49 74 50 68 51 70 52 36 53 73 54 67 55 66 56 37 58
REMARK SMILES IDX 59 59 44 60 58 61 45 62 48 63 57 64 71 65 46 66 47 67 56 69
REMARK SMILES IDX 72 70 49 71 38 72 39 73 43 74 40 75 42 76 41 77 60 78 61 79
REMARK SMILES IDX 65 80 62 81 64 82 63 83 50 84 51 85 55 86 52 87 54 88 53 89
REMARK H PARENT 22 5 11 14 79 32 79 33 26 38 70 57 48 68
REMARK Flexibility Score: inf
ROOT
ATOM      1  C   UNL     1      -7.450  -3.169   0.914  1.00  0.00     0.117 C 
ENDROOT
BRANCH   1   2
ATOM      2  N   UNL     1      -8.546  -3.185  -0.019  1.00  0.00    -0.356 N 
ATOM      3  C   UNL     1      -9.043  -2.170  -0.764  1.00  0.00     0.224 C 
ATOM      4  O   UNL     1     -10.183  -2.325  -1.214  1.00  0.00    -0.275 OA
ATOM      5  H   UNL     1      -8.996  -4.053  -0.131  1.00  0.00     0.163 HD
BRANCH   3   6
ATOM      6  C   UNL     1      -8.246  -0.919  -1.104  1.00  0.00     0.095 C 
ATOM      7  C   UNL     1      -8.238   0.298  -0.155  1.00  0.00     0.095 C 
ATOM      8  C   UNL     1      -7.914   1.559  -0.984  1.00  0.00     0.041 C 
ATOM      9  C   UNL     1      -6.941   1.326  -2.122  1.00  0.00    -0.030 C 
ATOM     10  C   UNL     1      -6.926  -1.159  -1.826  1.00  0.00     0.041 C 
ATOM     11  C   UNL     1      -6.465   0.118  -2.470  1.00  0.00    -0.030 C 
BRANCH   7  12
ATOM     12  C   UNL     1      -7.622   0.267   1.275  1.00  0.00     0.229 C 
ATOM     13  N   UNL     1      -6.345  -0.005   1.682  1.00  0.00    -0.317 N 
ATOM     14  H   UNL     1      -6.290  -0.399   2.582  1.00  0.00     0.170 HD
ATOM     15  O   UNL     1      -8.410   0.429   2.227  1.00  0.00    -0.274 OA
BRANCH  13  16
ATOM     16  C   UNL     1      -5.122   0.168   1.073  1.00  0.00     0.109 A 
ATOM     17  C   UNL     1      -2.916   0.196   0.320  1.00  0.00     0.010 A 
ATOM     18  C   UNL     1      -3.554   1.080  -0.537  1.00  0.00     0.012 A 
ATOM     19  C   UNL     1      -3.848  -0.364   1.310  1.00  0.00     0.082 A 
ATOM     20  C   UNL     1      -3.147   1.693  -1.834  1.00  0.00     0.057 C 
ATOM     21  S   UNL     1      -4.961   1.629   0.224  1.00  0.00    -0.122 S 
BRANCH  17  22
ATOM     22  C   UNL     1      -1.469   0.031   0.206  1.00  0.00    -0.016 A 
ATOM     23  C   UNL     1       2.823  -0.190  -0.082  1.00  0.00     0.044 C 
ATOM     24  C   UNL     1       1.329  -0.113  -0.008  1.00  0.00    -0.051 A 
ATOM     25  C   UNL     1       0.544  -1.274  -0.087  1.00  0.00     0.004 A 
ATOM     26  C   UNL     1       0.705   1.120   0.183  1.00  0.00     0.004 A 
ATOM     27  C   UNL     1      -0.852  -1.203   0.007  1.00  0.00     0.009 A 
ATOM     28  C   UNL     1      -0.677   1.186   0.308  1.00  0.00     0.009 A 
ENDBRANCH  17  22
BRANCH  19  29
ATOM     29  C   UNL     1      -3.430  -1.327   2.345  1.00  0.00     0.252 C 
ATOM     30  N   UNL     1      -4.400  -1.953   3.075  1.00  0.00    -0.365 N 
ATOM     31  O   UNL     1      -2.273  -1.609   2.597  1.00  0.00    -0.269 OA
ATOM     32  H   UNL     1      -5.349  -1.755   2.905  1.00  0.00     0.159 HD
ATOM     33  H   UNL     1      -4.150  -2.603   3.770  1.00  0.00     0.159 HD
ENDBRANCH  19  29
ENDBRANCH  13  16
ENDBRANCH   7  12
ENDBRANCH   3   6
ENDBRANCH   1   2
BRANCH   1  34
ATOM     34  C   UNL     1      -7.955  -2.671   2.249  1.00  0.00     0.042 C 
BRANCH  34  35
ATOM     35  C   UNL     1      -8.500  -3.748   3.137  1.00  0.00     0.118 C 
BRANCH  35  36
ATOM     36  N   UNL     1      -7.474  -4.512   3.823  1.00  0.00    -0.352 N 
ATOM     37  C   UNL     1      -7.576  -5.308   4.949  1.00  0.00     0.251 C 
ATOM     38  H   UNL     1      -6.573  -4.455   3.429  1.00  0.00     0.163 HD
ATOM     39  O   UNL     1      -6.548  -5.781   5.428  1.00  0.00    -0.269 OA
BRANCH  37  40
ATOM     40  C   UNL     1      -8.910  -5.769   5.440  1.00  0.00     0.039 A 
ATOM     41  C   UNL     1      -8.961  -7.121   5.801  1.00  0.00     0.014 A 
ATOM     42  C   UNL     1     -10.059  -5.151   4.981  1.00  0.00     0.014 A 
ATOM     43  C   UNL     1     -10.000  -7.901   5.321  1.00  0.00     0.010 A 
ATOM     44  C   UNL     1     -10.924  -5.925   4.265  1.00  0.00     0.010 A 
ATOM     45  C   UNL     1     -10.871  -7.308   4.421  1.00  0.00    -0.014 A 
BRANCH  45  46
ATOM     46  C   UNL     1     -11.924  -7.980   3.707  1.00  0.00     0.031 A 
ATOM     47  C   UNL     1     -13.260  -7.867   4.312  1.00  0.00     0.074 A 
ATOM     48  C   UNL     1     -11.670  -8.420   2.456  1.00  0.00     0.049 A 
ATOM     49  N   UNL     1     -14.261  -8.581   3.963  1.00  0.00    -0.248 NA
ATOM     50  C   UNL     1     -13.575  -6.947   5.413  1.00  0.00     0.031 C 
ATOM     51  C   UNL     1     -12.611  -8.763   1.398  1.00  0.00     0.029 A 
ATOM     52  N   UNL     1     -10.437  -8.850   1.962  1.00  0.00    -0.354 N 
ATOM     53  C   UNL     1     -15.380  -8.015   4.527  1.00  0.00     0.074 A 
ATOM     54  C   UNL     1     -14.902  -7.066   5.495  1.00  0.00     0.031 C 
ATOM     55  C   UNL     1     -12.006  -9.597   0.531  1.00  0.00     0.029 A 
ATOM     56  C   UNL     1     -10.706  -9.927   1.094  1.00  0.00     0.049 A 
ATOM     57  H   UNL     1      -9.553  -8.474   2.178  1.00  0.00     0.167 HD
ATOM     58  C   UNL     1     -16.582  -8.327   3.981  1.00  0.00     0.031 A 
ATOM     59  C   UNL     1     -10.309 -11.190   1.443  1.00  0.00     0.031 A 
ATOM     60  C   UNL     1     -16.403  -9.318   2.928  1.00  0.00     0.049 A 
ATOM     61  C   UNL     1     -11.491 -12.102   1.704  1.00  0.00     0.074 A 
ATOM     62  C   UNL     1     -16.265  -9.211   1.555  1.00  0.00     0.029 A 
ATOM     63  N   UNL     1     -15.910 -10.562   3.286  1.00  0.00    -0.354 N 
ATOM     64  N   UNL     1     -12.675 -11.680   2.065  1.00  0.00    -0.248 NA
ATOM     65  C   UNL     1     -11.454 -13.549   1.515  1.00  0.00     0.031 C 
ATOM     66  C   UNL     1     -15.628 -10.397   1.095  1.00  0.00     0.029 A 
ATOM     67  C   UNL     1     -15.407 -11.220   2.185  1.00  0.00     0.049 A 
ATOM     68  H   UNL     1     -15.917 -10.925   4.201  1.00  0.00     0.167 HD
ATOM     69  C   UNL     1     -13.555 -12.733   2.087  1.00  0.00     0.074 A 
ATOM     70  C   UNL     1     -12.734 -13.886   1.761  1.00  0.00     0.031 C 
ATOM     71  C   UNL     1     -14.889 -12.570   2.341  1.00  0.00     0.031 A 
BRANCH  58  72
ATOM     72  C   UNL     1     -17.870  -7.597   4.214  1.00  0.00    -0.014 A 
ATOM     73  C   UNL     1     -18.878  -7.704   3.237  1.00  0.00     0.009 A 
ATOM     74  C   UNL     1     -18.162  -6.795   5.327  1.00  0.00     0.009 A 
ATOM     75  C   UNL     1     -20.096  -7.029   3.345  1.00  0.00     0.001 A 
ATOM     76  C   UNL     1     -19.376  -6.101   5.435  1.00  0.00     0.001 A 
ATOM     77  C   UNL     1     -20.343  -6.219   4.444  1.00  0.00     0.000 A 
ENDBRANCH  58  72
BRANCH  59  78
ATOM     78  C   UNL     1      -9.003 -11.172   2.179  1.00  0.00    -0.014 A 
ATOM     79  C   UNL     1      -7.877 -10.718   1.452  1.00  0.00     0.009 A 
ATOM     80  C   UNL     1      -8.974 -11.067   3.577  1.00  0.00     0.009 A 
ATOM     81  C   UNL     1      -6.868  -9.980   2.081  1.00  0.00     0.001 A 
ATOM     82  C   UNL     1      -7.937 -10.358   4.204  1.00  0.00     0.001 A 
ATOM     83  C   UNL     1      -6.927  -9.758   3.452  1.00  0.00     0.000 A 
ENDBRANCH  59  78
BRANCH  71  84
ATOM     84  C   UNL     1     -15.889 -13.642   2.729  1.00  0.00    -0.014 A 
ATOM     85  C   UNL     1     -15.562 -14.959   3.058  1.00  0.00     0.009 A 
ATOM     86  C   UNL     1     -17.247 -13.273   2.923  1.00  0.00     0.009 A 
ATOM     87  C   UNL     1     -16.532 -15.855   3.531  1.00  0.00     0.001 A 
ATOM     88  C   UNL     1     -18.200 -14.137   3.459  1.00  0.00     0.001 A 
ATOM     89  C   UNL     1     -17.843 -15.440   3.752  1.00  0.00     0.000 A 
ENDBRANCH  71  84
ENDBRANCH  45  46
ENDBRANCH  37  40
ENDBRANCH  35  36
ENDBRANCH  34  35
ENDBRANCH   1  34
TORSDOF 14
