REMARK SMILES Cc1ccc(NC(=O)C[C@H]([NH2+]Cc2cccnc2)C(=O)NCCCNC(=O)c2ccc(-c3c4nc(c(-c5ccccc5)c5ccc([nH]5)c(-c5ccccc5)c5nc(c(-c6ccccc6)c6ccc3[nH]6)C=C5)C=C4)cc2)cc1Cl
REMARK SMILES IDX 22 1 21 2 19 3 20 4 10 6 9 7 7 8 6 9 8 11 5 12 1 13 2 14
REMARK SMILES IDX 3 15 77 16 4 17 76 18 78 19 11 20 12 23 13 24 14 25 18 26
REMARK SMILES IDX 15 27 17 28 16 29 23 30 24 31 25 32 26 33 27 35 28 36 29 37
REMARK SMILES IDX 75 38 30 39 74 40 31 41 32 42 33 43 68 44 34 45 73 46 67 47
REMARK SMILES IDX 69 48 35 49 72 50 66 51 65 52 36 54 58 55 43 56 57 57 44 58
REMARK SMILES IDX 47 59 56 60 70 61 45 62 46 63 55 65 71 66 48 67 37 68 38 69
REMARK SMILES IDX 42 70 39 71 41 72 40 73 59 74 60 75 64 76 61 77 63 78 62 79
REMARK SMILES IDX 49 80 50 81 54 82 51 83 53 84 52 85
REMARK H PARENT 21 5 6 10 11 21 11 22 25 34 69 53 47 64
REMARK Flexibility Score: inf
ROOT
ATOM      1  C   UNL     1       2.608  -1.942  -0.006  1.00  0.00     0.118 C 
ENDROOT
BRANCH   1   2
ATOM      2  N   UNL     1       2.180  -2.937  -0.997  1.00  0.00    -0.351 N 
ATOM      3  C   UNL     1       1.019  -3.331  -1.586  1.00  0.00     0.278 C 
ATOM      4  O   UNL     1       1.139  -4.286  -2.373  1.00  0.00    -0.268 OA
ATOM      5  H   UNL     1       2.944  -3.464  -1.327  1.00  0.00     0.163 HD
BRANCH   3   6
ATOM      6  C   UNL     1      -0.424  -2.772  -1.335  1.00  0.00     0.282 C 
BRANCH   6   7
ATOM      7  C   UNL     1      -0.524  -1.378  -0.762  1.00  0.00     0.175 C 
BRANCH   7   8
ATOM      8  C   UNL     1      -0.683  -0.914   0.677  1.00  0.00     0.230 C 
ATOM      9  N   UNL     1      -0.615  -1.533   1.870  1.00  0.00    -0.326 N 
ATOM     10  H   UNL     1      -0.807  -0.885   2.586  1.00  0.00     0.169 HD
ATOM     11  O   UNL     1      -0.922   0.307   0.796  1.00  0.00    -0.274 OA
BRANCH   9  12
ATOM     12  C   UNL     1      -0.362  -2.792   2.436  1.00  0.00     0.042 A 
ATOM     13  C   UNL     1       0.246  -6.589   4.465  1.00  0.00     0.046 C 
ATOM     14  C   UNL     1       0.072  -5.273   3.768  1.00  0.00    -0.032 A 
ATOM     15  C   UNL     1      -0.327  -4.136   4.478  1.00  0.00     0.007 A 
ATOM     16  C   UNL     1       0.272  -5.146   2.397  1.00  0.00     0.046 A 
ATOM     17  C   UNL     1      -0.541  -2.915   3.819  1.00  0.00     0.026 A 
ATOM     18  C   UNL     1       0.082  -3.914   1.766  1.00  0.00     0.047 A 
ATOM     19  Cl  UNL     1       0.781  -6.477   1.416  1.00  0.00    -0.084 Cl
ENDBRANCH   9  12
ENDBRANCH   7   8
ENDBRANCH   6   7
BRANCH   6  20
ATOM     20  N   UNL     1      -1.279  -3.842  -0.789  1.00  0.00    -0.332 N 
ATOM     21  H   UNL     1      -0.885  -4.109   0.113  1.00  0.00     0.347 HD
ATOM     22  H   UNL     1      -1.273  -4.556  -1.518  1.00  0.00     0.347 HD
BRANCH  20  23
ATOM     23  C   UNL     1      -2.694  -3.572  -0.575  1.00  0.00     0.299 C 
BRANCH  23  24
ATOM     24  C   UNL     1      -3.163  -4.218   0.709  1.00  0.00     0.024 A 
ATOM     25  C   UNL     1      -3.106  -5.602   0.913  1.00  0.00     0.013 A 
ATOM     26  C   UNL     1      -3.615  -3.446   1.778  1.00  0.00     0.120 A 
ATOM     27  C   UNL     1      -3.459  -6.138   2.151  1.00  0.00     0.021 A 
ATOM     28  N   UNL     1      -3.974  -3.938   2.989  1.00  0.00    -0.264 NA
ATOM     29  C   UNL     1      -3.874  -5.273   3.149  1.00  0.00     0.111 A 
ENDBRANCH  23  24
ENDBRANCH  20  23
ENDBRANCH   6  20
ENDBRANCH   3   6
ENDBRANCH   1   2
BRANCH   1  30
ATOM     30  C   UNL     1       2.848  -2.560   1.372  1.00  0.00     0.042 C 
BRANCH  30  31
ATOM     31  C   UNL     1       4.272  -2.545   1.908  1.00  0.00     0.118 C 
BRANCH  31  32
ATOM     32  N   UNL     1       4.669  -1.257   2.450  1.00  0.00    -0.352 N 
ATOM     33  C   UNL     1       5.015  -0.849   3.715  1.00  0.00     0.251 C 
ATOM     34  H   UNL     1       4.696  -0.537   1.780  1.00  0.00     0.163 HD
ATOM     35  O   UNL     1       5.182   0.365   3.888  1.00  0.00    -0.269 OA
BRANCH  33  36
ATOM     36  C   UNL     1       5.190  -1.762   4.882  1.00  0.00     0.039 A 
ATOM     37  C   UNL     1       5.029  -1.217   6.166  1.00  0.00     0.014 A 
ATOM     38  C   UNL     1       5.594  -3.095   4.782  1.00  0.00     0.014 A 
ATOM     39  C   UNL     1       5.248  -1.991   7.313  1.00  0.00     0.010 A 
ATOM     40  C   UNL     1       5.712  -3.898   5.925  1.00  0.00     0.010 A 
ATOM     41  C   UNL     1       5.573  -3.351   7.208  1.00  0.00    -0.014 A 
BRANCH  41  42
ATOM     42  C   UNL     1       5.819  -4.180   8.424  1.00  0.00     0.031 A 
ATOM     43  C   UNL     1       7.168  -4.816   8.666  1.00  0.00     0.074 A 
ATOM     44  C   UNL     1       4.828  -4.384   9.316  1.00  0.00     0.049 A 
ATOM     45  N   UNL     1       7.567  -5.557   9.672  1.00  0.00    -0.248 NA
ATOM     46  C   UNL     1       8.197  -4.616   7.632  1.00  0.00     0.031 C 
ATOM     47  C   UNL     1       3.461  -3.874   9.196  1.00  0.00     0.029 A 
ATOM     48  N   UNL     1       4.822  -5.069  10.507  1.00  0.00    -0.354 N 
ATOM     49  C   UNL     1       8.876  -5.926   9.379  1.00  0.00     0.074 A 
ATOM     50  C   UNL     1       9.186  -5.374   8.079  1.00  0.00     0.031 C 
ATOM     51  C   UNL     1       2.763  -4.224  10.289  1.00  0.00     0.029 A 
ATOM     52  C   UNL     1       3.620  -5.010  11.171  1.00  0.00     0.049 A 
ATOM     53  H   UNL     1       5.605  -5.556  10.853  1.00  0.00     0.167 HD
ATOM     54  C   UNL     1       9.754  -6.638  10.128  1.00  0.00     0.031 A 
ATOM     55  C   UNL     1       3.248  -5.519  12.361  1.00  0.00     0.031 A 
ATOM     56  C   UNL     1       9.466  -7.171  11.433  1.00  0.00     0.049 A 
ATOM     57  C   UNL     1       4.247  -6.281  13.187  1.00  0.00     0.074 A 
ATOM     58  C   UNL     1      10.310  -7.857  12.291  1.00  0.00     0.029 A 
ATOM     59  N   UNL     1       8.242  -7.072  12.073  1.00  0.00    -0.354 N 
ATOM     60  N   UNL     1       5.498  -6.563  12.920  1.00  0.00    -0.248 NA
ATOM     61  C   UNL     1       3.782  -6.777  14.492  1.00  0.00     0.031 C 
ATOM     62  C   UNL     1       9.582  -8.208  13.434  1.00  0.00     0.029 A 
ATOM     63  C   UNL     1       8.302  -7.695  13.308  1.00  0.00     0.049 A 
ATOM     64  H   UNL     1       7.446  -6.625  11.704  1.00  0.00     0.167 HD
ATOM     65  C   UNL     1       5.978  -7.243  14.032  1.00  0.00     0.074 A 
ATOM     66  C   UNL     1       4.889  -7.312  14.985  1.00  0.00     0.031 C 
ATOM     67  C   UNL     1       7.212  -7.762  14.246  1.00  0.00     0.031 A 
BRANCH  54  68
ATOM     68  C   UNL     1      11.121  -6.883   9.546  1.00  0.00    -0.014 A 
ATOM     69  C   UNL     1      12.049  -5.838   9.401  1.00  0.00     0.009 A 
ATOM     70  C   UNL     1      11.498  -8.180   9.165  1.00  0.00     0.009 A 
ATOM     71  C   UNL     1      13.309  -6.080   8.849  1.00  0.00     0.001 A 
ATOM     72  C   UNL     1      12.770  -8.425   8.642  1.00  0.00     0.001 A 
ATOM     73  C   UNL     1      13.670  -7.373   8.474  1.00  0.00     0.000 A 
ENDBRANCH  54  68
BRANCH  55  74
ATOM     74  C   UNL     1       1.870  -5.290  12.870  1.00  0.00    -0.014 A 
ATOM     75  C   UNL     1       1.645  -4.420  13.949  1.00  0.00     0.009 A 
ATOM     76  C   UNL     1       0.774  -5.945  12.288  1.00  0.00     0.009 A 
ATOM     77  C   UNL     1       0.356  -4.232  14.451  1.00  0.00     0.001 A 
ATOM     78  C   UNL     1      -0.518  -5.733  12.774  1.00  0.00     0.001 A 
ATOM     79  C   UNL     1      -0.725  -4.885  13.861  1.00  0.00     0.000 A 
ENDBRANCH  55  74
BRANCH  67  80
ATOM     80  C   UNL     1       7.457  -8.418  15.576  1.00  0.00    -0.014 A 
ATOM     81  C   UNL     1       6.876  -9.654  15.900  1.00  0.00     0.009 A 
ATOM     82  C   UNL     1       8.293  -7.793  16.515  1.00  0.00     0.009 A 
ATOM     83  C   UNL     1       7.091 -10.229  17.154  1.00  0.00     0.001 A 
ATOM     84  C   UNL     1       8.530  -8.384  17.756  1.00  0.00     0.001 A 
ATOM     85  C   UNL     1       7.920  -9.595  18.080  1.00  0.00     0.000 A 
ENDBRANCH  67  80
ENDBRANCH  41  42
ENDBRANCH  33  36
ENDBRANCH  31  32
ENDBRANCH  30  31
ENDBRANCH   1  30
TORSDOF 16
