REMARK SMILES Cc1c(CC(=O)N[C@H](CO)C(=O)NCCCNC(=O)c2ccc(-c3c4nc(c(-c5ccccc5)c5ccc([nH]5)c(-c5ccccc5)c5nc(c(-c6ccccc6)c6ccc3[nH]6)C=C5)C=C4)cc2)cc(-c2ccc(S(C)(=O)=O)cc2)n1-c1cccc(F)c1
REMARK SMILES IDX 11 1 12 2 13 3 8 5 7 6 5 7 6 8 4 10 3 11 1 12 2 13 80 14
REMARK SMILES IDX 68 15 69 16 81 17 82 18 87 19 83 20 85 21 84 22 86 23 70 24
REMARK SMILES IDX 71 25 79 26 72 27 78 28 73 29 74 30 75 31 76 32 77 33 9 34
REMARK SMILES IDX 10 35 14 37 15 38 16 39 17 40 18 41 19 43 20 44 21 45 67 46
REMARK SMILES IDX 22 47 66 48 23 49 24 50 25 51 60 52 26 53 65 54 59 55 61 56
REMARK SMILES IDX 27 57 64 58 58 59 57 60 28 62 50 63 35 64 49 65 36 66 39 67
REMARK SMILES IDX 48 68 62 69 37 70 38 71 47 73 63 74 40 75 29 76 30 77 34 78
REMARK SMILES IDX 31 79 33 80 32 81 51 82 52 83 56 84 53 85 55 86 54 87 41 88
REMARK SMILES IDX 42 89 46 90 43 91 45 92 44 93
REMARK H PARENT 13 4 7 9 10 36 17 42 61 61 39 72
REMARK Flexibility Score: inf
ROOT
ATOM      1  C   UNL     1       4.784  -3.517  -0.647  1.00  0.00     0.244 C 
ATOM      2  O   UNL     1       4.745  -4.448   0.163  1.00  0.00    -0.273 OA
ATOM      3  N   UNL     1       6.001  -2.948  -0.881  1.00  0.00    -0.354 N 
ATOM      4  H   UNL     1       6.746  -3.461  -0.492  1.00  0.00     0.163 HD
ENDROOT
BRANCH   1   5
ATOM      5  C   UNL     1       3.488  -2.951  -1.219  1.00  0.00     0.197 C 
BRANCH   5   6
ATOM      6  N   UNL     1       3.616  -2.651  -2.650  1.00  0.00    -0.342 N 
ATOM      7  C   UNL     1       3.769  -3.487  -3.718  1.00  0.00     0.225 C 
ATOM      8  O   UNL     1       3.730  -2.948  -4.830  1.00  0.00    -0.275 OA
ATOM      9  H   UNL     1       3.586  -1.693  -2.875  1.00  0.00     0.164 HD
BRANCH   7  10
ATOM     10  C   UNL     1       3.916  -5.003  -3.594  1.00  0.00     0.137 C 
BRANCH  10  11
ATOM     11  C   UNL     1       5.244  -5.545  -3.116  1.00  0.00    -0.017 A 
ATOM     12  C   UNL     1       6.991  -4.373  -4.665  1.00  0.00     0.065 C 
ATOM     13  C   UNL     1       6.532  -5.316  -3.595  1.00  0.00     0.024 A 
ATOM     14  N   UNL     1       7.428  -6.105  -2.852  1.00  0.00    -0.313 N 
ATOM     15  C   UNL     1       5.397  -6.419  -1.994  1.00  0.00     0.033 A 
ATOM     16  C   UNL     1       6.746  -6.548  -1.711  1.00  0.00     0.053 A 
BRANCH  14  17
ATOM     17  C   UNL     1       8.833  -5.926  -2.862  1.00  0.00     0.049 A 
ATOM     18  C   UNL     1       9.744  -6.780  -3.482  1.00  0.00     0.027 A 
ATOM     19  C   UNL     1       9.282  -4.892  -2.070  1.00  0.00     0.065 A 
ATOM     20  C   UNL     1      11.123  -6.554  -3.297  1.00  0.00     0.005 A 
ATOM     21  C   UNL     1      10.631  -4.700  -1.897  1.00  0.00     0.125 A 
ATOM     22  C   UNL     1      11.567  -5.509  -2.496  1.00  0.00     0.039 A 
ATOM     23  F   UNL     1      11.052  -3.736  -1.097  1.00  0.00    -0.207 F 
ENDBRANCH  14  17
BRANCH  16  24
ATOM     24  C   UNL     1       7.386  -6.968  -0.441  1.00  0.00    -0.001 A 
ATOM     25  C   UNL     1       7.589  -6.053   0.613  1.00  0.00     0.011 A 
ATOM     26  C   UNL     1       7.771  -8.290  -0.229  1.00  0.00     0.011 A 
ATOM     27  C   UNL     1       8.152  -6.433   1.842  1.00  0.00     0.021 A 
ATOM     28  C   UNL     1       8.325  -8.685   1.002  1.00  0.00     0.021 A 
ATOM     29  C   UNL     1       8.517  -7.761   2.036  1.00  0.00     0.067 A 
BRANCH  29  30
ATOM     30  S   UNL     1       8.943  -8.340   3.674  1.00  0.00     0.175 S 
ATOM     31  C   UNL     1      10.704  -8.282   3.817  1.00  0.00     0.163 C 
ATOM     32  O   UNL     1       8.387  -7.417   4.625  1.00  0.00    -0.224 OA
ATOM     33  O   UNL     1       8.572  -9.758   3.713  1.00  0.00    -0.224 OA
ENDBRANCH  29  30
ENDBRANCH  16  24
ENDBRANCH  10  11
ENDBRANCH   7  10
ENDBRANCH   5   6
BRANCH   5  34
ATOM     34  C   UNL     1       3.150  -1.707  -0.366  1.00  0.00     0.191 C 
BRANCH  34  35
ATOM     35  O   UNL     1       2.163  -1.993   0.624  1.00  0.00    -0.394 OA
ATOM     36  H   UNL     1       1.343  -2.277   0.191  1.00  0.00     0.210 HD
ENDBRANCH  34  35
ENDBRANCH   5  34
ENDBRANCH   1   5
BRANCH   3  37
ATOM     37  C   UNL     1       6.440  -1.751  -1.580  1.00  0.00     0.117 C 
BRANCH  37  38
ATOM     38  C   UNL     1       7.640  -1.048  -0.868  1.00  0.00     0.042 C 
BRANCH  38  39
ATOM     39  C   UNL     1       8.848  -1.976  -0.596  1.00  0.00     0.118 C 
BRANCH  39  40
ATOM     40  N   UNL     1      10.119  -1.392  -0.167  1.00  0.00    -0.352 N 
ATOM     41  C   UNL     1      11.187  -1.961   0.551  1.00  0.00     0.251 C 
ATOM     42  H   UNL     1      10.247  -0.450  -0.422  1.00  0.00     0.163 HD
ATOM     43  O   UNL     1      12.319  -1.610   0.195  1.00  0.00    -0.269 OA
BRANCH  41  44
ATOM     44  C   UNL     1      11.084  -2.834   1.807  1.00  0.00     0.039 A 
ATOM     45  C   UNL     1      11.492  -2.244   3.000  1.00  0.00     0.014 A 
ATOM     46  C   UNL     1      11.030  -4.231   1.900  1.00  0.00     0.014 A 
ATOM     47  C   UNL     1      11.591  -2.964   4.260  1.00  0.00     0.010 A 
ATOM     48  C   UNL     1      11.232  -4.966   3.176  1.00  0.00     0.010 A 
ATOM     49  C   UNL     1      11.411  -4.374   4.457  1.00  0.00    -0.014 A 
BRANCH  49  50
ATOM     50  C   UNL     1      12.078  -5.038   5.862  1.00  0.00     0.031 A 
ATOM     51  C   UNL     1      13.484  -4.611   5.678  1.00  0.00     0.074 A 
ATOM     52  C   UNL     1      11.923  -5.880   6.999  1.00  0.00     0.049 A 
ATOM     53  N   UNL     1      14.148  -5.099   4.670  1.00  0.00    -0.248 NA
ATOM     54  C   UNL     1      14.019  -3.378   6.250  1.00  0.00     0.031 C 
ATOM     55  C   UNL     1      10.801  -6.777   7.360  1.00  0.00     0.029 A 
ATOM     56  N   UNL     1      12.764  -6.144   8.166  1.00  0.00    -0.354 N 
ATOM     57  C   UNL     1      15.319  -4.381   4.604  1.00  0.00     0.074 A 
ATOM     58  C   UNL     1      15.066  -3.206   5.434  1.00  0.00     0.031 C 
ATOM     59  C   UNL     1      10.924  -7.310   8.618  1.00  0.00     0.029 A 
ATOM     60  C   UNL     1      12.156  -6.879   9.280  1.00  0.00     0.049 A 
ATOM     61  H   UNL     1      13.700  -5.841   8.202  1.00  0.00     0.167 HD
ATOM     62  C   UNL     1      16.452  -5.141   4.573  1.00  0.00     0.031 A 
ATOM     63  C   UNL     1      12.603  -7.191  10.581  1.00  0.00     0.031 A 
ATOM     64  C   UNL     1      16.982  -5.348   5.898  1.00  0.00     0.049 A 
ATOM     65  C   UNL     1      14.064  -7.196  10.504  1.00  0.00     0.074 A 
ATOM     66  C   UNL     1      17.134  -4.505   6.982  1.00  0.00     0.029 A 
ATOM     67  N   UNL     1      16.971  -6.635   6.395  1.00  0.00    -0.354 N 
ATOM     68  N   UNL     1      14.704  -8.227  10.045  1.00  0.00    -0.248 NA
ATOM     69  C   UNL     1      14.892  -6.136  11.064  1.00  0.00     0.031 C 
ATOM     70  C   UNL     1      16.626  -5.247   8.064  1.00  0.00     0.029 A 
ATOM     71  C   UNL     1      16.652  -6.595   7.734  1.00  0.00     0.049 A 
ATOM     72  H   UNL     1      17.160  -7.450   5.877  1.00  0.00     0.167 HD
ATOM     73  C   UNL     1      15.904  -7.686   9.709  1.00  0.00     0.074 A 
ATOM     74  C   UNL     1      16.073  -6.548  10.598  1.00  0.00     0.031 C 
ATOM     75  C   UNL     1      16.245  -7.803   8.401  1.00  0.00     0.031 A 
BRANCH  62  76
ATOM     76  C   UNL     1      16.430  -6.216   3.520  1.00  0.00    -0.014 A 
ATOM     77  C   UNL     1      17.298  -6.115   2.431  1.00  0.00     0.009 A 
ATOM     78  C   UNL     1      15.503  -7.281   3.542  1.00  0.00     0.009 A 
ATOM     79  C   UNL     1      17.212  -7.030   1.375  1.00  0.00     0.001 A 
ATOM     80  C   UNL     1      15.396  -8.172   2.477  1.00  0.00     0.001 A 
ATOM     81  C   UNL     1      16.252  -8.044   1.391  1.00  0.00     0.000 A 
ENDBRANCH  62  76
BRANCH  63  82
ATOM     82  C   UNL     1      12.257  -7.748  12.029  1.00  0.00    -0.014 A 
ATOM     83  C   UNL     1      13.253  -8.488  12.775  1.00  0.00     0.009 A 
ATOM     84  C   UNL     1      11.235  -7.237  12.840  1.00  0.00     0.009 A 
ATOM     85  C   UNL     1      13.298  -8.593  14.187  1.00  0.00     0.001 A 
ATOM     86  C   UNL     1      11.257  -7.376  14.267  1.00  0.00     0.001 A 
ATOM     87  C   UNL     1      12.300  -8.014  14.942  1.00  0.00     0.000 A 
ENDBRANCH  63  82
BRANCH  75  88
ATOM     88  C   UNL     1      15.942  -9.125   7.719  1.00  0.00    -0.014 A 
ATOM     89  C   UNL     1      14.694  -9.790   7.742  1.00  0.00     0.009 A 
ATOM     90  C   UNL     1      17.001  -9.782   7.082  1.00  0.00     0.009 A 
ATOM     91  C   UNL     1      14.535 -11.078   7.213  1.00  0.00     0.001 A 
ATOM     92  C   UNL     1      16.834 -11.050   6.513  1.00  0.00     0.001 A 
ATOM     93  C   UNL     1      15.608 -11.706   6.595  1.00  0.00     0.000 A 
ENDBRANCH  75  88
ENDBRANCH  49  50
ENDBRANCH  41  44
ENDBRANCH  39  40
ENDBRANCH  38  39
ENDBRANCH  37  38
ENDBRANCH   3  37
TORSDOF 18
