REMARK SMILES CCc1cc(C(=O)c2[nH]c3cc(Cl)ccc3c2CC(=O)NCCCNC(=O)c2ccc(-c3c4nc(c(-c5ccccc5)c5ccc([nH]5)c(-c5ccccc5)c5nc(c(-c6ccccc6)c6ccc3[nH]6)C=C5)C=C4)cc2)ncc1Cl
REMARK SMILES IDX 22 1 21 2 19 3 20 4 18 6 17 7 8 8 9 9 10 10 16 12 11 13
REMARK SMILES IDX 15 14 12 15 14 16 13 17 6 18 7 19 5 20 3 21 4 22 78 23 77 24
REMARK SMILES IDX 79 25 76 26 2 27 1 28 23 29 24 30 25 31 26 32 27 34 28 35
REMARK SMILES IDX 29 36 75 37 30 38 74 39 31 40 32 41 33 42 68 43 34 44 73 45
REMARK SMILES IDX 67 46 69 47 35 48 72 49 66 50 65 51 36 53 58 54 43 55 57 56
REMARK SMILES IDX 44 57 47 58 56 59 70 60 45 61 46 62 55 64 71 65 48 66 37 67
REMARK SMILES IDX 38 68 42 69 39 70 41 71 40 72 59 73 60 74 64 75 61 76 63 77
REMARK SMILES IDX 62 78 49 79 50 80 54 81 51 82 53 83 52 84
REMARK H PARENT 21 5 9 11 25 33 69 52 47 63
REMARK Flexibility Score: inf
ROOT
ATOM      1  C   UNL     1       5.741  -1.281   7.272  1.00  0.00     0.117 C 
ENDROOT
BRANCH   1   2
ATOM      2  N   UNL     1       5.594  -2.503   6.501  1.00  0.00    -0.356 N 
ATOM      3  C   UNL     1       5.437  -2.669   5.157  1.00  0.00     0.224 C 
ATOM      4  O   UNL     1       5.410  -3.821   4.703  1.00  0.00    -0.275 OA
ATOM      5  H   UNL     1       5.611  -3.335   7.027  1.00  0.00     0.163 HD
BRANCH   3   6
ATOM      6  C   UNL     1       5.363  -1.472   4.231  1.00  0.00     0.138 C 
BRANCH   6   7
ATOM      7  C   UNL     1       4.093  -0.676   4.336  1.00  0.00    -0.002 A 
ATOM      8  C   UNL     1       2.783  -1.144   4.320  1.00  0.00     0.093 A 
ATOM      9  N   UNL     1       1.950  -0.064   4.493  1.00  0.00    -0.351 N 
ATOM     10  C   UNL     1       2.673   1.101   4.546  1.00  0.00     0.048 A 
ATOM     11  H   UNL     1       0.970  -0.119   4.568  1.00  0.00     0.167 HD
ATOM     12  C   UNL     1       4.019   0.754   4.450  1.00  0.00     0.004 A 
ATOM     13  C   UNL     1       2.233   2.422   4.692  1.00  0.00     0.047 A 
ATOM     14  C   UNL     1       4.982   1.785   4.500  1.00  0.00     0.012 A 
ATOM     15  C   UNL     1       3.210   3.420   4.741  1.00  0.00     0.043 A 
ATOM     16  C   UNL     1       4.564   3.114   4.647  1.00  0.00     0.021 A 
ATOM     17  Cl  UNL     1       2.722   5.061   4.920  1.00  0.00    -0.084 Cl
BRANCH   8  18
ATOM     18  C   UNL     1       2.268  -2.503   4.240  1.00  0.00     0.227 C 
ATOM     19  O   UNL     1       2.192  -3.201   5.235  1.00  0.00    -0.285 OA
BRANCH  18  20
ATOM     20  C   UNL     1       1.717  -2.966   2.906  1.00  0.00     0.113 A 
ATOM     21  C   UNL     1       1.185  -2.606   0.561  1.00  0.00    -0.026 A 
ATOM     22  C   UNL     1       1.791  -2.174   1.755  1.00  0.00     0.037 A 
ATOM     23  C   UNL     1       0.569  -3.867   0.570  1.00  0.00     0.062 A 
ATOM     24  C   UNL     1       0.552  -4.596   1.753  1.00  0.00     0.132 A 
ATOM     25  Cl  UNL     1      -0.168  -4.549  -0.832  1.00  0.00    -0.082 Cl
ATOM     26  N   UNL     1       1.092  -4.169   2.918  1.00  0.00    -0.251 NA
BRANCH  21  27
ATOM     27  C   UNL     1       1.205  -1.771  -0.703  1.00  0.00     0.034 C 
ATOM     28  C   UNL     1       1.616  -0.310  -0.558  1.00  0.00     0.009 C 
ENDBRANCH  21  27
ENDBRANCH  18  20
ENDBRANCH   8  18
ENDBRANCH   6   7
ENDBRANCH   3   6
ENDBRANCH   1   2
BRANCH   1  29
ATOM     29  C   UNL     1       4.434  -0.783   7.887  1.00  0.00     0.042 C 
BRANCH  29  30
ATOM     30  C   UNL     1       3.759  -1.760   8.847  1.00  0.00     0.118 C 
BRANCH  30  31
ATOM     31  N   UNL     1       4.513  -1.936  10.079  1.00  0.00    -0.352 N 
ATOM     32  C   UNL     1       4.145  -1.709  11.379  1.00  0.00     0.251 C 
ATOM     33  H   UNL     1       5.432  -2.270   9.960  1.00  0.00     0.163 HD
ATOM     34  O   UNL     1       4.999  -1.750  12.267  1.00  0.00    -0.269 OA
BRANCH  32  35
ATOM     35  C   UNL     1       2.744  -1.403  11.743  1.00  0.00     0.039 A 
ATOM     36  C   UNL     1       2.503  -0.386  12.674  1.00  0.00     0.014 A 
ATOM     37  C   UNL     1       1.676  -2.161  11.250  1.00  0.00     0.014 A 
ATOM     38  C   UNL     1       1.196  -0.099  13.077  1.00  0.00     0.010 A 
ATOM     39  C   UNL     1       0.368  -1.859  11.637  1.00  0.00     0.010 A 
ATOM     40  C   UNL     1       0.118  -0.827  12.554  1.00  0.00    -0.014 A 
BRANCH  40  41
ATOM     41  C   UNL     1      -1.271  -0.539  12.982  1.00  0.00     0.031 A 
ATOM     42  C   UNL     1      -1.970  -1.452  13.947  1.00  0.00     0.074 A 
ATOM     43  C   UNL     1      -1.920   0.533  12.494  1.00  0.00     0.049 A 
ATOM     44  N   UNL     1      -3.226  -1.454  14.315  1.00  0.00    -0.248 NA
ATOM     45  C   UNL     1      -1.151  -2.502  14.572  1.00  0.00     0.031 C 
ATOM     46  C   UNL     1      -1.364   1.510  11.558  1.00  0.00     0.029 A 
ATOM     47  N   UNL     1      -3.197   0.976  12.726  1.00  0.00    -0.354 N 
ATOM     48  C   UNL     1      -3.362  -2.534  15.176  1.00  0.00     0.074 A 
ATOM     49  C   UNL     1      -2.053  -3.141  15.306  1.00  0.00     0.031 C 
ATOM     50  C   UNL     1      -2.293   2.449  11.306  1.00  0.00     0.029 A 
ATOM     51  C   UNL     1      -3.509   2.126  12.046  1.00  0.00     0.049 A 
ATOM     52  H   UNL     1      -3.829   0.513  13.322  1.00  0.00     0.167 HD
ATOM     53  C   UNL     1      -4.479  -2.991  15.788  1.00  0.00     0.031 A 
ATOM     54  C   UNL     1      -4.651   2.836  12.015  1.00  0.00     0.031 A 
ATOM     55  C   UNL     1      -5.776  -2.382  15.691  1.00  0.00     0.049 A 
ATOM     56  C   UNL     1      -5.847   2.367  12.788  1.00  0.00     0.074 A 
ATOM     57  C   UNL     1      -6.984  -2.824  16.204  1.00  0.00     0.029 A 
ATOM     58  N   UNL     1      -6.026  -1.174  15.063  1.00  0.00    -0.354 N 
ATOM     59  N   UNL     1      -5.989   1.280  13.504  1.00  0.00    -0.248 NA
ATOM     60  C   UNL     1      -7.042   3.222  12.739  1.00  0.00     0.031 C 
ATOM     61  C   UNL     1      -7.962  -1.866  15.909  1.00  0.00     0.029 A 
ATOM     62  C   UNL     1      -7.359  -0.834  15.209  1.00  0.00     0.049 A 
ATOM     63  H   UNL     1      -5.355  -0.636  14.584  1.00  0.00     0.167 HD
ATOM     64  C   UNL     1      -7.295   1.306  13.970  1.00  0.00     0.074 A 
ATOM     65  C   UNL     1      -7.899   2.526  13.476  1.00  0.00     0.031 C 
ATOM     66  C   UNL     1      -7.942   0.385  14.723  1.00  0.00     0.031 A 
BRANCH  53  67
ATOM     67  C   UNL     1      -4.338  -4.240  16.601  1.00  0.00    -0.014 A 
ATOM     68  C   UNL     1      -4.056  -4.171  17.972  1.00  0.00     0.009 A 
ATOM     69  C   UNL     1      -4.499  -5.494  15.992  1.00  0.00     0.009 A 
ATOM     70  C   UNL     1      -3.924  -5.342  18.720  1.00  0.00     0.001 A 
ATOM     71  C   UNL     1      -4.367  -6.662  16.743  1.00  0.00     0.001 A 
ATOM     72  C   UNL     1      -4.078  -6.585  18.105  1.00  0.00     0.000 A 
ENDBRANCH  53  67
BRANCH  54  73
ATOM     73  C   UNL     1      -4.725   4.070  11.202  1.00  0.00    -0.014 A 
ATOM     74  C   UNL     1      -4.350   5.302  11.755  1.00  0.00     0.009 A 
ATOM     75  C   UNL     1      -5.169   4.017   9.874  1.00  0.00     0.009 A 
ATOM     76  C   UNL     1      -4.428   6.467  10.991  1.00  0.00     0.001 A 
ATOM     77  C   UNL     1      -5.245   5.184   9.113  1.00  0.00     0.001 A 
ATOM     78  C   UNL     1      -4.875   6.406   9.672  1.00  0.00     0.000 A 
ENDBRANCH  54  73
BRANCH  66  79
ATOM     79  C   UNL     1      -9.377   0.664  15.044  1.00  0.00    -0.014 A 
ATOM     80  C   UNL     1     -10.393   0.177  14.207  1.00  0.00     0.009 A 
ATOM     81  C   UNL     1      -9.721   1.400  16.186  1.00  0.00     0.009 A 
ATOM     82  C   UNL     1     -11.732   0.434  14.505  1.00  0.00     0.001 A 
ATOM     83  C   UNL     1     -11.062   1.657  16.479  1.00  0.00     0.001 A 
ATOM     84  C   UNL     1     -12.065   1.175  15.638  1.00  0.00     0.000 A 
ENDBRANCH  66  79
ENDBRANCH  40  41
ENDBRANCH  32  35
ENDBRANCH  30  31
ENDBRANCH  29  30
ENDBRANCH   1  29
TORSDOF 14
