REMARK SMILES C[C@H]1CC[C@@](NC(=O)C(F)(F)F)(C(=O)NCCCNC(=O)c2ccc(-c3c4nc(c(-c5ccccc5)c5ccc([nH]5)c(-c5ccccc5)c5nc(c(-c6ccccc6)c6ccc3[nH]6)C=C5)C=C4)cc2)CC1
REMARK SMILES IDX 17 1 16 2 15 3 13 4 14 5 5 7 1 8 2 9 71 10 3 11 70 12 4 13
REMARK SMILES IDX 6 14 7 15 8 17 9 18 10 19 11 20 12 21 18 22 19 23 20 24
REMARK SMILES IDX 21 26 22 27 23 28 69 29 24 30 68 31 25 32 26 33 27 34 62 35
REMARK SMILES IDX 28 36 67 37 61 38 63 39 29 40 66 41 60 42 59 43 30 45 52 46
REMARK SMILES IDX 37 47 51 48 38 49 41 50 50 51 64 52 39 53 40 54 49 56 65 57
REMARK SMILES IDX 42 58 31 59 32 60 36 61 33 62 35 63 34 64 53 65 54 66 58 67
REMARK SMILES IDX 55 68 57 69 56 70 43 71 44 72 48 73 45 74 47 75 46 76
REMARK H PARENT 15 6 6 16 19 25 63 44 41 55
REMARK Flexibility Score: inf
ROOT
ATOM      1  C   UNL     1      -2.653   3.788  -2.110  1.00  0.00     0.042 C 
ENDROOT
BRANCH   1   2
ATOM      2  C   UNL     1      -3.208   2.406  -1.812  1.00  0.00     0.117 C 
BRANCH   2   3
ATOM      3  N   UNL     1      -2.373   1.378  -2.407  1.00  0.00    -0.354 N 
ATOM      4  C   UNL     1      -1.741   0.303  -1.868  1.00  0.00     0.245 C 
ATOM      5  O   UNL     1      -1.033  -0.350  -2.637  1.00  0.00    -0.272 OA
ATOM      6  H   UNL     1      -2.241   1.478  -3.377  1.00  0.00     0.163 HD
BRANCH   4   7
ATOM      7  C   UNL     1      -1.843  -0.013  -0.348  1.00  0.00     0.119 C 
ATOM      8  C   UNL     1       2.532  -0.239   0.015  1.00  0.00     0.007 C 
ATOM      9  C   UNL     1       1.069  -0.248   0.460  1.00  0.00    -0.014 C 
ATOM     10  C   UNL     1       0.317  -1.433  -0.165  1.00  0.00     0.006 C 
ATOM     11  C   UNL     1       0.421   1.093   0.118  1.00  0.00     0.006 C 
ATOM     12  C   UNL     1      -1.210  -1.375   0.011  1.00  0.00     0.039 C 
ATOM     13  C   UNL     1      -1.069   1.082   0.435  1.00  0.00     0.039 C 
BRANCH   7  14
ATOM     14  N   UNL     1      -3.260   0.029   0.109  1.00  0.00    -0.334 N 
ATOM     15  C   UNL     1      -4.411  -0.538  -0.388  1.00  0.00     0.326 C 
ATOM     16  H   UNL     1      -3.400   0.567   0.922  1.00  0.00     0.164 HD
ATOM     17  O   UNL     1      -5.402  -0.438   0.349  1.00  0.00    -0.265 OA
BRANCH  15  18
ATOM     18  C   UNL     1      -4.513  -1.145  -1.812  1.00  0.00     0.471 C 
ATOM     19  F   UNL     1      -4.589  -0.182  -2.776  1.00  0.00    -0.162 F 
ATOM     20  F   UNL     1      -3.457  -1.937  -2.132  1.00  0.00    -0.162 F 
ATOM     21  F   UNL     1      -5.627  -1.912  -1.974  1.00  0.00    -0.162 F 
ENDBRANCH  15  18
ENDBRANCH   7  14
ENDBRANCH   4   7
ENDBRANCH   2   3
ENDBRANCH   1   2
BRANCH   1  22
ATOM     22  C   UNL     1      -2.632   4.110  -3.596  1.00  0.00     0.118 C 
BRANCH  22  23
ATOM     23  N   UNL     1      -3.963   4.106  -4.189  1.00  0.00    -0.352 N 
ATOM     24  C   UNL     1      -4.598   5.106  -4.887  1.00  0.00     0.251 C 
ATOM     25  H   UNL     1      -4.478   3.275  -4.074  1.00  0.00     0.163 HD
ATOM     26  O   UNL     1      -5.785   5.026  -5.160  1.00  0.00    -0.269 OA
BRANCH  24  27
ATOM     27  C   UNL     1      -3.816   6.293  -5.279  1.00  0.00     0.039 A 
ATOM     28  C   UNL     1      -4.328   7.564  -5.013  1.00  0.00     0.014 A 
ATOM     29  C   UNL     1      -2.553   6.136  -5.854  1.00  0.00     0.014 A 
ATOM     30  C   UNL     1      -3.535   8.683  -5.264  1.00  0.00     0.010 A 
ATOM     31  C   UNL     1      -1.731   7.242  -6.009  1.00  0.00     0.010 A 
ATOM     32  C   UNL     1      -2.218   8.527  -5.726  1.00  0.00    -0.014 A 
BRANCH  32  33
ATOM     33  C   UNL     1      -1.329   9.693  -5.944  1.00  0.00     0.031 A 
ATOM     34  C   UNL     1      -0.805   9.978  -7.324  1.00  0.00     0.074 A 
ATOM     35  C   UNL     1      -0.935  10.442  -4.897  1.00  0.00     0.049 A 
ATOM     36  N   UNL     1       0.054  10.887  -7.709  1.00  0.00    -0.248 NA
ATOM     37  C   UNL     1      -1.282   9.104  -8.409  1.00  0.00     0.031 C 
ATOM     38  C   UNL     1      -1.336  10.237  -3.503  1.00  0.00     0.029 A 
ATOM     39  N   UNL     1      -0.096  11.527  -4.844  1.00  0.00    -0.354 N 
ATOM     40  C   UNL     1       0.235  10.677  -9.070  1.00  0.00     0.074 A 
ATOM     41  C   UNL     1      -0.554   9.522  -9.433  1.00  0.00     0.031 C 
ATOM     42  C   UNL     1      -0.766  11.182  -2.737  1.00  0.00     0.029 A 
ATOM     43  C   UNL     1       0.072  12.031  -3.577  1.00  0.00     0.049 A 
ATOM     44  H   UNL     1       0.343  11.907  -5.638  1.00  0.00     0.167 HD
ATOM     45  C   UNL     1       0.973  11.397  -9.947  1.00  0.00     0.031 A 
ATOM     46  C   UNL     1       0.822  13.060  -3.142  1.00  0.00     0.031 A 
ATOM     47  C   UNL     1       1.739  12.558  -9.589  1.00  0.00     0.049 A 
ATOM     48  C   UNL     1       1.631  13.847  -4.136  1.00  0.00     0.074 A 
ATOM     49  C   UNL     1       2.476  13.392 -10.411  1.00  0.00     0.029 A 
ATOM     50  N   UNL     1       1.862  13.053  -8.300  1.00  0.00    -0.354 N 
ATOM     51  N   UNL     1       1.742  13.675  -5.431  1.00  0.00    -0.248 NA
ATOM     52  C   UNL     1       2.408  14.977  -3.609  1.00  0.00     0.031 C 
ATOM     53  C   UNL     1       3.081  14.367  -9.612  1.00  0.00     0.029 A 
ATOM     54  C   UNL     1       2.676  14.171  -8.301  1.00  0.00     0.049 A 
ATOM     55  H   UNL     1       1.433  12.665  -7.503  1.00  0.00     0.167 HD
ATOM     56  C   UNL     1       2.576  14.692  -5.878  1.00  0.00     0.074 A 
ATOM     57  C   UNL     1       2.929  15.484  -4.718  1.00  0.00     0.031 C 
ATOM     58  C   UNL     1       3.010  14.948  -7.136  1.00  0.00     0.031 A 
BRANCH  45  59
ATOM     59  C   UNL     1       0.978  10.943 -11.380  1.00  0.00    -0.014 A 
ATOM     60  C   UNL     1      -0.168  11.061 -12.184  1.00  0.00     0.009 A 
ATOM     61  C   UNL     1       2.149  10.411 -11.941  1.00  0.00     0.009 A 
ATOM     62  C   UNL     1      -0.152  10.620 -13.508  1.00  0.00     0.001 A 
ATOM     63  C   UNL     1       2.171   9.999 -13.275  1.00  0.00     0.001 A 
ATOM     64  C   UNL     1       1.018  10.094 -14.054  1.00  0.00     0.000 A 
ENDBRANCH  45  59
BRANCH  46  65
ATOM     65  C   UNL     1       0.834  13.420  -1.700  1.00  0.00    -0.014 A 
ATOM     66  C   UNL     1       0.222  14.603  -1.257  1.00  0.00     0.009 A 
ATOM     67  C   UNL     1       1.464  12.590  -0.761  1.00  0.00     0.009 A 
ATOM     68  C   UNL     1       0.269  14.962   0.092  1.00  0.00     0.001 A 
ATOM     69  C   UNL     1       1.484  12.937   0.592  1.00  0.00     0.001 A 
ATOM     70  C   UNL     1       0.896  14.127   1.016  1.00  0.00     0.000 A 
ENDBRANCH  46  65
BRANCH  58  71
ATOM     71  C   UNL     1       3.879  16.157  -7.329  1.00  0.00    -0.014 A 
ATOM     72  C   UNL     1       5.213  16.175  -6.893  1.00  0.00     0.009 A 
ATOM     73  C   UNL     1       3.366  17.277  -8.002  1.00  0.00     0.009 A 
ATOM     74  C   UNL     1       6.006  17.305  -7.100  1.00  0.00     0.001 A 
ATOM     75  C   UNL     1       4.170  18.393  -8.234  1.00  0.00     0.001 A 
ATOM     76  C   UNL     1       5.487  18.410  -7.774  1.00  0.00     0.000 A 
ENDBRANCH  58  71
ENDBRANCH  32  33
ENDBRANCH  24  27
ENDBRANCH  22  23
ENDBRANCH   1  22
TORSDOF 12
