REMARK SMILES CC(C)C[C@@H](CNc1ccccc1C(N)=O)C(=O)NCCCNC(=O)c1ccc(-c2c3nc(c(-c4ccccc4)c4ccc([nH]4)c(-c4ccccc4)c4nc(c(-c5ccccc5)c5ccc2[nH]5)C=C4)C=C3)cc1
REMARK SMILES IDX 20 1 19 2 17 3 18 4 5 6 4 7 2 8 1 9 3 10 6 11 7 12 8 14 9 15
REMARK SMILES IDX 13 16 10 17 12 18 11 19 14 20 15 21 16 22 21 25 22 26 23 27
REMARK SMILES IDX 24 28 25 30 26 31 27 32 73 33 28 34 72 35 29 36 30 37 31 38
REMARK SMILES IDX 66 39 32 40 71 41 65 42 67 43 33 44 70 45 64 46 63 47 34 49
REMARK SMILES IDX 56 50 41 51 55 52 42 53 45 54 54 55 68 56 43 57 44 58 53 60
REMARK SMILES IDX 69 61 46 62 35 63 36 64 40 65 37 66 39 67 38 68 57 69 58 70
REMARK SMILES IDX 62 71 59 72 61 73 60 74 47 75 48 76 52 77 49 78 51 79 50 80
REMARK H PARENT 19 5 7 13 15 23 15 24 23 29 67 48 45 59
REMARK Flexibility Score: inf
ROOT
ATOM      1  C   UNL     1      -3.228  -3.188  -0.927  1.00  0.00     0.117 C 
ENDROOT
BRANCH   1   2
ATOM      2  N   UNL     1      -3.730  -1.830  -0.883  1.00  0.00    -0.356 N 
ATOM      3  C   UNL     1      -3.106  -0.681  -1.262  1.00  0.00     0.224 C 
ATOM      4  O   UNL     1      -3.799   0.331  -1.394  1.00  0.00    -0.275 OA
ATOM      5  H   UNL     1      -4.644  -1.724  -0.533  1.00  0.00     0.163 HD
BRANCH   3   6
ATOM      6  C   UNL     1      -1.601  -0.630  -1.473  1.00  0.00     0.098 C 
BRANCH   6   7
ATOM      7  C   UNL     1      -0.860  -1.108  -0.200  1.00  0.00     0.018 C 
BRANCH   7   8
ATOM      8  C   UNL     1       0.668  -1.208  -0.252  1.00  0.00    -0.017 C 
ATOM      9  C   UNL     1       1.315   0.173  -0.193  1.00  0.00     0.007 C 
ATOM     10  C   UNL     1       1.156  -2.054   0.934  1.00  0.00     0.007 C 
ENDBRANCH   7   8
ENDBRANCH   6   7
BRANCH   6  11
ATOM     11  C   UNL     1      -1.205  -1.087  -2.897  1.00  0.00     0.126 C 
BRANCH  11  12
ATOM     12  N   UNL     1      -1.538  -2.471  -3.280  1.00  0.00    -0.384 N 
ATOM     13  H   UNL     1      -1.331  -3.217  -2.671  1.00  0.00     0.160 HD
BRANCH  12  14
ATOM     14  C   UNL     1      -2.155  -2.721  -4.526  1.00  0.00     0.047 A 
ATOM     15  C   UNL     1      -3.230  -3.632  -4.546  1.00  0.00     0.026 A 
ATOM     16  C   UNL     1      -1.717  -2.257  -5.785  1.00  0.00     0.062 A 
ATOM     17  C   UNL     1      -3.954  -3.941  -5.702  1.00  0.00     0.002 A 
ATOM     18  C   UNL     1      -2.436  -2.590  -6.960  1.00  0.00     0.016 A 
ATOM     19  C   UNL     1      -3.568  -3.400  -6.913  1.00  0.00     0.001 A 
BRANCH  16  20
ATOM     20  C   UNL     1      -0.430  -1.527  -5.960  1.00  0.00     0.250 C 
ATOM     21  N   UNL     1      -0.373  -0.600  -6.966  1.00  0.00    -0.366 N 
ATOM     22  O   UNL     1       0.557  -1.750  -5.271  1.00  0.00    -0.269 OA
ATOM     23  H   UNL     1      -1.168  -0.423  -7.519  1.00  0.00     0.159 HD
ATOM     24  H   UNL     1       0.464  -0.110  -7.137  1.00  0.00     0.159 HD
ENDBRANCH  16  20
ENDBRANCH  12  14
ENDBRANCH  11  12
ENDBRANCH   6  11
ENDBRANCH   3   6
ENDBRANCH   1   2
BRANCH   1  25
ATOM     25  C   UNL     1      -3.770  -4.072   0.169  1.00  0.00     0.042 C 
BRANCH  25  26
ATOM     26  C   UNL     1      -5.268  -4.290   0.035  1.00  0.00     0.118 C 
BRANCH  26  27
ATOM     27  N   UNL     1      -5.659  -4.848  -1.263  1.00  0.00    -0.352 N 
ATOM     28  C   UNL     1      -6.183  -6.073  -1.589  1.00  0.00     0.251 C 
ATOM     29  H   UNL     1      -5.523  -4.242  -2.027  1.00  0.00     0.163 HD
ATOM     30  O   UNL     1      -6.245  -6.427  -2.763  1.00  0.00    -0.269 OA
BRANCH  28  31
ATOM     31  C   UNL     1      -6.663  -6.964  -0.516  1.00  0.00     0.039 A 
ATOM     32  C   UNL     1      -6.440  -8.339  -0.598  1.00  0.00     0.014 A 
ATOM     33  C   UNL     1      -7.322  -6.423   0.587  1.00  0.00     0.014 A 
ATOM     34  C   UNL     1      -6.814  -9.156   0.471  1.00  0.00     0.010 A 
ATOM     35  C   UNL     1      -7.547  -7.207   1.704  1.00  0.00     0.010 A 
ATOM     36  C   UNL     1      -7.333  -8.589   1.647  1.00  0.00    -0.014 A 
BRANCH  36  37
ATOM     37  C   UNL     1      -7.719  -9.414   2.816  1.00  0.00     0.031 A 
ATOM     38  C   UNL     1      -9.137  -9.366   3.325  1.00  0.00     0.074 A 
ATOM     39  C   UNL     1      -6.787 -10.137   3.465  1.00  0.00     0.049 A 
ATOM     40  N   UNL     1      -9.659  -9.947   4.375  1.00  0.00    -0.248 NA
ATOM     41  C   UNL     1     -10.085  -8.512   2.585  1.00  0.00     0.031 C 
ATOM     42  C   UNL     1      -5.365 -10.207   3.118  1.00  0.00     0.029 A 
ATOM     43  N   UNL     1      -6.900 -10.954   4.560  1.00  0.00    -0.354 N 
ATOM     44  C   UNL     1     -10.973  -9.497   4.437  1.00  0.00     0.074 A 
ATOM     45  C   UNL     1     -11.148  -8.540   3.370  1.00  0.00     0.031 C 
ATOM     46  C   UNL     1      -4.750 -11.063   3.951  1.00  0.00     0.029 A 
ATOM     47  C   UNL     1      -5.724 -11.570   4.911  1.00  0.00     0.049 A 
ATOM     48  H   UNL     1      -7.745 -11.086   5.048  1.00  0.00     0.167 HD
ATOM     49  C   UNL     1     -11.961  -9.872   5.283  1.00  0.00     0.031 A 
ATOM     50  C   UNL     1      -5.466 -12.455   5.891  1.00  0.00     0.031 A 
ATOM     51  C   UNL     1     -11.798 -10.860   6.312  1.00  0.00     0.049 A 
ATOM     52  C   UNL     1      -6.592 -12.903   6.780  1.00  0.00     0.074 A 
ATOM     53  C   UNL     1     -12.746 -11.370   7.180  1.00  0.00     0.029 A 
ATOM     54  N   UNL     1     -10.602 -11.500   6.599  1.00  0.00    -0.354 N 
ATOM     55  N   UNL     1      -7.847 -12.522   6.782  1.00  0.00    -0.248 NA
ATOM     56  C   UNL     1      -6.268 -13.922   7.787  1.00  0.00     0.031 C 
ATOM     57  C   UNL     1     -12.115 -12.296   8.017  1.00  0.00     0.029 A 
ATOM     58  C   UNL     1     -10.787 -12.399   7.634  1.00  0.00     0.049 A 
ATOM     59  H   UNL     1      -9.749 -11.339   6.136  1.00  0.00     0.167 HD
ATOM     60  C   UNL     1      -8.470 -13.280   7.764  1.00  0.00     0.074 A 
ATOM     61  C   UNL     1      -7.458 -14.152   8.324  1.00  0.00     0.031 C 
ATOM     62  C   UNL     1      -9.764 -13.259   8.169  1.00  0.00     0.031 A 
BRANCH  49  63
ATOM     63  C   UNL     1     -13.303  -9.216   5.108  1.00  0.00    -0.014 A 
ATOM     64  C   UNL     1     -14.093  -9.461   3.972  1.00  0.00     0.009 A 
ATOM     65  C   UNL     1     -13.788  -8.342   6.093  1.00  0.00     0.009 A 
ATOM     66  C   UNL     1     -15.316  -8.810   3.803  1.00  0.00     0.001 A 
ATOM     67  C   UNL     1     -15.028  -7.718   5.938  1.00  0.00     0.001 A 
ATOM     68  C   UNL     1     -15.784  -7.942   4.788  1.00  0.00     0.000 A 
ENDBRANCH  49  63
BRANCH  50  69
ATOM     69  C   UNL     1      -4.102 -13.023   6.044  1.00  0.00    -0.014 A 
ATOM     70  C   UNL     1      -3.848 -14.359   5.696  1.00  0.00     0.009 A 
ATOM     71  C   UNL     1      -3.049 -12.240   6.539  1.00  0.00     0.009 A 
ATOM     72  C   UNL     1      -2.577 -14.909   5.872  1.00  0.00     0.001 A 
ATOM     73  C   UNL     1      -1.771 -12.784   6.687  1.00  0.00     0.001 A 
ATOM     74  C   UNL     1      -1.538 -14.120   6.364  1.00  0.00     0.000 A 
ENDBRANCH  50  69
BRANCH  62  75
ATOM     75  C   UNL     1     -10.161 -14.244   9.231  1.00  0.00    -0.014 A 
ATOM     76  C   UNL     1      -9.742 -14.095  10.561  1.00  0.00     0.009 A 
ATOM     77  C   UNL     1     -10.987 -15.327   8.892  1.00  0.00     0.009 A 
ATOM     78  C   UNL     1     -10.105 -15.039  11.523  1.00  0.00     0.001 A 
ATOM     79  C   UNL     1     -11.374 -16.251   9.862  1.00  0.00     0.001 A 
ATOM     80  C   UNL     1     -10.923 -16.113  11.174  1.00  0.00     0.000 A 
ENDBRANCH  62  75
ENDBRANCH  36  37
ENDBRANCH  28  31
ENDBRANCH  26  27
ENDBRANCH  25  26
ENDBRANCH   1  25
TORSDOF 16
