REMARK SMILES O=C(NCCCNC(=O)c1ccc(C(F)(F)F)cc1NC(=O)c1ccon1)c1ccc(-c2c3nc(c(-c4ccccc4)c4ccc([nH]4)c(-c4ccccc4)c4nc(c(-c5ccccc5)c5ccc2[nH]5)C=C4)C=C3)cc1
REMARK SMILES IDX 5 1 4 2 3 3 1 4 2 5 28 7 29 8 75 9 30 10 74 11 31 12 32 13
REMARK SMILES IDX 33 14 68 15 34 16 73 17 67 18 69 19 35 20 72 21 66 22 65 23
REMARK SMILES IDX 36 25 58 26 43 27 57 28 44 29 47 30 56 31 70 32 45 33 46 34
REMARK SMILES IDX 55 36 71 37 48 38 37 39 38 40 42 41 39 42 41 43 40 44 59 45
REMARK SMILES IDX 60 46 64 47 61 48 63 49 62 50 49 51 50 52 54 53 51 54 53 55
REMARK SMILES IDX 52 56 6 57 7 58 8 59 9 61 10 62 11 63 19 64 12 65 18 66
REMARK SMILES IDX 13 67 20 68 21 69 22 71 23 72 24 73 27 74 25 75 26 76 14 77
REMARK SMILES IDX 15 78 16 79 17 80
REMARK H PARENT 3 6 69 24 47 35 7 60 20 70
REMARK Flexibility Score: inf
ROOT
ATOM      1  C   UNL     1       5.133   2.057   1.025  1.00  0.00     0.042 C 
ENDROOT
BRANCH   1   2
ATOM      2  C   UNL     1       4.669   0.610   1.093  1.00  0.00     0.118 C 
BRANCH   2   3
ATOM      3  N   UNL     1       3.227   0.469   0.951  1.00  0.00    -0.352 N 
ATOM      4  O   UNL     1       1.270   0.033  -0.077  1.00  0.00    -0.269 OA
ATOM      5  C   UNL     1       2.491  -0.095  -0.062  1.00  0.00     0.251 C 
ATOM      6  H   UNL     1       2.697   0.834   1.696  1.00  0.00     0.163 HD
BRANCH   5   7
ATOM      7  C   UNL     1       3.165  -0.839  -1.145  1.00  0.00     0.039 A 
ATOM      8  C   UNL     1       4.199  -1.733  -0.861  1.00  0.00     0.014 A 
ATOM      9  C   UNL     1       2.730  -0.667  -2.463  1.00  0.00     0.014 A 
ATOM     10  C   UNL     1       4.893  -2.342  -1.897  1.00  0.00     0.010 A 
ATOM     11  C   UNL     1       3.362  -1.360  -3.498  1.00  0.00     0.010 A 
ATOM     12  C   UNL     1       4.460  -2.190  -3.223  1.00  0.00    -0.014 A 
BRANCH  12  13
ATOM     13  C   UNL     1       5.091  -3.007  -4.285  1.00  0.00     0.031 A 
ATOM     14  C   UNL     1       5.855  -2.376  -5.412  1.00  0.00     0.074 A 
ATOM     15  C   UNL     1       4.955  -4.346  -4.217  1.00  0.00     0.049 A 
ATOM     16  N   UNL     1       6.444  -2.956  -6.426  1.00  0.00    -0.248 NA
ATOM     17  C   UNL     1       5.971  -0.909  -5.409  1.00  0.00     0.031 C 
ATOM     18  C   UNL     1       4.220  -5.067  -3.171  1.00  0.00     0.029 A 
ATOM     19  N   UNL     1       5.429  -5.341  -5.031  1.00  0.00    -0.354 N 
ATOM     20  C   UNL     1       6.975  -1.930  -7.196  1.00  0.00     0.074 A 
ATOM     21  C   UNL     1       6.634  -0.687  -6.538  1.00  0.00     0.031 C 
ATOM     22  C   UNL     1       4.321  -6.385  -3.390  1.00  0.00     0.029 A 
ATOM     23  C   UNL     1       5.061  -6.601  -4.626  1.00  0.00     0.049 A 
ATOM     24  H   UNL     1       5.980  -5.169  -5.829  1.00  0.00     0.167 HD
ATOM     25  C   UNL     1       7.680  -2.023  -8.349  1.00  0.00     0.031 A 
ATOM     26  C   UNL     1       5.260  -7.799  -5.202  1.00  0.00     0.031 A 
ATOM     27  C   UNL     1       8.024  -3.266  -8.989  1.00  0.00     0.049 A 
ATOM     28  C   UNL     1       6.008  -7.861  -6.499  1.00  0.00     0.074 A 
ATOM     29  C   UNL     1       8.799  -3.466 -10.119  1.00  0.00     0.029 A 
ATOM     30  N   UNL     1       7.603  -4.517  -8.566  1.00  0.00    -0.354 N 
ATOM     31  N   UNL     1       6.564  -6.886  -7.176  1.00  0.00    -0.248 NA
ATOM     32  C   UNL     1       6.147  -9.186  -7.118  1.00  0.00     0.031 C 
ATOM     33  C   UNL     1       8.795  -4.832 -10.415  1.00  0.00     0.029 A 
ATOM     34  C   UNL     1       8.061  -5.488  -9.441  1.00  0.00     0.049 A 
ATOM     35  H   UNL     1       7.059  -4.689  -7.764  1.00  0.00     0.167 HD
ATOM     36  C   UNL     1       7.122  -7.478  -8.298  1.00  0.00     0.074 A 
ATOM     37  C   UNL     1       6.864  -8.900  -8.196  1.00  0.00     0.031 C 
ATOM     38  C   UNL     1       7.782  -6.895  -9.327  1.00  0.00     0.031 A 
BRANCH  25  39
ATOM     39  C   UNL     1       8.107  -0.750  -9.023  1.00  0.00    -0.014 A 
ATOM     40  C   UNL     1       9.171   0.019  -8.530  1.00  0.00     0.009 A 
ATOM     41  C   UNL     1       7.489  -0.366 -10.224  1.00  0.00     0.009 A 
ATOM     42  C   UNL     1       9.598   1.157  -9.220  1.00  0.00     0.001 A 
ATOM     43  C   UNL     1       7.931   0.760 -10.922  1.00  0.00     0.001 A 
ATOM     44  C   UNL     1       8.982   1.522 -10.417  1.00  0.00     0.000 A 
ENDBRANCH  25  39
BRANCH  26  45
ATOM     45  C   UNL     1       4.688  -9.022  -4.584  1.00  0.00    -0.014 A 
ATOM     46  C   UNL     1       5.520  -9.999  -4.021  1.00  0.00     0.009 A 
ATOM     47  C   UNL     1       3.297  -9.212  -4.552  1.00  0.00     0.009 A 
ATOM     48  C   UNL     1       4.970 -11.154  -3.458  1.00  0.00     0.001 A 
ATOM     49  C   UNL     1       2.749 -10.351  -3.960  1.00  0.00     0.001 A 
ATOM     50  C   UNL     1       3.587 -11.325  -3.423  1.00  0.00     0.000 A 
ENDBRANCH  26  45
BRANCH  38  51
ATOM     51  C   UNL     1       8.269  -7.801 -10.419  1.00  0.00    -0.014 A 
ATOM     52  C   UNL     1       7.375  -8.348 -11.352  1.00  0.00     0.009 A 
ATOM     53  C   UNL     1       9.639  -8.079 -10.538  1.00  0.00     0.009 A 
ATOM     54  C   UNL     1       7.843  -9.181 -12.370  1.00  0.00     0.001 A 
ATOM     55  C   UNL     1      10.106  -8.891 -11.572  1.00  0.00     0.001 A 
ATOM     56  C   UNL     1       9.207  -9.447 -12.482  1.00  0.00     0.000 A 
ENDBRANCH  38  51
ENDBRANCH  12  13
ENDBRANCH   5   7
ENDBRANCH   2   3
ENDBRANCH   1   2
BRANCH   1  57
ATOM     57  C   UNL     1       4.600   2.930   2.148  1.00  0.00     0.118 C 
BRANCH  57  58
ATOM     58  N   UNL     1       4.990   2.442   3.464  1.00  0.00    -0.352 N 
ATOM     59  C   UNL     1       5.762   3.037   4.426  1.00  0.00     0.253 C 
ATOM     60  H   UNL     1       4.645   1.550   3.697  1.00  0.00     0.163 HD
ATOM     61  O   UNL     1       6.145   2.383   5.392  1.00  0.00    -0.269 OA
BRANCH  59  62
ATOM     62  C   UNL     1       6.137   4.462   4.316  1.00  0.00     0.063 A 
ATOM     63  C   UNL     1       7.508   4.745   4.407  1.00  0.00     0.016 A 
ATOM     64  C   UNL     1       5.191   5.497   4.155  1.00  0.00     0.054 A 
ATOM     65  C   UNL     1       7.958   6.058   4.296  1.00  0.00     0.014 A 
ATOM     66  C   UNL     1       5.664   6.812   4.124  1.00  0.00     0.040 A 
ATOM     67  C   UNL     1       7.041   7.103   4.142  1.00  0.00     0.058 A 
BRANCH  64  68
ATOM     68  N   UNL     1       3.821   5.173   4.044  1.00  0.00    -0.320 N 
ATOM     69  C   UNL     1       2.725   5.843   3.532  1.00  0.00     0.277 C 
ATOM     70  H   UNL     1       3.600   4.285   4.407  1.00  0.00     0.170 HD
ATOM     71  O   UNL     1       1.634   5.273   3.594  1.00  0.00    -0.267 OA
BRANCH  69  72
ATOM     72  C   UNL     1       2.885   7.122   2.854  1.00  0.00     0.171 A 
ATOM     73  C   UNL     1       3.667   7.436   1.708  1.00  0.00     0.079 A 
ATOM     74  N   UNL     1       2.253   8.217   3.307  1.00  0.00    -0.075 NA
ATOM     75  C   UNL     1       3.506   8.788   1.548  1.00  0.00     0.232 A 
ATOM     76  O   UNL     1       2.659   9.257   2.494  1.00  0.00    -0.364 OA
ENDBRANCH  69  72
ENDBRANCH  64  68
BRANCH  67  77
ATOM     77  C   UNL     1       7.525   8.528   4.006  1.00  0.00     0.416 C 
ATOM     78  F   UNL     1       7.999   9.036   5.173  1.00  0.00    -0.166 F 
ATOM     79  F   UNL     1       8.537   8.642   3.101  1.00  0.00    -0.166 F 
ATOM     80  F   UNL     1       6.556   9.385   3.580  1.00  0.00    -0.166 F 
ENDBRANCH  67  77
ENDBRANCH  59  62
ENDBRANCH  57  58
ENDBRANCH   1  57
TORSDOF 13
