REMARK SMILES Cc1ccc(C(c2ccccc2)(c2ccccc2)n2cnc(C[C@H]([NH3+])C(=O)NCCCNC(=O)c3ccc(-c4c5nc(c(-c6ccccc6)c6ccc([nH]6)c(-c6ccccc6)c6nc(c(-c7ccccc7)c7ccc4[nH]7)C=C6)C=C5)cc3)c2)cc1
REMARK SMILES IDX 29 1 28 2 26 3 27 4 24 6 23 7 22 8 19 9 20 10 83 11 21 12
REMARK SMILES IDX 6 13 5 14 1 15 2 16 3 17 85 18 4 19 84 20 7 21 8 22 12 23
REMARK SMILES IDX 9 24 11 25 10 26 13 27 14 28 18 29 15 30 17 31 16 32 25 33
REMARK SMILES IDX 30 37 31 38 32 39 33 40 34 42 35 43 36 44 82 45 37 46 81 47
REMARK SMILES IDX 38 48 39 49 40 50 75 51 41 52 80 53 74 54 76 55 42 56 79 57
REMARK SMILES IDX 73 58 72 59 43 61 65 62 50 63 64 64 51 65 54 66 63 67 77 68
REMARK SMILES IDX 52 69 53 70 62 72 78 73 55 74 44 75 45 76 49 77 46 78 48 79
REMARK SMILES IDX 47 80 66 81 67 82 71 83 68 84 70 85 69 86 56 87 57 88 61 89
REMARK SMILES IDX 58 90 60 91 59 92
REMARK H PARENT 28 5 25 34 25 35 25 36 32 41 76 60 54 71
REMARK Flexibility Score: inf
ROOT
ATOM      1  C   UNL     1      -5.449  -7.242   1.154  1.00  0.00     0.118 C 
ENDROOT
BRANCH   1   2
ATOM      2  N   UNL     1      -6.745  -6.750   1.576  1.00  0.00    -0.351 N 
ATOM      3  C   UNL     1      -7.373  -5.553   1.389  1.00  0.00     0.278 C 
ATOM      4  O   UNL     1      -8.432  -5.389   2.008  1.00  0.00    -0.268 OA
ATOM      5  H   UNL     1      -7.271  -7.401   2.095  1.00  0.00     0.163 HD
BRANCH   3   6
ATOM      6  C   UNL     1      -6.772  -4.409   0.540  1.00  0.00     0.276 C 
BRANCH   6   7
ATOM      7  C   UNL     1      -6.406  -4.733  -0.912  1.00  0.00     0.133 C 
BRANCH   7   8
ATOM      8  C   UNL     1      -7.500  -5.276  -1.756  1.00  0.00     0.065 A 
ATOM      9  N   UNL     1      -8.822  -5.674  -3.462  1.00  0.00    -0.319 N 
ATOM     10  C   UNL     1      -9.405  -6.084  -2.283  1.00  0.00     0.201 A 
ATOM     11  C   UNL     1      -7.548  -5.279  -3.130  1.00  0.00     0.112 A 
ATOM     12  N   UNL     1      -8.631  -5.847  -1.248  1.00  0.00    -0.241 NA
BRANCH   9  13
ATOM     13  C   UNL     1      -9.499  -5.569  -4.800  1.00  0.00     0.121 C 
BRANCH  13  14
ATOM     14  C   UNL     1      -9.601  -7.008  -5.450  1.00  0.00    -0.013 A 
ATOM     15  C   UNL     1      -9.986 -10.899  -7.356  1.00  0.00     0.044 C 
ATOM     16  C   UNL     1      -9.839  -9.550  -6.718  1.00  0.00    -0.051 A 
ATOM     17  C   UNL     1      -9.287  -9.435  -5.440  1.00  0.00     0.004 A 
ATOM     18  C   UNL     1     -10.249  -8.393  -7.379  1.00  0.00     0.004 A 
ATOM     19  C   UNL     1      -9.167  -8.187  -4.816  1.00  0.00     0.007 A 
ATOM     20  C   UNL     1     -10.120  -7.145  -6.762  1.00  0.00     0.007 A 
ENDBRANCH  13  14
BRANCH  13  21
ATOM     21  C   UNL     1     -10.942  -4.947  -4.535  1.00  0.00    -0.013 A 
ATOM     22  C   UNL     1     -11.105  -3.801  -3.719  1.00  0.00     0.007 A 
ATOM     23  C   UNL     1     -12.138  -5.536  -4.997  1.00  0.00     0.007 A 
ATOM     24  C   UNL     1     -12.359  -3.231  -3.467  1.00  0.00     0.000 A 
ATOM     25  C   UNL     1     -13.396  -4.975  -4.737  1.00  0.00     0.000 A 
ATOM     26  C   UNL     1     -13.505  -3.813  -3.988  1.00  0.00     0.000 A 
ENDBRANCH  13  21
BRANCH  13  27
ATOM     27  C   UNL     1      -8.573  -4.635  -5.711  1.00  0.00    -0.013 A 
ATOM     28  C   UNL     1      -7.628  -5.195  -6.607  1.00  0.00     0.007 A 
ATOM     29  C   UNL     1      -8.479  -3.240  -5.516  1.00  0.00     0.007 A 
ATOM     30  C   UNL     1      -6.666  -4.416  -7.261  1.00  0.00     0.000 A 
ATOM     31  C   UNL     1      -7.495  -2.465  -6.145  1.00  0.00     0.000 A 
ATOM     32  C   UNL     1      -6.589  -3.052  -7.017  1.00  0.00     0.000 A 
ENDBRANCH  13  27
ENDBRANCH   9  13
ENDBRANCH   7   8
ENDBRANCH   6   7
BRANCH   6  33
ATOM     33  N   UNL     1      -5.619  -3.803   1.261  1.00  0.00    -0.347 N 
ATOM     34  H   UNL     1      -4.873  -4.493   1.350  1.00  0.00     0.345 HD
ATOM     35  H   UNL     1      -5.917  -3.504   2.190  1.00  0.00     0.345 HD
ATOM     36  H   UNL     1      -5.276  -2.997   0.739  1.00  0.00     0.345 HD
ENDBRANCH   6  33
ENDBRANCH   3   6
ENDBRANCH   1   2
BRANCH   1  37
ATOM     37  C   UNL     1      -4.385  -7.047   2.224  1.00  0.00     0.042 C 
BRANCH  37  38
ATOM     38  C   UNL     1      -4.431  -8.125   3.292  1.00  0.00     0.118 C 
BRANCH  38  39
ATOM     39  N   UNL     1      -3.683  -9.333   2.961  1.00  0.00    -0.352 N 
ATOM     40  C   UNL     1      -3.570 -10.528   3.656  1.00  0.00     0.251 C 
ATOM     41  H   UNL     1      -3.181  -9.294   2.115  1.00  0.00     0.163 HD
ATOM     42  O   UNL     1      -2.846 -11.410   3.229  1.00  0.00    -0.269 OA
BRANCH  40  43
ATOM     43  C   UNL     1      -4.451 -10.788   4.827  1.00  0.00     0.039 A 
ATOM     44  C   UNL     1      -5.052 -12.050   4.917  1.00  0.00     0.014 A 
ATOM     45  C   UNL     1      -4.886  -9.754   5.644  1.00  0.00     0.014 A 
ATOM     46  C   UNL     1      -6.259 -12.181   5.598  1.00  0.00     0.010 A 
ATOM     47  C   UNL     1      -6.147  -9.838   6.189  1.00  0.00     0.010 A 
ATOM     48  C   UNL     1      -6.861 -11.036   6.109  1.00  0.00    -0.014 A 
BRANCH  48  49
ATOM     49  C   UNL     1      -8.271 -10.954   6.459  1.00  0.00     0.031 A 
ATOM     50  C   UNL     1      -8.684 -10.778   7.862  1.00  0.00     0.074 A 
ATOM     51  C   UNL     1      -9.198 -10.919   5.477  1.00  0.00     0.049 A 
ATOM     52  N   UNL     1      -9.842 -11.112   8.321  1.00  0.00    -0.248 NA
ATOM     53  C   UNL     1      -7.789 -10.251   8.887  1.00  0.00     0.031 C 
ATOM     54  C   UNL     1     -10.596 -10.514   5.585  1.00  0.00     0.029 A 
ATOM     55  N   UNL     1      -9.089 -11.443   4.190  1.00  0.00    -0.354 N 
ATOM     56  C   UNL     1      -9.959 -10.554   9.572  1.00  0.00     0.074 A 
ATOM     57  C   UNL     1      -8.624 -10.127   9.921  1.00  0.00     0.031 C 
ATOM     58  C   UNL     1     -11.274 -11.008   4.537  1.00  0.00     0.029 A 
ATOM     59  C   UNL     1     -10.369 -11.877   3.804  1.00  0.00     0.049 A 
ATOM     60  H   UNL     1      -8.267 -11.500   3.650  1.00  0.00     0.167 HD
ATOM     61  C   UNL     1     -11.198 -10.363  10.104  1.00  0.00     0.031 A 
ATOM     62  C   UNL     1     -10.610 -13.193   3.534  1.00  0.00     0.031 A 
ATOM     63  C   UNL     1     -12.251 -10.899   9.240  1.00  0.00     0.049 A 
ATOM     64  C   UNL     1     -11.619 -13.832   4.463  1.00  0.00     0.074 A 
ATOM     65  C   UNL     1     -13.155 -10.302   8.376  1.00  0.00     0.029 A 
ATOM     66  N   UNL     1     -12.283 -12.260   8.959  1.00  0.00    -0.354 N 
ATOM     67  N   UNL     1     -11.979 -13.332   5.612  1.00  0.00    -0.248 NA
ATOM     68  C   UNL     1     -12.273 -15.107   4.185  1.00  0.00     0.031 C 
ATOM     69  C   UNL     1     -13.709 -11.312   7.549  1.00  0.00     0.029 A 
ATOM     70  C   UNL     1     -13.158 -12.525   7.923  1.00  0.00     0.049 A 
ATOM     71  H   UNL     1     -11.754 -12.942   9.433  1.00  0.00     0.167 HD
ATOM     72  C   UNL     1     -12.869 -14.175   6.228  1.00  0.00     0.074 A 
ATOM     73  C   UNL     1     -13.030 -15.267   5.286  1.00  0.00     0.031 C 
ATOM     74  C   UNL     1     -13.375 -13.894   7.466  1.00  0.00     0.031 A 
BRANCH  61  75
ATOM     75  C   UNL     1     -11.470  -9.415  11.253  1.00  0.00    -0.014 A 
ATOM     76  C   UNL     1     -12.742  -8.827  11.381  1.00  0.00     0.009 A 
ATOM     77  C   UNL     1     -10.515  -9.012  12.201  1.00  0.00     0.009 A 
ATOM     78  C   UNL     1     -13.009  -7.824  12.323  1.00  0.00     0.001 A 
ATOM     79  C   UNL     1     -10.761  -7.983  13.122  1.00  0.00     0.001 A 
ATOM     80  C   UNL     1     -12.008  -7.378  13.174  1.00  0.00     0.000 A 
ENDBRANCH  61  75
BRANCH  62  81
ATOM     81  C   UNL     1      -9.444 -13.900   2.936  1.00  0.00    -0.014 A 
ATOM     82  C   UNL     1      -9.052 -13.551   1.628  1.00  0.00     0.009 A 
ATOM     83  C   UNL     1      -8.531 -14.586   3.748  1.00  0.00     0.009 A 
ATOM     84  C   UNL     1      -7.744 -13.777   1.189  1.00  0.00     0.001 A 
ATOM     85  C   UNL     1      -7.223 -14.817   3.300  1.00  0.00     0.001 A 
ATOM     86  C   UNL     1      -6.822 -14.381   2.038  1.00  0.00     0.000 A 
ENDBRANCH  62  81
BRANCH  74  87
ATOM     87  C   UNL     1     -14.178 -14.817   8.363  1.00  0.00    -0.014 A 
ATOM     88  C   UNL     1     -14.356 -16.190   8.158  1.00  0.00     0.009 A 
ATOM     89  C   UNL     1     -14.719 -14.295   9.564  1.00  0.00     0.009 A 
ATOM     90  C   UNL     1     -15.061 -16.986   9.076  1.00  0.00     0.001 A 
ATOM     91  C   UNL     1     -15.381 -15.090  10.504  1.00  0.00     0.001 A 
ATOM     92  C   UNL     1     -15.562 -16.439  10.252  1.00  0.00     0.000 A 
ENDBRANCH  74  87
ENDBRANCH  48  49
ENDBRANCH  40  43
ENDBRANCH  38  39
ENDBRANCH  37  38
ENDBRANCH   1  37
TORSDOF 17
