REMARK SMILES Cc1ccc(/C=C/C(=O)NCCCNC(=O)c2ccc(-c3c4nc(c(-c5ccccc5)c5ccc([nH]5)c(-c5ccccc5)c5nc(c(-c6ccccc6)c6ccc3[nH]6)C=C5)C=C4)cc2)c2ccccc12
REMARK SMILES IDX 12 1 11 2 10 3 8 4 9 5 7 7 6 8 5 9 1 10 2 11 3 12 70 13 4 14
REMARK SMILES IDX 65 15 69 16 66 17 68 18 67 19 13 20 14 21 15 22 16 24 17 25
REMARK SMILES IDX 18 26 64 27 19 28 63 29 20 30 21 31 22 32 57 33 23 34 62 35
REMARK SMILES IDX 56 36 58 37 24 38 61 39 55 40 54 41 25 43 47 44 32 45 46 46
REMARK SMILES IDX 33 47 36 48 45 49 59 50 34 51 35 52 44 54 60 55 37 56 26 57
REMARK SMILES IDX 27 58 31 59 28 60 30 61 29 62 48 63 49 64 53 65 50 66 52 67
REMARK SMILES IDX 51 68 38 69 39 70 43 71 40 72 42 73 41 74
REMARK H PARENT 10 6 14 23 58 42 36 53
REMARK Flexibility Score: inf
ROOT
ATOM      1  C   UNL     1       2.062   6.396  -0.831  1.00  0.00     0.042 C 
ENDROOT
BRANCH   1   2
ATOM      2  C   UNL     1       1.312   6.025   0.444  1.00  0.00     0.118 C 
BRANCH   2   3
ATOM      3  N   UNL     1      -0.121   6.174   0.270  1.00  0.00    -0.352 N 
ATOM      4  C   UNL     1      -1.103   5.235   0.272  1.00  0.00     0.244 C 
ATOM      5  O   UNL     1      -2.279   5.572   0.172  1.00  0.00    -0.270 OA
ATOM      6  H   UNL     1      -0.430   7.098   0.128  1.00  0.00     0.163 HD
BRANCH   4   7
ATOM      7  C   UNL     1      -0.758   3.816   0.480  1.00  0.00     0.072 C 
ATOM      8  C   UNL     1       0.052   3.143  -0.350  1.00  0.00     0.014 C 
BRANCH   8   9
ATOM      9  C   UNL     1       0.374   1.711  -0.190  1.00  0.00    -0.018 A 
ATOM     10  C   UNL     1       1.761  -2.378   0.073  1.00  0.00     0.045 C 
ATOM     11  C   UNL     1       1.237  -0.965   0.014  1.00  0.00    -0.043 A 
ATOM     12  C   UNL     1       2.165   0.083  -0.013  1.00  0.00     0.005 A 
ATOM     13  C   UNL     1      -0.155  -0.681  -0.037  1.00  0.00    -0.015 A 
ATOM     14  C   UNL     1       1.739   1.403  -0.112  1.00  0.00     0.009 A 
ATOM     15  C   UNL     1      -0.595   0.668  -0.158  1.00  0.00    -0.011 A 
ATOM     16  C   UNL     1      -1.128  -1.706   0.018  1.00  0.00     0.009 A 
ATOM     17  C   UNL     1      -1.990   0.902  -0.258  1.00  0.00     0.009 A 
ATOM     18  C   UNL     1      -2.494  -1.435  -0.046  1.00  0.00     0.001 A 
ATOM     19  C   UNL     1      -2.926  -0.129  -0.191  1.00  0.00     0.001 A 
ENDBRANCH   8   9
ENDBRANCH   4   7
ENDBRANCH   2   3
ENDBRANCH   1   2
BRANCH   1  20
ATOM     20  C   UNL     1       1.982   7.884  -1.164  1.00  0.00     0.118 C 
BRANCH  20  21
ATOM     21  N   UNL     1       2.655   8.707  -0.167  1.00  0.00    -0.352 N 
ATOM     22  C   UNL     1       3.735   9.540  -0.305  1.00  0.00     0.251 C 
ATOM     23  H   UNL     1       2.278   8.658   0.741  1.00  0.00     0.163 HD
ATOM     24  O   UNL     1       4.316   9.968   0.692  1.00  0.00    -0.269 OA
BRANCH  22  25
ATOM     25  C   UNL     1       4.207   9.917  -1.651  1.00  0.00     0.039 A 
ATOM     26  C   UNL     1       5.579   9.918  -1.918  1.00  0.00     0.014 A 
ATOM     27  C   UNL     1       3.295  10.284  -2.643  1.00  0.00     0.014 A 
ATOM     28  C   UNL     1       6.030  10.224  -3.203  1.00  0.00     0.010 A 
ATOM     29  C   UNL     1       3.740  10.511  -3.939  1.00  0.00     0.010 A 
ATOM     30  C   UNL     1       5.112  10.487  -4.232  1.00  0.00    -0.014 A 
BRANCH  30  31
ATOM     31  C   UNL     1       5.556  10.740  -5.624  1.00  0.00     0.031 A 
ATOM     32  C   UNL     1       5.275  12.067  -6.273  1.00  0.00     0.074 A 
ATOM     33  C   UNL     1       6.131   9.748  -6.330  1.00  0.00     0.049 A 
ATOM     34  N   UNL     1       5.487  12.444  -7.508  1.00  0.00    -0.248 NA
ATOM     35  C   UNL     1       4.646  13.098  -5.430  1.00  0.00     0.031 C 
ATOM     36  C   UNL     1       6.424   8.405  -5.824  1.00  0.00     0.029 A 
ATOM     37  N   UNL     1       6.561   9.712  -7.633  1.00  0.00    -0.354 N 
ATOM     38  C   UNL     1       4.999  13.741  -7.595  1.00  0.00     0.074 A 
ATOM     39  C   UNL     1       4.436  14.070  -6.304  1.00  0.00     0.031 C 
ATOM     40  C   UNL     1       7.004   7.685  -6.797  1.00  0.00     0.029 A 
ATOM     41  C   UNL     1       7.080   8.496  -8.008  1.00  0.00     0.049 A 
ATOM     42  H   UNL     1       6.503  10.484  -8.241  1.00  0.00     0.167 HD
ATOM     43  C   UNL     1       5.031  14.589  -8.650  1.00  0.00     0.031 A 
ATOM     44  C   UNL     1       7.549   8.075  -9.197  1.00  0.00     0.031 A 
ATOM     45  C   UNL     1       5.600  14.261  -9.930  1.00  0.00     0.049 A 
ATOM     46  C   UNL     1       7.553   9.029 -10.360  1.00  0.00     0.074 A 
ATOM     47  C   UNL     1       5.735  15.069 -11.045  1.00  0.00     0.029 A 
ATOM     48  N   UNL     1       6.125  13.022 -10.264  1.00  0.00    -0.354 N 
ATOM     49  N   UNL     1       7.150  10.275 -10.407  1.00  0.00    -0.248 NA
ATOM     50  C   UNL     1       8.086   8.519 -11.632  1.00  0.00     0.031 C 
ATOM     51  C   UNL     1       6.290  14.301 -12.074  1.00  0.00     0.029 A 
ATOM     52  C   UNL     1       6.560  13.035 -11.579  1.00  0.00     0.049 A 
ATOM     53  H   UNL     1       6.181  12.249  -9.658  1.00  0.00     0.167 HD
ATOM     54  C   UNL     1       7.407  10.708 -11.702  1.00  0.00     0.074 A 
ATOM     55  C   UNL     1       8.014   9.595 -12.403  1.00  0.00     0.031 C 
ATOM     56  C   UNL     1       7.165  11.919 -12.259  1.00  0.00     0.031 A 
BRANCH  43  57
ATOM     57  C   UNL     1       4.421  15.952  -8.466  1.00  0.00    -0.014 A 
ATOM     58  C   UNL     1       5.012  16.909  -7.626  1.00  0.00     0.009 A 
ATOM     59  C   UNL     1       3.257  16.296  -9.171  1.00  0.00     0.009 A 
ATOM     60  C   UNL     1       4.429  18.168  -7.466  1.00  0.00     0.001 A 
ATOM     61  C   UNL     1       2.694  17.566  -9.034  1.00  0.00     0.001 A 
ATOM     62  C   UNL     1       3.274  18.497  -8.174  1.00  0.00     0.000 A 
ENDBRANCH  43  57
BRANCH  44  63
ATOM     63  C   UNL     1       8.060   6.688  -9.349  1.00  0.00    -0.014 A 
ATOM     64  C   UNL     1       9.430   6.450  -9.544  1.00  0.00     0.009 A 
ATOM     65  C   UNL     1       7.183   5.592  -9.303  1.00  0.00     0.009 A 
ATOM     66  C   UNL     1       9.905   5.148  -9.717  1.00  0.00     0.001 A 
ATOM     67  C   UNL     1       7.666   4.290  -9.446  1.00  0.00     0.001 A 
ATOM     68  C   UNL     1       9.025   4.069  -9.663  1.00  0.00     0.000 A 
ENDBRANCH  44  63
BRANCH  56  69
ATOM     69  C   UNL     1       7.594  12.122 -13.685  1.00  0.00    -0.014 A 
ATOM     70  C   UNL     1       6.907  11.517 -14.748  1.00  0.00     0.009 A 
ATOM     71  C   UNL     1       8.668  12.980 -13.968  1.00  0.00     0.009 A 
ATOM     72  C   UNL     1       7.307  11.747 -16.067  1.00  0.00     0.001 A 
ATOM     73  C   UNL     1       9.045  13.233 -15.287  1.00  0.00     0.001 A 
ATOM     74  C   UNL     1       8.369  12.610 -16.335  1.00  0.00     0.000 A 
ENDBRANCH  56  69
ENDBRANCH  30  31
ENDBRANCH  22  25
ENDBRANCH  20  21
ENDBRANCH   1  20
TORSDOF 11
