REMARK SMILES O=C(NCCCNC(=O)[C@H]1Cc2[nH]cnc2CN1C(=O)c1ccncc1Cl)c1ccc(-c2c3nc(c(-c4ccccc4)c4ccc([nH]4)c(-c4ccccc4)c4nc(c(-c5ccccc5)c5ccc2[nH]5)C=C4)C=C3)cc1
REMARK SMILES IDX 5 1 4 2 3 3 1 4 2 5 28 7 29 8 75 9 30 10 74 11 31 12 32 13
REMARK SMILES IDX 33 14 68 15 34 16 73 17 67 18 69 19 35 20 72 21 66 22 65 23
REMARK SMILES IDX 36 25 58 26 43 27 57 28 44 29 47 30 56 31 70 32 45 33 46 34
REMARK SMILES IDX 55 36 71 37 48 38 37 39 38 40 42 41 39 42 41 43 40 44 59 45
REMARK SMILES IDX 60 46 64 47 61 48 63 49 62 50 49 51 50 52 54 53 51 54 53 55
REMARK SMILES IDX 52 56 6 57 7 58 8 59 9 61 10 62 11 63 18 64 12 65 17 66
REMARK SMILES IDX 13 67 16 68 14 69 15 71 19 72 20 73 21 74 22 75 26 76 23 77
REMARK SMILES IDX 25 78 27 79 24 80
REMARK H PARENT 3 6 69 24 47 35 7 60 13 70
REMARK Flexibility Score: inf
ROOT
ATOM      1  C   UNL     1       4.603   1.940   0.923  1.00  0.00     0.042 C 
ENDROOT
BRANCH   1   2
ATOM      2  C   UNL     1       4.561   0.410   0.916  1.00  0.00     0.118 C 
BRANCH   2   3
ATOM      3  N   UNL     1       3.215  -0.132   0.956  1.00  0.00    -0.352 N 
ATOM      4  O   UNL     1       1.145  -0.732   0.436  1.00  0.00    -0.269 OA
ATOM      5  C   UNL     1       2.206  -0.229   0.042  1.00  0.00     0.251 C 
ATOM      6  H   UNL     1       2.979  -0.513   1.833  1.00  0.00     0.163 HD
BRANCH   5   7
ATOM      7  C   UNL     1       2.276   0.276  -1.352  1.00  0.00     0.039 A 
ATOM      8  C   UNL     1       3.454   0.493  -2.070  1.00  0.00     0.014 A 
ATOM      9  C   UNL     1       1.045   0.501  -1.993  1.00  0.00     0.014 A 
ATOM     10  C   UNL     1       3.408   0.992  -3.368  1.00  0.00     0.010 A 
ATOM     11  C   UNL     1       0.990   0.970  -3.299  1.00  0.00     0.010 A 
ATOM     12  C   UNL     1       2.176   1.236  -3.980  1.00  0.00    -0.014 A 
BRANCH  12  13
ATOM     13  C   UNL     1       2.170   1.562  -5.404  1.00  0.00     0.031 A 
ATOM     14  C   UNL     1       2.695   0.481  -6.294  1.00  0.00     0.074 A 
ATOM     15  C   UNL     1       1.582   2.658  -5.922  1.00  0.00     0.049 A 
ATOM     16  N   UNL     1       3.664   0.543  -7.149  1.00  0.00    -0.248 NA
ATOM     17  C   UNL     1       2.115  -0.866  -6.146  1.00  0.00     0.031 C 
ATOM     18  C   UNL     1       0.760   3.650  -5.225  1.00  0.00     0.029 A 
ATOM     19  N   UNL     1       1.496   3.047  -7.226  1.00  0.00    -0.354 N 
ATOM     20  C   UNL     1       3.719  -0.707  -7.764  1.00  0.00     0.074 A 
ATOM     21  C   UNL     1       2.826  -1.566  -7.028  1.00  0.00     0.031 C 
ATOM     22  C   UNL     1       0.074   4.377  -6.137  1.00  0.00     0.029 A 
ATOM     23  C   UNL     1       0.508   3.993  -7.470  1.00  0.00     0.049 A 
ATOM     24  H   UNL     1       2.081   2.689  -7.932  1.00  0.00     0.167 HD
ATOM     25  C   UNL     1       4.344  -0.908  -8.957  1.00  0.00     0.031 A 
ATOM     26  C   UNL     1       0.034   4.383  -8.680  1.00  0.00     0.031 A 
ATOM     27  C   UNL     1       5.261   0.150  -9.276  1.00  0.00     0.049 A 
ATOM     28  C   UNL     1       1.022   3.987  -9.707  1.00  0.00     0.074 A 
ATOM     29  C   UNL     1       6.403   0.659  -8.692  1.00  0.00     0.029 A 
ATOM     30  N   UNL     1       4.848   1.096 -10.181  1.00  0.00    -0.354 N 
ATOM     31  N   UNL     1       2.196   4.534  -9.825  1.00  0.00    -0.248 NA
ATOM     32  C   UNL     1       0.866   2.693 -10.349  1.00  0.00     0.031 C 
ATOM     33  C   UNL     1       6.324   2.066  -8.905  1.00  0.00     0.029 A 
ATOM     34  C   UNL     1       5.174   2.319  -9.655  1.00  0.00     0.049 A 
ATOM     35  H   UNL     1       4.403   0.928 -11.043  1.00  0.00     0.167 HD
ATOM     36  C   UNL     1       3.038   3.484 -10.157  1.00  0.00     0.074 A 
ATOM     37  C   UNL     1       2.150   2.401 -10.572  1.00  0.00     0.031 C 
ATOM     38  C   UNL     1       4.356   3.500  -9.798  1.00  0.00     0.031 A 
BRANCH  25  39
ATOM     39  C   UNL     1       3.839  -1.870 -10.004  1.00  0.00    -0.014 A 
ATOM     40  C   UNL     1       4.588  -2.057 -11.181  1.00  0.00     0.009 A 
ATOM     41  C   UNL     1       2.524  -2.373 -10.006  1.00  0.00     0.009 A 
ATOM     42  C   UNL     1       4.025  -2.652 -12.317  1.00  0.00     0.001 A 
ATOM     43  C   UNL     1       1.972  -3.005 -11.124  1.00  0.00     0.001 A 
ATOM     44  C   UNL     1       2.715  -3.119 -12.290  1.00  0.00     0.000 A 
ENDBRANCH  25  39
BRANCH  26  45
ATOM     45  C   UNL     1      -1.328   4.829  -9.046  1.00  0.00    -0.014 A 
ATOM     46  C   UNL     1      -1.562   5.514 -10.250  1.00  0.00     0.009 A 
ATOM     47  C   UNL     1      -2.443   4.335  -8.346  1.00  0.00     0.009 A 
ATOM     48  C   UNL     1      -2.863   5.665 -10.751  1.00  0.00     0.001 A 
ATOM     49  C   UNL     1      -3.741   4.489  -8.845  1.00  0.00     0.001 A 
ATOM     50  C   UNL     1      -3.949   5.140 -10.056  1.00  0.00     0.000 A 
ENDBRANCH  26  45
BRANCH  38  51
ATOM     51  C   UNL     1       4.924   4.785  -9.246  1.00  0.00    -0.014 A 
ATOM     52  C   UNL     1       4.429   5.410  -8.088  1.00  0.00     0.009 A 
ATOM     53  C   UNL     1       6.090   5.300  -9.832  1.00  0.00     0.009 A 
ATOM     54  C   UNL     1       5.062   6.538  -7.555  1.00  0.00     0.001 A 
ATOM     55  C   UNL     1       6.736   6.411  -9.285  1.00  0.00     0.001 A 
ATOM     56  C   UNL     1       6.219   7.034  -8.152  1.00  0.00     0.000 A 
ENDBRANCH  38  51
ENDBRANCH  12  13
ENDBRANCH   5   7
ENDBRANCH   2   3
ENDBRANCH   1   2
BRANCH   1  57
ATOM     57  C   UNL     1       4.105   2.516   2.249  1.00  0.00     0.117 C 
BRANCH  57  58
ATOM     58  N   UNL     1       5.029   2.176   3.314  1.00  0.00    -0.354 N 
ATOM     59  C   UNL     1       5.974   2.894   3.969  1.00  0.00     0.243 C 
ATOM     60  H   UNL     1       4.956   1.243   3.620  1.00  0.00     0.163 HD
ATOM     61  O   UNL     1       6.744   2.244   4.685  1.00  0.00    -0.273 OA
BRANCH  59  62
ATOM     62  C   UNL     1       6.086   4.428   3.900  1.00  0.00     0.181 C 
ATOM     63  C   UNL     1       6.438   4.861   2.437  1.00  0.00     0.091 C 
ATOM     64  N   UNL     1       5.073   5.333   4.582  1.00  0.00    -0.320 N 
ATOM     65  C   UNL     1       6.393   6.333   2.315  1.00  0.00     0.042 A 
ATOM     66  C   UNL     1       5.441   6.774   4.614  1.00  0.00     0.178 C 
ATOM     67  N   UNL     1       6.692   7.106   1.232  1.00  0.00    -0.348 N 
ATOM     68  C   UNL     1       5.936   7.196   3.279  1.00  0.00     0.081 A 
ATOM     69  C   UNL     1       6.431   8.402   1.592  1.00  0.00     0.197 A 
ATOM     70  H   UNL     1       7.031   6.793   0.362  1.00  0.00     0.167 HD
ATOM     71  N   UNL     1       5.983   8.487   2.826  1.00  0.00    -0.240 NA
BRANCH  64  72
ATOM     72  C   UNL     1       4.040   5.003   5.462  1.00  0.00     0.256 C 
ATOM     73  O   UNL     1       3.365   5.844   6.065  1.00  0.00    -0.269 OA
BRANCH  72  74
ATOM     74  C   UNL     1       3.607   3.625   5.673  1.00  0.00     0.061 A 
ATOM     75  C   UNL     1       2.437   3.217   5.022  1.00  0.00     0.035 A 
ATOM     76  C   UNL     1       4.255   2.770   6.556  1.00  0.00     0.072 A 
ATOM     77  C   UNL     1       2.034   1.905   5.179  1.00  0.00     0.112 A 
ATOM     78  C   UNL     1       3.787   1.468   6.620  1.00  0.00     0.132 A 
ATOM     79  Cl  UNL     1       5.577   3.258   7.541  1.00  0.00    -0.082 Cl
ATOM     80  N   UNL     1       2.710   1.008   5.929  1.00  0.00    -0.263 NA
ENDBRANCH  72  74
ENDBRANCH  64  72
ENDBRANCH  59  62
ENDBRANCH  57  58
ENDBRANCH   1  57
TORSDOF 12
