REMARK SMILES Cc1cc(S(=O)(=O)Nc2ccc(F)cc2C(=O)NCCCNC(=O)c2ccc(-c3c4nc(c(-c5ccccc5)c5ccc([nH]5)c(-c5ccccc5)c5nc(c(-c6ccccc6)c6ccc3[nH]6)C=C5)C=C4)cc2)c(C)s1
REMARK SMILES IDX 19 1 18 2 16 3 17 4 15 6 9 7 10 8 11 9 14 10 12 11 13 12
REMARK SMILES IDX 8 13 5 15 6 16 7 17 4 18 1 19 2 20 3 21 75 22 73 23 74 24
REMARK SMILES IDX 20 25 21 26 22 27 23 28 24 30 25 31 26 32 72 33 27 34 71 35
REMARK SMILES IDX 28 36 29 37 30 38 65 39 31 40 70 41 64 42 66 43 32 44 69 45
REMARK SMILES IDX 63 46 62 47 33 49 55 50 40 51 54 52 41 53 44 54 53 55 67 56
REMARK SMILES IDX 42 57 43 58 52 60 68 61 45 62 34 63 35 64 39 65 36 66 38 67
REMARK SMILES IDX 37 68 56 69 57 70 61 71 58 72 60 73 59 74 46 75 47 76 51 77
REMARK SMILES IDX 48 78 50 79 49 80
REMARK H PARENT 18 5 8 14 22 29 66 48 44 59
REMARK Flexibility Score: inf
ROOT
ATOM      1  C   UNL     1       1.474  -6.102   0.664  1.00  0.00     0.118 C 
ENDROOT
BRANCH   1   2
ATOM      2  N   UNL     1       0.247  -6.202   1.432  1.00  0.00    -0.352 N 
ATOM      3  C   UNL     1      -0.947  -5.541   1.491  1.00  0.00     0.253 C 
ATOM      4  O   UNL     1      -1.601  -5.783   2.514  1.00  0.00    -0.269 OA
ATOM      5  H   UNL     1       0.285  -6.940   2.082  1.00  0.00     0.163 HD
BRANCH   3   6
ATOM      6  C   UNL     1      -1.604  -4.707   0.433  1.00  0.00     0.066 A 
ATOM      7  C   UNL     1      -1.062  -3.941  -0.616  1.00  0.00     0.062 A 
ATOM      8  C   UNL     1      -1.919  -3.322  -1.556  1.00  0.00     0.030 A 
ATOM      9  C   UNL     1      -3.305  -3.393  -1.434  1.00  0.00     0.041 A 
ATOM     10  C   UNL     1      -3.019  -4.744   0.534  1.00  0.00     0.055 A 
ATOM     11  C   UNL     1      -3.843  -4.091  -0.373  1.00  0.00     0.124 A 
ATOM     12  F   UNL     1      -5.171  -4.139  -0.217  1.00  0.00    -0.207 F 
BRANCH   7  13
ATOM     13  N   UNL     1       0.314  -3.604  -0.775  1.00  0.00    -0.279 N 
ATOM     14  H   UNL     1       0.856  -4.048  -1.466  1.00  0.00     0.180 HD
BRANCH  13  15
ATOM     15  S   UNL     1       1.010  -2.436   0.233  1.00  0.00     0.263 S 
ATOM     16  O   UNL     1       2.375  -2.327  -0.229  1.00  0.00    -0.201 OA
ATOM     17  O   UNL     1       0.677  -2.719   1.609  1.00  0.00    -0.201 OA
BRANCH  15  18
ATOM     18  C   UNL     1       0.295  -0.873  -0.037  1.00  0.00     0.101 A 
ATOM     19  C   UNL     1      -2.841   1.242   0.167  1.00  0.00     0.056 C 
ATOM     20  C   UNL     1      -1.489   0.644  -0.013  1.00  0.00     0.003 A 
ATOM     21  C   UNL     1      -1.094  -0.649   0.235  1.00  0.00     0.037 A 
ATOM     22  S   UNL     1      -0.184   1.600  -0.546  1.00  0.00    -0.145 S 
ATOM     23  C   UNL     1       0.941   0.304  -0.386  1.00  0.00     0.022 A 
ATOM     24  C   UNL     1       2.384   0.620  -0.616  1.00  0.00     0.058 C 
ENDBRANCH  15  18
ENDBRANCH  13  15
ENDBRANCH   7  13
ENDBRANCH   3   6
ENDBRANCH   1   2
BRANCH   1  25
ATOM     25  C   UNL     1       2.555  -5.419   1.508  1.00  0.00     0.042 C 
BRANCH  25  26
ATOM     26  C   UNL     1       3.181  -6.349   2.546  1.00  0.00     0.118 C 
BRANCH  26  27
ATOM     27  N   UNL     1       4.251  -7.148   1.974  1.00  0.00    -0.352 N 
ATOM     28  C   UNL     1       5.602  -6.920   1.900  1.00  0.00     0.251 C 
ATOM     29  H   UNL     1       3.957  -7.996   1.570  1.00  0.00     0.163 HD
ATOM     30  O   UNL     1       6.264  -7.598   1.115  1.00  0.00    -0.269 OA
BRANCH  28  31
ATOM     31  C   UNL     1       6.295  -5.905   2.736  1.00  0.00     0.039 A 
ATOM     32  C   UNL     1       7.439  -5.289   2.210  1.00  0.00     0.014 A 
ATOM     33  C   UNL     1       5.949  -5.661   4.067  1.00  0.00     0.014 A 
ATOM     34  C   UNL     1       8.230  -4.453   3.008  1.00  0.00     0.010 A 
ATOM     35  C   UNL     1       6.691  -4.764   4.840  1.00  0.00     0.010 A 
ATOM     36  C   UNL     1       7.868  -4.188   4.336  1.00  0.00    -0.014 A 
BRANCH  36  37
ATOM     37  C   UNL     1       8.762  -3.424   5.249  1.00  0.00     0.031 A 
ATOM     38  C   UNL     1       9.364  -4.113   6.450  1.00  0.00     0.074 A 
ATOM     39  C   UNL     1       9.021  -2.120   5.040  1.00  0.00     0.049 A 
ATOM     40  N   UNL     1      10.054  -3.605   7.441  1.00  0.00    -0.248 NA
ATOM     41  C   UNL     1       9.127  -5.562   6.568  1.00  0.00     0.031 C 
ATOM     42  C   UNL     1       8.507  -1.313   3.934  1.00  0.00     0.029 A 
ATOM     43  N   UNL     1       9.789  -1.241   5.765  1.00  0.00    -0.354 N 
ATOM     44  C   UNL     1      10.264  -4.651   8.331  1.00  0.00     0.074 A 
ATOM     45  C   UNL     1       9.630  -5.822   7.766  1.00  0.00     0.031 C 
ATOM     46  C   UNL     1       8.998  -0.066   4.036  1.00  0.00     0.029 A 
ATOM     47  C   UNL     1       9.831   0.023   5.232  1.00  0.00     0.049 A 
ATOM     48  H   UNL     1      10.264  -1.494   6.590  1.00  0.00     0.167 HD
ATOM     49  C   UNL     1      10.926  -4.646   9.512  1.00  0.00     0.031 A 
ATOM     50  C   UNL     1      10.469   1.130   5.657  1.00  0.00     0.031 A 
ATOM     51  C   UNL     1      11.636  -3.516  10.043  1.00  0.00     0.049 A 
ATOM     52  C   UNL     1      11.288   1.086   6.915  1.00  0.00     0.074 A 
ATOM     53  C   UNL     1      12.388  -3.434  11.204  1.00  0.00     0.029 A 
ATOM     54  N   UNL     1      11.709  -2.277   9.430  1.00  0.00    -0.354 N 
ATOM     55  N   UNL     1      11.472   0.089   7.746  1.00  0.00    -0.248 NA
ATOM     56  C   UNL     1      11.996   2.321   7.288  1.00  0.00     0.031 C 
ATOM     57  C   UNL     1      12.914  -2.140  11.293  1.00  0.00     0.029 A 
ATOM     58  C   UNL     1      12.504  -1.427  10.178  1.00  0.00     0.049 A 
ATOM     59  H   UNL     1      11.261  -2.036   8.586  1.00  0.00     0.167 HD
ATOM     60  C   UNL     1      12.330   0.569   8.726  1.00  0.00     0.074 A 
ATOM     61  C   UNL     1      12.638   1.942   8.385  1.00  0.00     0.031 C 
ATOM     62  C   UNL     1      12.817  -0.072   9.815  1.00  0.00     0.031 A 
BRANCH  49  63
ATOM     63  C   UNL     1      10.897  -5.911  10.320  1.00  0.00    -0.014 A 
ATOM     64  C   UNL     1      11.681  -7.020   9.971  1.00  0.00     0.009 A 
ATOM     65  C   UNL     1      10.074  -5.985  11.455  1.00  0.00     0.009 A 
ATOM     66  C   UNL     1      11.614  -8.194  10.724  1.00  0.00     0.001 A 
ATOM     67  C   UNL     1      10.025  -7.153  12.217  1.00  0.00     0.001 A 
ATOM     68  C   UNL     1      10.788  -8.259  11.846  1.00  0.00     0.000 A 
ENDBRANCH  49  63
BRANCH  50  69
ATOM     69  C   UNL     1      10.388   2.379   4.861  1.00  0.00    -0.014 A 
ATOM     70  C   UNL     1      11.460   2.757   4.039  1.00  0.00     0.009 A 
ATOM     71  C   UNL     1       9.249   3.194   4.921  1.00  0.00     0.009 A 
ATOM     72  C   UNL     1      11.400   3.942   3.302  1.00  0.00     0.001 A 
ATOM     73  C   UNL     1       9.186   4.370   4.169  1.00  0.00     0.001 A 
ATOM     74  C   UNL     1      10.262   4.745   3.366  1.00  0.00     0.000 A 
ENDBRANCH  50  69
BRANCH  62  75
ATOM     75  C   UNL     1      13.768   0.688  10.688  1.00  0.00    -0.014 A 
ATOM     76  C   UNL     1      13.300   1.619  11.627  1.00  0.00     0.009 A 
ATOM     77  C   UNL     1      15.146   0.440  10.594  1.00  0.00     0.009 A 
ATOM     78  C   UNL     1      14.201   2.308  12.441  1.00  0.00     0.001 A 
ATOM     79  C   UNL     1      16.042   1.121  11.419  1.00  0.00     0.001 A 
ATOM     80  C   UNL     1      15.569   2.058  12.338  1.00  0.00     0.000 A 
ENDBRANCH  62  75
ENDBRANCH  36  37
ENDBRANCH  28  31
ENDBRANCH  26  27
ENDBRANCH  25  26
ENDBRANCH   1  25
TORSDOF 13
