REMARK SMILES O=C(NCCCNC(=O)[C@@H](CCc1ccccc1)[C@@H]1CCS(=O)(=O)C1)c1ccc(-c2c3nc(c(-c4ccccc4)c4ccc([nH]4)c(-c4ccccc4)c4nc(c(-c5ccccc5)c5ccc2[nH]5)C=C4)C=C3)cc1
REMARK SMILES IDX 5 1 4 2 3 3 1 4 2 5 26 7 27 8 73 9 28 10 72 11 29 12 30 13
REMARK SMILES IDX 31 14 66 15 32 16 71 17 65 18 67 19 33 20 70 21 64 22 63 23
REMARK SMILES IDX 34 25 56 26 41 27 55 28 42 29 45 30 54 31 68 32 43 33 44 34
REMARK SMILES IDX 53 36 69 37 46 38 35 39 36 40 40 41 37 42 39 43 38 44 57 45
REMARK SMILES IDX 58 46 62 47 59 48 61 49 60 50 47 51 48 52 52 53 49 54 51 55
REMARK SMILES IDX 50 56 6 57 7 58 8 59 9 61 10 62 11 63 12 64 13 65 14 66
REMARK SMILES IDX 18 67 15 68 17 69 16 70 19 71 20 72 25 73 21 74 22 75 23 76
REMARK SMILES IDX 24 77
REMARK H PARENT 3 6 67 24 45 35 7 60
REMARK Flexibility Score: inf
ROOT
ATOM      1  C   UNL     1       4.930   0.078   2.071  1.00  0.00     0.042 C 
ENDROOT
BRANCH   1   2
ATOM      2  C   UNL     1       4.341  -1.030   1.226  1.00  0.00     0.118 C 
BRANCH   2   3
ATOM      3  N   UNL     1       2.930  -0.786   0.924  1.00  0.00    -0.352 N 
ATOM      4  O   UNL     1       1.112   0.011  -0.124  1.00  0.00    -0.269 OA
ATOM      5  C   UNL     1       2.297  -0.305  -0.202  1.00  0.00     0.251 C 
ATOM      6  H   UNL     1       2.319  -1.007   1.664  1.00  0.00     0.163 HD
BRANCH   5   7
ATOM      7  C   UNL     1       3.015  -0.144  -1.490  1.00  0.00     0.039 A 
ATOM      8  C   UNL     1       4.057  -0.994  -1.837  1.00  0.00     0.014 A 
ATOM      9  C   UNL     1       2.612   0.842  -2.401  1.00  0.00     0.014 A 
ATOM     10  C   UNL     1       4.839  -0.727  -2.949  1.00  0.00     0.010 A 
ATOM     11  C   UNL     1       3.294   0.997  -3.618  1.00  0.00     0.010 A 
ATOM     12  C   UNL     1       4.436   0.231  -3.888  1.00  0.00    -0.014 A 
BRANCH  12  13
ATOM     13  C   UNL     1       5.173   0.301  -5.177  1.00  0.00     0.031 A 
ATOM     14  C   UNL     1       5.852   1.562  -5.631  1.00  0.00     0.074 A 
ATOM     15  C   UNL     1       5.268  -0.824  -5.917  1.00  0.00     0.049 A 
ATOM     16  N   UNL     1       6.558   1.766  -6.716  1.00  0.00    -0.248 NA
ATOM     17  C   UNL     1       5.720   2.747  -4.770  1.00  0.00     0.031 C 
ATOM     18  C   UNL     1       4.649  -2.112  -5.579  1.00  0.00     0.029 A 
ATOM     19  N   UNL     1       5.946  -1.085  -7.079  1.00  0.00    -0.354 N 
ATOM     20  C   UNL     1       6.929   3.105  -6.683  1.00  0.00     0.074 A 
ATOM     21  C   UNL     1       6.352   3.671  -5.482  1.00  0.00     0.031 C 
ATOM     22  C   UNL     1       5.043  -3.039  -6.460  1.00  0.00     0.029 A 
ATOM     23  C   UNL     1       5.848  -2.395  -7.487  1.00  0.00     0.049 A 
ATOM     24  H   UNL     1       6.453  -0.402  -7.574  1.00  0.00     0.167 HD
ATOM     25  C   UNL     1       7.679   3.795  -7.576  1.00  0.00     0.031 A 
ATOM     26  C   UNL     1       6.320  -3.012  -8.584  1.00  0.00     0.031 A 
ATOM     27  C   UNL     1       8.244   3.222  -8.772  1.00  0.00     0.049 A 
ATOM     28  C   UNL     1       7.100  -2.209  -9.578  1.00  0.00     0.074 A 
ATOM     29  C   UNL     1       9.037   3.832  -9.729  1.00  0.00     0.029 A 
ATOM     30  N   UNL     1       8.068   1.907  -9.180  1.00  0.00    -0.354 N 
ATOM     31  N   UNL     1       7.458  -0.949  -9.519  1.00  0.00    -0.248 NA
ATOM     32  C   UNL     1       7.536  -2.909 -10.791  1.00  0.00     0.031 C 
ATOM     33  C   UNL     1       9.284   2.907 -10.748  1.00  0.00     0.029 A 
ATOM     34  C   UNL     1       8.710   1.698 -10.390  1.00  0.00     0.049 A 
ATOM     35  H   UNL     1       7.562   1.225  -8.683  1.00  0.00     0.167 HD
ATOM     36  C   UNL     1       8.178  -0.709 -10.680  1.00  0.00     0.074 A 
ATOM     37  C   UNL     1       8.228  -1.961 -11.408  1.00  0.00     0.031 C 
ATOM     38  C   UNL     1       8.744   0.447 -11.105  1.00  0.00     0.031 A 
BRANCH  25  39
ATOM     39  C   UNL     1       7.899   5.263  -7.317  1.00  0.00    -0.014 A 
ATOM     40  C   UNL     1       8.708   5.713  -6.262  1.00  0.00     0.009 A 
ATOM     41  C   UNL     1       7.319   6.212  -8.175  1.00  0.00     0.009 A 
ATOM     42  C   UNL     1       8.900   7.082  -6.051  1.00  0.00     0.001 A 
ATOM     43  C   UNL     1       7.538   7.577  -7.981  1.00  0.00     0.001 A 
ATOM     44  C   UNL     1       8.320   8.011  -6.913  1.00  0.00     0.000 A 
ENDBRANCH  25  39
BRANCH  26  45
ATOM     45  C   UNL     1       6.022  -4.451  -8.813  1.00  0.00    -0.014 A 
ATOM     46  C   UNL     1       7.046  -5.409  -8.799  1.00  0.00     0.009 A 
ATOM     47  C   UNL     1       4.701  -4.875  -9.036  1.00  0.00     0.009 A 
ATOM     48  C   UNL     1       6.756  -6.756  -9.028  1.00  0.00     0.001 A 
ATOM     49  C   UNL     1       4.409  -6.226  -9.226  1.00  0.00     0.001 A 
ATOM     50  C   UNL     1       5.439  -7.164  -9.234  1.00  0.00     0.000 A 
ENDBRANCH  26  45
BRANCH  38  51
ATOM     51  C   UNL     1       9.500   0.393 -12.403  1.00  0.00    -0.014 A 
ATOM     52  C   UNL     1       8.839   0.236 -13.631  1.00  0.00     0.009 A 
ATOM     53  C   UNL     1      10.898   0.522 -12.393  1.00  0.00     0.009 A 
ATOM     54  C   UNL     1       9.567   0.170 -14.820  1.00  0.00     0.001 A 
ATOM     55  C   UNL     1      11.620   0.491 -13.586  1.00  0.00     0.001 A 
ATOM     56  C   UNL     1      10.956   0.303 -14.797  1.00  0.00     0.000 A 
ENDBRANCH  38  51
ENDBRANCH  12  13
ENDBRANCH   5   7
ENDBRANCH   2   3
ENDBRANCH   1   2
BRANCH   1  57
ATOM     57  C   UNL     1       4.514   0.018   3.534  1.00  0.00     0.117 C 
BRANCH  57  58
ATOM     58  N   UNL     1       5.548  -0.516   4.372  1.00  0.00    -0.356 N 
ATOM     59  C   UNL     1       6.286   0.120   5.312  1.00  0.00     0.223 C 
ATOM     60  H   UNL     1       5.748  -1.472   4.246  1.00  0.00     0.163 HD
ATOM     61  O   UNL     1       6.942  -0.606   6.069  1.00  0.00    -0.275 OA
BRANCH  59  62
ATOM     62  C   UNL     1       6.272   1.654   5.540  1.00  0.00     0.083 C 
BRANCH  62  63
ATOM     63  C   UNL     1       6.692   2.605   4.373  1.00  0.00     0.018 C 
BRANCH  63  64
ATOM     64  C   UNL     1       5.952   3.073   3.083  1.00  0.00     0.036 C 
BRANCH  64  65
ATOM     65  C   UNL     1       4.661   3.868   3.067  1.00  0.00    -0.048 A 
ATOM     66  C   UNL     1       4.705   5.271   3.099  1.00  0.00     0.004 A 
ATOM     67  C   UNL     1       3.390   3.278   3.022  1.00  0.00     0.004 A 
ATOM     68  C   UNL     1       3.538   6.027   3.266  1.00  0.00     0.000 A 
ATOM     69  C   UNL     1       2.224   4.022   3.226  1.00  0.00     0.000 A 
ATOM     70  C   UNL     1       2.302   5.397   3.381  1.00  0.00     0.000 A 
ENDBRANCH  64  65
ENDBRANCH  63  64
ENDBRANCH  62  63
BRANCH  62  71
ATOM     71  C   UNL     1       5.271   2.034   6.686  1.00  0.00     0.017 C 
ATOM     72  C   UNL     1       4.070   2.906   6.341  1.00  0.00     0.021 C 
ATOM     73  C   UNL     1       5.931   2.778   7.878  1.00  0.00     0.141 C 
ATOM     74  C   UNL     1       4.544   4.350   6.290  1.00  0.00     0.137 C 
ATOM     75  S   UNL     1       5.769   4.524   7.553  1.00  0.00     0.150 S 
ATOM     76  O   UNL     1       6.992   5.004   6.951  1.00  0.00    -0.229 OA
ATOM     77  O   UNL     1       5.160   5.175   8.697  1.00  0.00    -0.229 OA
ENDBRANCH  62  71
ENDBRANCH  59  62
ENDBRANCH  57  58
ENDBRANCH   1  57
TORSDOF 14
