REMARK SMILES CC(C)(CC(=O)NCCCNC(=O)c1ccc(-c2c3nc(c(-c4ccccc4)c4ccc([nH]4)c(-c4ccccc4)c4nc(c(-c5ccccc5)c5ccc2[nH]5)C=C4)C=C3)cc1)CC(=O)N1CCN(c2nc3ccc(Cl)cc3s2)CC1
REMARK SMILES IDX 8 1 7 2 5 3 6 4 4 6 2 7 1 8 3 9 62 10 63 11 64 12 65 13
REMARK SMILES IDX 66 14 80 15 67 16 79 17 68 18 69 19 70 20 78 21 71 22 77 23
REMARK SMILES IDX 72 24 76 25 73 26 74 27 75 28 9 29 10 30 11 31 12 32 13 34
REMARK SMILES IDX 14 35 15 36 61 37 16 38 60 39 17 40 18 41 19 42 54 43 20 44
REMARK SMILES IDX 59 45 53 46 55 47 21 48 58 49 52 50 51 51 22 53 44 54 29 55
REMARK SMILES IDX 43 56 30 57 33 58 42 59 56 60 31 61 32 62 41 64 57 65 34 66
REMARK SMILES IDX 23 67 24 68 28 69 25 70 27 71 26 72 45 73 46 74 50 75 47 76
REMARK SMILES IDX 49 77 48 78 35 79 36 80 40 81 37 82 39 83 38 84
REMARK H PARENT 7 5 11 33 55 52 33 63
REMARK Flexibility Score: inf
ROOT
ATOM      1  C   UNL     1      -0.076   0.504  -2.132  1.00  0.00     0.117 C 
ENDROOT
BRANCH   1   2
ATOM      2  N   UNL     1      -1.049   0.061  -1.155  1.00  0.00    -0.356 N 
ATOM      3  C   UNL     1      -1.264   0.616   0.069  1.00  0.00     0.220 C 
ATOM      4  O   UNL     1      -2.429   0.804   0.433  1.00  0.00    -0.275 OA
ATOM      5  H   UNL     1      -1.606  -0.714  -1.399  1.00  0.00     0.163 HD
BRANCH   3   6
ATOM      6  C   UNL     1      -0.122   0.956   0.992  1.00  0.00     0.107 C 
BRANCH   6   7
ATOM      7  C   UNL     1       0.801  -0.177   1.546  1.00  0.00    -0.018 C 
ATOM      8  C   UNL     1       2.029  -0.381   0.642  1.00  0.00     0.012 C 
ATOM      9  C   UNL     1       1.362   0.410   2.886  1.00  0.00     0.012 C 
BRANCH   7  10
ATOM     10  C   UNL     1       0.080  -1.503   1.956  1.00  0.00     0.107 C 
BRANCH  10  11
ATOM     11  C   UNL     1      -0.260  -2.678   1.001  1.00  0.00     0.223 C 
ATOM     12  O   UNL     1       0.593  -3.276   0.354  1.00  0.00    -0.275 OA
ATOM     13  N   UNL     1      -1.554  -3.158   1.141  1.00  0.00    -0.339 N 
ATOM     14  C   UNL     1      -1.931  -4.560   1.367  1.00  0.00     0.141 C 
ATOM     15  C   UNL     1      -2.683  -2.315   0.830  1.00  0.00     0.141 C 
ATOM     16  C   UNL     1      -3.187  -4.709   2.318  1.00  0.00     0.140 C 
ATOM     17  C   UNL     1      -3.603  -2.268   2.027  1.00  0.00     0.140 C 
ATOM     18  N   UNL     1      -4.165  -3.611   2.182  1.00  0.00    -0.345 N 
BRANCH  18  19
ATOM     19  C   UNL     1      -5.447  -3.752   1.753  1.00  0.00     0.186 A 
ATOM     20  N   UNL     1      -5.952  -2.946   0.844  1.00  0.00    -0.220 NA
ATOM     21  S   UNL     1      -6.607  -4.790   2.489  1.00  0.00    -0.097 S 
ATOM     22  C   UNL     1      -7.324  -2.947   0.890  1.00  0.00     0.084 A 
ATOM     23  C   UNL     1      -7.886  -3.874   1.765  1.00  0.00     0.058 A 
ATOM     24  C   UNL     1      -8.163  -2.068   0.175  1.00  0.00     0.031 A 
ATOM     25  C   UNL     1      -9.276  -3.946   1.962  1.00  0.00     0.042 A 
ATOM     26  C   UNL     1      -9.543  -2.113   0.378  1.00  0.00     0.023 A 
ATOM     27  C   UNL     1     -10.084  -3.039   1.264  1.00  0.00     0.042 A 
ATOM     28  Cl  UNL     1     -11.787  -3.057   1.521  1.00  0.00    -0.084 Cl
ENDBRANCH  18  19
ENDBRANCH  10  11
ENDBRANCH   7  10
ENDBRANCH   6   7
ENDBRANCH   3   6
ENDBRANCH   1   2
BRANCH   1  29
ATOM     29  C   UNL     1       0.853  -0.583  -2.660  1.00  0.00     0.042 C 
BRANCH  29  30
ATOM     30  C   UNL     1       0.164  -1.791  -3.282  1.00  0.00     0.118 C 
BRANCH  30  31
ATOM     31  N   UNL     1      -0.418  -1.487  -4.580  1.00  0.00    -0.352 N 
ATOM     32  C   UNL     1       0.132  -1.524  -5.835  1.00  0.00     0.251 C 
ATOM     33  H   UNL     1      -1.362  -1.208  -4.553  1.00  0.00     0.163 HD
ATOM     34  O   UNL     1      -0.470  -0.980  -6.766  1.00  0.00    -0.269 OA
BRANCH  32  35
ATOM     35  C   UNL     1       1.433  -2.179  -6.107  1.00  0.00     0.039 A 
ATOM     36  C   UNL     1       2.312  -1.574  -7.013  1.00  0.00     0.014 A 
ATOM     37  C   UNL     1       1.765  -3.421  -5.561  1.00  0.00     0.014 A 
ATOM     38  C   UNL     1       3.531  -2.184  -7.331  1.00  0.00     0.010 A 
ATOM     39  C   UNL     1       3.012  -3.996  -5.822  1.00  0.00     0.010 A 
ATOM     40  C   UNL     1       3.906  -3.390  -6.718  1.00  0.00    -0.014 A 
BRANCH  40  41
ATOM     41  C   UNL     1       5.221  -4.027  -7.008  1.00  0.00     0.031 A 
ATOM     42  C   UNL     1       5.292  -5.379  -7.669  1.00  0.00     0.074 A 
ATOM     43  C   UNL     1       6.359  -3.414  -6.624  1.00  0.00     0.049 A 
ATOM     44  N   UNL     1       6.345  -6.108  -7.948  1.00  0.00    -0.248 NA
ATOM     45  C   UNL     1       4.015  -6.006  -8.046  1.00  0.00     0.031 C 
ATOM     46  C   UNL     1       6.437  -2.123  -5.937  1.00  0.00     0.029 A 
ATOM     47  N   UNL     1       7.670  -3.804  -6.746  1.00  0.00    -0.354 N 
ATOM     48  C   UNL     1       5.857  -7.284  -8.505  1.00  0.00     0.074 A 
ATOM     49  C   UNL     1       4.414  -7.188  -8.496  1.00  0.00     0.031 C 
ATOM     50  C   UNL     1       7.726  -1.822  -5.712  1.00  0.00     0.029 A 
ATOM     51  C   UNL     1       8.563  -2.912  -6.202  1.00  0.00     0.049 A 
ATOM     52  H   UNL     1       7.945  -4.643  -7.181  1.00  0.00     0.167 HD
ATOM     53  C   UNL     1       6.547  -8.344  -8.992  1.00  0.00     0.031 A 
ATOM     54  C   UNL     1       9.905  -2.967  -6.095  1.00  0.00     0.031 A 
ATOM     55  C   UNL     1       7.983  -8.435  -9.028  1.00  0.00     0.049 A 
ATOM     56  C   UNL     1      10.645  -4.152  -6.650  1.00  0.00     0.074 A 
ATOM     57  C   UNL     1       8.767  -9.435  -9.579  1.00  0.00     0.029 A 
ATOM     58  N   UNL     1       8.848  -7.499  -8.489  1.00  0.00    -0.354 N 
ATOM     59  N   UNL     1      10.169  -5.214  -7.253  1.00  0.00    -0.248 NA
ATOM     60  C   UNL     1      12.110  -4.138  -6.521  1.00  0.00     0.031 C 
ATOM     61  C   UNL     1      10.108  -9.130  -9.325  1.00  0.00     0.029 A 
ATOM     62  C   UNL     1      10.159  -7.912  -8.666  1.00  0.00     0.049 A 
ATOM     63  H   UNL     1       8.574  -6.664  -8.046  1.00  0.00     0.167 HD
ATOM     64  C   UNL     1      11.276  -5.981  -7.596  1.00  0.00     0.074 A 
ATOM     65  C   UNL     1      12.446  -5.254  -7.153  1.00  0.00     0.031 C 
ATOM     66  C   UNL     1      11.316  -7.181  -8.223  1.00  0.00     0.031 A 
BRANCH  53  67
ATOM     67  C   UNL     1       5.758  -9.509  -9.524  1.00  0.00    -0.014 A 
ATOM     68  C   UNL     1       5.058  -9.425 -10.737  1.00  0.00     0.009 A 
ATOM     69  C   UNL     1       5.772 -10.731  -8.831  1.00  0.00     0.009 A 
ATOM     70  C   UNL     1       4.364 -10.532 -11.232  1.00  0.00     0.001 A 
ATOM     71  C   UNL     1       5.101 -11.844  -9.341  1.00  0.00     0.001 A 
ATOM     72  C   UNL     1       4.391 -11.741 -10.537  1.00  0.00     0.000 A 
ENDBRANCH  53  67
BRANCH  54  73
ATOM     73  C   UNL     1      10.646  -1.864  -5.427  1.00  0.00    -0.014 A 
ATOM     74  C   UNL     1      11.467  -1.001  -6.169  1.00  0.00     0.009 A 
ATOM     75  C   UNL     1      10.551  -1.682  -4.039  1.00  0.00     0.009 A 
ATOM     76  C   UNL     1      12.203  -0.001  -5.530  1.00  0.00     0.001 A 
ATOM     77  C   UNL     1      11.263  -0.661  -3.406  1.00  0.00     0.001 A 
ATOM     78  C   UNL     1      12.098   0.171  -4.150  1.00  0.00     0.000 A 
ENDBRANCH  54  73
BRANCH  66  79
ATOM     79  C   UNL     1      12.671  -7.771  -8.496  1.00  0.00    -0.014 A 
ATOM     80  C   UNL     1      13.458  -8.302  -7.463  1.00  0.00     0.009 A 
ATOM     81  C   UNL     1      13.149  -7.831  -9.815  1.00  0.00     0.009 A 
ATOM     82  C   UNL     1      14.711  -8.852  -7.741  1.00  0.00     0.001 A 
ATOM     83  C   UNL     1      14.389  -8.407 -10.093  1.00  0.00     0.001 A 
ATOM     84  C   UNL     1      15.173  -8.909  -9.056  1.00  0.00     0.000 A 
ENDBRANCH  66  79
ENDBRANCH  40  41
ENDBRANCH  32  35
ENDBRANCH  30  31
ENDBRANCH  29  30
ENDBRANCH   1  29
TORSDOF 14
