REMARK SMILES CC(C)C[C@H](NS(=O)(=O)N1C[C@@H](C)C[C@H](C)C1)C(=O)NCCCNC(=O)c1ccc(-c2c3nc(c(-c4ccccc4)c4ccc([nH]4)c(-c4ccccc4)c4nc(c(-c5ccccc5)c5ccc2[nH]5)C=C4)C=C3)cc1
REMARK SMILES IDX 21 1 20 2 18 3 19 4 5 6 4 7 2 8 1 9 3 10 6 11 7 13 8 14 9 15
REMARK SMILES IDX 10 16 11 17 17 18 12 19 15 20 13 21 14 22 16 23 22 24 23 25
REMARK SMILES IDX 24 26 25 27 26 29 27 30 28 31 74 32 29 33 73 34 30 35 31 36
REMARK SMILES IDX 32 37 67 38 33 39 72 40 66 41 68 42 34 43 71 44 65 45 64 46
REMARK SMILES IDX 35 48 57 49 42 50 56 51 43 52 46 53 55 54 69 55 44 56 45 57
REMARK SMILES IDX 54 59 70 60 47 61 36 62 37 63 41 64 38 65 40 66 39 67 58 68
REMARK SMILES IDX 59 69 63 70 60 71 62 72 61 73 48 74 49 75 53 76 50 77 52 78
REMARK SMILES IDX 51 79
REMARK H PARENT 20 5 6 12 24 28 68 47 46 58
REMARK Flexibility Score: inf
ROOT
ATOM      1  C   UNL     1      -3.109   3.413   2.032  1.00  0.00     0.117 C 
ENDROOT
BRANCH   1   2
ATOM      2  N   UNL     1      -3.703   2.103   1.839  1.00  0.00    -0.355 N 
ATOM      3  C   UNL     1      -3.143   0.927   1.449  1.00  0.00     0.238 C 
ATOM      4  O   UNL     1      -3.905   0.042   1.053  1.00  0.00    -0.273 OA
ATOM      5  H   UNL     1      -4.670   2.059   2.021  1.00  0.00     0.163 HD
BRANCH   3   6
ATOM      6  C   UNL     1      -1.634   0.700   1.571  1.00  0.00     0.160 C 
BRANCH   6   7
ATOM      7  C   UNL     1      -1.182   0.939   3.027  1.00  0.00     0.033 C 
BRANCH   7   8
ATOM      8  C   UNL     1      -2.020   0.251   4.135  1.00  0.00    -0.015 C 
ATOM      9  C   UNL     1      -2.027  -1.274   4.046  1.00  0.00     0.007 C 
ATOM     10  C   UNL     1      -1.474   0.671   5.503  1.00  0.00     0.007 C 
ENDBRANCH   7   8
ENDBRANCH   6   7
BRANCH   6  11
ATOM     11  N   UNL     1      -0.921   1.491   0.539  1.00  0.00    -0.190 NA
ATOM     12  H   UNL     1      -1.282   2.441   0.630  1.00  0.00     0.143 HD
BRANCH  11  13
ATOM     13  S   UNL     1       0.730   1.659   0.417  1.00  0.00     0.280 S 
ATOM     14  O   UNL     1       0.894   2.682  -0.596  1.00  0.00    -0.195 OA
ATOM     15  O   UNL     1       1.285   1.834   1.730  1.00  0.00    -0.195 OA
BRANCH  13  16
ATOM     16  N   UNL     1       1.216   0.218  -0.229  1.00  0.00    -0.188 NA
ATOM     17  C   UNL     1       1.991  -0.799   0.487  1.00  0.00     0.106 C 
ATOM     18  C   UNL     1       0.878  -0.161  -1.597  1.00  0.00     0.106 C 
ATOM     19  C   UNL     1       1.195  -2.112   0.584  1.00  0.00     0.001 C 
ATOM     20  C   UNL     1      -0.174  -1.260  -1.505  1.00  0.00     0.001 C 
ATOM     21  C   UNL     1       0.398  -2.129   1.880  1.00  0.00     0.009 C 
ATOM     22  C   UNL     1       0.340  -2.447  -0.665  1.00  0.00     0.009 C 
ATOM     23  C   UNL     1      -0.610  -1.707  -2.903  1.00  0.00     0.009 C 
ENDBRANCH  13  16
ENDBRANCH  11  13
ENDBRANCH   6  11
ENDBRANCH   3   6
ENDBRANCH   1   2
BRANCH   1  24
ATOM     24  C   UNL     1      -3.536   4.340   0.906  1.00  0.00     0.042 C 
BRANCH  24  25
ATOM     25  C   UNL     1      -5.049   4.429   0.769  1.00  0.00     0.118 C 
BRANCH  25  26
ATOM     26  N   UNL     1      -5.685   4.879   2.003  1.00  0.00    -0.352 N 
ATOM     27  C   UNL     1      -6.211   6.112   2.301  1.00  0.00     0.251 C 
ATOM     28  H   UNL     1      -5.746   4.207   2.720  1.00  0.00     0.163 HD
ATOM     29  O   UNL     1      -6.455   6.429   3.459  1.00  0.00    -0.269 OA
BRANCH  27  30
ATOM     30  C   UNL     1      -6.456   7.051   1.195  1.00  0.00     0.039 A 
ATOM     31  C   UNL     1      -6.009   8.368   1.294  1.00  0.00     0.014 A 
ATOM     32  C   UNL     1      -7.070   6.588   0.029  1.00  0.00     0.014 A 
ATOM     33  C   UNL     1      -6.103   9.201   0.180  1.00  0.00     0.010 A 
ATOM     34  C   UNL     1      -7.053   7.377  -1.107  1.00  0.00     0.010 A 
ATOM     35  C   UNL     1      -6.579   8.695  -1.041  1.00  0.00    -0.014 A 
BRANCH  35  36
ATOM     36  C   UNL     1      -6.599   9.521  -2.270  1.00  0.00     0.031 A 
ATOM     37  C   UNL     1      -7.908   9.797  -2.957  1.00  0.00     0.074 A 
ATOM     38  C   UNL     1      -5.440   9.945  -2.808  1.00  0.00     0.049 A 
ATOM     39  N   UNL     1      -8.131  10.421  -4.085  1.00  0.00    -0.248 NA
ATOM     40  C   UNL     1      -9.123   9.274  -2.309  1.00  0.00     0.031 C 
ATOM     41  C   UNL     1      -4.105   9.698  -2.258  1.00  0.00     0.029 A 
ATOM     42  N   UNL     1      -5.199  10.671  -3.947  1.00  0.00    -0.354 N 
ATOM     43  C   UNL     1      -9.503  10.348  -4.287  1.00  0.00     0.074 A 
ATOM     44  C   UNL     1     -10.054   9.565  -3.204  1.00  0.00     0.031 C 
ATOM     45  C   UNL     1      -3.190  10.293  -3.040  1.00  0.00     0.029 A 
ATOM     46  C   UNL     1      -3.866  10.916  -4.172  1.00  0.00     0.049 A 
ATOM     47  H   UNL     1      -5.914  10.986  -4.546  1.00  0.00     0.167 HD
ATOM     48  C   UNL     1     -10.243  10.905  -5.273  1.00  0.00     0.031 A 
ATOM     49  C   UNL     1      -3.258  11.562  -5.184  1.00  0.00     0.031 A 
ATOM     50  C   UNL     1      -9.691  11.688  -6.343  1.00  0.00     0.049 A 
ATOM     51  C   UNL     1      -4.101  12.146  -6.284  1.00  0.00     0.074 A 
ATOM     52  C   UNL     1     -10.357  12.346  -7.361  1.00  0.00     0.029 A 
ATOM     53  N   UNL     1      -8.336  11.914  -6.536  1.00  0.00    -0.354 N 
ATOM     54  N   UNL     1      -5.405  12.136  -6.420  1.00  0.00    -0.248 NA
ATOM     55  C   UNL     1      -3.387  12.835  -7.367  1.00  0.00     0.031 C 
ATOM     56  C   UNL     1      -9.401  12.916  -8.208  1.00  0.00     0.029 A 
ATOM     57  C   UNL     1      -8.143  12.672  -7.677  1.00  0.00     0.049 A 
ATOM     58  H   UNL     1      -7.619  11.584  -5.948  1.00  0.00     0.167 HD
ATOM     59  C   UNL     1      -5.669  12.839  -7.589  1.00  0.00     0.074 A 
ATOM     60  C   UNL     1      -4.391  13.279  -8.109  1.00  0.00     0.031 C 
ATOM     61  C   UNL     1      -6.862  13.095  -8.180  1.00  0.00     0.031 A 
BRANCH  48  62
ATOM     62  C   UNL     1     -11.729  10.673  -5.239  1.00  0.00    -0.014 A 
ATOM     63  C   UNL     1     -12.534  11.235  -4.234  1.00  0.00     0.009 A 
ATOM     64  C   UNL     1     -12.338   9.902  -6.242  1.00  0.00     0.009 A 
ATOM     65  C   UNL     1     -13.909  10.997  -4.211  1.00  0.00     0.001 A 
ATOM     66  C   UNL     1     -13.718   9.694  -6.236  1.00  0.00     0.001 A 
ATOM     67  C   UNL     1     -14.501  10.232  -5.215  1.00  0.00     0.000 A 
ENDBRANCH  48  62
BRANCH  49  68
ATOM     68  C   UNL     1      -1.777  11.697  -5.204  1.00  0.00    -0.014 A 
ATOM     69  C   UNL     1      -1.173  12.953  -5.036  1.00  0.00     0.009 A 
ATOM     70  C   UNL     1      -0.958  10.575  -5.402  1.00  0.00     0.009 A 
ATOM     71  C   UNL     1       0.216  13.086  -5.097  1.00  0.00     0.001 A 
ATOM     72  C   UNL     1       0.432  10.705  -5.428  1.00  0.00     0.001 A 
ATOM     73  C   UNL     1       1.018  11.961  -5.288  1.00  0.00     0.000 A 
ENDBRANCH  49  68
BRANCH  61  74
ATOM     74  C   UNL     1      -6.841  13.913  -9.442  1.00  0.00    -0.014 A 
ATOM     75  C   UNL     1      -6.344  13.387 -10.644  1.00  0.00     0.009 A 
ATOM     76  C   UNL     1      -7.371  15.213  -9.434  1.00  0.00     0.009 A 
ATOM     77  C   UNL     1      -6.347  14.161 -11.806  1.00  0.00     0.001 A 
ATOM     78  C   UNL     1      -7.405  15.970 -10.605  1.00  0.00     0.001 A 
ATOM     79  C   UNL     1      -6.884  15.448 -11.787  1.00  0.00     0.000 A 
ENDBRANCH  61  74
ENDBRANCH  35  36
ENDBRANCH  27  30
ENDBRANCH  25  26
ENDBRANCH  24  25
ENDBRANCH   1  24
TORSDOF 15
