REMARK SMILES O=C(NCCCNC(=O)c1cnc(-c2ccccc2Cl)nc1)c1ccc(-c2c3nc(c(-c4ccccc4)c4ccc([nH]4)c(-c4ccccc4)c4nc(c(-c5ccccc5)c5ccc2[nH]5)C=C4)C=C3)cc1
REMARK SMILES IDX 4 1 3 2 1 3 2 4 23 6 24 7 70 8 25 9 69 10 26 11 27 12 28 13
REMARK SMILES IDX 63 14 29 15 68 16 62 17 64 18 30 19 67 20 61 21 60 22 31 24
REMARK SMILES IDX 53 25 38 26 52 27 39 28 42 29 51 30 65 31 40 32 41 33 50 35
REMARK SMILES IDX 66 36 43 37 32 38 33 39 37 40 34 41 36 42 35 43 54 44 55 45
REMARK SMILES IDX 59 46 56 47 58 48 57 49 44 50 45 51 49 52 46 53 48 54 47 55
REMARK SMILES IDX 5 56 6 57 7 58 8 59 9 61 10 62 11 63 22 64 12 65 21 66 13 67
REMARK SMILES IDX 14 68 15 69 19 70 16 71 18 72 20 73 17 74
REMARK H PARENT 3 5 64 23 42 34 7 60
REMARK Flexibility Score: inf
ROOT
ATOM      1  C   UNL     1       4.502   0.912   0.987  1.00  0.00     0.118 C 
ENDROOT
BRANCH   1   2
ATOM      2  N   UNL     1       3.070   0.672   0.862  1.00  0.00    -0.352 N 
ATOM      3  O   UNL     1       1.157  -0.011  -0.105  1.00  0.00    -0.269 OA
ATOM      4  C   UNL     1       2.382  -0.091  -0.045  1.00  0.00     0.251 C 
ATOM      5  H   UNL     1       2.511   1.127   1.532  1.00  0.00     0.163 HD
BRANCH   4   6
ATOM      6  C   UNL     1       3.104  -1.004  -0.957  1.00  0.00     0.039 A 
ATOM      7  C   UNL     1       4.159  -1.791  -0.489  1.00  0.00     0.014 A 
ATOM      8  C   UNL     1       2.681  -1.119  -2.285  1.00  0.00     0.014 A 
ATOM      9  C   UNL     1       4.867  -2.598  -1.370  1.00  0.00     0.010 A 
ATOM     10  C   UNL     1       3.335  -2.000  -3.149  1.00  0.00     0.010 A 
ATOM     11  C   UNL     1       4.439  -2.740  -2.699  1.00  0.00    -0.014 A 
BRANCH  11  12
ATOM     12  C   UNL     1       5.071  -3.774  -3.553  1.00  0.00     0.031 A 
ATOM     13  C   UNL     1       5.851  -3.410  -4.782  1.00  0.00     0.074 A 
ATOM     14  C   UNL     1       4.918  -5.066  -3.198  1.00  0.00     0.049 A 
ATOM     15  N   UNL     1       6.446  -4.203  -5.637  1.00  0.00    -0.248 NA
ATOM     16  C   UNL     1       5.979  -1.979  -5.101  1.00  0.00     0.031 C 
ATOM     17  C   UNL     1       4.166  -5.537  -2.029  1.00  0.00     0.029 A 
ATOM     18  N   UNL     1       5.386  -6.218  -3.774  1.00  0.00    -0.354 N 
ATOM     19  C   UNL     1       6.998  -3.374  -6.605  1.00  0.00     0.074 A 
ATOM     20  C   UNL     1       6.660  -2.015  -6.240  1.00  0.00     0.031 C 
ATOM     21  C   UNL     1       4.249  -6.872  -1.960  1.00  0.00     0.029 A 
ATOM     22  C   UNL     1       4.995  -7.357  -3.113  1.00  0.00     0.049 A 
ATOM     23  H   UNL     1       5.947  -6.229  -4.583  1.00  0.00     0.167 HD
ATOM     24  C   UNL     1       7.718  -3.723  -7.697  1.00  0.00     0.031 A 
ATOM     25  C   UNL     1       5.181  -8.654  -3.417  1.00  0.00     0.031 A 
ATOM     26  C   UNL     1       8.055  -5.079  -8.047  1.00  0.00     0.049 A 
ATOM     27  C   UNL     1       5.943  -9.003  -4.661  1.00  0.00     0.074 A 
ATOM     28  C   UNL     1       8.842  -5.526  -9.096  1.00  0.00     0.029 A 
ATOM     29  N   UNL     1       7.613  -6.205  -7.371  1.00  0.00    -0.354 N 
ATOM     30  N   UNL     1       6.525  -8.204  -5.521  1.00  0.00    -0.248 NA
ATOM     31  C   UNL     1       6.067 -10.431  -4.980  1.00  0.00     0.031 C 
ATOM     32  C   UNL     1       8.819  -6.923  -9.094  1.00  0.00     0.029 A 
ATOM     33  C   UNL     1       8.068  -7.347  -8.011  1.00  0.00     0.049 A 
ATOM     34  H   UNL     1       7.059  -6.195  -6.557  1.00  0.00     0.167 HD
ATOM     35  C   UNL     1       7.089  -9.032  -6.481  1.00  0.00     0.074 A 
ATOM     36  C   UNL     1       6.809 -10.395  -6.078  1.00  0.00     0.031 C 
ATOM     37  C   UNL     1       7.769  -8.693  -7.601  1.00  0.00     0.031 A 
BRANCH  24  38
ATOM     38  C   UNL     1       8.175  -2.634  -8.626  1.00  0.00    -0.014 A 
ATOM     39  C   UNL     1       9.239  -1.784  -8.291  1.00  0.00     0.009 A 
ATOM     40  C   UNL     1       7.597  -2.529  -9.902  1.00  0.00     0.009 A 
ATOM     41  C   UNL     1       9.707  -0.843  -9.212  1.00  0.00     0.001 A 
ATOM     42  C   UNL     1       8.081  -1.603 -10.828  1.00  0.00     0.001 A 
ATOM     43  C   UNL     1       9.134  -0.758 -10.481  1.00  0.00     0.000 A 
ENDBRANCH  24  38
BRANCH  25  44
ATOM     44  C   UNL     1       4.580  -9.713  -2.566  1.00  0.00    -0.014 A 
ATOM     45  C   UNL     1       5.389 -10.588  -1.826  1.00  0.00     0.009 A 
ATOM     46  C   UNL     1       3.185  -9.862  -2.503  1.00  0.00     0.009 A 
ATOM     47  C   UNL     1       4.812 -11.610  -1.067  1.00  0.00     0.001 A 
ATOM     48  C   UNL     1       2.611 -10.860  -1.716  1.00  0.00     0.001 A 
ATOM     49  C   UNL     1       3.425 -11.742  -1.009  1.00  0.00     0.000 A 
ENDBRANCH  25  44
BRANCH  37  50
ATOM     50  C   UNL     1       8.260  -9.819  -8.465  1.00  0.00    -0.014 A 
ATOM     51  C   UNL     1       7.368 -10.567  -9.248  1.00  0.00     0.009 A 
ATOM     52  C   UNL     1       9.631 -10.111  -8.522  1.00  0.00     0.009 A 
ATOM     53  C   UNL     1       7.838 -11.607 -10.052  1.00  0.00     0.001 A 
ATOM     54  C   UNL     1      10.101 -11.132  -9.349  1.00  0.00     0.001 A 
ATOM     55  C   UNL     1       9.203 -11.884 -10.106  1.00  0.00     0.000 A 
ENDBRANCH  37  50
ENDBRANCH  11  12
ENDBRANCH   4   6
ENDBRANCH   1   2
BRANCH   1  56
ATOM     56  C   UNL     1       4.876   2.364   0.722  1.00  0.00     0.042 C 
BRANCH  56  57
ATOM     57  C   UNL     1       4.284   3.346   1.723  1.00  0.00     0.118 C 
BRANCH  57  58
ATOM     58  N   UNL     1       4.756   3.096   3.082  1.00  0.00    -0.352 N 
ATOM     59  C   UNL     1       5.667   3.785   3.835  1.00  0.00     0.254 C 
ATOM     60  H   UNL     1       4.357   2.312   3.524  1.00  0.00     0.163 HD
ATOM     61  O   UNL     1       6.120   3.284   4.861  1.00  0.00    -0.269 OA
BRANCH  59  62
ATOM     62  C   UNL     1       6.120   5.112   3.427  1.00  0.00     0.076 A 
ATOM     63  C   UNL     1       5.261   6.115   3.038  1.00  0.00     0.129 A 
ATOM     64  C   UNL     1       7.453   5.450   3.471  1.00  0.00     0.129 A 
ATOM     65  N   UNL     1       5.675   7.328   2.620  1.00  0.00    -0.236 NA
ATOM     66  N   UNL     1       7.922   6.650   3.069  1.00  0.00    -0.236 NA
ATOM     67  C   UNL     1       7.009   7.535   2.620  1.00  0.00     0.160 A 
BRANCH  67  68
ATOM     68  C   UNL     1       7.481   8.834   2.140  1.00  0.00     0.038 A 
ATOM     69  C   UNL     1       6.901  10.011   2.658  1.00  0.00     0.013 A 
ATOM     70  C   UNL     1       8.485   8.976   1.165  1.00  0.00     0.052 A 
ATOM     71  C   UNL     1       7.323  11.276   2.245  1.00  0.00     0.001 A 
ATOM     72  C   UNL     1       8.908  10.246   0.753  1.00  0.00     0.021 A 
ATOM     73  Cl  UNL     1       9.209   7.619   0.366  1.00  0.00    -0.084 Cl
ATOM     74  C   UNL     1       8.332  11.393   1.296  1.00  0.00     0.002 A 
ENDBRANCH  67  68
ENDBRANCH  59  62
ENDBRANCH  57  58
ENDBRANCH  56  57
ENDBRANCH   1  56
TORSDOF 11
