REMARK SMILES C[C@@]1(CN2C(=O)c3ccc(C(=O)NCCCNC(=O)c4ccc(-c5c6nc(c(-c7ccccc7)c7ccc([nH]7)c(-c7ccccc7)c7nc(c(-c8ccccc8)c8ccc5[nH]8)C=C7)C=C6)cc4)cc3C2=O)CCCO1
REMARK SMILES IDX 15 1 14 2 13 3 11 4 12 5 10 7 4 8 5 9 70 10 6 11 7 12 69 13
REMARK SMILES IDX 71 14 8 15 68 16 9 17 3 18 2 19 1 20 72 21 75 22 73 23 74 24
REMARK SMILES IDX 16 25 17 26 18 27 19 29 20 30 21 31 67 32 22 33 66 34 23 35
REMARK SMILES IDX 24 36 25 37 60 38 26 39 65 40 59 41 61 42 27 43 64 44 58 45
REMARK SMILES IDX 57 46 28 48 50 49 35 50 49 51 36 52 39 53 48 54 62 55 37 56
REMARK SMILES IDX 38 57 47 59 63 60 40 61 29 62 30 63 34 64 31 65 33 66 32 67
REMARK SMILES IDX 51 68 52 69 56 70 53 71 55 72 54 73 41 74 42 75 46 76 43 77
REMARK SMILES IDX 45 78 44 79
REMARK H PARENT 13 6 17 28 61 47 39 58
REMARK Flexibility Score: inf
ROOT
ATOM      1  C   UNL     1      -2.049   9.032   1.294  1.00  0.00     0.042 C 
ENDROOT
BRANCH   1   2
ATOM      2  C   UNL     1      -1.092   8.425   2.320  1.00  0.00     0.118 C 
BRANCH   2   3
ATOM      3  N   UNL     1      -1.817   7.758   3.386  1.00  0.00    -0.352 N 
ATOM      4  C   UNL     1      -2.122   6.444   3.623  1.00  0.00     0.251 C 
ATOM      5  O   UNL     1      -2.704   6.182   4.676  1.00  0.00    -0.269 OA
ATOM      6  H   UNL     1      -2.156   8.373   4.076  1.00  0.00     0.163 HD
BRANCH   4   7
ATOM      7  C   UNL     1      -1.778   5.325   2.698  1.00  0.00     0.040 A 
ATOM      8  N   UNL     1      -1.031   0.941   1.486  1.00  0.00    -0.271 N 
ATOM      9  C   UNL     1      -1.034   1.845   0.465  1.00  0.00     0.261 C 
ATOM     10  C   UNL     1      -1.313   1.534   2.691  1.00  0.00     0.261 C 
ATOM     11  O   UNL     1      -0.926   1.666  -0.734  1.00  0.00    -0.269 OA
ATOM     12  C   UNL     1      -1.242   3.152   1.069  1.00  0.00     0.053 A 
ATOM     13  C   UNL     1      -1.426   2.971   2.425  1.00  0.00     0.054 A 
ATOM     14  O   UNL     1      -1.504   1.029   3.778  1.00  0.00    -0.269 OA
ATOM     15  C   UNL     1      -1.312   4.391   0.474  1.00  0.00     0.015 A 
ATOM     16  C   UNL     1      -1.698   4.036   3.265  1.00  0.00     0.028 A 
ATOM     17  C   UNL     1      -1.605   5.478   1.302  1.00  0.00     0.015 A 
BRANCH   8  18
ATOM     18  C   UNL     1      -0.834  -0.486   1.295  1.00  0.00     0.164 C 
BRANCH  18  19
ATOM     19  C   UNL     1       0.657  -0.907   1.166  1.00  0.00     0.084 C 
ATOM     20  C   UNL     1       1.387  -0.208   0.019  1.00  0.00     0.044 C 
ATOM     21  C   UNL     1       0.771  -2.429   1.020  1.00  0.00     0.039 C 
ATOM     22  O   UNL     1       1.344  -0.582   2.395  1.00  0.00    -0.373 OA
ATOM     23  C   UNL     1       0.841  -2.900   2.451  1.00  0.00     0.031 C 
ATOM     24  C   UNL     1       1.626  -1.790   3.114  1.00  0.00     0.161 C 
ENDBRANCH  18  19
ENDBRANCH   8  18
ENDBRANCH   4   7
ENDBRANCH   2   3
ENDBRANCH   1   2
BRANCH   1  25
ATOM     25  C   UNL     1      -2.705  10.324   1.771  1.00  0.00     0.118 C 
BRANCH  25  26
ATOM     26  N   UNL     1      -1.738  11.406   1.899  1.00  0.00    -0.352 N 
ATOM     27  C   UNL     1      -1.661  12.608   1.243  1.00  0.00     0.251 C 
ATOM     28  H   UNL     1      -1.027  11.249   2.562  1.00  0.00     0.163 HD
ATOM     29  O   UNL     1      -0.628  13.267   1.306  1.00  0.00    -0.269 OA
BRANCH  27  30
ATOM     30  C   UNL     1      -2.809  13.113   0.461  1.00  0.00     0.039 A 
ATOM     31  C   UNL     1      -2.565  13.771  -0.748  1.00  0.00     0.014 A 
ATOM     32  C   UNL     1      -4.116  12.983   0.936  1.00  0.00     0.014 A 
ATOM     33  C   UNL     1      -3.636  14.248  -1.506  1.00  0.00     0.010 A 
ATOM     34  C   UNL     1      -5.186  13.387   0.144  1.00  0.00     0.010 A 
ATOM     35  C   UNL     1      -4.956  14.029  -1.081  1.00  0.00    -0.014 A 
BRANCH  35  36
ATOM     36  C   UNL     1      -6.111  14.454  -1.908  1.00  0.00     0.031 A 
ATOM     37  C   UNL     1      -7.071  15.492  -1.399  1.00  0.00     0.074 A 
ATOM     38  C   UNL     1      -6.335  13.850  -3.090  1.00  0.00     0.049 A 
ATOM     39  N   UNL     1      -8.162  15.954  -1.956  1.00  0.00    -0.248 NA
ATOM     40  C   UNL     1      -6.780  16.069  -0.077  1.00  0.00     0.031 C 
ATOM     41  C   UNL     1      -5.493  12.807  -3.680  1.00  0.00     0.029 A 
ATOM     42  N   UNL     1      -7.339  14.026  -4.007  1.00  0.00    -0.354 N 
ATOM     43  C   UNL     1      -8.696  16.857  -1.046  1.00  0.00     0.074 A 
ATOM     44  C   UNL     1      -7.841  16.837   0.120  1.00  0.00     0.031 C 
ATOM     45  C   UNL     1      -5.992  12.467  -4.879  1.00  0.00     0.029 A 
ATOM     46  C   UNL     1      -7.213  13.229  -5.118  1.00  0.00     0.049 A 
ATOM     47  H   UNL     1      -8.080  14.662  -3.881  1.00  0.00     0.167 HD
ATOM     48  C   UNL     1      -9.791  17.645  -1.175  1.00  0.00     0.031 A 
ATOM     49  C   UNL     1      -7.995  13.122  -6.208  1.00  0.00     0.031 A 
ATOM     50  C   UNL     1     -10.644  17.655  -2.335  1.00  0.00     0.049 A 
ATOM     51  C   UNL     1      -9.229  13.972  -6.311  1.00  0.00     0.074 A 
ATOM     52  C   UNL     1     -11.744  18.455  -2.591  1.00  0.00     0.029 A 
ATOM     53  N   UNL     1     -10.498  16.813  -3.427  1.00  0.00    -0.354 N 
ATOM     54  N   UNL     1      -9.682  14.874  -5.476  1.00  0.00    -0.248 NA
ATOM     55  C   UNL     1     -10.055  13.790  -7.512  1.00  0.00     0.031 C 
ATOM     56  C   UNL     1     -12.303  18.050  -3.809  1.00  0.00     0.029 A 
ATOM     57  C   UNL     1     -11.511  17.045  -4.343  1.00  0.00     0.049 A 
ATOM     58  H   UNL     1      -9.781  16.147  -3.536  1.00  0.00     0.167 HD
ATOM     59  C   UNL     1     -10.831  15.390  -6.062  1.00  0.00     0.074 A 
ATOM     60  C   UNL     1     -10.996  14.706  -7.329  1.00  0.00     0.031 C 
ATOM     61  C   UNL     1     -11.670  16.347  -5.595  1.00  0.00     0.031 A 
BRANCH  48  62
ATOM     62  C   UNL     1     -10.137  18.535  -0.010  1.00  0.00    -0.014 A 
ATOM     63  C   UNL     1      -9.307  19.603   0.370  1.00  0.00     0.009 A 
ATOM     64  C   UNL     1     -11.309  18.296   0.725  1.00  0.00     0.009 A 
ATOM     65  C   UNL     1      -9.611  20.372   1.496  1.00  0.00     0.001 A 
ATOM     66  C   UNL     1     -11.630  19.090   1.829  1.00  0.00     0.001 A 
ATOM     67  C   UNL     1     -10.773  20.116   2.223  1.00  0.00     0.000 A 
ENDBRANCH  48  62
BRANCH  49  68
ATOM     68  C   UNL     1      -7.607  12.198  -7.306  1.00  0.00    -0.014 A 
ATOM     69  C   UNL     1      -7.142  12.712  -8.526  1.00  0.00     0.009 A 
ATOM     70  C   UNL     1      -7.671  10.807  -7.135  1.00  0.00     0.009 A 
ATOM     71  C   UNL     1      -6.762  11.851  -9.558  1.00  0.00     0.001 A 
ATOM     72  C   UNL     1      -7.264   9.948  -8.159  1.00  0.00     0.001 A 
ATOM     73  C   UNL     1      -6.817  10.471  -9.371  1.00  0.00     0.000 A 
ENDBRANCH  49  68
BRANCH  61  74
ATOM     74  C   UNL     1     -12.829  16.732  -6.473  1.00  0.00    -0.014 A 
ATOM     75  C   UNL     1     -13.916  15.867  -6.671  1.00  0.00     0.009 A 
ATOM     76  C   UNL     1     -12.848  17.998  -7.080  1.00  0.00     0.009 A 
ATOM     77  C   UNL     1     -14.983  16.250  -7.487  1.00  0.00     0.001 A 
ATOM     78  C   UNL     1     -13.931  18.391  -7.867  1.00  0.00     0.001 A 
ATOM     79  C   UNL     1     -14.993  17.513  -8.078  1.00  0.00     0.000 A 
ENDBRANCH  61  74
ENDBRANCH  35  36
ENDBRANCH  27  30
ENDBRANCH  25  26
ENDBRANCH   1  25
TORSDOF 12
