REMARK SMILES CC[C@@H]1C=CCN1S(=O)(=O)c1sc2c(c1C(=O)NCCCNC(=O)c1ccc(-c3c4nc(c(-c5ccccc5)c5ccc([nH]5)c(-c5ccccc5)c5nc(c(-c6ccccc6)c6ccc3[nH]6)C=C5)C=C4)cc1)CC[NH2+]C2
REMARK SMILES IDX 19 1 18 2 16 3 17 4 15 6 11 7 12 8 13 9 14 10 76 11 73 12
REMARK SMILES IDX 75 13 74 14 8 17 9 18 10 19 7 20 3 21 4 22 5 23 6 24 2 25
REMARK SMILES IDX 1 26 20 27 21 28 22 29 23 30 24 32 25 33 26 34 72 35 27 36
REMARK SMILES IDX 71 37 28 38 29 39 30 40 65 41 31 42 70 43 64 44 66 45 32 46
REMARK SMILES IDX 69 47 63 48 62 49 33 51 55 52 40 53 54 54 41 55 44 56 53 57
REMARK SMILES IDX 67 58 42 59 43 60 52 62 68 63 45 64 34 65 35 66 39 67 36 68
REMARK SMILES IDX 38 69 37 70 56 71 57 72 61 73 58 74 60 75 59 76 46 77 47 78
REMARK SMILES IDX 51 79 48 80 50 81 49 82
REMARK H PARENT 18 5 75 15 75 16 22 31 66 50 44 61
REMARK Flexibility Score: inf
ROOT
ATOM      1  C   UNL     1       2.751   2.420  -0.097  1.00  0.00     0.118 C 
ENDROOT
BRANCH   1   2
ATOM      2  N   UNL     1       3.989   2.925   0.381  1.00  0.00    -0.352 N 
ATOM      3  C   UNL     1       5.110   2.304   0.812  1.00  0.00     0.253 C 
ATOM      4  O   UNL     1       5.871   3.116   1.356  1.00  0.00    -0.269 OA
ATOM      5  H   UNL     1       4.040   3.908   0.404  1.00  0.00     0.163 HD
BRANCH   3   6
ATOM      6  C   UNL     1       5.507   0.874   0.670  1.00  0.00     0.074 A 
ATOM      7  C   UNL     1       4.857  -0.373   0.425  1.00  0.00     0.148 A 
ATOM      8  S   UNL     1       6.022  -1.681   0.534  1.00  0.00    -0.120 S 
ATOM      9  C   UNL     1       7.319  -0.695   0.860  1.00  0.00     0.064 A 
ATOM     10  C   UNL     1       6.975   0.631   0.841  1.00  0.00    -0.009 A 
ATOM     11  C   UNL     1       8.695  -1.249   1.074  1.00  0.00     0.308 C 
ATOM     12  C   UNL     1       8.082   1.658   1.040  1.00  0.00     0.099 C 
ATOM     13  N   UNL     1       9.594  -0.243   1.663  1.00  0.00    -0.342 N 
ATOM     14  C   UNL     1       9.485   1.024   0.918  1.00  0.00     0.265 C 
ATOM     15  H   UNL     1       9.334  -0.086   2.637  1.00  0.00     0.346 HD
ATOM     16  H   UNL     1      10.555  -0.581   1.613  1.00  0.00     0.346 HD
BRANCH   7  17
ATOM     17  S   UNL     1       3.212  -1.198   0.056  1.00  0.00     0.254 S 
ATOM     18  O   UNL     1       3.528  -2.407  -0.691  1.00  0.00    -0.206 OA
ATOM     19  O   UNL     1       2.354  -0.245  -0.588  1.00  0.00    -0.206 OA
BRANCH  17  20
ATOM     20  N   UNL     1       2.470  -1.692   1.546  1.00  0.00    -0.186 NA
ATOM     21  C   UNL     1       0.999  -2.069   1.425  1.00  0.00     0.096 C 
ATOM     22  C   UNL     1       1.006  -3.551   1.635  1.00  0.00    -0.010 C 
ATOM     23  C   UNL     1       2.179  -3.977   2.098  1.00  0.00    -0.013 C 
ATOM     24  C   UNL     1       3.168  -2.873   2.167  1.00  0.00     0.130 C 
BRANCH  21  25
ATOM     25  C   UNL     1       0.159  -1.486   2.584  1.00  0.00     0.021 C 
ATOM     26  C   UNL     1      -0.583  -0.203   2.264  1.00  0.00     0.006 C 
ENDBRANCH  21  25
ENDBRANCH  17  20
ENDBRANCH   7  17
ENDBRANCH   3   6
ENDBRANCH   1   2
BRANCH   1  27
ATOM     27  C   UNL     1       1.910   1.974   1.104  1.00  0.00     0.042 C 
BRANCH  27  28
ATOM     28  C   UNL     1       0.655   2.803   1.189  1.00  0.00     0.118 C 
BRANCH  28  29
ATOM     29  N   UNL     1      -0.295   2.522   0.095  1.00  0.00    -0.352 N 
ATOM     30  C   UNL     1      -1.558   3.068  -0.123  1.00  0.00     0.251 C 
ATOM     31  H   UNL     1       0.003   1.860  -0.569  1.00  0.00     0.163 HD
ATOM     32  O   UNL     1      -2.361   2.556  -0.891  1.00  0.00    -0.269 OA
BRANCH  30  33
ATOM     33  C   UNL     1      -1.895   4.303   0.606  1.00  0.00     0.039 A 
ATOM     34  C   UNL     1      -3.115   4.566   1.235  1.00  0.00     0.014 A 
ATOM     35  C   UNL     1      -0.824   5.140   0.802  1.00  0.00     0.014 A 
ATOM     36  C   UNL     1      -3.173   5.655   2.111  1.00  0.00     0.010 A 
ATOM     37  C   UNL     1      -0.776   5.741   2.010  1.00  0.00     0.010 A 
ATOM     38  C   UNL     1      -1.965   6.247   2.485  1.00  0.00    -0.014 A 
BRANCH  38  39
ATOM     39  C   UNL     1      -1.776   7.365   3.393  1.00  0.00     0.031 A 
ATOM     40  C   UNL     1      -2.127   7.080   4.804  1.00  0.00     0.074 A 
ATOM     41  C   UNL     1      -0.963   8.392   3.030  1.00  0.00     0.049 A 
ATOM     42  N   UNL     1      -3.036   7.645   5.522  1.00  0.00    -0.248 NA
ATOM     43  C   UNL     1      -1.470   5.935   5.461  1.00  0.00     0.031 C 
ATOM     44  C   UNL     1      -0.226   8.584   1.763  1.00  0.00     0.029 A 
ATOM     45  N   UNL     1      -0.478   9.409   3.785  1.00  0.00    -0.354 N 
ATOM     46  C   UNL     1      -2.932   7.068   6.783  1.00  0.00     0.074 A 
ATOM     47  C   UNL     1      -2.118   5.890   6.625  1.00  0.00     0.031 C 
ATOM     48  C   UNL     1       0.775   9.476   1.941  1.00  0.00     0.029 A 
ATOM     49  C   UNL     1       0.643  10.050   3.264  1.00  0.00     0.049 A 
ATOM     50  H   UNL     1      -0.889   9.674   4.640  1.00  0.00     0.167 HD
ATOM     51  C   UNL     1      -3.280   7.748   7.911  1.00  0.00     0.031 A 
ATOM     52  C   UNL     1       1.425  10.963   3.896  1.00  0.00     0.031 A 
ATOM     53  C   UNL     1      -4.009   8.951   7.599  1.00  0.00     0.049 A 
ATOM     54  C   UNL     1       0.640  11.472   5.048  1.00  0.00     0.074 A 
ATOM     55  C   UNL     1      -5.195   9.228   6.949  1.00  0.00     0.029 A 
ATOM     56  N   UNL     1      -3.292  10.126   7.590  1.00  0.00    -0.354 N 
ATOM     57  N   UNL     1      -0.465  12.149   4.911  1.00  0.00    -0.248 NA
ATOM     58  C   UNL     1       0.804  10.795   6.325  1.00  0.00     0.031 C 
ATOM     59  C   UNL     1      -4.911  10.380   6.154  1.00  0.00     0.029 A 
ATOM     60  C   UNL     1      -3.604  10.789   6.430  1.00  0.00     0.049 A 
ATOM     61  H   UNL     1      -2.670  10.434   8.288  1.00  0.00     0.167 HD
ATOM     62  C   UNL     1      -1.319  11.634   5.877  1.00  0.00     0.074 A 
ATOM     63  C   UNL     1      -0.453  10.866   6.775  1.00  0.00     0.031 C 
ATOM     64  C   UNL     1      -2.673  11.616   5.691  1.00  0.00     0.031 A 
BRANCH  51  65
ATOM     65  C   UNL     1      -2.607   7.555   9.245  1.00  0.00    -0.014 A 
ATOM     66  C   UNL     1      -3.125   8.228  10.365  1.00  0.00     0.009 A 
ATOM     67  C   UNL     1      -1.337   6.964   9.395  1.00  0.00     0.009 A 
ATOM     68  C   UNL     1      -2.383   8.356  11.546  1.00  0.00     0.001 A 
ATOM     69  C   UNL     1      -0.612   7.052  10.585  1.00  0.00     0.001 A 
ATOM     70  C   UNL     1      -1.124   7.773  11.652  1.00  0.00     0.000 A 
ENDBRANCH  51  65
BRANCH  52  71
ATOM     71  C   UNL     1       2.887  11.171   3.767  1.00  0.00    -0.014 A 
ATOM     72  C   UNL     1       3.499  12.359   4.199  1.00  0.00     0.009 A 
ATOM     73  C   UNL     1       3.728  10.084   3.459  1.00  0.00     0.009 A 
ATOM     74  C   UNL     1       4.893  12.443   4.346  1.00  0.00     0.001 A 
ATOM     75  C   UNL     1       5.117  10.166   3.607  1.00  0.00     0.001 A 
ATOM     76  C   UNL     1       5.700  11.343   4.064  1.00  0.00     0.000 A 
ENDBRANCH  52  71
BRANCH  64  77
ATOM     77  C   UNL     1      -3.227  12.313   4.466  1.00  0.00    -0.014 A 
ATOM     78  C   UNL     1      -2.963  11.884   3.151  1.00  0.00     0.009 A 
ATOM     79  C   UNL     1      -4.184  13.319   4.647  1.00  0.00     0.009 A 
ATOM     80  C   UNL     1      -3.618  12.458   2.055  1.00  0.00     0.001 A 
ATOM     81  C   UNL     1      -4.851  13.882   3.556  1.00  0.00     0.001 A 
ATOM     82  C   UNL     1      -4.567  13.455   2.260  1.00  0.00     0.000 A 
ENDBRANCH  64  77
ENDBRANCH  38  39
ENDBRANCH  30  33
ENDBRANCH  28  29
ENDBRANCH  27  28
ENDBRANCH   1  27
TORSDOF 13
