REMARK SMILES Cc1cccc(N2CCN(C(=O)[C@@H]3CC=CC[C@@H]3C(=O)NCCCNC(=O)c3ccc(-c4c5nc(c(-c6ccccc6)c6ccc([nH]6)c(-c6ccccc6)c6nc(c(-c7ccccc7)c7ccc4[nH]7)C=C6)C=C5)cc3)CC2)c1C
REMARK SMILES IDX 23 1 22 2 21 3 19 4 20 5 18 7 13 8 14 9 15 10 17 11 16 12
REMARK SMILES IDX 11 13 7 14 8 15 77 16 9 17 76 18 10 19 12 20 6 21 1 22 2 23
REMARK SMILES IDX 3 24 78 25 4 26 79 27 5 28 24 29 25 30 26 31 27 33 28 34
REMARK SMILES IDX 29 35 75 36 30 37 74 38 31 39 32 40 33 41 68 42 34 43 73 44
REMARK SMILES IDX 67 45 69 46 35 47 72 48 66 49 65 50 36 52 58 53 43 54 57 55
REMARK SMILES IDX 44 56 47 57 56 58 70 59 45 60 46 61 55 63 71 64 48 65 37 66
REMARK SMILES IDX 38 67 42 68 39 69 41 70 40 71 59 72 60 73 64 74 61 75 63 76
REMARK SMILES IDX 62 77 49 78 50 79 54 80 51 81 53 82 52 83
REMARK H PARENT 21 6 25 32 69 51 47 62
REMARK Flexibility Score: inf
ROOT
ATOM      1  C   UNL     1      -2.191 -10.672   1.110  1.00  0.00     0.042 C 
ENDROOT
BRANCH   1   2
ATOM      2  C   UNL     1      -1.555 -10.005  -0.097  1.00  0.00     0.117 C 
BRANCH   2   3
ATOM      3  N   UNL     1      -2.485  -9.283  -0.936  1.00  0.00    -0.356 N 
ATOM      4  C   UNL     1      -2.345  -8.280  -1.833  1.00  0.00     0.224 C 
ATOM      5  O   UNL     1      -3.381  -8.008  -2.458  1.00  0.00    -0.275 OA
ATOM      6  H   UNL     1      -3.416  -9.585  -0.834  1.00  0.00     0.163 HD
BRANCH   4   7
ATOM      7  C   UNL     1      -1.046  -7.536  -2.202  1.00  0.00     0.095 C 
ATOM      8  C   UNL     1       0.266  -7.765  -1.456  1.00  0.00     0.095 C 
ATOM      9  C   UNL     1       0.263  -7.095  -0.035  1.00  0.00     0.041 C 
ATOM     10  C   UNL     1      -0.723  -5.972   0.157  1.00  0.00    -0.030 C 
ATOM     11  C   UNL     1      -1.360  -6.019  -2.225  1.00  0.00     0.041 C 
ATOM     12  C   UNL     1      -1.449  -5.460  -0.844  1.00  0.00    -0.030 C 
BRANCH   8  13
ATOM     13  C   UNL     1       0.963  -9.152  -1.466  1.00  0.00     0.226 C 
ATOM     14  N   UNL     1       0.100 -12.870  -2.962  1.00  0.00    -0.368 N 
ATOM     15  C   UNL     1       1.337 -12.494  -2.247  1.00  0.00     0.138 C 
ATOM     16  C   UNL     1      -0.811 -11.752  -3.334  1.00  0.00     0.138 C 
ATOM     17  C   UNL     1       1.897 -11.108  -2.598  1.00  0.00     0.141 C 
ATOM     18  C   UNL     1      -0.180 -10.341  -3.475  1.00  0.00     0.141 C 
ATOM     19  N   UNL     1       0.880 -10.064  -2.508  1.00  0.00    -0.339 N 
ATOM     20  O   UNL     1       1.733  -9.397  -0.525  1.00  0.00    -0.275 OA
BRANCH  14  21
ATOM     21  C   UNL     1      -0.470 -14.170  -2.839  1.00  0.00     0.040 A 
ATOM     22  C   UNL     1      -0.042 -17.803  -1.472  1.00  0.00     0.044 C 
ATOM     23  C   UNL     1      -0.595 -16.572  -2.156  1.00  0.00    -0.046 A 
ATOM     24  C   UNL     1      -1.865 -16.697  -2.724  1.00  0.00     0.004 A 
ATOM     25  C   UNL     1       0.117 -15.319  -2.206  1.00  0.00    -0.025 A 
ATOM     26  C   UNL     1      -2.438 -15.618  -3.358  1.00  0.00     0.002 A 
ATOM     27  C   UNL     1       1.502 -15.332  -1.595  1.00  0.00     0.047 C 
ATOM     28  C   UNL     1      -1.753 -14.400  -3.413  1.00  0.00     0.026 A 
ENDBRANCH  14  21
ENDBRANCH   8  13
ENDBRANCH   4   7
ENDBRANCH   2   3
ENDBRANCH   1   2
BRANCH   1  29
ATOM     29  C   UNL     1      -2.459 -12.141   0.850  1.00  0.00     0.118 C 
BRANCH  29  30
ATOM     30  N   UNL     1      -1.239 -12.931   0.712  1.00  0.00    -0.352 N 
ATOM     31  C   UNL     1      -1.050 -14.276   0.935  1.00  0.00     0.251 C 
ATOM     32  H   UNL     1      -0.442 -12.433   0.418  1.00  0.00     0.163 HD
ATOM     33  O   UNL     1       0.087 -14.737   0.990  1.00  0.00    -0.269 OA
BRANCH  31  34
ATOM     34  C   UNL     1      -2.207 -15.128   1.274  1.00  0.00     0.039 A 
ATOM     35  C   UNL     1      -2.041 -16.037   2.320  1.00  0.00     0.014 A 
ATOM     36  C   UNL     1      -3.471 -14.889   0.735  1.00  0.00     0.014 A 
ATOM     37  C   UNL     1      -3.164 -16.539   2.962  1.00  0.00     0.010 A 
ATOM     38  C   UNL     1      -4.588 -15.278   1.456  1.00  0.00     0.010 A 
ATOM     39  C   UNL     1      -4.434 -16.060   2.606  1.00  0.00    -0.014 A 
BRANCH  39  40
ATOM     40  C   UNL     1      -5.575 -16.279   3.518  1.00  0.00     0.031 A 
ATOM     41  C   UNL     1      -6.755 -17.079   3.075  1.00  0.00     0.074 A 
ATOM     42  C   UNL     1      -5.533 -15.705   4.738  1.00  0.00     0.049 A 
ATOM     43  N   UNL     1      -7.799 -17.450   3.769  1.00  0.00    -0.248 NA
ATOM     44  C   UNL     1      -6.787 -17.496   1.664  1.00  0.00     0.031 C 
ATOM     45  C   UNL     1      -4.465 -14.820   5.223  1.00  0.00     0.029 A 
ATOM     46  N   UNL     1      -6.387 -15.797   5.805  1.00  0.00    -0.354 N 
ATOM     47  C   UNL     1      -8.611 -18.137   2.879  1.00  0.00     0.074 A 
ATOM     48  C   UNL     1      -7.973 -18.078   1.583  1.00  0.00     0.031 C 
ATOM     49  C   UNL     1      -4.688 -14.520   6.511  1.00  0.00     0.029 A 
ATOM     50  C   UNL     1      -5.925 -15.162   6.934  1.00  0.00     0.049 A 
ATOM     51  H   UNL     1      -7.248 -16.273   5.768  1.00  0.00     0.167 HD
ATOM     52  C   UNL     1      -9.772 -18.782   3.131  1.00  0.00     0.031 A 
ATOM     53  C   UNL     1      -6.431 -15.131   8.180  1.00  0.00     0.031 A 
ATOM     54  C   UNL     1     -10.388 -18.825   4.428  1.00  0.00     0.049 A 
ATOM     55  C   UNL     1      -7.690 -15.904   8.449  1.00  0.00     0.074 A 
ATOM     56  C   UNL     1     -11.548 -19.469   4.817  1.00  0.00     0.029 A 
ATOM     57  N   UNL     1      -9.880 -18.191   5.554  1.00  0.00    -0.354 N 
ATOM     58  N   UNL     1      -8.405 -16.624   7.617  1.00  0.00    -0.248 NA
ATOM     59  C   UNL     1      -8.201 -15.877   9.824  1.00  0.00     0.031 C 
ATOM     60  C   UNL     1     -11.758 -19.197   6.174  1.00  0.00     0.029 A 
ATOM     61  C   UNL     1     -10.707 -18.419   6.638  1.00  0.00     0.049 A 
ATOM     62  H   UNL     1      -9.053 -17.657   5.577  1.00  0.00     0.167 HD
ATOM     63  C   UNL     1      -9.447 -17.146   8.369  1.00  0.00     0.074 A 
ATOM     64  C   UNL     1      -9.251 -16.682   9.730  1.00  0.00     0.031 C 
ATOM     65  C   UNL     1     -10.478 -17.931   7.974  1.00  0.00     0.031 A 
BRANCH  52  66
ATOM     66  C   UNL     1     -10.428 -19.473   1.970  1.00  0.00    -0.014 A 
ATOM     67  C   UNL     1      -9.857 -20.622   1.395  1.00  0.00     0.009 A 
ATOM     68  C   UNL     1     -11.611 -18.957   1.421  1.00  0.00     0.009 A 
ATOM     69  C   UNL     1     -10.430 -21.208   0.265  1.00  0.00     0.001 A 
ATOM     70  C   UNL     1     -12.197 -19.562   0.308  1.00  0.00     0.001 A 
ATOM     71  C   UNL     1     -11.600 -20.679  -0.277  1.00  0.00     0.000 A 
ENDBRANCH  52  66
BRANCH  53  72
ATOM     72  C   UNL     1      -5.718 -14.403   9.263  1.00  0.00    -0.014 A 
ATOM     73  C   UNL     1      -5.065 -15.109  10.286  1.00  0.00     0.009 A 
ATOM     74  C   UNL     1      -5.667 -13.000   9.273  1.00  0.00     0.009 A 
ATOM     75  C   UNL     1      -4.397 -14.426  11.306  1.00  0.00     0.001 A 
ATOM     76  C   UNL     1      -4.976 -12.320  10.279  1.00  0.00     0.001 A 
ATOM     77  C   UNL     1      -4.349 -13.033  11.300  1.00  0.00     0.000 A 
ENDBRANCH  53  72
BRANCH  65  78
ATOM     78  C   UNL     1     -11.457 -18.334   9.036  1.00  0.00    -0.014 A 
ATOM     79  C   UNL     1     -12.393 -17.418   9.537  1.00  0.00     0.009 A 
ATOM     80  C   UNL     1     -11.462 -19.654   9.512  1.00  0.00     0.009 A 
ATOM     81  C   UNL     1     -13.299 -17.810  10.523  1.00  0.00     0.001 A 
ATOM     82  C   UNL     1     -12.386 -20.048  10.479  1.00  0.00     0.001 A 
ATOM     83  C   UNL     1     -13.297 -19.124  10.989  1.00  0.00     0.000 A 
ENDBRANCH  65  78
ENDBRANCH  39  40
ENDBRANCH  31  34
ENDBRANCH  29  30
ENDBRANCH   1  29
TORSDOF 12
