REMARK SMILES CCc1cc(C)c2c(c1)C=C(C(=O)NCCCNC(=O)c1ccc(-c3c4nc(c(-c5ccccc5)c5ccc([nH]5)c(-c5ccccc5)c5nc(c(-c6ccccc6)c6ccc3[nH]6)C=C5)C=C4)cc1)[C@@H](C(F)(F)F)O2
REMARK SMILES IDX 16 1 15 2 14 3 12 4 13 5 11 7 3 8 4 9 9 10 5 11 8 12 6 13
REMARK SMILES IDX 7 14 10 15 74 16 69 17 2 18 1 19 70 20 71 21 72 22 73 23
REMARK SMILES IDX 17 24 18 25 19 26 20 28 21 29 22 30 68 31 23 32 67 33 24 34
REMARK SMILES IDX 25 35 26 36 61 37 27 38 66 39 60 40 62 41 28 42 65 43 59 44
REMARK SMILES IDX 58 45 29 47 51 48 36 49 50 50 37 51 40 52 49 53 63 54 38 55
REMARK SMILES IDX 39 56 48 58 64 59 41 60 30 61 31 62 35 63 32 64 34 65 33 66
REMARK SMILES IDX 52 67 53 68 57 69 54 70 56 71 55 72 42 73 43 74 47 75 44 76
REMARK SMILES IDX 46 77 45 78
REMARK H PARENT 14 6 18 27 62 46 40 57
REMARK Flexibility Score: inf
ROOT
ATOM      1  C   UNL     1       6.185   8.994   0.777  1.00  0.00     0.042 C 
ENDROOT
BRANCH   1   2
ATOM      2  C   UNL     1       5.710   8.209  -0.437  1.00  0.00     0.118 C 
BRANCH   2   3
ATOM      3  N   UNL     1       6.185   6.834  -0.399  1.00  0.00    -0.352 N 
ATOM      4  C   UNL     1       5.673   5.612  -0.128  1.00  0.00     0.251 C 
ATOM      5  O   UNL     1       6.490   4.686  -0.165  1.00  0.00    -0.270 OA
ATOM      6  H   UNL     1       7.139   6.779  -0.634  1.00  0.00     0.163 HD
BRANCH   4   7
ATOM      7  C   UNL     1       4.246   5.330   0.190  1.00  0.00     0.067 C 
ATOM      8  C   UNL     1       0.830   2.018   1.063  1.00  0.00    -0.047 A 
ATOM      9  C   UNL     1      -0.102   3.049   1.267  1.00  0.00     0.011 A 
ATOM     10  C   UNL     1       2.170   2.353   0.823  1.00  0.00     0.015 A 
ATOM     11  C   UNL     1       0.284   4.395   1.218  1.00  0.00    -0.008 A 
ATOM     12  C   UNL     1       2.567   3.692   0.751  1.00  0.00     0.018 A 
ATOM     13  C   UNL     1      -0.723   5.488   1.431  1.00  0.00     0.048 C 
ATOM     14  C   UNL     1       1.622   4.701   0.946  1.00  0.00     0.130 A 
ATOM     15  C   UNL     1       3.956   4.051   0.492  1.00  0.00     0.025 C 
ATOM     16  O   UNL     1       1.972   6.024   0.927  1.00  0.00    -0.475 OA
ATOM     17  C   UNL     1       3.149   6.354   0.142  1.00  0.00     0.314 C 
BRANCH   8  18
ATOM     18  C   UNL     1       0.389   0.577   1.153  1.00  0.00     0.032 C 
ATOM     19  C   UNL     1       0.778  -0.261  -0.058  1.00  0.00     0.009 C 
ENDBRANCH   8  18
BRANCH  17  20
ATOM     20  C   UNL     1       2.721   6.714  -1.294  1.00  0.00     0.429 C 
ATOM     21  F   UNL     1       2.023   7.878  -1.298  1.00  0.00    -0.167 F 
ATOM     22  F   UNL     1       3.779   6.903  -2.119  1.00  0.00    -0.167 F 
ATOM     23  F   UNL     1       1.942   5.771  -1.866  1.00  0.00    -0.167 F 
ENDBRANCH  17  20
ENDBRANCH   4   7
ENDBRANCH   2   3
ENDBRANCH   1   2
BRANCH   1  24
ATOM     24  C   UNL     1       7.652   9.385   0.652  1.00  0.00     0.118 C 
BRANCH  24  25
ATOM     25  N   UNL     1       7.850  10.376  -0.403  1.00  0.00    -0.352 N 
ATOM     26  C   UNL     1       7.939  11.741  -0.301  1.00  0.00     0.251 C 
ATOM     27  H   UNL     1       7.931  10.013  -1.314  1.00  0.00     0.163 HD
ATOM     28  O   UNL     1       7.800  12.452  -1.292  1.00  0.00    -0.269 OA
BRANCH  26  29
ATOM     29  C   UNL     1       8.202  12.349   1.015  1.00  0.00     0.039 A 
ATOM     30  C   UNL     1       7.447  13.446   1.433  1.00  0.00     0.014 A 
ATOM     31  C   UNL     1       9.213  11.828   1.827  1.00  0.00     0.014 A 
ATOM     32  C   UNL     1       7.673  13.987   2.699  1.00  0.00     0.010 A 
ATOM     33  C   UNL     1       9.380  12.312   3.115  1.00  0.00     0.010 A 
ATOM     34  C   UNL     1       8.625  13.408   3.554  1.00  0.00    -0.014 A 
BRANCH  34  35
ATOM     35  C   UNL     1       8.893  13.972   4.895  1.00  0.00     0.031 A 
ATOM     36  C   UNL     1      10.219  14.620   5.171  1.00  0.00     0.074 A 
ATOM     37  C   UNL     1       7.966  13.865   5.864  1.00  0.00     0.049 A 
ATOM     38  N   UNL     1      10.655  15.157   6.280  1.00  0.00    -0.248 NA
ATOM     39  C   UNL     1      11.193  14.651   4.065  1.00  0.00     0.031 C 
ATOM     40  C   UNL     1       6.658  13.223   5.720  1.00  0.00     0.029 A 
ATOM     41  N   UNL     1       7.982  14.302   7.164  1.00  0.00    -0.354 N 
ATOM     42  C   UNL     1      11.947  15.582   6.005  1.00  0.00     0.074 A 
ATOM     43  C   UNL     1      12.252  15.191   4.649  1.00  0.00     0.031 C 
ATOM     44  C   UNL     1       5.981  13.345   6.873  1.00  0.00     0.029 A 
ATOM     45  C   UNL     1       6.816  14.049   7.843  1.00  0.00     0.049 A 
ATOM     46  H   UNL     1       8.756  14.755   7.571  1.00  0.00     0.167 HD
ATOM     47  C   UNL     1      12.793  16.271   6.802  1.00  0.00     0.031 A 
ATOM     48  C   UNL     1       6.456  14.361   9.103  1.00  0.00     0.031 A 
ATOM     49  C   UNL     1      12.477  16.688   8.137  1.00  0.00     0.049 A 
ATOM     50  C   UNL     1       7.418  15.113   9.977  1.00  0.00     0.074 A 
ATOM     51  C   UNL     1      13.246  17.441   9.005  1.00  0.00     0.029 A 
ATOM     52  N   UNL     1      11.292  16.394   8.791  1.00  0.00    -0.354 N 
ATOM     53  N   UNL     1       8.617  15.555   9.684  1.00  0.00    -0.248 NA
ATOM     54  C   UNL     1       6.982  15.414  11.348  1.00  0.00     0.031 C 
ATOM     55  C   UNL     1      12.539  17.575  10.201  1.00  0.00     0.029 A 
ATOM     56  C   UNL     1      11.316  16.936  10.061  1.00  0.00     0.049 A 
ATOM     57  H   UNL     1      10.547  15.876   8.409  1.00  0.00     0.167 HD
ATOM     58  C   UNL     1       9.072  16.201  10.825  1.00  0.00     0.074 A 
ATOM     59  C   UNL     1       8.020  16.098  11.816  1.00  0.00     0.031 C 
ATOM     60  C   UNL     1      10.255  16.826  11.028  1.00  0.00     0.031 A 
BRANCH  47  61
ATOM     61  C   UNL     1      14.131  16.646   6.240  1.00  0.00    -0.014 A 
ATOM     62  C   UNL     1      14.246  17.681   5.300  1.00  0.00     0.009 A 
ATOM     63  C   UNL     1      15.292  16.010   6.703  1.00  0.00     0.009 A 
ATOM     64  C   UNL     1      15.499  18.061   4.819  1.00  0.00     0.001 A 
ATOM     65  C   UNL     1      16.546  16.407   6.237  1.00  0.00     0.001 A 
ATOM     66  C   UNL     1      16.648  17.429   5.293  1.00  0.00     0.000 A 
ENDBRANCH  47  61
BRANCH  48  67
ATOM     67  C   UNL     1       5.098  14.003   9.582  1.00  0.00    -0.014 A 
ATOM     68  C   UNL     1       4.100  14.986   9.665  1.00  0.00     0.009 A 
ATOM     69  C   UNL     1       4.774  12.675   9.901  1.00  0.00     0.009 A 
ATOM     70  C   UNL     1       2.804  14.646  10.061  1.00  0.00     0.001 A 
ATOM     71  C   UNL     1       3.473  12.336  10.281  1.00  0.00     0.001 A 
ATOM     72  C   UNL     1       2.491  13.322  10.363  1.00  0.00     0.000 A 
ENDBRANCH  48  67
BRANCH  60  73
ATOM     73  C   UNL     1      10.501  17.465  12.361  1.00  0.00    -0.014 A 
ATOM     74  C   UNL     1      10.938  16.695  13.448  1.00  0.00     0.009 A 
ATOM     75  C   UNL     1      10.464  18.863  12.478  1.00  0.00     0.009 A 
ATOM     76  C   UNL     1      11.346  17.317  14.628  1.00  0.00     0.001 A 
ATOM     77  C   UNL     1      10.889  19.482  13.653  1.00  0.00     0.001 A 
ATOM     78  C   UNL     1      11.333  18.709  14.726  1.00  0.00     0.000 A 
ENDBRANCH  60  73
ENDBRANCH  34  35
ENDBRANCH  26  29
ENDBRANCH  24  25
ENDBRANCH   1  24
TORSDOF 12
