REMARK SMILES [NH3+][C@H](c1ccc(C(=O)NCCCNC(=O)c2ccc(-c3c4nc(c(-c5ccccc5)c5ccc([nH]5)c(-c5ccccc5)c5nc(c(-c6ccccc6)c6ccc3[nH]6)C=C5)C=C4)cc2)cc1Cl)C(F)(F)F
REMARK SMILES IDX 11 1 10 2 9 3 7 4 8 5 6 7 3 8 4 9 65 10 5 11 64 12 66 13
REMARK SMILES IDX 2 14 1 15 67 19 68 20 69 21 70 22 12 23 13 24 14 25 15 27
REMARK SMILES IDX 16 28 17 29 63 30 18 31 62 32 19 33 20 34 21 35 56 36 22 37
REMARK SMILES IDX 61 38 55 39 57 40 23 41 60 42 54 43 53 44 24 46 46 47 31 48
REMARK SMILES IDX 45 49 32 50 35 51 44 52 58 53 33 54 34 55 43 57 59 58 36 59
REMARK SMILES IDX 25 60 26 61 30 62 27 63 29 64 28 65 47 66 48 67 52 68 49 69
REMARK SMILES IDX 51 70 50 71 37 72 38 73 42 74 39 75 41 76 40 77
REMARK H PARENT 9 6 1 16 1 17 1 18 13 26 57 45 35 56
REMARK Flexibility Score: inf
ROOT
ATOM      1  C   UNL     1       6.003   3.255   0.221  1.00  0.00     0.042 C 
ENDROOT
BRANCH   1   2
ATOM      2  C   UNL     1       4.633   3.921   0.098  1.00  0.00     0.118 C 
BRANCH   2   3
ATOM      3  N   UNL     1       4.124   3.838  -1.259  1.00  0.00    -0.352 N 
ATOM      4  C   UNL     1       3.183   3.024  -1.835  1.00  0.00     0.251 C 
ATOM      5  O   UNL     1       2.871   3.239  -3.005  1.00  0.00    -0.269 OA
ATOM      6  H   UNL     1       4.529   4.485  -1.881  1.00  0.00     0.163 HD
BRANCH   4   7
ATOM      7  C   UNL     1       2.497   1.928  -1.100  1.00  0.00     0.041 A 
ATOM      8  C   UNL     1       1.039  -0.167   0.206  1.00  0.00     0.037 A 
ATOM      9  C   UNL     1       0.471   0.609  -0.826  1.00  0.00     0.012 A 
ATOM     10  C   UNL     1       2.395   0.093   0.498  1.00  0.00     0.051 A 
ATOM     11  C   UNL     1       1.185   1.631  -1.467  1.00  0.00     0.014 A 
ATOM     12  C   UNL     1       3.105   1.127  -0.139  1.00  0.00     0.034 A 
ATOM     13  Cl  UNL     1       3.322  -0.847   1.622  1.00  0.00    -0.084 Cl
BRANCH   8  14
ATOM     14  C   UNL     1       0.221  -1.286   0.887  1.00  0.00     0.320 C 
BRANCH  14  15
ATOM     15  N   UNL     1       0.460  -1.334   2.357  1.00  0.00    -0.344 N 
ATOM     16  H   UNL     1      -0.096  -2.083   2.768  1.00  0.00     0.345 HD
ATOM     17  H   UNL     1       0.191  -0.443   2.774  1.00  0.00     0.345 HD
ATOM     18  H   UNL     1       1.449  -1.508   2.535  1.00  0.00     0.345 HD
ENDBRANCH  14  15
BRANCH  14  19
ATOM     19  C   UNL     1      -1.321  -1.269   0.588  1.00  0.00     0.445 C 
ATOM     20  F   UNL     1      -1.584  -1.476  -0.724  1.00  0.00    -0.165 F 
ATOM     21  F   UNL     1      -1.976  -2.237   1.271  1.00  0.00    -0.165 F 
ATOM     22  F   UNL     1      -1.877  -0.083   0.939  1.00  0.00    -0.165 F 
ENDBRANCH  14  19
ENDBRANCH   8  14
ENDBRANCH   4   7
ENDBRANCH   2   3
ENDBRANCH   1   2
BRANCH   1  23
ATOM     23  C   UNL     1       7.142   4.074  -0.378  1.00  0.00     0.118 C 
BRANCH  23  24
ATOM     24  N   UNL     1       7.444   5.254   0.416  1.00  0.00    -0.352 N 
ATOM     25  C   UNL     1       8.606   5.630   1.042  1.00  0.00     0.251 C 
ATOM     26  H   UNL     1       6.695   5.884   0.521  1.00  0.00     0.163 HD
ATOM     27  O   UNL     1       8.579   6.557   1.847  1.00  0.00    -0.269 OA
BRANCH  25  28
ATOM     28  C   UNL     1       9.886   4.935   0.771  1.00  0.00     0.039 A 
ATOM     29  C   UNL     1      10.776   4.740   1.832  1.00  0.00     0.014 A 
ATOM     30  C   UNL     1      10.248   4.538  -0.520  1.00  0.00     0.014 A 
ATOM     31  C   UNL     1      12.003   4.110   1.608  1.00  0.00     0.010 A 
ATOM     32  C   UNL     1      11.441   3.848  -0.730  1.00  0.00     0.010 A 
ATOM     33  C   UNL     1      12.335   3.637   0.330  1.00  0.00    -0.014 A 
BRANCH  33  34
ATOM     34  C   UNL     1      13.615   2.924   0.088  1.00  0.00     0.031 A 
ATOM     35  C   UNL     1      14.668   3.525  -0.803  1.00  0.00     0.074 A 
ATOM     36  C   UNL     1      13.812   1.709   0.635  1.00  0.00     0.049 A 
ATOM     37  N   UNL     1      15.832   3.036  -1.152  1.00  0.00    -0.248 NA
ATOM     38  C   UNL     1      14.365   4.836  -1.398  1.00  0.00     0.031 C 
ATOM     39  C   UNL     1      12.855   1.000   1.487  1.00  0.00     0.029 A 
ATOM     40  N   UNL     1      14.882   0.855   0.553  1.00  0.00    -0.354 N 
ATOM     41  C   UNL     1      16.389   3.969  -2.018  1.00  0.00     0.074 A 
ATOM     42  C   UNL     1      15.418   5.030  -2.178  1.00  0.00     0.031 C 
ATOM     43  C   UNL     1      13.394  -0.167   1.874  1.00  0.00     0.029 A 
ATOM     44  C   UNL     1      14.716  -0.304   1.270  1.00  0.00     0.049 A 
ATOM     45  H   UNL     1      15.693   1.054   0.031  1.00  0.00     0.167 HD
ATOM     46  C   UNL     1      17.605   3.953  -2.615  1.00  0.00     0.031 A 
ATOM     47  C   UNL     1      15.535  -1.361   1.426  1.00  0.00     0.031 A 
ATOM     48  C   UNL     1      18.576   2.903  -2.451  1.00  0.00     0.049 A 
ATOM     49  C   UNL     1      16.877  -1.357   0.751  1.00  0.00     0.074 A 
ATOM     50  C   UNL     1      19.858   2.824  -2.967  1.00  0.00     0.029 A 
ATOM     51  N   UNL     1      18.369   1.747  -1.715  1.00  0.00    -0.354 N 
ATOM     52  N   UNL     1      17.414  -0.437  -0.013  1.00  0.00    -0.248 NA
ATOM     53  C   UNL     1      17.729  -2.534   0.971  1.00  0.00     0.031 C 
ATOM     54  C   UNL     1      20.409   1.597  -2.582  1.00  0.00     0.029 A 
ATOM     55  C   UNL     1      19.489   0.936  -1.782  1.00  0.00     0.049 A 
ATOM     56  H   UNL     1      17.546   1.534  -1.218  1.00  0.00     0.167 HD
ATOM     57  C   UNL     1      18.675  -0.913  -0.347  1.00  0.00     0.074 A 
ATOM     58  C   UNL     1      18.828  -2.194   0.312  1.00  0.00     0.031 C 
ATOM     59  C   UNL     1      19.622  -0.340  -1.129  1.00  0.00     0.031 A 
BRANCH  46  60
ATOM     60  C   UNL     1      17.947   5.111  -3.513  1.00  0.00    -0.014 A 
ATOM     61  C   UNL     1      18.192   6.391  -2.991  1.00  0.00     0.009 A 
ATOM     62  C   UNL     1      18.048   4.914  -4.899  1.00  0.00     0.009 A 
ATOM     63  C   UNL     1      18.488   7.458  -3.841  1.00  0.00     0.001 A 
ATOM     64  C   UNL     1      18.373   5.977  -5.745  1.00  0.00     0.001 A 
ATOM     65  C   UNL     1      18.582   7.250  -5.216  1.00  0.00     0.000 A 
ENDBRANCH  46  60
BRANCH  47  66
ATOM     66  C   UNL     1      15.117  -2.501   2.280  1.00  0.00    -0.014 A 
ATOM     67  C   UNL     1      15.715  -2.706   3.533  1.00  0.00     0.009 A 
ATOM     68  C   UNL     1      14.112  -3.384   1.854  1.00  0.00     0.009 A 
ATOM     69  C   UNL     1      15.330  -3.784   4.333  1.00  0.00     0.001 A 
ATOM     70  C   UNL     1      13.711  -4.446   2.668  1.00  0.00     0.001 A 
ATOM     71  C   UNL     1      14.325  -4.649   3.903  1.00  0.00     0.000 A 
ENDBRANCH  47  66
BRANCH  59  72
ATOM     72  C   UNL     1      20.914  -1.088  -1.294  1.00  0.00    -0.014 A 
ATOM     73  C   UNL     1      20.989  -2.247  -2.081  1.00  0.00     0.009 A 
ATOM     74  C   UNL     1      22.078  -0.610  -0.672  1.00  0.00     0.009 A 
ATOM     75  C   UNL     1      22.198  -2.933  -2.213  1.00  0.00     0.001 A 
ATOM     76  C   UNL     1      23.291  -1.282  -0.829  1.00  0.00     0.001 A 
ATOM     77  C   UNL     1      23.348  -2.448  -1.590  1.00  0.00     0.000 A 
ENDBRANCH  59  72
ENDBRANCH  33  34
ENDBRANCH  25  28
ENDBRANCH  23  24
ENDBRANCH   1  23
TORSDOF 13
