REMARK SMILES Cc1n[nH]c(C[N@H+]2CCC[C@H](c3cccc(C(=O)NCCCNC(=O)c4ccc(-c5c6nc(c(-c7ccccc7)c7ccc([nH]7)c(-c7ccccc7)c7nc(c(-c8ccccc8)c8ccc5[nH]8)C=C7)C=C6)cc4)c3)C2)n1
REMARK SMILES IDX 20 1 19 2 17 3 18 4 16 6 12 7 13 8 74 9 14 10 15 11 11 12
REMARK SMILES IDX 7 13 8 14 75 15 9 17 10 18 6 19 5 20 1 21 2 22 3 23 76 24
REMARK SMILES IDX 4 25 21 27 22 28 23 29 24 30 25 32 26 33 27 34 73 35 28 36
REMARK SMILES IDX 72 37 29 38 30 39 31 40 66 41 32 42 71 43 65 44 67 45 33 46
REMARK SMILES IDX 70 47 64 48 63 49 34 51 56 52 41 53 55 54 42 55 45 56 54 57
REMARK SMILES IDX 68 58 43 59 44 60 53 62 69 63 46 64 35 65 36 66 40 67 37 68
REMARK SMILES IDX 39 69 38 70 57 71 58 72 62 73 59 74 61 75 60 76 47 77 48 78
REMARK SMILES IDX 52 79 49 80 51 81 50 82
REMARK H PARENT 19 5 7 16 4 26 23 31 67 50 45 61
REMARK Flexibility Score: inf
ROOT
ATOM      1  C   UNL     1       8.041   7.032   1.553  1.00  0.00     0.118 C 
ENDROOT
BRANCH   1   2
ATOM      2  N   UNL     1       7.710   8.440   1.385  1.00  0.00    -0.352 N 
ATOM      3  C   UNL     1       6.522   9.135   1.351  1.00  0.00     0.251 C 
ATOM      4  O   UNL     1       6.604  10.365   1.315  1.00  0.00    -0.269 OA
ATOM      5  H   UNL     1       8.501   9.015   1.271  1.00  0.00     0.163 HD
BRANCH   3   6
ATOM      6  C   UNL     1       5.168   8.504   1.366  1.00  0.00     0.040 A 
ATOM      7  C   UNL     1       3.663   6.562   1.267  1.00  0.00    -0.039 A 
ATOM      8  C   UNL     1       2.570   7.413   1.437  1.00  0.00     0.004 A 
ATOM      9  C   UNL     1       4.938   7.143   1.182  1.00  0.00     0.018 A 
ATOM     10  C   UNL     1       2.761   8.791   1.562  1.00  0.00     0.001 A 
ATOM     11  C   UNL     1       4.051   9.329   1.544  1.00  0.00     0.014 A 
BRANCH   7  12
ATOM     12  C   UNL     1       3.575   5.045   1.129  1.00  0.00     0.074 C 
ATOM     13  N   UNL     1       1.558   4.484   2.520  1.00  0.00    -0.328 N 
ATOM     14  C   UNL     1       2.380   3.774   3.507  1.00  0.00     0.262 C 
ATOM     15  C   UNL     1       2.162   4.438   1.172  1.00  0.00     0.270 C 
ATOM     16  H   UNL     1       1.532   5.460   2.817  1.00  0.00     0.348 HD
ATOM     17  C   UNL     1       3.811   4.313   3.548  1.00  0.00     0.062 C 
ATOM     18  C   UNL     1       4.449   4.295   2.162  1.00  0.00     0.020 C 
BRANCH  13  19
ATOM     19  C   UNL     1       0.156   4.015   2.499  1.00  0.00     0.340 C 
BRANCH  19  20
ATOM     20  C   UNL     1      -0.009   2.607   2.032  1.00  0.00     0.179 A 
ATOM     21  C   UNL     1       0.659  -0.172  -0.013  1.00  0.00     0.092 C 
ATOM     22  C   UNL     1       0.199   0.768   1.026  1.00  0.00     0.147 A 
ATOM     23  N   UNL     1      -0.186   0.390   2.251  1.00  0.00    -0.159 NA
ATOM     24  N   UNL     1       0.255   2.119   0.837  1.00  0.00    -0.211 NA
ATOM     25  N   UNL     1      -0.344   1.577   2.861  1.00  0.00    -0.258 N 
ATOM     26  H   UNL     1      -0.661   1.688   3.787  1.00  0.00     0.192 HD
ENDBRANCH  19  20
ENDBRANCH  13  19
ENDBRANCH   7  12
ENDBRANCH   3   6
ENDBRANCH   1   2
BRANCH   1  27
ATOM     27  C   UNL     1       8.088   6.269   0.220  1.00  0.00     0.042 C 
BRANCH  27  28
ATOM     28  C   UNL     1       9.464   6.295  -0.424  1.00  0.00     0.118 C 
BRANCH  28  29
ATOM     29  N   UNL     1      10.442   5.539   0.356  1.00  0.00    -0.352 N 
ATOM     30  C   UNL     1      11.819   5.523   0.254  1.00  0.00     0.251 C 
ATOM     31  H   UNL     1      10.065   4.957   1.055  1.00  0.00     0.163 HD
ATOM     32  O   UNL     1      12.473   4.632   0.763  1.00  0.00    -0.269 OA
BRANCH  30  33
ATOM     33  C   UNL     1      12.480   6.592  -0.515  1.00  0.00     0.039 A 
ATOM     34  C   UNL     1      13.482   6.277  -1.434  1.00  0.00     0.014 A 
ATOM     35  C   UNL     1      12.037   7.902  -0.358  1.00  0.00     0.014 A 
ATOM     36  C   UNL     1      13.955   7.277  -2.279  1.00  0.00     0.010 A 
ATOM     37  C   UNL     1      12.400   8.851  -1.284  1.00  0.00     0.010 A 
ATOM     38  C   UNL     1      13.380   8.557  -2.229  1.00  0.00    -0.014 A 
BRANCH  38  39
ATOM     39  C   UNL     1      13.721   9.550  -3.246  1.00  0.00     0.031 A 
ATOM     40  C   UNL     1      13.594   9.093  -4.660  1.00  0.00     0.074 A 
ATOM     41  C   UNL     1      13.939  10.854  -2.979  1.00  0.00     0.049 A 
ATOM     42  N   UNL     1      14.541   8.946  -5.527  1.00  0.00    -0.248 NA
ATOM     43  C   UNL     1      12.272   8.664  -5.142  1.00  0.00     0.031 C 
ATOM     44  C   UNL     1      13.793  11.565  -1.704  1.00  0.00     0.029 A 
ATOM     45  N   UNL     1      14.230  11.858  -3.851  1.00  0.00    -0.354 N 
ATOM     46  C   UNL     1      13.927   8.564  -6.718  1.00  0.00     0.074 A 
ATOM     47  C   UNL     1      12.553   8.275  -6.388  1.00  0.00     0.031 C 
ATOM     48  C   UNL     1      13.749  12.896  -1.933  1.00  0.00     0.029 A 
ATOM     49  C   UNL     1      14.053  13.132  -3.331  1.00  0.00     0.049 A 
ATOM     50  H   UNL     1      14.540  11.695  -4.771  1.00  0.00     0.167 HD
ATOM     51  C   UNL     1      14.545   8.713  -7.923  1.00  0.00     0.031 A 
ATOM     52  C   UNL     1      14.132  14.303  -4.005  1.00  0.00     0.031 A 
ATOM     53  C   UNL     1      15.950   8.991  -7.774  1.00  0.00     0.049 A 
ATOM     54  C   UNL     1      14.901  14.052  -5.243  1.00  0.00     0.074 A 
ATOM     55  C   UNL     1      17.026   8.325  -7.223  1.00  0.00     0.029 A 
ATOM     56  N   UNL     1      16.341  10.302  -7.903  1.00  0.00    -0.354 N 
ATOM     57  N   UNL     1      16.170  13.761  -5.252  1.00  0.00    -0.248 NA
ATOM     58  C   UNL     1      14.176  13.716  -6.457  1.00  0.00     0.031 C 
ATOM     59  C   UNL     1      17.809   9.346  -6.607  1.00  0.00     0.029 A 
ATOM     60  C   UNL     1      17.201  10.575  -6.872  1.00  0.00     0.049 A 
ATOM     61  H   UNL     1      16.055  10.929  -8.606  1.00  0.00     0.167 HD
ATOM     62  C   UNL     1      16.306  12.818  -6.260  1.00  0.00     0.074 A 
ATOM     63  C   UNL     1      15.079  12.927  -7.045  1.00  0.00     0.031 C 
ATOM     64  C   UNL     1      17.269  11.850  -6.191  1.00  0.00     0.031 A 
BRANCH  51  65
ATOM     65  C   UNL     1      13.826   8.996  -9.219  1.00  0.00    -0.014 A 
ATOM     66  C   UNL     1      14.575   9.058 -10.410  1.00  0.00     0.009 A 
ATOM     67  C   UNL     1      12.508   9.484  -9.275  1.00  0.00     0.009 A 
ATOM     68  C   UNL     1      14.054   9.644 -11.571  1.00  0.00     0.001 A 
ATOM     69  C   UNL     1      11.971  10.031 -10.444  1.00  0.00     0.001 A 
ATOM     70  C   UNL     1      12.754  10.138 -11.584  1.00  0.00     0.000 A 
ENDBRANCH  51  65
BRANCH  52  71
ATOM     71  C   UNL     1      13.416  15.568  -3.760  1.00  0.00    -0.014 A 
ATOM     72  C   UNL     1      13.880  16.772  -4.310  1.00  0.00     0.009 A 
ATOM     73  C   UNL     1      12.121  15.552  -3.209  1.00  0.00     0.009 A 
ATOM     74  C   UNL     1      13.059  17.905  -4.353  1.00  0.00     0.001 A 
ATOM     75  C   UNL     1      11.302  16.685  -3.249  1.00  0.00     0.001 A 
ATOM     76  C   UNL     1      11.766  17.857  -3.838  1.00  0.00     0.000 A 
ENDBRANCH  52  71
BRANCH  64  77
ATOM     77  C   UNL     1      18.339  11.990  -5.135  1.00  0.00    -0.014 A 
ATOM     78  C   UNL     1      18.061  12.027  -3.757  1.00  0.00     0.009 A 
ATOM     79  C   UNL     1      19.681  11.933  -5.539  1.00  0.00     0.009 A 
ATOM     80  C   UNL     1      19.096  12.041  -2.816  1.00  0.00     0.001 A 
ATOM     81  C   UNL     1      20.714  11.923  -4.599  1.00  0.00     0.001 A 
ATOM     82  C   UNL     1      20.422  11.984  -3.239  1.00  0.00     0.000 A 
ENDBRANCH  64  77
ENDBRANCH  38  39
ENDBRANCH  30  33
ENDBRANCH  28  29
ENDBRANCH  27  28
ENDBRANCH   1  27
TORSDOF 13
