REMARK SMILES CC(C)(C)C[N@H+]1[C@@H](C(=O)NCCCNC(=O)c2ccc(-c3c4nc(c(-c5ccccc5)c5ccc([nH]5)c(-c5ccccc5)c5nc(c(-c6ccccc6)c6ccc3[nH]6)C=C5)C=C4)cc2)CC[C@H]2CCCC[C@@H]21
REMARK SMILES IDX 12 1 11 2 10 3 8 4 9 5 7 7 6 8 72 9 65 11 67 12 71 13 66 14
REMARK SMILES IDX 68 15 70 16 69 17 5 18 2 19 1 20 3 21 4 22 13 23 14 24 15 25
REMARK SMILES IDX 16 27 17 28 18 29 64 30 19 31 63 32 20 33 21 34 22 35 57 36
REMARK SMILES IDX 23 37 62 38 56 39 58 40 24 41 61 42 55 43 54 44 25 46 47 47
REMARK SMILES IDX 32 48 46 49 33 50 36 51 45 52 59 53 34 54 35 55 44 57 60 58
REMARK SMILES IDX 37 59 26 60 27 61 31 62 28 63 30 64 29 65 48 66 49 67 53 68
REMARK SMILES IDX 50 69 52 70 51 71 38 72 39 73 43 74 40 75 42 76 41 77
REMARK H PARENT 10 6 6 10 14 26 58 45 36 56
REMARK Flexibility Score: inf
ROOT
ATOM      1  C   UNL     1       0.004   5.334  -0.027  1.00  0.00     0.042 C 
ENDROOT
BRANCH   1   2
ATOM      2  C   UNL     1       0.061   5.075   1.487  1.00  0.00     0.118 C 
BRANCH   2   3
ATOM      3  N   UNL     1      -1.169   4.489   1.980  1.00  0.00    -0.351 N 
ATOM      4  C   UNL     1      -1.687   3.278   2.242  1.00  0.00     0.278 C 
ATOM      5  O   UNL     1      -2.889   3.386   2.567  1.00  0.00    -0.268 OA
ATOM      6  H   UNL     1      -1.824   5.194   2.188  1.00  0.00     0.163 HD
BRANCH   4   7
ATOM      7  C   UNL     1      -1.075   1.851   2.311  1.00  0.00     0.274 C 
ATOM      8  N   UNL     1       0.302   1.493   1.920  1.00  0.00    -0.322 N 
ATOM      9  C   UNL     1       0.672   0.115   2.323  1.00  0.00     0.187 C 
ATOM     10  H   UNL     1       0.775   2.195   2.489  1.00  0.00     0.349 HD
ATOM     11  C   UNL     1      -2.154   0.850   1.825  1.00  0.00     0.076 C 
ATOM     12  C   UNL     1      -0.512  -0.832   2.632  1.00  0.00     0.048 C 
ATOM     13  C   UNL     1       1.606   0.052   3.546  1.00  0.00     0.065 C 
ATOM     14  C   UNL     1      -1.675  -0.594   1.689  1.00  0.00     0.016 C 
ATOM     15  C   UNL     1       0.004  -2.273   2.602  1.00  0.00     0.010 C 
ATOM     16  C   UNL     1       2.133  -1.385   3.728  1.00  0.00     0.006 C 
ATOM     17  C   UNL     1       1.048  -2.471   3.701  1.00  0.00     0.001 C 
BRANCH   8  18
ATOM     18  C   UNL     1       0.890   1.884   0.637  1.00  0.00     0.269 C 
BRANCH  18  19
ATOM     19  C   UNL     1       0.678   1.275  -0.795  1.00  0.00     0.011 C 
ATOM     20  C   UNL     1       1.135  -0.185  -0.937  1.00  0.00     0.017 C 
ATOM     21  C   UNL     1       1.578   2.098  -1.759  1.00  0.00     0.017 C 
ATOM     22  C   UNL     1      -0.762   1.414  -1.301  1.00  0.00     0.017 C 
ENDBRANCH  18  19
ENDBRANCH   8  18
ENDBRANCH   4   7
ENDBRANCH   2   3
ENDBRANCH   1   2
BRANCH   1  23
ATOM     23  C   UNL     1      -1.087   6.290  -0.514  1.00  0.00     0.118 C 
BRANCH  23  24
ATOM     24  N   UNL     1      -0.811   7.683  -0.212  1.00  0.00    -0.352 N 
ATOM     25  C   UNL     1      -0.753   8.781  -1.034  1.00  0.00     0.251 C 
ATOM     26  H   UNL     1      -0.636   7.870   0.739  1.00  0.00     0.163 HD
ATOM     27  O   UNL     1      -0.363   9.852  -0.561  1.00  0.00    -0.269 OA
BRANCH  25  28
ATOM     28  C   UNL     1      -1.117   8.722  -2.473  1.00  0.00     0.039 A 
ATOM     29  C   UNL     1      -0.359   9.478  -3.376  1.00  0.00     0.014 A 
ATOM     30  C   UNL     1      -2.220   8.005  -2.945  1.00  0.00     0.014 A 
ATOM     31  C   UNL     1      -0.667   9.474  -4.741  1.00  0.00     0.010 A 
ATOM     32  C   UNL     1      -2.492   7.952  -4.318  1.00  0.00     0.010 A 
ATOM     33  C   UNL     1      -1.719   8.685  -5.232  1.00  0.00    -0.014 A 
BRANCH  33  34
ATOM     34  C   UNL     1      -2.001   8.611  -6.693  1.00  0.00     0.031 A 
ATOM     35  C   UNL     1      -3.291   9.139  -7.262  1.00  0.00     0.074 A 
ATOM     36  C   UNL     1      -1.108   8.025  -7.516  1.00  0.00     0.049 A 
ATOM     37  N   UNL     1      -3.714   9.126  -8.503  1.00  0.00    -0.248 NA
ATOM     38  C   UNL     1      -4.236   9.745  -6.313  1.00  0.00     0.031 C 
ATOM     39  C   UNL     1       0.172   7.446  -7.102  1.00  0.00     0.029 A 
ATOM     40  N   UNL     1      -1.143   7.816  -8.874  1.00  0.00    -0.354 N 
ATOM     41  C   UNL     1      -4.977   9.706  -8.481  1.00  0.00     0.074 A 
ATOM     42  C   UNL     1      -5.268  10.023  -7.099  1.00  0.00     0.031 C 
ATOM     43  C   UNL     1       0.808   6.969  -8.184  1.00  0.00     0.029 A 
ATOM     44  C   UNL     1      -0.031   7.171  -9.361  1.00  0.00     0.049 A 
ATOM     45  H   UNL     1      -1.893   8.101  -9.444  1.00  0.00     0.167 HD
ATOM     46  C   UNL     1      -5.815   9.964  -9.515  1.00  0.00     0.031 A 
ATOM     47  C   UNL     1       0.280   6.777 -10.610  1.00  0.00     0.031 A 
ATOM     48  C   UNL     1      -5.533   9.656 -10.893  1.00  0.00     0.049 A 
ATOM     49  C   UNL     1      -0.676   7.054 -11.736  1.00  0.00     0.074 A 
ATOM     50  C   UNL     1      -6.301   9.932 -12.013  1.00  0.00     0.029 A 
ATOM     51  N   UNL     1      -4.399   8.998 -11.341  1.00  0.00    -0.354 N 
ATOM     52  N   UNL     1      -1.837   7.660 -11.704  1.00  0.00    -0.248 NA
ATOM     53  C   UNL     1      -0.270   6.599 -13.075  1.00  0.00     0.031 C 
ATOM     54  C   UNL     1      -5.655   9.393 -13.132  1.00  0.00     0.029 A 
ATOM     55  C   UNL     1      -4.459   8.833 -12.715  1.00  0.00     0.049 A 
ATOM     56  H   UNL     1      -3.660   8.692 -10.767  1.00  0.00     0.167 HD
ATOM     57  C   UNL     1      -2.288   7.683 -13.018  1.00  0.00     0.074 A 
ATOM     58  C   UNL     1      -1.269   7.045 -13.824  1.00  0.00     0.031 C 
ATOM     59  C   UNL     1      -3.444   8.191 -13.510  1.00  0.00     0.031 A 
BRANCH  46  60
ATOM     60  C   UNL     1      -7.137  10.607  -9.190  1.00  0.00    -0.014 A 
ATOM     61  C   UNL     1      -7.214  11.945  -8.773  1.00  0.00     0.009 A 
ATOM     62  C   UNL     1      -8.325   9.875  -9.343  1.00  0.00     0.009 A 
ATOM     63  C   UNL     1      -8.450  12.524  -8.476  1.00  0.00     0.001 A 
ATOM     64  C   UNL     1      -9.562  10.465  -9.073  1.00  0.00     0.001 A 
ATOM     65  C   UNL     1      -9.622  11.786  -8.630  1.00  0.00     0.000 A 
ENDBRANCH  46  60
BRANCH  47  66
ATOM     66  C   UNL     1       1.568   6.081 -10.869  1.00  0.00    -0.014 A 
ATOM     67  C   UNL     1       2.599   6.729 -11.566  1.00  0.00     0.009 A 
ATOM     68  C   UNL     1       1.771   4.766 -10.423  1.00  0.00     0.009 A 
ATOM     69  C   UNL     1       3.799   6.065 -11.832  1.00  0.00     0.001 A 
ATOM     70  C   UNL     1       2.982   4.115 -10.665  1.00  0.00     0.001 A 
ATOM     71  C   UNL     1       3.991   4.761 -11.377  1.00  0.00     0.000 A 
ENDBRANCH  47  66
BRANCH  59  72
ATOM     72  C   UNL     1      -3.656   8.103 -14.996  1.00  0.00    -0.014 A 
ATOM     73  C   UNL     1      -3.940   6.880 -15.623  1.00  0.00     0.009 A 
ATOM     74  C   UNL     1      -3.600   9.269 -15.776  1.00  0.00     0.009 A 
ATOM     75  C   UNL     1      -4.129   6.821 -17.005  1.00  0.00     0.001 A 
ATOM     76  C   UNL     1      -3.818   9.212 -17.154  1.00  0.00     0.001 A 
ATOM     77  C   UNL     1      -4.073   7.987 -17.768  1.00  0.00     0.000 A 
ENDBRANCH  59  72
ENDBRANCH  33  34
ENDBRANCH  25  28
ENDBRANCH  23  24
ENDBRANCH   1  23
TORSDOF 12
