REMARK SMILES C[C@H]1[C@H](C(=O)NCCCNC(=O)c2ccc(-c3c4nc(c(-c5ccccc5)c5ccc([nH]5)c(-c5ccccc5)c5nc(c(-c6ccccc6)c6ccc3[nH]6)C=C5)C=C4)cc2)CCN1C(=O)NCc1ccncc1
REMARK SMILES IDX 7 1 6 2 4 3 5 4 3 6 1 7 2 8 63 9 61 10 62 11 64 12 65 13
REMARK SMILES IDX 66 14 67 16 68 17 69 18 73 19 70 20 72 21 71 22 8 23 9 24
REMARK SMILES IDX 10 25 11 26 12 28 13 29 14 30 60 31 15 32 59 33 16 34 17 35
REMARK SMILES IDX 18 36 53 37 19 38 58 39 52 40 54 41 20 42 57 43 51 44 50 45
REMARK SMILES IDX 21 47 43 48 28 49 42 50 29 51 32 52 41 53 55 54 30 55 31 56
REMARK SMILES IDX 40 58 56 59 33 60 22 61 23 62 27 63 24 64 26 65 25 66 44 67
REMARK SMILES IDX 45 68 49 69 46 70 48 71 47 72 34 73 35 74 39 75 36 76 38 77
REMARK SMILES IDX 37 78
REMARK H PARENT 6 5 66 15 10 27 54 46 32 57
REMARK Flexibility Score: inf
ROOT
ATOM      1  C   UNL     1      -1.416   0.639   2.816  1.00  0.00     0.117 C 
ENDROOT
BRANCH   1   2
ATOM      2  N   UNL     1      -0.828   1.884   2.351  1.00  0.00    -0.356 N 
ATOM      3  C   UNL     1      -0.269   2.248   1.171  1.00  0.00     0.225 C 
ATOM      4  O   UNL     1       0.192   3.393   1.109  1.00  0.00    -0.275 OA
ATOM      5  H   UNL     1      -0.837   2.602   3.024  1.00  0.00     0.163 HD
BRANCH   3   6
ATOM      6  C   UNL     1      -0.139   1.327  -0.033  1.00  0.00     0.102 C 
ATOM      7  C   UNL     1       1.917   0.226  -0.958  1.00  0.00     0.032 C 
ATOM      8  C   UNL     1       0.899   0.218   0.191  1.00  0.00     0.096 C 
ATOM      9  N   UNL     1       0.137  -1.023   0.193  1.00  0.00    -0.321 N 
ATOM     10  C   UNL     1      -1.423   0.649  -0.501  1.00  0.00     0.037 C 
ATOM     11  C   UNL     1      -1.110  -0.840  -0.536  1.00  0.00     0.122 C 
BRANCH   9  12
ATOM     12  C   UNL     1       0.408  -2.248   0.712  1.00  0.00     0.317 C 
ATOM     13  O   UNL     1      -0.407  -3.172   0.622  1.00  0.00    -0.249 OA
ATOM     14  N   UNL     1       1.538  -2.556   1.361  1.00  0.00    -0.334 N 
ATOM     15  H   UNL     1       1.488  -3.461   1.747  1.00  0.00     0.165 HD
BRANCH  14  16
ATOM     16  C   UNL     1       2.813  -1.936   1.656  1.00  0.00     0.153 C 
BRANCH  16  17
ATOM     17  C   UNL     1       3.028  -1.755   3.137  1.00  0.00    -0.026 A 
ATOM     18  C   UNL     1       3.008  -2.847   4.013  1.00  0.00     0.025 A 
ATOM     19  C   UNL     1       3.287  -0.488   3.670  1.00  0.00     0.025 A 
ATOM     20  C   UNL     1       3.217  -2.623   5.365  1.00  0.00     0.111 A 
ATOM     21  C   UNL     1       3.486  -0.366   5.037  1.00  0.00     0.111 A 
ATOM     22  N   UNL     1       3.446  -1.403   5.896  1.00  0.00    -0.265 NA
ENDBRANCH  16  17
ENDBRANCH  14  16
ENDBRANCH   9  12
ENDBRANCH   3   6
ENDBRANCH   1   2
BRANCH   1  23
ATOM     23  C   UNL     1      -0.532  -0.087   3.821  1.00  0.00     0.042 C 
BRANCH  23  24
ATOM     24  C   UNL     1      -0.286   0.669   5.122  1.00  0.00     0.118 C 
BRANCH  24  25
ATOM     25  N   UNL     1      -1.502   0.873   5.897  1.00  0.00    -0.352 N 
ATOM     26  C   UNL     1      -1.805   0.506   7.183  1.00  0.00     0.251 C 
ATOM     27  H   UNL     1      -2.220   1.350   5.422  1.00  0.00     0.163 HD
ATOM     28  O   UNL     1      -2.962   0.626   7.585  1.00  0.00    -0.269 OA
BRANCH  26  29
ATOM     29  C   UNL     1      -0.773  -0.043   8.092  1.00  0.00     0.039 A 
ATOM     30  C   UNL     1      -1.125  -1.097   8.941  1.00  0.00     0.014 A 
ATOM     31  C   UNL     1       0.513   0.501   8.159  1.00  0.00     0.014 A 
ATOM     32  C   UNL     1      -0.179  -1.637   9.816  1.00  0.00     0.010 A 
ATOM     33  C   UNL     1       1.476  -0.081   8.984  1.00  0.00     0.010 A 
ATOM     34  C   UNL     1       1.137  -1.150   9.826  1.00  0.00    -0.014 A 
BRANCH  34  35
ATOM     35  C   UNL     1       2.164  -1.750  10.713  1.00  0.00     0.031 A 
ATOM     36  C   UNL     1       2.748  -0.962  11.853  1.00  0.00     0.074 A 
ATOM     37  C   UNL     1       2.605  -2.999  10.468  1.00  0.00     0.049 A 
ATOM     38  N   UNL     1       3.664  -1.317  12.719  1.00  0.00    -0.248 NA
ATOM     39  C   UNL     1       2.249   0.411  12.033  1.00  0.00     0.031 C 
ATOM     40  C   UNL     1       2.154  -3.856   9.370  1.00  0.00     0.029 A 
ATOM     41  N   UNL     1       3.534  -3.763  11.128  1.00  0.00    -0.354 N 
ATOM     42  C   UNL     1       3.862  -0.210  13.535  1.00  0.00     0.074 A 
ATOM     43  C   UNL     1       3.000   0.841  13.038  1.00  0.00     0.031 C 
ATOM     44  C   UNL     1       2.791  -5.036   9.446  1.00  0.00     0.029 A 
ATOM     45  C   UNL     1       3.714  -5.006  10.576  1.00  0.00     0.049 A 
ATOM     46  H   UNL     1       4.025  -3.448  11.921  1.00  0.00     0.167 HD
ATOM     47  C   UNL     1       4.676  -0.082  14.610  1.00  0.00     0.031 A 
ATOM     48  C   UNL     1       4.533  -6.012  10.937  1.00  0.00     0.031 A 
ATOM     49  C   UNL     1       5.532  -1.124  15.113  1.00  0.00     0.049 A 
ATOM     50  C   UNL     1       5.421  -5.849  12.137  1.00  0.00     0.074 A 
ATOM     51  C   UNL     1       6.356  -1.103  16.225  1.00  0.00     0.029 A 
ATOM     52  N   UNL     1       5.675  -2.374  14.533  1.00  0.00    -0.354 N 
ATOM     53  N   UNL     1       5.551  -4.817  12.934  1.00  0.00    -0.248 NA
ATOM     54  C   UNL     1       6.265  -6.998  12.494  1.00  0.00     0.031 C 
ATOM     55  C   UNL     1       7.027  -2.329  16.296  1.00  0.00     0.029 A 
ATOM     56  C   UNL     1       6.586  -3.128  15.254  1.00  0.00     0.049 A 
ATOM     57  H   UNL     1       5.199  -2.681  13.727  1.00  0.00     0.167 HD
ATOM     58  C   UNL     1       6.478  -5.197  13.896  1.00  0.00     0.074 A 
ATOM     59  C   UNL     1       6.862  -6.561  13.594  1.00  0.00     0.031 C 
ATOM     60  C   UNL     1       6.966  -4.479  14.936  1.00  0.00     0.031 A 
BRANCH  47  61
ATOM     61  C   UNL     1       4.680   1.245  15.315  1.00  0.00    -0.014 A 
ATOM     62  C   UNL     1       3.587   1.652  16.098  1.00  0.00     0.009 A 
ATOM     63  C   UNL     1       5.798   2.087  15.219  1.00  0.00     0.009 A 
ATOM     64  C   UNL     1       3.601   2.892  16.741  1.00  0.00     0.001 A 
ATOM     65  C   UNL     1       5.820   3.315  15.884  1.00  0.00     0.001 A 
ATOM     66  C   UNL     1       4.718   3.720  16.636  1.00  0.00     0.000 A 
ENDBRANCH  47  61
BRANCH  48  67
ATOM     67  C   UNL     1       4.536  -7.276  10.159  1.00  0.00    -0.014 A 
ATOM     68  C   UNL     1       3.943  -8.434  10.683  1.00  0.00     0.009 A 
ATOM     69  C   UNL     1       5.125  -7.327   8.886  1.00  0.00     0.009 A 
ATOM     70  C   UNL     1       3.960  -9.626   9.956  1.00  0.00     0.001 A 
ATOM     71  C   UNL     1       5.120  -8.514   8.152  1.00  0.00     0.001 A 
ATOM     72  C   UNL     1       4.544  -9.664   8.690  1.00  0.00     0.000 A 
ENDBRANCH  48  67
BRANCH  60  73
ATOM     73  C   UNL     1       7.956  -5.166  15.832  1.00  0.00    -0.014 A 
ATOM     74  C   UNL     1       9.277  -5.393  15.415  1.00  0.00     0.009 A 
ATOM     75  C   UNL     1       7.568  -5.569  17.119  1.00  0.00     0.009 A 
ATOM     76  C   UNL     1      10.181  -6.042  16.259  1.00  0.00     0.001 A 
ATOM     77  C   UNL     1       8.480  -6.196  17.969  1.00  0.00     0.001 A 
ATOM     78  C   UNL     1       9.783  -6.440  17.535  1.00  0.00     0.000 A 
ENDBRANCH  60  73
ENDBRANCH  34  35
ENDBRANCH  26  29
ENDBRANCH  24  25
ENDBRANCH  23  24
ENDBRANCH   1  23
TORSDOF 13
