REMARK SMILES O=C(NCCCNC(=O)c1ccc([C@@H]2CCC[N@@H+](CCN3CCCC3=O)C2)cc1)c1ccc(-c2c3nc(c(-c4ccccc4)c4ccc([nH]4)c(-c4ccccc4)c4nc(c(-c5ccccc5)c5ccc2[nH]5)C=C4)C=C3)cc1
REMARK SMILES IDX 6 1 5 2 4 3 3 4 1 5 2 6 30 8 31 9 77 10 32 11 76 12 33 13
REMARK SMILES IDX 34 14 35 15 70 16 36 17 75 18 69 19 71 20 37 21 74 22 68 23
REMARK SMILES IDX 67 24 38 26 60 27 45 28 59 29 46 30 49 31 58 32 72 33 47 34
REMARK SMILES IDX 48 35 57 37 73 38 50 39 39 40 40 41 44 42 41 43 43 44 42 45
REMARK SMILES IDX 61 46 62 47 66 48 63 49 65 50 64 51 51 52 52 53 56 54 53 55
REMARK SMILES IDX 55 56 54 57 7 58 8 59 9 61 10 62 11 63 29 64 12 65 28 66
REMARK SMILES IDX 13 67 14 68 15 69 27 70 16 71 18 72 17 73 19 75 20 76 21 77
REMARK SMILES IDX 22 78 25 79 23 80 24 81 26 82
REMARK H PARENT 3 7 71 25 49 36 7 60 18 74
REMARK Flexibility Score: inf
ROOT
ATOM      1  C   UNL     1       4.297   2.378   2.650  1.00  0.00     0.118 C 
ENDROOT
BRANCH   1   2
ATOM      2  C   UNL     1       4.863   1.794   1.370  1.00  0.00     0.042 C 
BRANCH   2   3
ATOM      3  C   UNL     1       4.465   0.346   1.153  1.00  0.00     0.118 C 
BRANCH   3   4
ATOM      4  N   UNL     1       3.024   0.181   1.009  1.00  0.00    -0.352 N 
ATOM      5  O   UNL     1       1.063  -0.023  -0.086  1.00  0.00    -0.269 OA
ATOM      6  C   UNL     1       2.284  -0.141  -0.101  1.00  0.00     0.251 C 
ATOM      7  H   UNL     1       2.503   0.323   1.832  1.00  0.00     0.163 HD
BRANCH   6   8
ATOM      8  C   UNL     1       2.967  -0.621  -1.318  1.00  0.00     0.039 A 
ATOM      9  C   UNL     1       4.026  -1.525  -1.218  1.00  0.00     0.014 A 
ATOM     10  C   UNL     1       2.536  -0.177  -2.571  1.00  0.00     0.014 A 
ATOM     11  C   UNL     1       4.760  -1.857  -2.345  1.00  0.00     0.010 A 
ATOM     12  C   UNL     1       3.201  -0.610  -3.720  1.00  0.00     0.010 A 
ATOM     13  C   UNL     1       4.329  -1.438  -3.612  1.00  0.00    -0.014 A 
BRANCH  13  14
ATOM     14  C   UNL     1       5.003  -1.985  -4.812  1.00  0.00     0.031 A 
ATOM     15  C   UNL     1       5.726  -1.094  -5.777  1.00  0.00     0.074 A 
ATOM     16  C   UNL     1       4.951  -3.317  -5.012  1.00  0.00     0.049 A 
ATOM     17  N   UNL     1       6.342  -1.421  -6.886  1.00  0.00    -0.248 NA
ATOM     18  C   UNL     1       5.760   0.344  -5.472  1.00  0.00     0.031 C 
ATOM     19  C   UNL     1       4.269  -4.277  -4.135  1.00  0.00     0.029 A 
ATOM     20  N   UNL     1       5.483  -4.098  -6.003  1.00  0.00    -0.354 N 
ATOM     21  C   UNL     1       6.811  -0.230  -7.424  1.00  0.00     0.074 A 
ATOM     22  C   UNL     1       6.399   0.830  -6.529  1.00  0.00     0.031 C 
ATOM     23  C   UNL     1       4.459  -5.516  -4.605  1.00  0.00     0.029 A 
ATOM     24  C   UNL     1       5.199  -5.434  -5.856  1.00  0.00     0.049 A 
ATOM     25  H   UNL     1       6.016  -3.737  -6.748  1.00  0.00     0.167 HD
ATOM     26  C   UNL     1       7.517  -0.045  -8.565  1.00  0.00     0.031 A 
ATOM     27  C   UNL     1       5.468  -6.478  -6.658  1.00  0.00     0.031 A 
ATOM     28  C   UNL     1       7.925  -1.111  -9.444  1.00  0.00     0.049 A 
ATOM     29  C   UNL     1       6.208  -6.231  -7.938  1.00  0.00     0.074 A 
ATOM     30  C   UNL     1       8.692  -1.032 -10.594  1.00  0.00     0.029 A 
ATOM     31  N   UNL     1       7.587  -2.446  -9.280  1.00  0.00    -0.354 N 
ATOM     32  N   UNL     1       6.694  -5.107  -8.404  1.00  0.00    -0.248 NA
ATOM     33  C   UNL     1       6.431  -7.394  -8.805  1.00  0.00     0.031 C 
ATOM     34  C   UNL     1       8.761  -2.308 -11.161  1.00  0.00     0.029 A 
ATOM     35  C   UNL     1       8.091  -3.193 -10.331  1.00  0.00     0.049 A 
ATOM     36  H   UNL     1       7.066  -2.809  -8.527  1.00  0.00     0.167 HD
ATOM     37  C   UNL     1       7.292  -5.428  -9.613  1.00  0.00     0.074 A 
ATOM     38  C   UNL     1       7.131  -6.857  -9.794  1.00  0.00     0.031 C 
ATOM     39  C   UNL     1       7.914  -4.612 -10.497  1.00  0.00     0.031 A 
BRANCH  26  40
ATOM     40  C   UNL     1       7.867   1.363  -8.959  1.00  0.00    -0.014 A 
ATOM     41  C   UNL     1       8.846   2.097  -8.273  1.00  0.00     0.009 A 
ATOM     42  C   UNL     1       7.254   1.936 -10.085  1.00  0.00     0.009 A 
ATOM     43  C   UNL     1       9.188   3.385  -8.694  1.00  0.00     0.001 A 
ATOM     44  C   UNL     1       7.615   3.213 -10.519  1.00  0.00     0.001 A 
ATOM     45  C   UNL     1       8.578   3.939  -9.819  1.00  0.00     0.000 A 
ENDBRANCH  26  40
BRANCH  27  46
ATOM     46  C   UNL     1       4.984  -7.835  -6.295  1.00  0.00    -0.014 A 
ATOM     47  C   UNL     1       5.887  -8.854  -5.960  1.00  0.00     0.009 A 
ATOM     48  C   UNL     1       3.607  -8.115  -6.280  1.00  0.00     0.009 A 
ATOM     49  C   UNL     1       5.421 -10.132  -5.643  1.00  0.00     0.001 A 
ATOM     50  C   UNL     1       3.144  -9.383  -5.929  1.00  0.00     0.001 A 
ATOM     51  C   UNL     1       4.052 -10.394  -5.622  1.00  0.00     0.000 A 
ENDBRANCH  27  46
BRANCH  39  52
ATOM     52  C   UNL     1       8.483  -5.253 -11.730  1.00  0.00    -0.014 A 
ATOM     53  C   UNL     1       7.647  -5.711 -12.760  1.00  0.00     0.009 A 
ATOM     54  C   UNL     1       9.874  -5.362 -11.879  1.00  0.00     0.009 A 
ATOM     55  C   UNL     1       8.195  -6.293 -13.904  1.00  0.00     0.001 A 
ATOM     56  C   UNL     1      10.419  -5.916 -13.037  1.00  0.00     0.001 A 
ATOM     57  C   UNL     1       9.579  -6.388 -14.044  1.00  0.00     0.000 A 
ENDBRANCH  39  52
ENDBRANCH  13  14
ENDBRANCH   6   8
ENDBRANCH   3   4
ENDBRANCH   2   3
ENDBRANCH   1   2
BRANCH   1  58
ATOM     58  N   UNL     1       4.800   1.688   3.827  1.00  0.00    -0.352 N 
ATOM     59  C   UNL     1       5.626   2.167   4.809  1.00  0.00     0.251 C 
ATOM     60  H   UNL     1       4.508   0.754   3.932  1.00  0.00     0.163 HD
ATOM     61  O   UNL     1       6.127   1.401   5.627  1.00  0.00    -0.269 OA
BRANCH  59  62
ATOM     62  C   UNL     1       5.902   3.613   4.879  1.00  0.00     0.039 A 
ATOM     63  C   UNL     1       7.218   4.048   5.021  1.00  0.00     0.014 A 
ATOM     64  C   UNL     1       4.850   4.532   4.846  1.00  0.00     0.014 A 
ATOM     65  C   UNL     1       7.479   5.411   5.160  1.00  0.00     0.005 A 
ATOM     66  C   UNL     1       5.118   5.892   4.936  1.00  0.00     0.005 A 
ATOM     67  C   UNL     1       6.426   6.341   5.175  1.00  0.00    -0.039 A 
BRANCH  67  68
ATOM     68  C   UNL     1       6.717   7.794   5.524  1.00  0.00     0.074 C 
ATOM     69  C   UNL     1       5.617   8.401   6.428  1.00  0.00     0.020 C 
ATOM     70  C   UNL     1       7.013   8.625   4.258  1.00  0.00     0.270 C 
ATOM     71  C   UNL     1       4.962   9.618   5.792  1.00  0.00     0.062 C 
ATOM     72  N   UNL     1       6.974  10.068   4.434  1.00  0.00    -0.333 N 
ATOM     73  C   UNL     1       6.051  10.617   5.410  1.00  0.00     0.262 C 
ATOM     74  H   UNL     1       6.432  10.303   3.603  1.00  0.00     0.348 HD
BRANCH  72  75
ATOM     75  C   UNL     1       8.180  10.828   4.113  1.00  0.00     0.284 C 
BRANCH  75  76
ATOM     76  C   UNL     1       9.189  11.157   5.236  1.00  0.00     0.180 C 
BRANCH  76  77
ATOM     77  N   UNL     1      10.264  10.242   5.622  1.00  0.00    -0.337 N 
ATOM     78  C   UNL     1      11.242  10.696   6.588  1.00  0.00     0.120 C 
ATOM     79  C   UNL     1      10.486   8.910   5.287  1.00  0.00     0.222 C 
ATOM     80  C   UNL     1      12.255   9.569   6.666  1.00  0.00     0.031 C 
ATOM     81  C   UNL     1      11.415   8.353   6.343  1.00  0.00     0.102 C 
ATOM     82  O   UNL     1      10.042   8.260   4.375  1.00  0.00    -0.275 OA
ENDBRANCH  76  77
ENDBRANCH  75  76
ENDBRANCH  72  75
ENDBRANCH  67  68
ENDBRANCH  59  62
ENDBRANCH   1  58
TORSDOF 14
