REMARK SMILES Cc1cc(C(=O)Nc2c(Cl)cc(Cl)cc2C(=O)NCCCNC(=O)c2ccc(-c3c4nc(c(-c5ccccc5)c5ccc([nH]5)c(-c5ccccc5)c5nc(c(-c6ccccc6)c6ccc3[nH]6)C=C5)C=C4)cc2)c(C)s1
REMARK SMILES IDX 20 1 19 2 18 3 16 4 17 5 15 7 8 8 9 9 10 10 11 11 14 12
REMARK SMILES IDX 12 13 13 14 7 15 5 16 6 17 4 19 1 20 2 21 3 22 75 23 73 24
REMARK SMILES IDX 74 25 21 26 22 27 23 28 24 30 25 31 26 32 72 33 27 34 71 35
REMARK SMILES IDX 28 36 29 37 30 38 65 39 31 40 70 41 64 42 66 43 32 44 69 45
REMARK SMILES IDX 63 46 62 47 33 49 55 50 40 51 54 52 41 53 44 54 53 55 67 56
REMARK SMILES IDX 42 57 43 58 52 60 68 61 45 62 34 63 35 64 39 65 36 66 38 67
REMARK SMILES IDX 37 68 56 69 57 70 61 71 58 72 60 73 59 74 46 75 47 76 51 77
REMARK SMILES IDX 48 78 50 79 49 80
REMARK H PARENT 18 6 7 18 22 29 66 48 44 59
REMARK Flexibility Score: inf
ROOT
ATOM      1  C   UNL     1       2.648  -3.983   2.378  1.00  0.00     0.042 C 
ENDROOT
BRANCH   1   2
ATOM      2  C   UNL     1       1.691  -4.450   1.311  1.00  0.00     0.118 C 
BRANCH   2   3
ATOM      3  N   UNL     1       0.824  -5.551   1.616  1.00  0.00    -0.352 N 
ATOM      4  C   UNL     1      -0.430  -5.843   1.143  1.00  0.00     0.253 C 
ATOM      5  O   UNL     1      -0.921  -6.903   1.542  1.00  0.00    -0.269 OA
ATOM      6  H   UNL     1       1.185  -6.198   2.265  1.00  0.00     0.163 HD
BRANCH   4   7
ATOM      7  C   UNL     1      -1.274  -4.976   0.246  1.00  0.00     0.066 A 
ATOM      8  C   UNL     1      -0.904  -4.115  -0.817  1.00  0.00     0.073 A 
ATOM      9  C   UNL     1      -1.921  -3.529  -1.618  1.00  0.00     0.066 A 
ATOM     10  Cl  UNL     1      -1.552  -2.613  -3.045  1.00  0.00    -0.082 Cl
ATOM     11  C   UNL     1      -3.270  -3.666  -1.296  1.00  0.00     0.043 A 
ATOM     12  C   UNL     1      -2.653  -5.090   0.546  1.00  0.00     0.036 A 
ATOM     13  C   UNL     1      -3.627  -4.425  -0.196  1.00  0.00     0.043 A 
ATOM     14  Cl  UNL     1      -5.282  -4.552   0.251  1.00  0.00    -0.084 Cl
BRANCH   8  15
ATOM     15  N   UNL     1       0.432  -3.810  -1.126  1.00  0.00    -0.320 N 
ATOM     16  C   UNL     1       1.100  -2.584  -1.040  1.00  0.00     0.256 C 
ATOM     17  O   UNL     1       2.282  -2.592  -1.393  1.00  0.00    -0.269 OA
ATOM     18  H   UNL     1       0.974  -4.566  -1.449  1.00  0.00     0.170 HD
BRANCH  16  19
ATOM     19  C   UNL     1       0.483  -1.370  -0.441  1.00  0.00     0.054 A 
ATOM     20  C   UNL     1      -2.619   0.620   0.351  1.00  0.00     0.056 C 
ATOM     21  C   UNL     1      -1.231   0.104   0.199  1.00  0.00     0.003 A 
ATOM     22  C   UNL     1      -0.823  -1.208   0.139  1.00  0.00     0.029 A 
ATOM     23  S   UNL     1       0.098   1.146   0.068  1.00  0.00    -0.145 S 
ATOM     24  C   UNL     1       1.169  -0.166  -0.253  1.00  0.00     0.014 A 
ATOM     25  C   UNL     1       2.629   0.154  -0.335  1.00  0.00     0.057 C 
ENDBRANCH  16  19
ENDBRANCH   8  15
ENDBRANCH   4   7
ENDBRANCH   2   3
ENDBRANCH   1   2
BRANCH   1  26
ATOM     26  C   UNL     1       3.635  -5.022   2.859  1.00  0.00     0.118 C 
BRANCH  26  27
ATOM     27  N   UNL     1       4.596  -5.457   1.852  1.00  0.00    -0.352 N 
ATOM     28  C   UNL     1       5.924  -5.159   1.649  1.00  0.00     0.251 C 
ATOM     29  H   UNL     1       4.224  -6.083   1.190  1.00  0.00     0.163 HD
ATOM     30  O   UNL     1       6.491  -5.610   0.652  1.00  0.00    -0.269 OA
BRANCH  28  31
ATOM     31  C   UNL     1       6.680  -4.289   2.579  1.00  0.00     0.039 A 
ATOM     32  C   UNL     1       7.696  -3.464   2.083  1.00  0.00     0.014 A 
ATOM     33  C   UNL     1       6.423  -4.293   3.945  1.00  0.00     0.014 A 
ATOM     34  C   UNL     1       8.392  -2.614   2.950  1.00  0.00     0.010 A 
ATOM     35  C   UNL     1       6.977  -3.324   4.767  1.00  0.00     0.010 A 
ATOM     36  C   UNL     1       8.014  -2.513   4.297  1.00  0.00    -0.014 A 
BRANCH  36  37
ATOM     37  C   UNL     1       8.737  -1.651   5.266  1.00  0.00     0.031 A 
ATOM     38  C   UNL     1       9.360  -2.268   6.497  1.00  0.00     0.074 A 
ATOM     39  C   UNL     1       8.784  -0.317   5.084  1.00  0.00     0.049 A 
ATOM     40  N   UNL     1       9.988  -1.688   7.490  1.00  0.00    -0.248 NA
ATOM     41  C   UNL     1       9.217  -3.726   6.660  1.00  0.00     0.031 C 
ATOM     42  C   UNL     1       8.180   0.412   3.967  1.00  0.00     0.029 A 
ATOM     43  N   UNL     1       9.376   0.663   5.839  1.00  0.00    -0.354 N 
ATOM     44  C   UNL     1      10.270  -2.701   8.399  1.00  0.00     0.074 A 
ATOM     45  C   UNL     1       9.674  -3.911   7.886  1.00  0.00     0.031 C 
ATOM     46  C   UNL     1       8.490   1.714   4.074  1.00  0.00     0.029 A 
ATOM     47  C   UNL     1       9.271   1.917   5.290  1.00  0.00     0.049 A 
ATOM     48  H   UNL     1       9.834   0.484   6.692  1.00  0.00     0.167 HD
ATOM     49  C   UNL     1      10.994  -2.647   9.543  1.00  0.00     0.031 A 
ATOM     50  C   UNL     1       9.764   3.096   5.713  1.00  0.00     0.031 A 
ATOM     51  C   UNL     1      11.617  -1.450  10.034  1.00  0.00     0.049 A 
ATOM     52  C   UNL     1      10.570   3.137   6.982  1.00  0.00     0.074 A 
ATOM     53  C   UNL     1      12.435  -1.291  11.137  1.00  0.00     0.029 A 
ATOM     54  N   UNL     1      11.489  -0.201   9.444  1.00  0.00    -0.354 N 
ATOM     55  N   UNL     1      10.897   2.157   7.790  1.00  0.00    -0.248 NA
ATOM     56  C   UNL     1      11.092   4.450   7.384  1.00  0.00     0.031 C 
ATOM     57  C   UNL     1      12.752   0.067  11.250  1.00  0.00     0.029 A 
ATOM     58  C   UNL     1      12.191   0.740  10.176  1.00  0.00     0.049 A 
ATOM     59  H   UNL     1      10.974  -0.013   8.626  1.00  0.00     0.167 HD
ATOM     60  C   UNL     1      11.698   2.727   8.772  1.00  0.00     0.074 A 
ATOM     61  C   UNL     1      11.813   4.135   8.450  1.00  0.00     0.031 C 
ATOM     62  C   UNL     1      12.293   2.137   9.838  1.00  0.00     0.031 A 
BRANCH  49  63
ATOM     63  C   UNL     1      11.130  -3.922  10.334  1.00  0.00    -0.014 A 
ATOM     64  C   UNL     1      11.823  -5.035   9.825  1.00  0.00     0.009 A 
ATOM     65  C   UNL     1      10.541  -4.019  11.604  1.00  0.00     0.009 A 
ATOM     66  C   UNL     1      11.866  -6.234  10.541  1.00  0.00     0.001 A 
ATOM     67  C   UNL     1      10.621  -5.206  12.336  1.00  0.00     0.001 A 
ATOM     68  C   UNL     1      11.267  -6.317  11.797  1.00  0.00     0.000 A 
ENDBRANCH  49  63
BRANCH  50  69
ATOM     69  C   UNL     1       9.568   4.322   4.895  1.00  0.00    -0.014 A 
ATOM     70  C   UNL     1      10.655   4.898   4.219  1.00  0.00     0.009 A 
ATOM     71  C   UNL     1       8.304   4.919   4.777  1.00  0.00     0.009 A 
ATOM     72  C   UNL     1      10.486   6.061   3.464  1.00  0.00     0.001 A 
ATOM     73  C   UNL     1       8.132   6.065   3.997  1.00  0.00     0.001 A 
ATOM     74  C   UNL     1       9.224   6.640   3.349  1.00  0.00     0.000 A 
ENDBRANCH  50  69
BRANCH  62  75
ATOM     75  C   UNL     1      13.168   3.004  10.702  1.00  0.00    -0.014 A 
ATOM     76  C   UNL     1      12.632   4.008  11.522  1.00  0.00     0.009 A 
ATOM     77  C   UNL     1      14.555   2.787  10.711  1.00  0.00     0.009 A 
ATOM     78  C   UNL     1      13.474   4.809  12.297  1.00  0.00     0.001 A 
ATOM     79  C   UNL     1      15.390   3.563  11.514  1.00  0.00     0.001 A 
ATOM     80  C   UNL     1      14.850   4.582  12.296  1.00  0.00     0.000 A 
ENDBRANCH  62  75
ENDBRANCH  36  37
ENDBRANCH  28  31
ENDBRANCH  26  27
ENDBRANCH   1  26
TORSDOF 12
