REMARK SMILES CC(C)c1ccc(NC(=O)C(=O)N/N=C/c2ccccc2C(=O)NCCCNC(=O)c2ccc(-c3c4nc(c(-c5ccccc5)c5ccc([nH]5)c(-c5ccccc5)c5nc(c(-c6ccccc6)c6ccc3[nH]6)C=C5)C=C4)cc2)cc1
REMARK SMILES IDX 22 1 23 2 24 3 21 5 16 6 17 7 18 8 20 9 19 10 15 11 14 12
REMARK SMILES IDX 13 13 11 14 12 15 9 17 8 18 10 20 7 21 4 22 5 23 80 24 6 25
REMARK SMILES IDX 79 26 2 27 1 28 3 29 25 30 26 31 27 32 28 33 29 34 30 36
REMARK SMILES IDX 31 37 32 38 78 39 33 40 77 41 34 42 35 43 36 44 71 45 37 46
REMARK SMILES IDX 76 47 70 48 72 49 38 50 75 51 69 52 68 53 39 55 61 56 46 57
REMARK SMILES IDX 60 58 47 59 50 60 59 61 73 62 48 63 49 64 58 66 74 67 51 68
REMARK SMILES IDX 40 69 41 70 45 71 42 72 44 73 43 74 62 75 63 76 67 77 64 78
REMARK SMILES IDX 66 79 65 80 52 81 53 82 57 83 54 84 56 85 55 86
REMARK H PARENT 24 4 13 16 8 19 28 35 72 54 50 65
REMARK Flexibility Score: inf
ROOT
ATOM      1  C   UNL     1      -9.657   3.535   0.073  1.00  0.00     0.251 C 
ATOM      2  O   UNL     1     -10.223   4.633   0.067  1.00  0.00    -0.269 OA
ATOM      3  N   UNL     1      -8.437   3.490  -0.542  1.00  0.00    -0.352 N 
ATOM      4  H   UNL     1      -8.191   4.338  -0.978  1.00  0.00     0.163 HD
ENDROOT
BRANCH   1   5
ATOM      5  C   UNL     1     -10.394   2.386   0.659  1.00  0.00     0.048 A 
ATOM      6  C   UNL     1      -9.903   1.374   1.491  1.00  0.00     0.007 A 
ATOM      7  C   UNL     1     -10.765   0.411   2.046  1.00  0.00     0.010 A 
ATOM      8  C   UNL     1     -12.135   0.458   1.792  1.00  0.00     0.001 A 
ATOM      9  C   UNL     1     -11.786   2.407   0.415  1.00  0.00     0.014 A 
ATOM     10  C   UNL     1     -12.646   1.454   0.970  1.00  0.00     0.001 A 
BRANCH   6  11
ATOM     11  C   UNL     1      -8.489   1.161   1.790  1.00  0.00     0.142 C 
ATOM     12  N   UNL     1      -7.831   1.879   2.638  1.00  0.00    -0.180 NA
BRANCH  12  13
ATOM     13  N   UNL     1      -6.474   1.631   2.814  1.00  0.00    -0.239 N 
ATOM     14  C   UNL     1      -5.701   0.750   2.066  1.00  0.00     0.329 C 
ATOM     15  O   UNL     1      -4.890   1.149   1.238  1.00  0.00    -0.262 OA
ATOM     16  H   UNL     1      -6.019   2.125   3.534  1.00  0.00     0.194 HD
BRANCH  14  17
ATOM     17  C   UNL     1      -5.911  -0.759   2.325  1.00  0.00     0.315 C 
ATOM     18  N   UNL     1      -4.920  -1.679   2.054  1.00  0.00    -0.318 N 
ATOM     19  H   UNL     1      -5.264  -2.598   1.970  1.00  0.00     0.170 HD
ATOM     20  O   UNL     1      -7.010  -1.179   2.680  1.00  0.00    -0.263 OA
BRANCH  18  21
ATOM     21  C   UNL     1      -3.530  -1.597   1.871  1.00  0.00     0.041 A 
ATOM     22  C   UNL     1      -0.706  -1.736   1.623  1.00  0.00    -0.045 A 
ATOM     23  C   UNL     1      -1.339  -0.568   2.067  1.00  0.00     0.006 A 
ATOM     24  C   UNL     1      -1.508  -2.830   1.283  1.00  0.00     0.006 A 
ATOM     25  C   UNL     1      -2.735  -0.504   2.202  1.00  0.00     0.026 A 
ATOM     26  C   UNL     1      -2.900  -2.760   1.407  1.00  0.00     0.026 A 
BRANCH  22  27
ATOM     27  C   UNL     1       0.806  -1.872   1.583  1.00  0.00     0.013 C 
ATOM     28  C   UNL     1       1.478  -0.830   0.690  1.00  0.00     0.012 C 
ATOM     29  C   UNL     1       1.387  -1.822   2.999  1.00  0.00     0.012 C 
ENDBRANCH  22  27
ENDBRANCH  18  21
ENDBRANCH  14  17
ENDBRANCH  12  13
ENDBRANCH   6  11
ENDBRANCH   1   5
BRANCH   3  30
ATOM     30  C   UNL     1      -7.428   2.461  -0.690  1.00  0.00     0.118 C 
BRANCH  30  31
ATOM     31  C   UNL     1      -6.545   2.600  -1.932  1.00  0.00     0.042 C 
BRANCH  31  32
ATOM     32  C   UNL     1      -5.845   3.948  -2.086  1.00  0.00     0.118 C 
BRANCH  32  33
ATOM     33  N   UNL     1      -4.911   4.275  -1.024  1.00  0.00    -0.352 N 
ATOM     34  C   UNL     1      -3.620   3.922  -0.728  1.00  0.00     0.251 C 
ATOM     35  H   UNL     1      -5.294   4.895  -0.363  1.00  0.00     0.163 HD
ATOM     36  O   UNL     1      -3.137   4.409   0.299  1.00  0.00    -0.269 OA
BRANCH  34  37
ATOM     37  C   UNL     1      -2.776   2.999  -1.538  1.00  0.00     0.039 A 
ATOM     38  C   UNL     1      -1.710   2.369  -0.871  1.00  0.00     0.014 A 
ATOM     39  C   UNL     1      -2.907   2.782  -2.910  1.00  0.00     0.014 A 
ATOM     40  C   UNL     1      -0.818   1.533  -1.553  1.00  0.00     0.010 A 
ATOM     41  C   UNL     1      -2.048   1.904  -3.585  1.00  0.00     0.010 A 
ATOM     42  C   UNL     1      -0.991   1.275  -2.915  1.00  0.00    -0.014 A 
BRANCH  42  43
ATOM     43  C   UNL     1      -0.078   0.369  -3.657  1.00  0.00     0.031 A 
ATOM     44  C   UNL     1       0.830   0.908  -4.727  1.00  0.00     0.074 A 
ATOM     45  C   UNL     1      -0.103  -0.956  -3.420  1.00  0.00     0.049 A 
ATOM     46  N   UNL     1       1.566   0.254  -5.592  1.00  0.00    -0.248 NA
ATOM     47  C   UNL     1       0.905   2.371  -4.854  1.00  0.00     0.031 C 
ATOM     48  C   UNL     1      -0.936  -1.626  -2.421  1.00  0.00     0.029 A 
ATOM     49  N   UNL     1       0.593  -1.978  -4.016  1.00  0.00    -0.354 N 
ATOM     50  C   UNL     1       2.138   1.222  -6.407  1.00  0.00     0.074 A 
ATOM     51  C   UNL     1       1.686   2.508  -5.917  1.00  0.00     0.031 C 
ATOM     52  C   UNL     1      -0.685  -2.945  -2.458  1.00  0.00     0.029 A 
ATOM     53  C   UNL     1       0.292  -3.216  -3.508  1.00  0.00     0.049 A 
ATOM     54  H   UNL     1       1.246  -1.836  -4.739  1.00  0.00     0.167 HD
ATOM     55  C   UNL     1       2.951   1.057  -7.478  1.00  0.00     0.031 A 
ATOM     56  C   UNL     1       0.736  -4.437  -3.857  1.00  0.00     0.031 A 
ATOM     57  C   UNL     1       3.448  -0.207  -7.949  1.00  0.00     0.049 A 
ATOM     58  C   UNL     1       1.694  -4.591  -5.001  1.00  0.00     0.074 A 
ATOM     59  C   UNL     1       4.295  -0.460  -9.015  1.00  0.00     0.029 A 
ATOM     60  N   UNL     1       3.156  -1.431  -7.371  1.00  0.00    -0.354 N 
ATOM     61  N   UNL     1       2.203  -3.668  -5.778  1.00  0.00    -0.248 NA
ATOM     62  C   UNL     1       2.124  -5.960  -5.325  1.00  0.00     0.031 C 
ATOM     63  C   UNL     1       4.506  -1.843  -9.089  1.00  0.00     0.029 A 
ATOM     64  C   UNL     1       3.804  -2.444  -8.058  1.00  0.00     0.049 A 
ATOM     65  H   UNL     1       2.574  -1.562  -6.588  1.00  0.00     0.167 HD
ATOM     66  C   UNL     1       3.006  -4.342  -6.687  1.00  0.00     0.074 A 
ATOM     67  C   UNL     1       2.936  -5.750  -6.352  1.00  0.00     0.031 C 
ATOM     68  C   UNL     1       3.725  -3.838  -7.717  1.00  0.00     0.031 A 
BRANCH  55  69
ATOM     69  C   UNL     1       3.315   2.291  -8.248  1.00  0.00    -0.014 A 
ATOM     70  C   UNL     1       4.340   3.144  -7.817  1.00  0.00     0.009 A 
ATOM     71  C   UNL     1       2.622   2.592  -9.431  1.00  0.00     0.009 A 
ATOM     72  C   UNL     1       4.646   4.296  -8.545  1.00  0.00     0.001 A 
ATOM     73  C   UNL     1       2.939   3.736 -10.163  1.00  0.00     0.001 A 
ATOM     74  C   UNL     1       3.946   4.591  -9.716  1.00  0.00     0.000 A 
ENDBRANCH  55  69
BRANCH  56  75
ATOM     75  C   UNL     1       0.261  -5.627  -3.112  1.00  0.00    -0.014 A 
ATOM     76  C   UNL     1       1.068  -6.205  -2.122  1.00  0.00     0.009 A 
ATOM     77  C   UNL     1      -0.998  -6.182  -3.384  1.00  0.00     0.009 A 
ATOM     78  C   UNL     1       0.625  -7.328  -1.421  1.00  0.00     0.001 A 
ATOM     79  C   UNL     1      -1.443  -7.297  -2.672  1.00  0.00     0.001 A 
ATOM     80  C   UNL     1      -0.630  -7.871  -1.695  1.00  0.00     0.000 A 
ENDBRANCH  56  75
BRANCH  68  81
ATOM     81  C   UNL     1       4.493  -4.816  -8.553  1.00  0.00    -0.014 A 
ATOM     82  C   UNL     1       3.856  -5.537  -9.574  1.00  0.00     0.009 A 
ATOM     83  C   UNL     1       5.866  -5.002  -8.336  1.00  0.00     0.009 A 
ATOM     84  C   UNL     1       4.579  -6.443 -10.353  1.00  0.00     0.001 A 
ATOM     85  C   UNL     1       6.588  -5.901  -9.124  1.00  0.00     0.001 A 
ATOM     86  C   UNL     1       5.943  -6.623 -10.127  1.00  0.00     0.000 A 
ENDBRANCH  68  81
ENDBRANCH  42  43
ENDBRANCH  34  37
ENDBRANCH  32  33
ENDBRANCH  31  32
ENDBRANCH  30  31
ENDBRANCH   3  30
TORSDOF 15
