REMARK SMILES CCCCCCNC(=O)Oc1cccc(-c2ccc([C@@H](C)C(=O)NCCCNC(=O)c3ccc(-c4c5nc(c(-c6ccccc6)c6ccc([nH]6)c(-c6ccccc6)c6nc(c(-c7ccccc7)c7ccc4[nH]7)C=C6)C=C5)cc3)cc2F)c1
REMARK SMILES IDX 16 1 17 2 18 3 19 4 79 5 80 6 81 7 15 8 11 9 12 10 82 11
REMARK SMILES IDX 13 12 14 13 10 14 8 15 7 16 9 18 6 19 5 20 4 21 3 22 2 23
REMARK SMILES IDX 1 24 20 25 21 26 22 27 23 28 24 29 25 31 26 32 27 33 28 34
REMARK SMILES IDX 29 35 30 37 31 38 32 39 78 40 33 41 77 42 34 43 35 44 36 45
REMARK SMILES IDX 71 46 37 47 76 48 70 49 72 50 38 51 75 52 69 53 68 54 39 56
REMARK SMILES IDX 61 57 46 58 60 59 47 60 50 61 59 62 73 63 48 64 49 65 58 67
REMARK SMILES IDX 74 68 51 69 40 70 41 71 45 72 42 73 44 74 43 75 62 76 63 77
REMARK SMILES IDX 67 78 64 79 66 80 65 81 52 82 53 83 57 84 54 85 56 86 55 87
REMARK H PARENT 7 17 24 30 28 36 72 55 50 66
REMARK Flexibility Score: inf
ROOT
ATOM      1  C   UNL     1      -5.178  -4.667   8.506  1.00  0.00     0.018 A 
ATOM      2  C   UNL     1      -5.773  -5.541   9.431  1.00  0.00     0.012 A 
ATOM      3  C   UNL     1      -5.695  -5.324  10.813  1.00  0.00     0.005 A 
ATOM      4  C   UNL     1      -4.957  -4.261  11.337  1.00  0.00    -0.033 A 
ATOM      5  C   UNL     1      -4.370  -3.372  10.426  1.00  0.00     0.044 A 
ATOM      6  C   UNL     1      -4.500  -3.563   9.046  1.00  0.00     0.131 A 
ATOM      7  F   UNL     1      -3.952  -2.636   8.244  1.00  0.00    -0.206 F 
ENDROOT
BRANCH   1   8
ATOM      8  C   UNL     1      -5.265  -4.929   7.048  1.00  0.00    -0.012 A 
ATOM      9  C   UNL     1      -4.322  -4.849   4.803  1.00  0.00     0.133 A 
ATOM     10  C   UNL     1      -5.445  -5.467   4.266  1.00  0.00     0.047 A 
ATOM     11  C   UNL     1      -4.224  -4.580   6.171  1.00  0.00     0.056 A 
ATOM     12  C   UNL     1      -6.485  -5.829   5.112  1.00  0.00     0.004 A 
ATOM     13  C   UNL     1      -6.398  -5.552   6.482  1.00  0.00     0.009 A 
BRANCH   9  14
ATOM     14  O   UNL     1      -3.364  -4.377   3.892  1.00  0.00    -0.410 OA
BRANCH  14  15
ATOM     15  C   UNL     1      -2.027  -4.678   4.108  1.00  0.00     0.412 C 
ATOM     16  N   UNL     1      -1.194  -4.044   3.226  1.00  0.00    -0.321 N 
ATOM     17  H   UNL     1      -0.233  -4.240   3.307  1.00  0.00     0.167 HD
ATOM     18  O   UNL     1      -1.587  -5.431   4.967  1.00  0.00    -0.224 OA
BRANCH  16  19
ATOM     19  C   UNL     1      -1.584  -3.114   2.185  1.00  0.00     0.119 C 
BRANCH  19  20
ATOM     20  C   UNL     1      -0.986  -1.725   2.404  1.00  0.00     0.021 C 
BRANCH  20  21
ATOM     21  C   UNL     1       0.543  -1.663   2.317  1.00  0.00     0.002 C 
BRANCH  21  22
ATOM     22  C   UNL     1       1.150  -2.157   0.999  1.00  0.00    -0.000 C 
BRANCH  22  23
ATOM     23  C   UNL     1       0.660  -1.440  -0.261  1.00  0.00    -0.003 C 
ATOM     24  C   UNL     1       1.013   0.039  -0.288  1.00  0.00     0.004 C 
ENDBRANCH  22  23
ENDBRANCH  21  22
ENDBRANCH  20  21
ENDBRANCH  19  20
ENDBRANCH  16  19
ENDBRANCH  14  15
ENDBRANCH   9  14
ENDBRANCH   1   8
BRANCH   4  25
ATOM     25  C   UNL     1      -4.745  -4.055  12.827  1.00  0.00     0.105 C 
ATOM     26  C   UNL     1      -5.995  -4.182  13.697  1.00  0.00     0.023 C 
BRANCH  25  27
ATOM     27  C   UNL     1      -3.507  -4.780  13.377  1.00  0.00     0.227 C 
ATOM     28  O   UNL     1      -2.475  -4.140  13.615  1.00  0.00    -0.274 OA
ATOM     29  N   UNL     1      -3.454  -6.115  13.635  1.00  0.00    -0.356 N 
ATOM     30  H   UNL     1      -2.608  -6.408  14.043  1.00  0.00     0.163 HD
BRANCH  29  31
ATOM     31  C   UNL     1      -4.407  -7.187  13.423  1.00  0.00     0.117 C 
BRANCH  31  32
ATOM     32  C   UNL     1      -4.112  -7.980  12.152  1.00  0.00     0.042 C 
BRANCH  32  33
ATOM     33  C   UNL     1      -3.008  -9.018  12.316  1.00  0.00     0.118 C 
BRANCH  33  34
ATOM     34  N   UNL     1      -3.430 -10.149  13.133  1.00  0.00    -0.352 N 
ATOM     35  C   UNL     1      -3.640 -11.465  12.802  1.00  0.00     0.251 C 
ATOM     36  H   UNL     1      -3.592  -9.933  14.080  1.00  0.00     0.163 HD
ATOM     37  O   UNL     1      -4.207 -12.204  13.603  1.00  0.00    -0.269 OA
BRANCH  35  38
ATOM     38  C   UNL     1      -3.211 -12.005  11.491  1.00  0.00     0.039 A 
ATOM     39  C   UNL     1      -4.039 -12.923  10.836  1.00  0.00     0.014 A 
ATOM     40  C   UNL     1      -1.983 -11.654  10.926  1.00  0.00     0.014 A 
ATOM     41  C   UNL     1      -3.671 -13.429   9.585  1.00  0.00     0.010 A 
ATOM     42  C   UNL     1      -1.651 -12.100   9.648  1.00  0.00     0.010 A 
ATOM     43  C   UNL     1      -2.492 -12.989   8.963  1.00  0.00    -0.014 A 
BRANCH  43  44
ATOM     44  C   UNL     1      -2.123 -13.429   7.594  1.00  0.00     0.031 A 
ATOM     45  C   UNL     1      -0.874 -14.233   7.364  1.00  0.00     0.074 A 
ATOM     46  C   UNL     1      -2.869 -13.032   6.544  1.00  0.00     0.049 A 
ATOM     47  N   UNL     1      -0.330 -14.611   6.235  1.00  0.00    -0.248 NA
ATOM     48  C   UNL     1      -0.126 -14.649   8.561  1.00  0.00     0.031 C 
ATOM     49  C   UNL     1      -4.089 -12.226   6.627  1.00  0.00     0.029 A 
ATOM     50  N   UNL     1      -2.698 -13.238   5.198  1.00  0.00    -0.354 N 
ATOM     51  C   UNL     1       0.833 -15.287   6.583  1.00  0.00     0.074 A 
ATOM     52  C   UNL     1       0.935 -15.235   8.026  1.00  0.00     0.031 C 
ATOM     53  C   UNL     1      -4.565 -12.021   5.389  1.00  0.00     0.029 A 
ATOM     54  C   UNL     1      -3.661 -12.638   4.424  1.00  0.00     0.049 A 
ATOM     55  H   UNL     1      -1.956 -13.766   4.824  1.00  0.00     0.167 HD
ATOM     56  C   UNL     1       1.728 -15.907   5.777  1.00  0.00     0.031 A 
ATOM     57  C   UNL     1      -3.792 -12.573   3.086  1.00  0.00     0.031 A 
ATOM     58  C   UNL     1       1.624 -15.963   4.343  1.00  0.00     0.049 A 
ATOM     59  C   UNL     1      -2.767 -13.238   2.211  1.00  0.00     0.074 A 
ATOM     60  C   UNL     1       2.451 -16.614   3.444  1.00  0.00     0.029 A 
ATOM     61  N   UNL     1       0.634 -15.341   3.599  1.00  0.00    -0.354 N 
ATOM     62  N   UNL     1      -1.705 -13.923   2.558  1.00  0.00    -0.248 NA
ATOM     63  C   UNL     1      -2.962 -13.121   0.759  1.00  0.00     0.031 C 
ATOM     64  C   UNL     1       1.989 -16.345   2.151  1.00  0.00     0.029 A 
ATOM     65  C   UNL     1       0.845 -15.570   2.249  1.00  0.00     0.049 A 
ATOM     66  H   UNL     1      -0.108 -14.814   3.974  1.00  0.00     0.167 HD
ATOM     67  C   UNL     1      -1.118 -14.338   1.371  1.00  0.00     0.074 A 
ATOM     68  C   UNL     1      -1.949 -13.840   0.294  1.00  0.00     0.031 C 
ATOM     69  C   UNL     1       0.010 -15.066   1.190  1.00  0.00     0.031 A 
BRANCH  56  70
ATOM     70  C   UNL     1       2.909 -16.565   6.434  1.00  0.00    -0.014 A 
ATOM     71  C   UNL     1       2.758 -17.737   7.193  1.00  0.00     0.009 A 
ATOM     72  C   UNL     1       4.193 -16.024   6.268  1.00  0.00     0.009 A 
ATOM     73  C   UNL     1       3.865 -18.331   7.804  1.00  0.00     0.001 A 
ATOM     74  C   UNL     1       5.301 -16.636   6.857  1.00  0.00     0.001 A 
ATOM     75  C   UNL     1       5.135 -17.782   7.633  1.00  0.00     0.000 A 
ENDBRANCH  56  70
BRANCH  57  76
ATOM     76  C   UNL     1      -4.947 -11.854   2.489  1.00  0.00    -0.014 A 
ATOM     77  C   UNL     1      -5.982 -12.570   1.867  1.00  0.00     0.009 A 
ATOM     78  C   UNL     1      -5.026 -10.453   2.541  1.00  0.00     0.009 A 
ATOM     79  C   UNL     1      -7.061 -11.897   1.291  1.00  0.00     0.001 A 
ATOM     80  C   UNL     1      -6.120  -9.785   1.987  1.00  0.00     0.001 A 
ATOM     81  C   UNL     1      -7.132 -10.506   1.356  1.00  0.00     0.000 A 
ENDBRANCH  57  76
BRANCH  69  82
ATOM     82  C   UNL     1       0.396 -15.395  -0.224  1.00  0.00    -0.014 A 
ATOM     83  C   UNL     1       0.943 -14.421  -1.073  1.00  0.00     0.009 A 
ATOM     84  C   UNL     1       0.253 -16.709  -0.696  1.00  0.00     0.009 A 
ATOM     85  C   UNL     1       1.316 -14.752  -2.377  1.00  0.00     0.001 A 
ATOM     86  C   UNL     1       0.651 -17.043  -1.991  1.00  0.00     0.001 A 
ATOM     87  C   UNL     1       1.175 -16.063  -2.833  1.00  0.00     0.000 A 
ENDBRANCH  69  82
ENDBRANCH  43  44
ENDBRANCH  35  38
ENDBRANCH  33  34
ENDBRANCH  32  33
ENDBRANCH  31  32
ENDBRANCH  29  31
ENDBRANCH  25  27
ENDBRANCH   4  25
TORSDOF 19
