REMARK SMILES CC(C)C[C@H](NC(=O)[C@H]1CCCCC[C@H]1[NH3+])C(=O)NCCCNC(=O)c1ccc(-c2c3nc(c(-c4ccccc4)c4ccc([nH]4)c(-c4ccccc4)c4nc(c(-c5ccccc5)c5ccc2[nH]5)C=C4)C=C3)cc1
REMARK SMILES IDX 17 1 18 2 19 3 5 5 4 6 2 7 1 8 3 9 6 10 7 11 8 13 9 14 10 15
REMARK SMILES IDX 11 16 15 18 14 19 13 20 12 21 16 23 20 27 21 28 22 29 23 30
REMARK SMILES IDX 24 31 25 33 26 34 27 35 73 36 28 37 72 38 29 39 30 40 31 41
REMARK SMILES IDX 66 42 32 43 71 44 65 45 67 46 33 47 70 48 64 49 63 50 34 52
REMARK SMILES IDX 56 53 41 54 55 55 42 56 45 57 54 58 68 59 43 60 44 61 53 63
REMARK SMILES IDX 69 64 46 65 35 66 36 67 40 68 37 69 39 70 38 71 57 72 58 73
REMARK SMILES IDX 62 74 59 75 61 76 60 77 47 78 48 79 52 80 49 81 51 82 50 83
REMARK H PARENT 19 4 6 12 16 24 16 25 16 26 23 32 67 51 45 62
REMARK Flexibility Score: 90.00
ROOT
ATOM      1  C   UNL     1       5.013   3.138   1.380  1.00  0.00     0.242 C 
ATOM      2  O   UNL     1       5.097   4.333   1.092  1.00  0.00    -0.273 OA
ATOM      3  N   UNL     1       6.177   2.436   1.540  1.00  0.00    -0.354 N 
ATOM      4  H   UNL     1       6.990   2.917   1.263  1.00  0.00     0.163 HD
ENDROOT
BRANCH   1   5
ATOM      5  C   UNL     1       3.648   2.470   1.659  1.00  0.00     0.171 C 
BRANCH   5   6
ATOM      6  C   UNL     1       3.545   2.193   3.164  1.00  0.00     0.038 C 
BRANCH   6   7
ATOM      7  C   UNL     1       3.775   3.369   4.128  1.00  0.00    -0.015 C 
ATOM      8  C   UNL     1       2.747   4.481   3.925  1.00  0.00     0.007 C 
ATOM      9  C   UNL     1       3.686   2.837   5.565  1.00  0.00     0.007 C 
ENDBRANCH   6   7
ENDBRANCH   5   6
BRANCH   5  10
ATOM     10  N   UNL     1       3.588   1.274   0.792  1.00  0.00    -0.344 N 
ATOM     11  C   UNL     1       2.749   0.321   0.356  1.00  0.00     0.229 C 
ATOM     12  H   UNL     1       4.476   1.124   0.394  1.00  0.00     0.164 HD
ATOM     13  O   UNL     1       3.281  -0.381  -0.523  1.00  0.00    -0.275 OA
BRANCH  11  14
ATOM     14  C   UNL     1       1.267   0.066   0.709  1.00  0.00     0.136 C 
BRANCH  14  15
ATOM     15  C   UNL     1       0.929  -1.427   0.398  1.00  0.00     0.020 C 
BRANCH  15  16
ATOM     16  C   UNL     1       1.782  -2.462   1.141  1.00  0.00     0.001 CG0
ATOM     17  G   UNL     1       1.428  -2.790   2.589  1.00  0.00     0.000 G0
ENDBRANCH  15  16
ENDBRANCH  14  15
BRANCH  14  18
ATOM     18  C   UNL     1       0.670   0.394   2.080  1.00  0.00     0.193 C 
BRANCH  18  19
ATOM     19  C   UNL     1       1.420  -0.277   3.246  1.00  0.00     0.066 C 
BRANCH  19  20
ATOM     20  C   UNL     1       0.935  -1.693   3.525  1.00  0.00     0.006 C 
BRANCH  20  21
ATOM     21  C   UNL     1       1.428  -2.790   2.589  1.00  0.00     0.000 CG0
ATOM     22  G   UNL     1       1.782  -2.462   1.141  1.00  0.00     0.000 G0
ENDBRANCH  20  21
ENDBRANCH  19  20
ENDBRANCH  18  19
BRANCH  18  23
ATOM     23  N   UNL     1       0.396   1.823   2.239  1.00  0.00    -0.354 N 
ATOM     24  H   UNL     1       1.273   2.343   2.211  1.00  0.00     0.344 HD
ATOM     25  H   UNL     1      -0.066   1.983   3.134  1.00  0.00     0.344 HD
ATOM     26  H   UNL     1      -0.211   2.139   1.482  1.00  0.00     0.344 HD
ENDBRANCH  18  23
ENDBRANCH  14  18
ENDBRANCH  11  14
ENDBRANCH   5  10
ENDBRANCH   1   5
BRANCH   3  27
ATOM     27  C   UNL     1       6.410   1.091   2.053  1.00  0.00     0.117 C 
BRANCH  27  28
ATOM     28  C   UNL     1       7.411   0.316   1.215  1.00  0.00     0.042 C 
BRANCH  28  29
ATOM     29  C   UNL     1       8.807   0.915   1.219  1.00  0.00     0.118 C 
BRANCH  29  30
ATOM     30  N   UNL     1       9.435   0.894   2.535  1.00  0.00    -0.352 N 
ATOM     31  C   UNL     1      10.621   0.315   2.921  1.00  0.00     0.251 C 
ATOM     32  H   UNL     1       8.941   1.361   3.248  1.00  0.00     0.163 HD
ATOM     33  O   UNL     1      10.935   0.265   4.106  1.00  0.00    -0.269 OA
BRANCH  31  34
ATOM     34  C   UNL     1      11.496  -0.280   1.893  1.00  0.00     0.039 A 
ATOM     35  C   UNL     1      11.969  -1.581   2.072  1.00  0.00     0.014 A 
ATOM     36  C   UNL     1      11.784   0.426   0.723  1.00  0.00     0.014 A 
ATOM     37  C   UNL     1      12.652  -2.211   1.031  1.00  0.00     0.010 A 
ATOM     38  C   UNL     1      12.381  -0.233  -0.344  1.00  0.00     0.010 A 
ATOM     39  C   UNL     1      12.814  -1.560  -0.203  1.00  0.00    -0.014 A 
BRANCH  39  40
ATOM     40  C   UNL     1      13.419  -2.247  -1.371  1.00  0.00     0.031 A 
ATOM     41  C   UNL     1      14.684  -1.713  -1.982  1.00  0.00     0.074 A 
ATOM     42  C   UNL     1      12.781  -3.290  -1.937  1.00  0.00     0.049 A 
ATOM     43  N   UNL     1      15.308  -2.106  -3.063  1.00  0.00    -0.248 NA
ATOM     44  C   UNL     1      15.313  -0.565  -1.307  1.00  0.00     0.031 C 
ATOM     45  C   UNL     1      11.521  -3.873  -1.470  1.00  0.00     0.029 A 
ATOM     46  N   UNL     1      13.103  -4.040  -3.040  1.00  0.00    -0.354 N 
ATOM     47  C   UNL     1      16.384  -1.240  -3.210  1.00  0.00     0.074 A 
ATOM     48  C   UNL     1      16.301  -0.272  -2.139  1.00  0.00     0.031 C 
ATOM     49  C   UNL     1      11.192  -4.905  -2.264  1.00  0.00     0.029 A 
ATOM     50  C   UNL     1      12.191  -5.029  -3.320  1.00  0.00     0.049 A 
ATOM     51  H   UNL     1      13.911  -3.884  -3.581  1.00  0.00     0.167 HD
ATOM     52  C   UNL     1      17.366  -1.260  -4.141  1.00  0.00     0.031 A 
ATOM     53  C   UNL     1      12.158  -5.929  -4.320  1.00  0.00     0.031 A 
ATOM     54  C   UNL     1      17.461  -2.234  -5.194  1.00  0.00     0.049 A 
ATOM     55  C   UNL     1      13.257  -5.926  -5.346  1.00  0.00     0.074 A 
ATOM     56  C   UNL     1      18.455  -2.381  -6.145  1.00  0.00     0.029 A 
ATOM     57  N   UNL     1      16.525  -3.228  -5.433  1.00  0.00    -0.354 N 
ATOM     58  N   UNL     1      14.306  -5.145  -5.430  1.00  0.00    -0.248 NA
ATOM     59  C   UNL     1      13.168  -6.934  -6.412  1.00  0.00     0.031 C 
ATOM     60  C   UNL     1      18.096  -3.437  -6.990  1.00  0.00     0.029 A 
ATOM     61  C   UNL     1      16.904  -3.977  -6.534  1.00  0.00     0.049 A 
ATOM     62  H   UNL     1      15.711  -3.378  -4.900  1.00  0.00     0.167 HD
ATOM     63  C   UNL     1      15.013  -5.579  -6.543  1.00  0.00     0.074 A 
ATOM     64  C   UNL     1      14.283  -6.704  -7.091  1.00  0.00     0.031 C 
ATOM     65  C   UNL     1      16.163  -5.090  -7.066  1.00  0.00     0.031 A 
BRANCH  52  66
ATOM     66  C   UNL     1      18.416  -0.188  -4.058  1.00  0.00    -0.014 A 
ATOM     67  C   UNL     1      19.364  -0.178  -3.022  1.00  0.00     0.009 A 
ATOM     68  C   UNL     1      18.473   0.812  -5.040  1.00  0.00     0.009 A 
ATOM     69  C   UNL     1      20.323   0.834  -2.950  1.00  0.00     0.001 A 
ATOM     70  C   UNL     1      19.451   1.807  -4.982  1.00  0.00     0.001 A 
ATOM     71  C   UNL     1      20.368   1.823  -3.932  1.00  0.00     0.000 A 
ENDBRANCH  52  66
BRANCH  53  72
ATOM     72  C   UNL     1      11.052  -6.918  -4.398  1.00  0.00    -0.014 A 
ATOM     73  C   UNL     1      11.291  -8.272  -4.117  1.00  0.00     0.009 A 
ATOM     74  C   UNL     1       9.756  -6.518  -4.760  1.00  0.00     0.009 A 
ATOM     75  C   UNL     1      10.260  -9.209  -4.220  1.00  0.00     0.001 A 
ATOM     76  C   UNL     1       8.722  -7.453  -4.836  1.00  0.00     0.001 A 
ATOM     77  C   UNL     1       8.976  -8.798  -4.575  1.00  0.00     0.000 A 
ENDBRANCH  53  72
BRANCH  65  78
ATOM     78  C   UNL     1      16.715  -5.785  -8.277  1.00  0.00    -0.014 A 
ATOM     79  C   UNL     1      16.116  -5.630  -9.537  1.00  0.00     0.009 A 
ATOM     80  C   UNL     1      17.873  -6.568  -8.163  1.00  0.00     0.009 A 
ATOM     81  C   UNL     1      16.653  -6.272 -10.655  1.00  0.00     0.001 A 
ATOM     82  C   UNL     1      18.423  -7.186  -9.287  1.00  0.00     0.001 A 
ATOM     83  C   UNL     1      17.808  -7.044 -10.530  1.00  0.00     0.000 A 
ENDBRANCH  65  78
ENDBRANCH  39  40
ENDBRANCH  31  34
ENDBRANCH  29  30
ENDBRANCH  28  29
ENDBRANCH  27  28
ENDBRANCH   3  27
TORSDOF 15
