REMARK SMILES CC[NH2+][C@@]1(C(=O)NCCCNC(=O)c2ccc(-c3c4nc(c(-c5ccccc5)c5ccc([nH]5)c(-c5ccccc5)c5nc(c(-c6ccccc6)c6ccc3[nH]6)C=C5)C=C4)cc2)CCC[C@H]1CCSc1cnn(C)c1
REMARK SMILES IDX 8 1 7 2 5 3 6 4 4 6 62 7 65 8 63 9 64 10 3 11 2 14 1 15
REMARK SMILES IDX 66 16 67 17 68 18 69 19 70 20 74 21 71 22 72 23 73 24 9 25
REMARK SMILES IDX 10 26 11 27 12 28 13 30 14 31 15 32 61 33 16 34 60 35 17 36
REMARK SMILES IDX 18 37 19 38 54 39 20 40 59 41 53 42 55 43 21 44 58 45 52 46
REMARK SMILES IDX 51 47 22 49 44 50 29 51 43 52 30 53 33 54 42 55 56 56 31 57
REMARK SMILES IDX 32 58 41 60 57 61 34 62 23 63 24 64 28 65 25 66 27 67 26 68
REMARK SMILES IDX 45 69 46 70 50 71 47 72 49 73 48 74 35 75 36 76 40 77 37 78
REMARK SMILES IDX 39 79 38 80
REMARK H PARENT 7 5 3 12 3 13 11 29 55 48 33 59
REMARK Flexibility Score: inf
ROOT
ATOM      1  C   UNL     1       0.154   5.295   3.815  1.00  0.00     0.118 C 
ENDROOT
BRANCH   1   2
ATOM      2  N   UNL     1       0.735   3.989   3.617  1.00  0.00    -0.351 N 
ATOM      3  C   UNL     1       1.299   3.429   2.520  1.00  0.00     0.281 C 
ATOM      4  O   UNL     1       2.329   2.785   2.780  1.00  0.00    -0.268 OA
ATOM      5  H   UNL     1       0.718   3.408   4.412  1.00  0.00     0.163 HD
BRANCH   3   6
ATOM      6  C   UNL     1       0.773   3.555   1.019  1.00  0.00     0.178 C 
ATOM      7  C   UNL     1       1.446   4.784   0.365  1.00  0.00     0.079 C 
ATOM      8  C   UNL     1      -0.763   3.798   0.808  1.00  0.00     0.061 C 
ATOM      9  C   UNL     1       0.471   5.941   0.417  1.00  0.00     0.008 C 
ATOM     10  C   UNL     1      -0.909   5.339   0.623  1.00  0.00     0.011 C 
BRANCH   6  11
ATOM     11  N   UNL     1       1.320   2.385   0.247  1.00  0.00    -0.334 N 
ATOM     12  H   UNL     1       0.872   2.383  -0.669  1.00  0.00     0.347 HD
ATOM     13  H   UNL     1       2.330   2.527   0.226  1.00  0.00     0.347 HD
BRANCH  11  14
ATOM     14  C   UNL     1       1.129   1.060   0.839  1.00  0.00     0.257 C 
ATOM     15  C   UNL     1       1.476  -0.005  -0.194  1.00  0.00     0.071 C 
ENDBRANCH  11  14
ENDBRANCH   6  11
BRANCH   8  16
ATOM     16  C   UNL     1      -1.484   3.174  -0.424  1.00  0.00     0.022 C 
BRANCH  16  17
ATOM     17  C   UNL     1      -1.921   1.704  -0.458  1.00  0.00     0.075 C 
BRANCH  17  18
ATOM     18  S   UNL     1      -3.289   1.211   0.639  1.00  0.00    -0.123 SA
BRANCH  18  19
ATOM     19  C   UNL     1      -2.575   1.089   2.214  1.00  0.00     0.045 A 
ATOM     20  C   UNL     1      -2.816   1.971   3.281  1.00  0.00     0.150 A 
ATOM     21  C   UNL     1      -1.761   0.117   2.742  1.00  0.00     0.123 A 
ATOM     22  N   UNL     1      -2.120   1.654   4.377  1.00  0.00    -0.181 NA
ATOM     23  N   UNL     1      -1.489   0.516   4.022  1.00  0.00    -0.275 N 
ATOM     24  C   UNL     1      -0.622  -0.136   4.975  1.00  0.00     0.173 C 
ENDBRANCH  18  19
ENDBRANCH  17  18
ENDBRANCH  16  17
ENDBRANCH   8  16
ENDBRANCH   3   6
ENDBRANCH   1   2
BRANCH   1  25
ATOM     25  C   UNL     1      -1.190   5.266   4.517  1.00  0.00     0.042 C 
BRANCH  25  26
ATOM     26  C   UNL     1      -1.093   4.825   5.970  1.00  0.00     0.118 C 
BRANCH  26  27
ATOM     27  N   UNL     1      -0.367   5.800   6.783  1.00  0.00    -0.352 N 
ATOM     28  C   UNL     1      -0.824   6.678   7.734  1.00  0.00     0.251 C 
ATOM     29  H   UNL     1       0.604   5.831   6.623  1.00  0.00     0.163 HD
ATOM     30  O   UNL     1      -0.108   7.603   8.105  1.00  0.00    -0.269 OA
BRANCH  28  31
ATOM     31  C   UNL     1      -2.174   6.515   8.312  1.00  0.00     0.039 A 
ATOM     32  C   UNL     1      -2.940   7.650   8.593  1.00  0.00     0.014 A 
ATOM     33  C   UNL     1      -2.669   5.245   8.615  1.00  0.00     0.014 A 
ATOM     34  C   UNL     1      -4.224   7.504   9.124  1.00  0.00     0.010 A 
ATOM     35  C   UNL     1      -3.979   5.097   9.049  1.00  0.00     0.010 A 
ATOM     36  C   UNL     1      -4.764   6.224   9.326  1.00  0.00    -0.014 A 
BRANCH  36  37
ATOM     37  C   UNL     1      -6.137   6.033   9.853  1.00  0.00     0.031 A 
ATOM     38  C   UNL     1      -6.347   5.333  11.168  1.00  0.00     0.074 A 
ATOM     39  C   UNL     1      -7.195   6.419   9.116  1.00  0.00     0.049 A 
ATOM     40  N   UNL     1      -7.467   5.010  11.764  1.00  0.00    -0.248 NA
ATOM     41  C   UNL     1      -5.137   4.913  11.895  1.00  0.00     0.031 C 
ATOM     42  C   UNL     1      -7.125   7.070   7.806  1.00  0.00     0.029 A 
ATOM     43  N   UNL     1      -8.540   6.315   9.365  1.00  0.00    -0.354 N 
ATOM     44  C   UNL     1      -7.095   4.328  12.916  1.00  0.00     0.074 A 
ATOM     45  C   UNL     1      -5.653   4.232  12.906  1.00  0.00     0.031 C 
ATOM     46  C   UNL     1      -8.370   7.345   7.387  1.00  0.00     0.029 A 
ATOM     47  C   UNL     1      -9.324   6.849   8.373  1.00  0.00     0.049 A 
ATOM     48  H   UNL     1      -8.907   5.896  10.177  1.00  0.00     0.167 HD
ATOM     49  C   UNL     1      -7.881   3.843  13.907  1.00  0.00     0.031 A 
ATOM     50  C   UNL     1     -10.664   6.932   8.272  1.00  0.00     0.031 A 
ATOM     51  C   UNL     1      -9.315   3.948  13.920  1.00  0.00     0.049 A 
ATOM     52  C   UNL     1     -11.518   6.375   9.374  1.00  0.00     0.074 A 
ATOM     53  C   UNL     1     -10.203   3.545  14.902  1.00  0.00     0.029 A 
ATOM     54  N   UNL     1     -10.072   4.494  12.894  1.00  0.00    -0.354 N 
ATOM     55  N   UNL     1     -11.152   5.792  10.490  1.00  0.00    -0.248 NA
ATOM     56  C   UNL     1     -12.973   6.497   9.205  1.00  0.00     0.031 C 
ATOM     57  C   UNL     1     -11.501   3.801  14.447  1.00  0.00     0.029 A 
ATOM     58  C   UNL     1     -11.419   4.416  13.208  1.00  0.00     0.049 A 
ATOM     59  H   UNL     1      -9.707   4.880  12.066  1.00  0.00     0.167 HD
ATOM     60  C   UNL     1     -12.327   5.502  11.170  1.00  0.00     0.074 A 
ATOM     61  C   UNL     1     -13.417   5.985  10.345  1.00  0.00     0.031 C 
ATOM     62  C   UNL     1     -12.490   4.895  12.371  1.00  0.00     0.031 A 
BRANCH  49  63
ATOM     63  C   UNL     1      -7.191   3.145  15.048  1.00  0.00    -0.014 A 
ATOM     64  C   UNL     1      -6.368   3.847  15.944  1.00  0.00     0.009 A 
ATOM     65  C   UNL     1      -7.360   1.763  15.227  1.00  0.00     0.009 A 
ATOM     66  C   UNL     1      -5.684   3.172  16.958  1.00  0.00     0.001 A 
ATOM     67  C   UNL     1      -6.703   1.096  16.263  1.00  0.00     0.001 A 
ATOM     68  C   UNL     1      -5.854   1.798  17.117  1.00  0.00     0.000 A 
ENDBRANCH  49  63
BRANCH  50  69
ATOM     69  C   UNL     1     -11.274   7.609   7.098  1.00  0.00    -0.014 A 
ATOM     70  C   UNL     1     -11.868   8.871   7.244  1.00  0.00     0.009 A 
ATOM     71  C   UNL     1     -11.245   7.014   5.828  1.00  0.00     0.009 A 
ATOM     72  C   UNL     1     -12.437   9.518   6.145  1.00  0.00     0.001 A 
ATOM     73  C   UNL     1     -11.791   7.675   4.725  1.00  0.00     0.001 A 
ATOM     74  C   UNL     1     -12.392   8.922   4.885  1.00  0.00     0.000 A 
ENDBRANCH  50  69
BRANCH  62  75
ATOM     75  C   UNL     1     -13.896   4.748  12.879  1.00  0.00    -0.014 A 
ATOM     76  C   UNL     1     -14.787   3.827  12.307  1.00  0.00     0.009 A 
ATOM     77  C   UNL     1     -14.322   5.518  13.973  1.00  0.00     0.009 A 
ATOM     78  C   UNL     1     -16.087   3.704  12.800  1.00  0.00     0.001 A 
ATOM     79  C   UNL     1     -15.612   5.373  14.482  1.00  0.00     0.001 A 
ATOM     80  C   UNL     1     -16.497   4.473  13.890  1.00  0.00     0.000 A 
ENDBRANCH  62  75
ENDBRANCH  36  37
ENDBRANCH  28  31
ENDBRANCH  26  27
ENDBRANCH  25  26
ENDBRANCH   1  25
TORSDOF 16
