REMARK SMILES O=C(CC1(NC(=O)c2cc(Cl)ccc2Cl)CCC1)NCCCNC(=O)c1ccc(-c2c3nc(c(-c4ccccc4)c4ccc([nH]4)c(-c4ccccc4)c4nc(c(-c5ccccc5)c5ccc2[nH]5)C=C4)C=C3)cc1
REMARK SMILES IDX 20 1 19 2 1 3 2 4 3 6 4 7 16 8 18 9 17 10 5 11 6 12 7 14
REMARK SMILES IDX 8 15 9 16 14 17 10 18 13 19 15 20 11 21 12 22 21 23 22 24
REMARK SMILES IDX 23 25 24 26 25 28 26 29 27 30 73 31 28 32 72 33 29 34 30 35
REMARK SMILES IDX 31 36 66 37 32 38 71 39 65 40 67 41 33 42 70 43 64 44 63 45
REMARK SMILES IDX 34 47 56 48 41 49 55 50 42 51 45 52 54 53 68 54 43 55 44 56
REMARK SMILES IDX 53 58 69 59 46 60 35 61 36 62 40 63 37 64 39 65 38 66 57 67
REMARK SMILES IDX 58 68 62 69 59 70 61 71 60 72 47 73 48 74 52 75 49 76 51 77
REMARK SMILES IDX 50 78
REMARK H PARENT 19 5 5 13 23 27 67 46 45 57
REMARK Flexibility Score: inf
ROOT
ATOM      1  C   UNL     1       2.119   1.329   2.611  1.00  0.00     0.117 C 
ENDROOT
BRANCH   1   2
ATOM      2  N   UNL     1       2.948   0.854   1.527  1.00  0.00    -0.356 N 
ATOM      3  O   UNL     1       1.285   0.557  -0.022  1.00  0.00    -0.275 OA
ATOM      4  C   UNL     1       2.447   0.406   0.330  1.00  0.00     0.222 C 
ATOM      5  H   UNL     1       3.924   0.851   1.653  1.00  0.00     0.163 HD
BRANCH   4   6
ATOM      6  C   UNL     1       3.498  -0.282  -0.510  1.00  0.00     0.128 C 
BRANCH   6   7
ATOM      7  C   UNL     1       3.983   0.511  -1.721  1.00  0.00     0.049 C 
ATOM      8  C   UNL     1       3.870   2.074  -1.644  1.00  0.00     0.029 C 
ATOM      9  C   UNL     1       5.537   0.689  -1.637  1.00  0.00     0.029 C 
ATOM     10  C   UNL     1       5.390   2.207  -1.733  1.00  0.00     0.005 C 
BRANCH   7  11
ATOM     11  N   UNL     1       3.576   0.049  -3.087  1.00  0.00    -0.346 N 
ATOM     12  C   UNL     1       2.746  -0.909  -3.623  1.00  0.00     0.253 C 
ATOM     13  H   UNL     1       4.023   0.571  -3.792  1.00  0.00     0.164 HD
ATOM     14  O   UNL     1       2.571  -0.947  -4.839  1.00  0.00    -0.269 OA
BRANCH  12  15
ATOM     15  C   UNL     1       2.078  -1.915  -2.800  1.00  0.00     0.059 A 
ATOM     16  C   UNL     1       0.912  -1.562  -2.110  1.00  0.00     0.036 A 
ATOM     17  C   UNL     1       2.611  -3.205  -2.687  1.00  0.00     0.053 A 
ATOM     18  C   UNL     1       0.349  -2.473  -1.218  1.00  0.00     0.041 A 
ATOM     19  C   UNL     1       2.021  -4.118  -1.808  1.00  0.00     0.023 A 
ATOM     20  Cl  UNL     1       4.018  -3.708  -3.549  1.00  0.00    -0.083 Cl
ATOM     21  Cl  UNL     1      -1.008  -2.021  -0.262  1.00  0.00    -0.084 Cl
ATOM     22  C   UNL     1       0.906  -3.742  -1.055  1.00  0.00     0.022 A 
ENDBRANCH  12  15
ENDBRANCH   7  11
ENDBRANCH   6   7
ENDBRANCH   4   6
ENDBRANCH   1   2
BRANCH   1  23
ATOM     23  C   UNL     1       2.409   0.540   3.883  1.00  0.00     0.042 C 
BRANCH  23  24
ATOM     24  C   UNL     1       3.890   0.457   4.246  1.00  0.00     0.118 C 
BRANCH  24  25
ATOM     25  N   UNL     1       4.532   1.760   4.332  1.00  0.00    -0.352 N 
ATOM     26  C   UNL     1       5.359   2.260   5.308  1.00  0.00     0.251 C 
ATOM     27  H   UNL     1       4.347   2.372   3.583  1.00  0.00     0.163 HD
ATOM     28  O   UNL     1       5.682   3.438   5.296  1.00  0.00    -0.269 OA
BRANCH  26  29
ATOM     29  C   UNL     1       5.831   1.369   6.387  1.00  0.00     0.039 A 
ATOM     30  C   UNL     1       5.776   1.829   7.703  1.00  0.00     0.014 A 
ATOM     31  C   UNL     1       6.314   0.088   6.104  1.00  0.00     0.014 A 
ATOM     32  C   UNL     1       6.159   0.982   8.741  1.00  0.00     0.010 A 
ATOM     33  C   UNL     1       6.612  -0.784   7.146  1.00  0.00     0.010 A 
ATOM     34  C   UNL     1       6.548  -0.343   8.475  1.00  0.00    -0.014 A 
BRANCH  34  35
ATOM     35  C   UNL     1       6.881  -1.264   9.590  1.00  0.00     0.031 A 
ATOM     36  C   UNL     1       8.269  -1.826   9.733  1.00  0.00     0.074 A 
ATOM     37  C   UNL     1       5.920  -1.604  10.470  1.00  0.00     0.049 A 
ATOM     38  N   UNL     1       8.755  -2.585  10.683  1.00  0.00    -0.248 NA
ATOM     39  C   UNL     1       9.230  -1.518   8.663  1.00  0.00     0.031 C 
ATOM     40  C   UNL     1       4.520  -1.176  10.404  1.00  0.00     0.029 A 
ATOM     41  N   UNL     1       5.977  -2.375  11.604  1.00  0.00    -0.354 N 
ATOM     42  C   UNL     1      10.071  -2.846  10.322  1.00  0.00     0.074 A 
ATOM     43  C   UNL     1      10.288  -2.221   9.036  1.00  0.00     0.031 C 
ATOM     44  C   UNL     1       3.867  -1.641  11.480  1.00  0.00     0.029 A 
ATOM     45  C   UNL     1       4.788  -2.429  12.291  1.00  0.00     0.049 A 
ATOM     46  H   UNL     1       6.792  -2.843  11.897  1.00  0.00     0.167 HD
ATOM     47  C   UNL     1      11.022  -3.522  11.010  1.00  0.00     0.031 A 
ATOM     48  C   UNL     1       4.479  -3.035  13.452  1.00  0.00     0.031 A 
ATOM     49  C   UNL     1      10.803  -4.145  12.289  1.00  0.00     0.049 A 
ATOM     50  C   UNL     1       5.553  -3.776  14.197  1.00  0.00     0.074 A 
ATOM     51  C   UNL     1      11.713  -4.810  13.092  1.00  0.00     0.029 A 
ATOM     52  N   UNL     1       9.584  -4.184  12.948  1.00  0.00    -0.354 N 
ATOM     53  N   UNL     1       6.816  -3.940  13.884  1.00  0.00    -0.248 NA
ATOM     54  C   UNL     1       5.161  -4.395  15.470  1.00  0.00     0.031 C 
ATOM     55  C   UNL     1      11.031  -5.303  14.210  1.00  0.00     0.029 A 
ATOM     56  C   UNL     1       9.712  -4.884  14.137  1.00  0.00     0.049 A 
ATOM     57  H   UNL     1       8.751  -3.776  12.620  1.00  0.00     0.167 HD
ATOM     58  C   UNL     1       7.376  -4.657  14.934  1.00  0.00     0.074 A 
ATOM     59  C   UNL     1       6.320  -4.869  15.903  1.00  0.00     0.031 C 
ATOM     60  C   UNL     1       8.649  -5.099  15.084  1.00  0.00     0.031 A 
BRANCH  47  61
ATOM     61  C   UNL     1      12.387  -3.625  10.383  1.00  0.00    -0.014 A 
ATOM     62  C   UNL     1      13.210  -2.496  10.236  1.00  0.00     0.009 A 
ATOM     63  C   UNL     1      12.871  -4.873   9.962  1.00  0.00     0.009 A 
ATOM     64  C   UNL     1      14.470  -2.608   9.644  1.00  0.00     0.001 A 
ATOM     65  C   UNL     1      14.145  -4.988   9.402  1.00  0.00     0.001 A 
ATOM     66  C   UNL     1      14.939  -3.855   9.233  1.00  0.00     0.000 A 
ENDBRANCH  47  61
BRANCH  48  67
ATOM     67  C   UNL     1       3.100  -2.938  14.001  1.00  0.00    -0.014 A 
ATOM     68  C   UNL     1       2.845  -2.204  15.171  1.00  0.00     0.009 A 
ATOM     69  C   UNL     1       2.032  -3.588  13.364  1.00  0.00     0.009 A 
ATOM     70  C   UNL     1       1.557  -2.153  15.709  1.00  0.00     0.001 A 
ATOM     71  C   UNL     1       0.739  -3.507  13.886  1.00  0.00     0.001 A 
ATOM     72  C   UNL     1       0.505  -2.800  15.064  1.00  0.00     0.000 A 
ENDBRANCH  48  67
BRANCH  60  73
ATOM     73  C   UNL     1       8.969  -5.826  16.362  1.00  0.00    -0.014 A 
ATOM     74  C   UNL     1       8.433  -7.094  16.641  1.00  0.00     0.009 A 
ATOM     75  C   UNL     1       9.821  -5.229  17.304  1.00  0.00     0.009 A 
ATOM     76  C   UNL     1       8.698  -7.721  17.860  1.00  0.00     0.001 A 
ATOM     77  C   UNL     1      10.115  -5.874  18.506  1.00  0.00     0.001 A 
ATOM     78  C   UNL     1       9.540  -7.112  18.790  1.00  0.00     0.000 A 
ENDBRANCH  60  73
ENDBRANCH  34  35
ENDBRANCH  26  29
ENDBRANCH  24  25
ENDBRANCH  23  24
ENDBRANCH   1  23
TORSDOF 13
