REMARK SMILES CC(C)(C)OC(=O)N[C@@H](CC(=O)NCCCNC(=O)c1ccc(-c2c3nc(c(-c4ccccc4)c4ccc([nH]4)c(-c4ccccc4)c4nc(c(-c5ccccc5)c5ccc2[nH]5)C=C4)C=C3)cc1)c1cccnc1
REMARK SMILES IDX 14 1 13 2 11 3 12 4 10 6 9 7 8 8 6 9 7 10 5 12 2 13 1 14
REMARK SMILES IDX 3 15 4 16 68 17 69 18 73 19 70 20 72 21 71 22 15 23 16 24
REMARK SMILES IDX 17 25 18 26 19 28 20 29 21 30 67 31 22 32 66 33 23 34 24 35
REMARK SMILES IDX 25 36 60 37 26 38 65 39 59 40 61 41 27 42 64 43 58 44 57 45
REMARK SMILES IDX 28 47 50 48 35 49 49 50 36 51 39 52 48 53 62 54 37 55 38 56
REMARK SMILES IDX 47 58 63 59 40 60 29 61 30 62 34 63 31 64 33 65 32 66 51 67
REMARK SMILES IDX 52 68 56 69 53 70 55 71 54 72 41 73 42 74 46 75 43 76 45 77
REMARK SMILES IDX 44 78
REMARK H PARENT 13 5 8 11 17 27 61 46 39 57
REMARK Flexibility Score: inf
ROOT
ATOM      1  C   UNL     1       1.892  -2.652   6.204  1.00  0.00     0.117 C 
ENDROOT
BRANCH   1   2
ATOM      2  N   UNL     1       2.458  -3.978   6.022  1.00  0.00    -0.356 N 
ATOM      3  C   UNL     1       3.057  -4.559   4.949  1.00  0.00     0.222 C 
ATOM      4  O   UNL     1       3.597  -5.653   5.140  1.00  0.00    -0.275 OA
ATOM      5  H   UNL     1       2.395  -4.559   6.815  1.00  0.00     0.163 HD
BRANCH   3   6
ATOM      6  C   UNL     1       3.107  -3.897   3.578  1.00  0.00     0.130 C 
BRANCH   6   7
ATOM      7  C   UNL     1       1.838  -4.029   2.703  1.00  0.00     0.126 C 
BRANCH   7   8
ATOM      8  N   UNL     1       0.802  -3.163   3.243  1.00  0.00    -0.314 N 
ATOM      9  C   UNL     1       0.433  -1.895   2.948  1.00  0.00     0.408 C 
ATOM     10  O   UNL     1      -0.362  -1.322   3.683  1.00  0.00    -0.225 OA
ATOM     11  H   UNL     1       0.268  -3.578   3.958  1.00  0.00     0.167 HD
BRANCH   9  12
ATOM     12  O   UNL     1       0.969  -1.397   1.813  1.00  0.00    -0.444 OA
BRANCH  12  13
ATOM     13  C   UNL     1       0.499  -0.102   1.340  1.00  0.00     0.106 C 
ATOM     14  C   UNL     1       1.102   0.066  -0.062  1.00  0.00     0.056 C 
ATOM     15  C   UNL     1       1.020   1.024   2.241  1.00  0.00     0.056 C 
ATOM     16  C   UNL     1      -1.033  -0.050   1.199  1.00  0.00     0.056 C 
ENDBRANCH  12  13
ENDBRANCH   9  12
ENDBRANCH   7   8
BRANCH   7  17
ATOM     17  C   UNL     1       1.256  -5.429   2.535  1.00  0.00    -0.007 A 
ATOM     18  C   UNL     1       1.980  -6.611   2.714  1.00  0.00     0.009 A 
ATOM     19  C   UNL     1      -0.089  -5.589   2.183  1.00  0.00     0.116 A 
ATOM     20  C   UNL     1       1.334  -7.847   2.656  1.00  0.00     0.020 A 
ATOM     21  N   UNL     1      -0.743  -6.771   2.113  1.00  0.00    -0.264 NA
ATOM     22  C   UNL     1      -0.019  -7.875   2.373  1.00  0.00     0.111 A 
ENDBRANCH   7  17
ENDBRANCH   6   7
ENDBRANCH   3   6
ENDBRANCH   1   2
BRANCH   1  23
ATOM     23  C   UNL     1       0.392  -2.698   6.489  1.00  0.00     0.042 C 
BRANCH  23  24
ATOM     24  C   UNL     1       0.019  -3.312   7.827  1.00  0.00     0.118 C 
BRANCH  24  25
ATOM     25  N   UNL     1       0.192  -2.380   8.925  1.00  0.00    -0.352 N 
ATOM     26  C   UNL     1      -0.741  -1.646   9.616  1.00  0.00     0.251 C 
ATOM     27  H   UNL     1       1.123  -2.253   9.220  1.00  0.00     0.163 HD
ATOM     28  O   UNL     1      -0.361  -0.729  10.340  1.00  0.00    -0.269 OA
BRANCH  26  29
ATOM     29  C   UNL     1      -2.192  -1.930   9.497  1.00  0.00     0.039 A 
ATOM     30  C   UNL     1      -3.091  -0.858   9.529  1.00  0.00     0.014 A 
ATOM     31  C   UNL     1      -2.686  -3.234   9.419  1.00  0.00     0.014 A 
ATOM     32  C   UNL     1      -4.467  -1.093   9.438  1.00  0.00     0.010 A 
ATOM     33  C   UNL     1      -4.047  -3.461   9.224  1.00  0.00     0.010 A 
ATOM     34  C   UNL     1      -4.957  -2.395   9.255  1.00  0.00    -0.014 A 
BRANCH  34  35
ATOM     35  C   UNL     1      -6.414  -2.665   9.129  1.00  0.00     0.031 A 
ATOM     36  C   UNL     1      -7.118  -3.532  10.142  1.00  0.00     0.074 A 
ATOM     37  C   UNL     1      -7.100  -2.175   8.077  1.00  0.00     0.049 A 
ATOM     38  N   UNL     1      -8.369  -3.917  10.175  1.00  0.00    -0.248 NA
ATOM     39  C   UNL     1      -6.302  -4.056  11.250  1.00  0.00     0.031 C 
ATOM     40  C   UNL     1      -6.537  -1.351   7.006  1.00  0.00     0.029 A 
ATOM     41  N   UNL     1      -8.424  -2.302   7.736  1.00  0.00    -0.354 N 
ATOM     42  C   UNL     1      -8.481  -4.746  11.286  1.00  0.00     0.074 A 
ATOM     43  C   UNL     1      -7.163  -4.849  11.870  1.00  0.00     0.031 C 
ATOM     44  C   UNL     1      -7.515  -1.014   6.150  1.00  0.00     0.029 A 
ATOM     45  C   UNL     1      -8.762  -1.635   6.583  1.00  0.00     0.049 A 
ATOM     46  H   UNL     1      -9.070  -2.821   8.267  1.00  0.00     0.167 HD
ATOM     47  C   UNL     1      -9.584  -5.353  11.787  1.00  0.00     0.031 A 
ATOM     48  C   UNL     1      -9.942  -1.539   5.941  1.00  0.00     0.031 A 
ATOM     49  C   UNL     1     -10.900  -5.237  11.218  1.00  0.00     0.049 A 
ATOM     50  C   UNL     1     -11.147  -2.238   6.507  1.00  0.00     0.074 A 
ATOM     51  C   UNL     1     -12.092  -5.758  11.691  1.00  0.00     0.029 A 
ATOM     52  N   UNL     1     -11.195  -4.559  10.046  1.00  0.00    -0.354 N 
ATOM     53  N   UNL     1     -11.250  -2.957   7.599  1.00  0.00    -0.248 NA
ATOM     54  C   UNL     1     -12.402  -2.104   5.753  1.00  0.00     0.031 C 
ATOM     55  C   UNL     1     -13.099  -5.446  10.772  1.00  0.00     0.029 A 
ATOM     56  C   UNL     1     -12.546  -4.675   9.762  1.00  0.00     0.049 A 
ATOM     57  H   UNL     1     -10.542  -4.068   9.497  1.00  0.00     0.167 HD
ATOM     58  C   UNL     1     -12.585  -3.333   7.680  1.00  0.00     0.074 A 
ATOM     59  C   UNL     1     -13.255  -2.751   6.535  1.00  0.00     0.031 C 
ATOM     60  C   UNL     1     -13.200  -4.091   8.620  1.00  0.00     0.031 A 
BRANCH  47  61
ATOM     61  C   UNL     1      -9.409  -6.213  13.011  1.00  0.00    -0.014 A 
ATOM     62  C   UNL     1      -9.096  -5.654  14.261  1.00  0.00     0.009 A 
ATOM     63  C   UNL     1      -9.592  -7.601  12.917  1.00  0.00     0.009 A 
ATOM     64  C   UNL     1      -8.929  -6.473  15.380  1.00  0.00     0.001 A 
ATOM     65  C   UNL     1      -9.457  -8.414  14.044  1.00  0.00     0.001 A 
ATOM     66  C   UNL     1      -9.114  -7.850  15.273  1.00  0.00     0.000 A 
ENDBRANCH  47  61
BRANCH  48  67
ATOM     67  C   UNL     1     -10.051  -0.731   4.697  1.00  0.00    -0.014 A 
ATOM     68  C   UNL     1     -10.775   0.471   4.693  1.00  0.00     0.009 A 
ATOM     69  C   UNL     1      -9.441  -1.158   3.508  1.00  0.00     0.009 A 
ATOM     70  C   UNL     1     -10.909   1.215   3.518  1.00  0.00     0.001 A 
ATOM     71  C   UNL     1      -9.550  -0.397   2.342  1.00  0.00     0.001 A 
ATOM     72  C   UNL     1     -10.292   0.783   2.345  1.00  0.00     0.000 A 
ENDBRANCH  48  67
BRANCH  60  73
ATOM     73  C   UNL     1     -14.681  -4.302   8.473  1.00  0.00    -0.014 A 
ATOM     74  C   UNL     1     -15.208  -5.123   7.464  1.00  0.00     0.009 A 
ATOM     75  C   UNL     1     -15.560  -3.700   9.388  1.00  0.00     0.009 A 
ATOM     76  C   UNL     1     -16.588  -5.306   7.353  1.00  0.00     0.001 A 
ATOM     77  C   UNL     1     -16.936  -3.912   9.294  1.00  0.00     0.001 A 
ATOM     78  C   UNL     1     -17.450  -4.706   8.271  1.00  0.00     0.000 A 
ENDBRANCH  60  73
ENDBRANCH  34  35
ENDBRANCH  26  29
ENDBRANCH  24  25
ENDBRANCH  23  24
ENDBRANCH   1  23
TORSDOF 15
