REMARK SMILES COc1c(C(=O)NCCCNC(=O)c2ccc(-c3c4nc(c(-c5ccccc5)c5ccc([nH]5)c(-c5ccccc5)c5nc(c(-c6ccccc6)c6ccc3[nH]6)C=C5)C=C4)cc2)cccc1-c1cccc(C)c1
REMARK SMILES IDX 9 1 8 2 7 3 5 4 6 5 4 7 3 8 65 9 62 10 64 11 63 12 2 13 1 14
REMARK SMILES IDX 66 15 67 16 72 17 68 18 70 19 69 20 71 21 10 22 11 23 12 24
REMARK SMILES IDX 13 26 14 27 15 28 61 29 16 30 60 31 17 32 18 33 19 34 54 35
REMARK SMILES IDX 20 36 59 37 53 38 55 39 21 40 58 41 52 42 51 43 22 45 44 46
REMARK SMILES IDX 29 47 43 48 30 49 33 50 42 51 56 52 31 53 32 54 41 56 57 57
REMARK SMILES IDX 34 58 23 59 24 60 28 61 25 62 27 63 26 64 45 65 46 66 50 67
REMARK SMILES IDX 47 68 49 69 48 70 35 71 36 72 40 73 37 74 39 75 38 76
REMARK H PARENT 7 6 11 25 55 44 33 55
REMARK Flexibility Score: inf
ROOT
ATOM      1  C   UNL     1      -2.298   0.103   1.034  1.00  0.00     0.042 C 
ENDROOT
BRANCH   1   2
ATOM      2  C   UNL     1      -1.509   0.918   0.043  1.00  0.00     0.118 C 
BRANCH   2   3
ATOM      3  N   UNL     1      -2.025   2.170  -0.418  1.00  0.00    -0.352 N 
ATOM      4  C   UNL     1      -1.279   3.261  -0.819  1.00  0.00     0.255 C 
ATOM      5  O   UNL     1      -1.885   4.181  -1.373  1.00  0.00    -0.269 OA
ATOM      6  H   UNL     1      -3.005   2.264  -0.452  1.00  0.00     0.163 HD
BRANCH   4   7
ATOM      7  C   UNL     1       0.177   3.445  -0.480  1.00  0.00     0.082 A 
ATOM      8  C   UNL     1       1.227   2.489  -0.527  1.00  0.00     0.139 A 
ATOM      9  C   UNL     1       2.534   2.849  -0.077  1.00  0.00     0.025 A 
ATOM     10  C   UNL     1       0.471   4.756  -0.051  1.00  0.00     0.018 A 
ATOM     11  C   UNL     1       2.766   4.172   0.350  1.00  0.00     0.012 A 
ATOM     12  C   UNL     1       1.752   5.122   0.348  1.00  0.00     0.002 A 
BRANCH   8  13
ATOM     13  O   UNL     1       0.983   1.266  -1.127  1.00  0.00    -0.495 OA
ATOM     14  C   UNL     1       1.330   0.092  -0.369  1.00  0.00     0.278 C 
ENDBRANCH   8  13
BRANCH   9  15
ATOM     15  C   UNL     1       3.648   1.884   0.027  1.00  0.00    -0.014 A 
ATOM     16  C   UNL     1       4.161   1.549   1.293  1.00  0.00     0.009 A 
ATOM     17  C   UNL     1       4.095   1.160  -1.088  1.00  0.00     0.012 A 
ATOM     18  C   UNL     1       5.028   0.468   1.451  1.00  0.00     0.001 A 
ATOM     19  C   UNL     1       4.889   0.014  -0.924  1.00  0.00    -0.051 A 
ATOM     20  C   UNL     1       5.370  -0.312   0.349  1.00  0.00     0.003 A 
ATOM     21  C   UNL     1       5.121  -0.918  -2.077  1.00  0.00     0.044 C 
ENDBRANCH   9  15
ENDBRANCH   4   7
ENDBRANCH   2   3
ENDBRANCH   1   2
BRANCH   1  22
ATOM     22  C   UNL     1      -3.636  -0.394   0.545  1.00  0.00     0.118 C 
BRANCH  22  23
ATOM     23  N   UNL     1      -3.555  -1.359  -0.544  1.00  0.00    -0.352 N 
ATOM     24  C   UNL     1      -3.704  -2.728  -0.601  1.00  0.00     0.251 C 
ATOM     25  H   UNL     1      -3.352  -0.951  -1.417  1.00  0.00     0.163 HD
ATOM     26  O   UNL     1      -3.488  -3.301  -1.665  1.00  0.00    -0.269 OA
BRANCH  24  27
ATOM     27  C   UNL     1      -4.076  -3.533   0.589  1.00  0.00     0.039 A 
ATOM     28  C   UNL     1      -3.614  -4.851   0.688  1.00  0.00     0.014 A 
ATOM     29  C   UNL     1      -4.897  -3.036   1.596  1.00  0.00     0.014 A 
ATOM     30  C   UNL     1      -3.925  -5.623   1.814  1.00  0.00     0.010 A 
ATOM     31  C   UNL     1      -5.059  -3.734   2.785  1.00  0.00     0.010 A 
ATOM     32  C   UNL     1      -4.619  -5.056   2.894  1.00  0.00    -0.014 A 
BRANCH  32  33
ATOM     33  C   UNL     1      -4.962  -5.840   4.109  1.00  0.00     0.031 A 
ATOM     34  C   UNL     1      -6.406  -5.996   4.526  1.00  0.00     0.074 A 
ATOM     35  C   UNL     1      -3.982  -6.372   4.865  1.00  0.00     0.049 A 
ATOM     36  N   UNL     1      -6.905  -6.620   5.564  1.00  0.00    -0.248 NA
ATOM     37  C   UNL     1      -7.423  -5.333   3.690  1.00  0.00     0.031 C 
ATOM     38  C   UNL     1      -2.545  -6.244   4.612  1.00  0.00     0.029 A 
ATOM     39  N   UNL     1      -4.050  -7.137   6.003  1.00  0.00    -0.354 N 
ATOM     40  C   UNL     1      -8.277  -6.400   5.513  1.00  0.00     0.074 A 
ATOM     41  C   UNL     1      -8.526  -5.522   4.395  1.00  0.00     0.031 C 
ATOM     42  C   UNL     1      -1.871  -6.952   5.531  1.00  0.00     0.029 A 
ATOM     43  C   UNL     1      -2.822  -7.548   6.463  1.00  0.00     0.049 A 
ATOM     44  H   UNL     1      -4.897  -7.369   6.447  1.00  0.00     0.167 HD
ATOM     45  C   UNL     1      -9.254  -6.910   6.301  1.00  0.00     0.031 A 
ATOM     46  C   UNL     1      -2.500  -8.326   7.512  1.00  0.00     0.031 A 
ATOM     47  C   UNL     1      -9.012  -7.805   7.399  1.00  0.00     0.049 A 
ATOM     48  C   UNL     1      -3.602  -8.895   8.364  1.00  0.00     0.074 A 
ATOM     49  C   UNL     1      -9.931  -8.427   8.225  1.00  0.00     0.029 A 
ATOM     50  N   UNL     1      -7.754  -8.210   7.819  1.00  0.00    -0.354 N 
ATOM     51  N   UNL     1      -4.899  -8.736   8.256  1.00  0.00    -0.248 NA
ATOM     52  C   UNL     1      -3.191  -9.771   9.469  1.00  0.00     0.031 C 
ATOM     53  C   UNL     1      -9.226  -9.167   9.179  1.00  0.00     0.029 A 
ATOM     54  C   UNL     1      -7.872  -9.060   8.904  1.00  0.00     0.049 A 
ATOM     55  H   UNL     1      -6.904  -7.933   7.407  1.00  0.00     0.167 HD
ATOM     56  C   UNL     1      -5.460  -9.520   9.256  1.00  0.00     0.074 A 
ATOM     57  C   UNL     1      -4.362 -10.168   9.943  1.00  0.00     0.031 C 
ATOM     58  C   UNL     1      -6.767  -9.693   9.577  1.00  0.00     0.031 A 
BRANCH  45  59
ATOM     59  C   UNL     1     -10.672  -6.508   5.993  1.00  0.00    -0.014 A 
ATOM     60  C   UNL     1     -11.309  -6.923   4.810  1.00  0.00     0.009 A 
ATOM     61  C   UNL     1     -11.389  -5.718   6.904  1.00  0.00     0.009 A 
ATOM     62  C   UNL     1     -12.615  -6.516   4.527  1.00  0.00     0.001 A 
ATOM     63  C   UNL     1     -12.707  -5.343   6.635  1.00  0.00     0.001 A 
ATOM     64  C   UNL     1     -13.314  -5.731   5.441  1.00  0.00     0.000 A 
ENDBRANCH  45  59
BRANCH  46  65
ATOM     65  C   UNL     1      -1.077  -8.652   7.795  1.00  0.00    -0.014 A 
ATOM     66  C   UNL     1      -0.592  -9.956   7.609  1.00  0.00     0.009 A 
ATOM     67  C   UNL     1      -0.196  -7.664   8.264  1.00  0.00     0.009 A 
ATOM     68  C   UNL     1       0.732 -10.273   7.921  1.00  0.00     0.001 A 
ATOM     69  C   UNL     1       1.136  -7.976   8.543  1.00  0.00     0.001 A 
ATOM     70  C   UNL     1       1.596  -9.282   8.384  1.00  0.00     0.000 A 
ENDBRANCH  46  65
BRANCH  58  71
ATOM     71  C   UNL     1      -7.075 -10.658  10.688  1.00  0.00    -0.014 A 
ATOM     72  C   UNL     1      -6.741 -10.377  12.022  1.00  0.00     0.009 A 
ATOM     73  C   UNL     1      -7.722 -11.868  10.390  1.00  0.00     0.009 A 
ATOM     74  C   UNL     1      -6.998 -11.313  13.025  1.00  0.00     0.001 A 
ATOM     75  C   UNL     1      -8.012 -12.785  11.400  1.00  0.00     0.001 A 
ATOM     76  C   UNL     1      -7.636 -12.514  12.714  1.00  0.00     0.000 A 
ENDBRANCH  58  71
ENDBRANCH  32  33
ENDBRANCH  24  27
ENDBRANCH  22  23
ENDBRANCH   1  22
TORSDOF 12
