REMARK SMILES Cc1c(-c2nn(-c3ccccc3)cc2/C=N/O)nnn1-c1ccc(C(=O)NCCCNC(=O)c2ccc(-c3c4nc(c(-c5ccccc5)c5ccc([nH]5)c(-c5ccccc5)c5nc(c(-c6ccccc6)c6ccc3[nH]6)C=C5)C=C4)cc2)cc1
REMARK SMILES IDX 28 1 27 2 25 3 26 4 24 6 21 7 22 8 83 9 23 10 82 11 20 12
REMARK SMILES IDX 1 13 2 14 3 15 18 16 19 17 4 18 5 19 14 20 6 21 13 22 15 23
REMARK SMILES IDX 16 24 17 25 7 27 8 28 12 29 9 30 11 31 10 32 29 33 30 34
REMARK SMILES IDX 31 35 32 36 33 38 34 39 35 40 81 41 36 42 80 43 37 44 38 45
REMARK SMILES IDX 39 46 74 47 40 48 79 49 73 50 75 51 41 52 78 53 72 54 71 55
REMARK SMILES IDX 42 57 64 58 49 59 63 60 50 61 53 62 62 63 76 64 51 65 52 66
REMARK SMILES IDX 61 68 77 69 54 70 43 71 44 72 48 73 45 74 47 75 46 76 65 77
REMARK SMILES IDX 66 78 70 79 67 80 69 81 68 82 55 83 56 84 60 85 57 86 59 87
REMARK SMILES IDX 58 88
REMARK H PARENT 27 5 17 26 31 37 75 56 53 67
REMARK Flexibility Score: inf
ROOT
ATOM      1  C   UNL     1       1.240   6.119  -2.080  1.00  0.00     0.118 C 
ENDROOT
BRANCH   1   2
ATOM      2  N   UNL     1      -0.020   6.149  -2.805  1.00  0.00    -0.352 N 
ATOM      3  C   UNL     1      -0.856   5.165  -3.272  1.00  0.00     0.251 C 
ATOM      4  O   UNL     1      -1.890   5.530  -3.833  1.00  0.00    -0.269 OA
ATOM      5  H   UNL     1      -0.339   7.060  -3.001  1.00  0.00     0.163 HD
BRANCH   3   6
ATOM      6  C   UNL     1      -0.605   3.704  -3.091  1.00  0.00     0.039 A 
ATOM      7  C   UNL     1      -0.340   0.946  -2.627  1.00  0.00     0.067 A 
ATOM      8  C   UNL     1      -1.582   1.467  -2.996  1.00  0.00     0.029 A 
ATOM      9  C   UNL     1       0.781   1.775  -2.570  1.00  0.00     0.029 A 
ATOM     10  C   UNL     1      -1.714   2.845  -3.193  1.00  0.00     0.016 A 
ATOM     11  C   UNL     1       0.649   3.137  -2.849  1.00  0.00     0.016 A 
BRANCH   7  12
ATOM     12  N   UNL     1      -0.214  -0.428  -2.340  1.00  0.00    -0.217 N 
ATOM     13  C   UNL     1       1.124  -0.366  -0.172  1.00  0.00     0.069 C 
ATOM     14  C   UNL     1       0.525  -1.043  -1.347  1.00  0.00     0.071 A 
ATOM     15  C   UNL     1       0.443  -2.379  -1.683  1.00  0.00     0.137 A 
ATOM     16  N   UNL     1      -0.392  -2.550  -2.748  1.00  0.00    -0.128 NA
ATOM     17  N   UNL     1      -0.853  -1.354  -3.093  1.00  0.00    -0.061 NA
BRANCH  15  18
ATOM     18  C   UNL     1       1.024  -3.523  -0.997  1.00  0.00     0.124 A 
ATOM     19  N   UNL     1       0.486  -4.016   0.123  1.00  0.00    -0.165 NA
ATOM     20  C   UNL     1       2.182  -4.226  -1.400  1.00  0.00     0.044 A 
ATOM     21  N   UNL     1       1.331  -4.998   0.501  1.00  0.00    -0.240 N 
ATOM     22  C   UNL     1       2.374  -5.147  -0.386  1.00  0.00     0.125 A 
BRANCH  20  23
ATOM     23  C   UNL     1       3.018  -4.092  -2.566  1.00  0.00     0.166 C 
ATOM     24  N   UNL     1       2.870  -3.080  -3.355  1.00  0.00    -0.097 NA
BRANCH  24  25
ATOM     25  O   UNL     1       3.770  -3.192  -4.422  1.00  0.00    -0.411 OA
ATOM     26  H   UNL     1       3.790  -2.533  -5.089  1.00  0.00     0.330 HD
ENDBRANCH  24  25
ENDBRANCH  20  23
BRANCH  21  27
ATOM     27  C   UNL     1       1.105  -5.718   1.697  1.00  0.00     0.065 A 
ATOM     28  C   UNL     1      -0.211  -5.902   2.143  1.00  0.00     0.028 A 
ATOM     29  C   UNL     1       2.178  -6.222   2.442  1.00  0.00     0.028 A 
ATOM     30  C   UNL     1      -0.454  -6.608   3.320  1.00  0.00     0.002 A 
ATOM     31  C   UNL     1       1.927  -6.884   3.647  1.00  0.00     0.002 A 
ATOM     32  C   UNL     1       0.615  -7.085   4.078  1.00  0.00     0.000 A 
ENDBRANCH  21  27
ENDBRANCH  15  18
ENDBRANCH   7  12
ENDBRANCH   3   6
ENDBRANCH   1   2
BRANCH   1  33
ATOM     33  C   UNL     1       2.440   6.181  -3.035  1.00  0.00     0.042 C 
BRANCH  33  34
ATOM     34  C   UNL     1       2.733   7.602  -3.492  1.00  0.00     0.118 C 
BRANCH  34  35
ATOM     35  N   UNL     1       3.294   8.420  -2.417  1.00  0.00    -0.352 N 
ATOM     36  C   UNL     1       3.627   9.754  -2.436  1.00  0.00     0.251 C 
ATOM     37  H   UNL     1       3.454   7.953  -1.565  1.00  0.00     0.163 HD
ATOM     38  O   UNL     1       4.411  10.208  -1.600  1.00  0.00    -0.269 OA
BRANCH  36  39
ATOM     39  C   UNL     1       3.054  10.635  -3.466  1.00  0.00     0.039 A 
ATOM     40  C   UNL     1       3.826  11.643  -4.048  1.00  0.00     0.014 A 
ATOM     41  C   UNL     1       1.731  10.441  -3.860  1.00  0.00     0.014 A 
ATOM     42  C   UNL     1       3.282  12.387  -5.090  1.00  0.00     0.010 A 
ATOM     43  C   UNL     1       1.244  11.075  -4.978  1.00  0.00     0.010 A 
ATOM     44  C   UNL     1       2.000  12.074  -5.576  1.00  0.00    -0.014 A 
BRANCH  44  45
ATOM     45  C   UNL     1       1.521  12.674  -6.818  1.00  0.00     0.031 A 
ATOM     46  C   UNL     1       2.484  12.549  -7.940  1.00  0.00     0.074 A 
ATOM     47  C   UNL     1       0.270  13.142  -7.020  1.00  0.00     0.049 A 
ATOM     48  N   UNL     1       3.225  13.490  -8.421  1.00  0.00    -0.248 NA
ATOM     49  C   UNL     1       2.796  11.211  -8.470  1.00  0.00     0.031 C 
ATOM     50  C   UNL     1      -0.879  13.078  -6.111  1.00  0.00     0.029 A 
ATOM     51  N   UNL     1      -0.273  13.690  -8.145  1.00  0.00    -0.354 N 
ATOM     52  C   UNL     1       3.910  12.922  -9.485  1.00  0.00     0.074 A 
ATOM     53  C   UNL     1       3.776  11.495  -9.332  1.00  0.00     0.031 C 
ATOM     54  C   UNL     1      -2.015  13.339  -6.796  1.00  0.00     0.029 A 
ATOM     55  C   UNL     1      -1.663  13.755  -8.141  1.00  0.00     0.049 A 
ATOM     56  H   UNL     1       0.274  14.012  -8.898  1.00  0.00     0.167 HD
ATOM     57  C   UNL     1       4.245  13.680 -10.566  1.00  0.00     0.031 A 
ATOM     58  C   UNL     1      -2.468  14.111  -9.173  1.00  0.00     0.031 A 
ATOM     59  C   UNL     1       4.123  15.092 -10.277  1.00  0.00     0.049 A 
ATOM     60  C   UNL     1      -1.651  14.909 -10.111  1.00  0.00     0.074 A 
ATOM     61  C   UNL     1       4.639  15.947  -9.322  1.00  0.00     0.029 A 
ATOM     62  N   UNL     1       3.025  15.730 -10.802  1.00  0.00    -0.354 N 
ATOM     63  N   UNL     1      -1.201  16.097  -9.833  1.00  0.00    -0.248 NA
ATOM     64  C   UNL     1      -0.973  14.220 -11.195  1.00  0.00     0.031 C 
ATOM     65  C   UNL     1       3.564  16.829  -8.998  1.00  0.00     0.029 A 
ATOM     66  C   UNL     1       2.485  16.528  -9.831  1.00  0.00     0.049 A 
ATOM     67  H   UNL     1       2.684  15.630 -11.720  1.00  0.00     0.167 HD
ATOM     68  C   UNL     1       0.088  16.101 -10.343  1.00  0.00     0.074 A 
ATOM     69  C   UNL     1       0.125  14.977 -11.278  1.00  0.00     0.031 C 
ATOM     70  C   UNL     1       1.073  16.826  -9.736  1.00  0.00     0.031 A 
BRANCH  57  71
ATOM     71  C   UNL     1       4.166  13.164 -11.987  1.00  0.00    -0.014 A 
ATOM     72  C   UNL     1       4.491  14.048 -13.033  1.00  0.00     0.009 A 
ATOM     73  C   UNL     1       3.482  11.987 -12.348  1.00  0.00     0.009 A 
ATOM     74  C   UNL     1       4.052  13.821 -14.342  1.00  0.00     0.001 A 
ATOM     75  C   UNL     1       3.083  11.735 -13.662  1.00  0.00     0.001 A 
ATOM     76  C   UNL     1       3.336  12.670 -14.653  1.00  0.00     0.000 A 
ENDBRANCH  57  71
BRANCH  58  77
ATOM     77  C   UNL     1      -3.822  13.639  -9.538  1.00  0.00    -0.014 A 
ATOM     78  C   UNL     1      -4.573  14.317 -10.516  1.00  0.00     0.009 A 
ATOM     79  C   UNL     1      -4.254  12.357  -9.158  1.00  0.00     0.009 A 
ATOM     80  C   UNL     1      -5.671  13.707 -11.136  1.00  0.00     0.001 A 
ATOM     81  C   UNL     1      -5.356  11.751  -9.774  1.00  0.00     0.001 A 
ATOM     82  C   UNL     1      -6.051  12.417 -10.778  1.00  0.00     0.000 A 
ENDBRANCH  58  77
BRANCH  70  83
ATOM     83  C   UNL     1       0.668  17.866  -8.720  1.00  0.00    -0.014 A 
ATOM     84  C   UNL     1      -0.062  17.583  -7.553  1.00  0.00     0.009 A 
ATOM     85  C   UNL     1       1.150  19.172  -8.901  1.00  0.00     0.009 A 
ATOM     86  C   UNL     1      -0.333  18.589  -6.617  1.00  0.00     0.001 A 
ATOM     87  C   UNL     1       0.902  20.168  -7.957  1.00  0.00     0.001 A 
ATOM     88  C   UNL     1       0.153  19.880  -6.819  1.00  0.00     0.000 A 
ENDBRANCH  70  83
ENDBRANCH  44  45
ENDBRANCH  36  39
ENDBRANCH  34  35
ENDBRANCH  33  34
ENDBRANCH   1  33
TORSDOF 15
