REMARK SMILES O=C(NCCCNC(=O)[C@H]1CC=CC[C@@H]1C(=O)N[C@@H]1CCCN(c2ccccc2F)C1=O)c1ccc(-c2c3nc(c(-c4ccccc4)c4ccc([nH]4)c(-c4ccccc4)c4nc(c(-c5ccccc5)c5ccc2[nH]5)C=C4)C=C3)cc1
REMARK SMILES IDX 5 1 4 2 3 3 1 4 2 5 33 7 34 8 80 9 35 10 79 11 36 12 37 13
REMARK SMILES IDX 38 14 73 15 39 16 78 17 72 18 74 19 40 20 77 21 71 22 70 23
REMARK SMILES IDX 41 25 63 26 48 27 62 28 49 29 52 30 61 31 75 32 50 33 51 34
REMARK SMILES IDX 60 36 76 37 53 38 42 39 43 40 47 41 44 42 46 43 45 44 64 45
REMARK SMILES IDX 65 46 69 47 66 48 68 49 67 50 54 51 55 52 59 53 56 54 58 55
REMARK SMILES IDX 57 56 6 57 7 58 8 59 9 61 10 62 11 63 15 64 12 65 14 66
REMARK SMILES IDX 13 67 16 68 17 69 18 70 19 72 20 73 31 74 21 75 23 76 32 77
REMARK SMILES IDX 22 78 24 79 25 80 29 81 26 82 28 83 30 84 27 85
REMARK H PARENT 3 6 74 24 52 35 7 60 18 71
REMARK Flexibility Score: inf
ROOT
ATOM      1  C   UNL     1       4.774  -8.722   2.782  1.00  0.00     0.042 C 
ENDROOT
BRANCH   1   2
ATOM      2  C   UNL     1       4.689  -8.250   1.336  1.00  0.00     0.118 C 
BRANCH   2   3
ATOM      3  N   UNL     1       5.531  -9.018   0.431  1.00  0.00    -0.352 N 
ATOM      4  O   UNL     1       6.063 -10.537  -1.145  1.00  0.00    -0.269 OA
ATOM      5  C   UNL     1       5.193  -9.860  -0.599  1.00  0.00     0.251 C 
ATOM      6  H   UNL     1       6.499  -8.918   0.581  1.00  0.00     0.163 HD
BRANCH   5   7
ATOM      7  C   UNL     1       3.789  -9.983  -1.046  1.00  0.00     0.039 A 
ATOM      8  C   UNL     1       2.978  -8.858  -1.214  1.00  0.00     0.014 A 
ATOM      9  C   UNL     1       3.288 -11.253  -1.347  1.00  0.00     0.014 A 
ATOM     10  C   UNL     1       1.634  -9.011  -1.545  1.00  0.00     0.010 A 
ATOM     11  C   UNL     1       1.963 -11.398  -1.763  1.00  0.00     0.010 A 
ATOM     12  C   UNL     1       1.116 -10.281  -1.838  1.00  0.00    -0.014 A 
BRANCH  12  13
ATOM     13  C   UNL     1      -0.290 -10.431  -2.285  1.00  0.00     0.031 A 
ATOM     14  C   UNL     1      -1.279 -11.217  -1.473  1.00  0.00     0.074 A 
ATOM     15  C   UNL     1      -0.665  -9.885  -3.458  1.00  0.00     0.049 A 
ATOM     16  N   UNL     1      -2.524 -11.515  -1.751  1.00  0.00    -0.248 NA
ATOM     17  C   UNL     1      -0.807 -11.745  -0.184  1.00  0.00     0.031 C 
ATOM     18  C   UNL     1       0.204  -9.103  -4.339  1.00  0.00     0.029 A 
ATOM     19  N   UNL     1      -1.868  -9.918  -4.117  1.00  0.00    -0.354 N 
ATOM     20  C   UNL     1      -2.975 -12.288  -0.690  1.00  0.00     0.074 A 
ATOM     21  C   UNL     1      -1.863 -12.432   0.227  1.00  0.00     0.031 C 
ATOM     22  C   UNL     1      -0.494  -8.723  -5.418  1.00  0.00     0.029 A 
ATOM     23  C   UNL     1      -1.836  -9.289  -5.337  1.00  0.00     0.049 A 
ATOM     24  H   UNL     1      -2.674 -10.348  -3.751  1.00  0.00     0.167 HD
ATOM     25  C   UNL     1      -4.202 -12.831  -0.499  1.00  0.00     0.031 A 
ATOM     26  C   UNL     1      -2.764  -9.210  -6.308  1.00  0.00     0.031 A 
ATOM     27  C   UNL     1      -5.297 -12.699  -1.426  1.00  0.00     0.049 A 
ATOM     28  C   UNL     1      -4.099  -9.862  -6.102  1.00  0.00     0.074 A 
ATOM     29  C   UNL     1      -6.591 -13.174  -1.304  1.00  0.00     0.029 A 
ATOM     30  N   UNL     1      -5.220 -12.062  -2.655  1.00  0.00    -0.354 N 
ATOM     31  N   UNL     1      -4.530 -10.545  -5.069  1.00  0.00    -0.248 NA
ATOM     32  C   UNL     1      -5.078  -9.729  -7.189  1.00  0.00     0.031 C 
ATOM     33  C   UNL     1      -7.276 -12.885  -2.488  1.00  0.00     0.029 A 
ATOM     34  C   UNL     1      -6.432 -12.164  -3.318  1.00  0.00     0.049 A 
ATOM     35  H   UNL     1      -4.421 -11.604  -3.006  1.00  0.00     0.167 HD
ATOM     36  C   UNL     1      -5.837 -10.903  -5.370  1.00  0.00     0.074 A 
ATOM     37  C   UNL     1      -6.130 -10.355  -6.679  1.00  0.00     0.031 C 
ATOM     38  C   UNL     1      -6.713 -11.616  -4.622  1.00  0.00     0.031 A 
BRANCH  25  39
ATOM     39  C   UNL     1      -4.405 -13.664   0.739  1.00  0.00    -0.014 A 
ATOM     40  C   UNL     1      -4.407 -13.093   2.021  1.00  0.00     0.009 A 
ATOM     41  C   UNL     1      -4.612 -15.048   0.616  1.00  0.00     0.009 A 
ATOM     42  C   UNL     1      -4.556 -13.896   3.155  1.00  0.00     0.001 A 
ATOM     43  C   UNL     1      -4.795 -15.844   1.748  1.00  0.00     0.001 A 
ATOM     44  C   UNL     1      -4.752 -15.270   3.017  1.00  0.00     0.000 A 
ENDBRANCH  25  39
BRANCH  26  45
ATOM     45  C   UNL     1      -2.430  -8.502  -7.571  1.00  0.00    -0.014 A 
ATOM     46  C   UNL     1      -2.997  -7.255  -7.866  1.00  0.00     0.009 A 
ATOM     47  C   UNL     1      -1.490  -9.050  -8.460  1.00  0.00     0.009 A 
ATOM     48  C   UNL     1      -2.634  -6.574  -9.031  1.00  0.00     0.001 A 
ATOM     49  C   UNL     1      -1.107  -8.354  -9.606  1.00  0.00     0.001 A 
ATOM     50  C   UNL     1      -1.683  -7.118  -9.894  1.00  0.00     0.000 A 
ENDBRANCH  26  45
BRANCH  38  51
ATOM     51  C   UNL     1      -8.097 -11.815  -5.175  1.00  0.00    -0.014 A 
ATOM     52  C   UNL     1      -8.344 -12.707  -6.229  1.00  0.00     0.009 A 
ATOM     53  C   UNL     1      -9.181 -11.154  -4.573  1.00  0.00     0.009 A 
ATOM     54  C   UNL     1      -9.649 -12.920  -6.680  1.00  0.00     0.001 A 
ATOM     55  C   UNL     1     -10.485 -11.391  -5.007  1.00  0.00     0.001 A 
ATOM     56  C   UNL     1     -10.718 -12.270  -6.062  1.00  0.00     0.000 A 
ENDBRANCH  38  51
ENDBRANCH  12  13
ENDBRANCH   5   7
ENDBRANCH   2   3
ENDBRANCH   1   2
BRANCH   1  57
ATOM     57  C   UNL     1       6.131  -8.525   3.443  1.00  0.00     0.117 C 
BRANCH  57  58
ATOM     58  N   UNL     1       6.555  -7.137   3.459  1.00  0.00    -0.356 N 
ATOM     59  C   UNL     1       7.030  -6.370   4.484  1.00  0.00     0.224 C 
ATOM     60  H   UNL     1       6.490  -6.675   2.592  1.00  0.00     0.163 HD
ATOM     61  O   UNL     1       7.327  -5.205   4.212  1.00  0.00    -0.275 OA
BRANCH  59  62
ATOM     62  C   UNL     1       7.179  -6.962   5.887  1.00  0.00     0.095 C 
ATOM     63  C   UNL     1       8.239  -8.076   5.927  1.00  0.00     0.041 C 
ATOM     64  C   UNL     1       7.456  -5.838   6.924  1.00  0.00     0.095 C 
ATOM     65  C   UNL     1       9.642  -7.596   6.106  1.00  0.00    -0.030 C 
ATOM     66  C   UNL     1       8.912  -5.336   6.887  1.00  0.00     0.041 C 
ATOM     67  C   UNL     1       9.943  -6.360   6.519  1.00  0.00    -0.030 C 
BRANCH  64  68
ATOM     68  C   UNL     1       7.080  -6.335   8.318  1.00  0.00     0.224 C 
ATOM     69  O   UNL     1       7.762  -7.168   8.919  1.00  0.00    -0.275 OA
ATOM     70  N   UNL     1       5.944  -5.919   8.947  1.00  0.00    -0.344 N 
ATOM     71  H   UNL     1       5.737  -6.415   9.773  1.00  0.00     0.164 HD
BRANCH  70  72
ATOM     72  C   UNL     1       4.972  -4.866   8.618  1.00  0.00     0.172 C 
ATOM     73  C   UNL     1       4.155  -4.524   9.867  1.00  0.00     0.037 C 
ATOM     74  C   UNL     1       4.100  -5.269   7.412  1.00  0.00     0.249 C 
ATOM     75  C   UNL     1       2.947  -3.670   9.520  1.00  0.00     0.025 C 
ATOM     76  N   UNL     1       2.740  -4.991   7.437  1.00  0.00    -0.308 N 
ATOM     77  O   UNL     1       4.633  -5.723   6.395  1.00  0.00    -0.272 OA
ATOM     78  C   UNL     1       2.033  -4.446   8.586  1.00  0.00     0.126 C 
BRANCH  76  79
ATOM     79  C   UNL     1       1.970  -5.448   6.326  1.00  0.00     0.080 A 
ATOM     80  C   UNL     1       1.258  -4.532   5.550  1.00  0.00     0.029 A 
ATOM     81  C   UNL     1       2.078  -6.778   5.884  1.00  0.00     0.146 A 
ATOM     82  C   UNL     1       0.726  -4.933   4.319  1.00  0.00     0.002 A 
ATOM     83  C   UNL     1       1.533  -7.182   4.672  1.00  0.00     0.041 A 
ATOM     84  F   UNL     1       2.713  -7.693   6.636  1.00  0.00    -0.205 F 
ATOM     85  C   UNL     1       0.875  -6.250   3.875  1.00  0.00     0.003 A 
ENDBRANCH  76  79
ENDBRANCH  70  72
ENDBRANCH  64  68
ENDBRANCH  59  62
ENDBRANCH  57  58
ENDBRANCH   1  57
TORSDOF 13
