REMARK SMILES O=C(NCCCNC(=O)c1c(-c2ccc(Cl)cc2)noc1CO[C@@H]1CCCCO1)c1ccc(-c2c3nc(c(-c4ccccc4)c4ccc([nH]4)c(-c4ccccc4)c4nc(c(-c5ccccc5)c5ccc2[nH]5)C=C4)C=C3)cc1
REMARK SMILES IDX 5 1 4 2 3 3 1 4 2 5 30 7 31 8 77 9 32 10 76 11 33 12 34 13
REMARK SMILES IDX 35 14 70 15 36 16 75 17 69 18 71 19 37 20 74 21 68 22 67 23
REMARK SMILES IDX 38 25 60 26 45 27 59 28 46 29 49 30 58 31 72 32 47 33 48 34
REMARK SMILES IDX 57 36 73 37 50 38 39 39 40 40 44 41 41 42 43 43 42 44 61 45
REMARK SMILES IDX 62 46 66 47 63 48 65 49 64 50 51 51 52 52 56 53 53 54 55 55
REMARK SMILES IDX 54 56 6 57 7 58 8 59 9 61 10 62 11 63 21 64 19 65 20 66
REMARK SMILES IDX 12 67 13 68 18 69 14 70 17 71 15 72 16 73 22 74 23 75 24 76
REMARK SMILES IDX 25 77 29 78 26 79 28 80 27 81
REMARK H PARENT 3 6 71 24 49 35 7 60
REMARK Flexibility Score: inf
ROOT
ATOM      1  C   UNL     1       4.698  -0.878  -2.428  1.00  0.00     0.042 C 
ENDROOT
BRANCH   1   2
ATOM      2  C   UNL     1       4.458   0.045  -1.237  1.00  0.00     0.118 C 
BRANCH   2   3
ATOM      3  N   UNL     1       3.045   0.244  -0.942  1.00  0.00    -0.352 N 
ATOM      4  O   UNL     1       1.109   0.060   0.200  1.00  0.00    -0.269 OA
ATOM      5  C   UNL     1       2.337  -0.052   0.197  1.00  0.00     0.251 C 
ATOM      6  H   UNL     1       2.519   0.651  -1.667  1.00  0.00     0.163 HD
BRANCH   5   7
ATOM      7  C   UNL     1       3.030  -0.532   1.410  1.00  0.00     0.039 A 
ATOM      8  C   UNL     1       4.183   0.106   1.874  1.00  0.00     0.014 A 
ATOM      9  C   UNL     1       2.511  -1.635   2.100  1.00  0.00     0.014 A 
ATOM     10  C   UNL     1       4.891  -0.444   2.938  1.00  0.00     0.010 A 
ATOM     11  C   UNL     1       3.189  -2.148   3.210  1.00  0.00     0.010 A 
ATOM     12  C   UNL     1       4.405  -1.579   3.613  1.00  0.00    -0.014 A 
BRANCH  12  13
ATOM     13  C   UNL     1       5.188  -2.125   4.750  1.00  0.00     0.031 A 
ATOM     14  C   UNL     1       5.894  -3.447   4.644  1.00  0.00     0.074 A 
ATOM     15  C   UNL     1       5.333  -1.373   5.858  1.00  0.00     0.049 A 
ATOM     16  N   UNL     1       6.707  -4.014   5.502  1.00  0.00    -0.248 NA
ATOM     17  C   UNL     1       5.661  -4.239   3.427  1.00  0.00     0.031 C 
ATOM     18  C   UNL     1       4.692  -0.076   6.085  1.00  0.00     0.029 A 
ATOM     19  N   UNL     1       6.109  -1.563   6.972  1.00  0.00    -0.354 N 
ATOM     20  C   UNL     1       7.053  -5.239   4.947  1.00  0.00     0.074 A 
ATOM     21  C   UNL     1       6.368  -5.334   3.676  1.00  0.00     0.031 C 
ATOM     22  C   UNL     1       5.172   0.453   7.220  1.00  0.00     0.029 A 
ATOM     23  C   UNL     1       6.125  -0.478   7.814  1.00  0.00     0.049 A 
ATOM     24  H   UNL     1       6.606  -2.394   7.151  1.00  0.00     0.167 HD
ATOM     25  C   UNL     1       7.861  -6.201   5.452  1.00  0.00     0.031 A 
ATOM     26  C   UNL     1       6.846  -0.241   8.925  1.00  0.00     0.031 A 
ATOM     27  C   UNL     1       8.564  -6.105   6.703  1.00  0.00     0.049 A 
ATOM     28  C   UNL     1       7.799  -1.288   9.420  1.00  0.00     0.074 A 
ATOM     29  C   UNL     1       9.386  -7.041   7.307  1.00  0.00     0.029 A 
ATOM     30  N   UNL     1       8.544  -4.997   7.533  1.00  0.00    -0.354 N 
ATOM     31  N   UNL     1       8.088  -2.454   8.897  1.00  0.00    -0.248 NA
ATOM     32  C   UNL     1       8.517  -0.990  10.665  1.00  0.00     0.031 C 
ATOM     33  C   UNL     1       9.861  -6.498   8.508  1.00  0.00     0.029 A 
ATOM     34  C   UNL     1       9.344  -5.221   8.642  1.00  0.00     0.049 A 
ATOM     35  H   UNL     1       8.036  -4.171   7.361  1.00  0.00     0.167 HD
ATOM     36  C   UNL     1       9.001  -3.040   9.762  1.00  0.00     0.074 A 
ATOM     37  C   UNL     1       9.248  -2.086  10.823  1.00  0.00     0.031 C 
ATOM     38  C   UNL     1       9.567  -4.268   9.695  1.00  0.00     0.031 A 
BRANCH  25  39
ATOM     39  C   UNL     1       8.009  -7.463   4.652  1.00  0.00    -0.014 A 
ATOM     40  C   UNL     1       8.915  -7.531   3.581  1.00  0.00     0.009 A 
ATOM     41  C   UNL     1       7.256  -8.599   5.001  1.00  0.00     0.009 A 
ATOM     42  C   UNL     1       9.052  -8.717   2.858  1.00  0.00     0.001 A 
ATOM     43  C   UNL     1       7.401  -9.788   4.285  1.00  0.00     0.001 A 
ATOM     44  C   UNL     1       8.296  -9.840   3.214  1.00  0.00     0.000 A 
ENDBRANCH  25  39
BRANCH  26  45
ATOM     45  C   UNL     1       6.716   1.065   9.618  1.00  0.00    -0.014 A 
ATOM     46  C   UNL     1       7.692   2.063   9.417  1.00  0.00     0.009 A 
ATOM     47  C   UNL     1       5.600   1.324  10.436  1.00  0.00     0.009 A 
ATOM     48  C   UNL     1       7.557   3.308  10.027  1.00  0.00     0.001 A 
ATOM     49  C   UNL     1       5.455   2.573  11.036  1.00  0.00     0.001 A 
ATOM     50  C   UNL     1       6.435   3.555  10.829  1.00  0.00     0.000 A 
ENDBRANCH  26  45
BRANCH  38  51
ATOM     51  C   UNL     1      10.480  -4.653  10.820  1.00  0.00    -0.014 A 
ATOM     52  C   UNL     1       9.944  -5.142  12.025  1.00  0.00     0.009 A 
ATOM     53  C   UNL     1      11.871  -4.536  10.670  1.00  0.00     0.009 A 
ATOM     54  C   UNL     1      10.787  -5.492  13.077  1.00  0.00     0.001 A 
ATOM     55  C   UNL     1      12.716  -4.894  11.720  1.00  0.00     0.001 A 
ATOM     56  C   UNL     1      12.170  -5.366  12.919  1.00  0.00     0.000 A 
ENDBRANCH  38  51
ENDBRANCH  12  13
ENDBRANCH   5   7
ENDBRANCH   2   3
ENDBRANCH   1   2
BRANCH   1  57
ATOM     57  C   UNL     1       4.220  -0.328  -3.767  1.00  0.00     0.118 C 
BRANCH  57  58
ATOM     58  N   UNL     1       4.830   0.954  -4.082  1.00  0.00    -0.352 N 
ATOM     59  C   UNL     1       5.911   1.267  -4.870  1.00  0.00     0.257 C 
ATOM     60  H   UNL     1       4.394   1.729  -3.659  1.00  0.00     0.163 HD
ATOM     61  O   UNL     1       6.429   2.366  -4.711  1.00  0.00    -0.269 OA
BRANCH  59  62
ATOM     62  C   UNL     1       6.384   0.333  -5.865  1.00  0.00     0.113 A 
ATOM     63  C   UNL     1       7.728   0.114  -6.304  1.00  0.00     0.127 A 
ATOM     64  C   UNL     1       5.627  -0.377  -6.778  1.00  0.00     0.175 A 
ATOM     65  N   UNL     1       7.762  -0.808  -7.279  1.00  0.00    -0.079 NA
ATOM     66  O   UNL     1       6.451  -1.114  -7.566  1.00  0.00    -0.357 OA
BRANCH  63  67
ATOM     67  C   UNL     1       8.955   0.790  -5.888  1.00  0.00     0.005 A 
ATOM     68  C   UNL     1       9.315   0.900  -4.539  1.00  0.00     0.012 A 
ATOM     69  C   UNL     1       9.776   1.380  -6.865  1.00  0.00     0.012 A 
ATOM     70  C   UNL     1      10.472   1.603  -4.175  1.00  0.00     0.021 A 
ATOM     71  C   UNL     1      10.927   2.085  -6.503  1.00  0.00     0.021 A 
ATOM     72  C   UNL     1      11.268   2.196  -5.157  1.00  0.00     0.041 A 
ATOM     73  Cl  UNL     1      12.678   3.074  -4.705  1.00  0.00    -0.084 Cl
ENDBRANCH  63  67
BRANCH  64  74
ATOM     74  C   UNL     1       4.182  -0.464  -7.093  1.00  0.00     0.242 C 
BRANCH  74  75
ATOM     75  O   UNL     1       3.994  -0.218  -8.474  1.00  0.00    -0.345 OA
BRANCH  75  76
ATOM     76  C   UNL     1       3.538   1.073  -8.873  1.00  0.00     0.250 C 
ATOM     77  C   UNL     1       4.575   2.195  -8.735  1.00  0.00     0.062 C 
ATOM     78  O   UNL     1       2.206   1.373  -8.467  1.00  0.00    -0.353 OA
ATOM     79  C   UNL     1       4.327   3.144  -7.575  1.00  0.00     0.008 C 
ATOM     80  C   UNL     1       2.029   2.258  -7.372  1.00  0.00     0.163 C 
ATOM     81  C   UNL     1       2.861   3.519  -7.499  1.00  0.00     0.029 C 
ENDBRANCH  75  76
ENDBRANCH  74  75
ENDBRANCH  64  74
ENDBRANCH  59  62
ENDBRANCH  57  58
ENDBRANCH   1  57
TORSDOF 14
