REMARK SMILES O=C(NCCCNC(=O)[C@H](CO)NC(=O)[C@H](Cc1c[nH]c2ccccc12)NC(=O)c1ccc(F)cc1)c1ccc(-c2c3nc(c(-c4ccccc4)c4ccc([nH]4)c(-c4ccccc4)c4nc(c(-c5ccccc5)c5ccc2[nH]5)C=C4)C=C3)cc1
REMARK SMILES IDX 6 1 5 2 4 3 3 4 1 5 2 6 37 8 38 9 84 10 39 11 83 12 40 13
REMARK SMILES IDX 41 14 42 15 77 16 43 17 82 18 76 19 78 20 44 21 81 22 75 23
REMARK SMILES IDX 74 24 45 26 67 27 52 28 66 29 53 30 56 31 65 32 79 33 54 34
REMARK SMILES IDX 55 35 64 37 80 38 57 39 46 40 47 41 51 42 48 43 50 44 49 45
REMARK SMILES IDX 68 46 69 47 73 48 70 49 72 50 71 51 58 52 59 53 63 54 60 55
REMARK SMILES IDX 62 56 61 57 7 58 8 59 9 61 10 62 13 63 14 64 15 66 16 67
REMARK SMILES IDX 27 68 28 69 29 71 30 72 31 73 36 74 32 75 35 76 33 77 34 78
REMARK SMILES IDX 17 79 18 80 19 81 26 82 20 83 21 84 25 85 22 87 24 88 23 89
REMARK SMILES IDX 11 90 12 91
REMARK H PARENT 3 7 78 25 56 36 7 60 13 65 27 70 20 86 12 92
REMARK Flexibility Score: inf
ROOT
ATOM      1  C   UNL     1       6.305   0.397  -2.602  1.00  0.00     0.117 C 
ENDROOT
BRANCH   1   2
ATOM      2  C   UNL     1       7.549   0.639  -1.775  1.00  0.00     0.042 C 
BRANCH   2   3
ATOM      3  C   UNL     1       7.148   1.210  -0.449  1.00  0.00     0.118 C 
BRANCH   3   4
ATOM      4  N   UNL     1       6.733   0.140   0.457  1.00  0.00    -0.352 N 
ATOM      5  O   UNL     1       7.150  -1.456   2.013  1.00  0.00    -0.269 OA
ATOM      6  C   UNL     1       7.427  -0.365   1.533  1.00  0.00     0.251 C 
ATOM      7  H   UNL     1       5.855  -0.267   0.276  1.00  0.00     0.163 HD
BRANCH   6   8
ATOM      8  C   UNL     1       8.525   0.454   2.080  1.00  0.00     0.039 A 
ATOM      9  C   UNL     1       8.361   1.837   2.100  1.00  0.00     0.014 A 
ATOM     10  C   UNL     1       9.725  -0.124   2.494  1.00  0.00     0.014 A 
ATOM     11  C   UNL     1       9.458   2.647   2.276  1.00  0.00     0.010 A 
ATOM     12  C   UNL     1      10.767   0.708   2.908  1.00  0.00     0.010 A 
ATOM     13  C   UNL     1      10.639   2.101   2.792  1.00  0.00    -0.014 A 
BRANCH  13  14
ATOM     14  C   UNL     1      11.624   3.053   3.352  1.00  0.00     0.031 A 
ATOM     15  C   UNL     1      13.035   3.111   2.860  1.00  0.00     0.074 A 
ATOM     16  C   UNL     1      11.175   3.911   4.293  1.00  0.00     0.049 A 
ATOM     17  N   UNL     1      14.002   3.893   3.264  1.00  0.00    -0.248 NA
ATOM     18  C   UNL     1      13.423   2.172   1.796  1.00  0.00     0.031 C 
ATOM     19  C   UNL     1       9.809   3.932   4.839  1.00  0.00     0.029 A 
ATOM     20  N   UNL     1      11.788   4.957   4.925  1.00  0.00    -0.354 N 
ATOM     21  C   UNL     1      15.118   3.527   2.525  1.00  0.00     0.074 A 
ATOM     22  C   UNL     1      14.717   2.433   1.666  1.00  0.00     0.031 C 
ATOM     23  C   UNL     1       9.663   4.992   5.639  1.00  0.00     0.029 A 
ATOM     24  C   UNL     1      10.954   5.641   5.777  1.00  0.00     0.049 A 
ATOM     25  H   UNL     1      12.732   5.197   4.783  1.00  0.00     0.167 HD
ATOM     26  C   UNL     1      16.362   4.062   2.568  1.00  0.00     0.031 A 
ATOM     27  C   UNL     1      11.207   6.652   6.623  1.00  0.00     0.031 A 
ATOM     28  C   UNL     1      16.740   5.141   3.445  1.00  0.00     0.049 A 
ATOM     29  C   UNL     1      12.606   7.173   6.689  1.00  0.00     0.074 A 
ATOM     30  C   UNL     1      17.974   5.753   3.579  1.00  0.00     0.029 A 
ATOM     31  N   UNL     1      15.884   5.769   4.340  1.00  0.00    -0.354 N 
ATOM     32  N   UNL     1      13.652   6.813   5.985  1.00  0.00    -0.248 NA
ATOM     33  C   UNL     1      12.863   8.233   7.667  1.00  0.00     0.031 C 
ATOM     34  C   UNL     1      17.878   6.712   4.593  1.00  0.00     0.029 A 
ATOM     35  C   UNL     1      16.567   6.749   5.042  1.00  0.00     0.049 A 
ATOM     36  H   UNL     1      14.931   5.550   4.459  1.00  0.00     0.167 HD
ATOM     37  C   UNL     1      14.692   7.616   6.424  1.00  0.00     0.074 A 
ATOM     38  C   UNL     1      14.137   8.504   7.427  1.00  0.00     0.031 C 
ATOM     39  C   UNL     1      15.991   7.616   6.038  1.00  0.00     0.031 A 
BRANCH  26  40
ATOM     40  C   UNL     1      17.408   3.467   1.665  1.00  0.00    -0.014 A 
ATOM     41  C   UNL     1      17.355   3.640   0.273  1.00  0.00     0.009 A 
ATOM     42  C   UNL     1      18.486   2.758   2.218  1.00  0.00     0.009 A 
ATOM     43  C   UNL     1      18.343   3.090  -0.548  1.00  0.00     0.001 A 
ATOM     44  C   UNL     1      19.489   2.236   1.398  1.00  0.00     0.001 A 
ATOM     45  C   UNL     1      19.412   2.394   0.016  1.00  0.00     0.000 A 
ENDBRANCH  26  40
BRANCH  27  46
ATOM     46  C   UNL     1      10.133   7.173   7.509  1.00  0.00    -0.014 A 
ATOM     47  C   UNL     1       9.674   8.492   7.385  1.00  0.00     0.009 A 
ATOM     48  C   UNL     1       9.561   6.347   8.492  1.00  0.00     0.009 A 
ATOM     49  C   UNL     1       8.695   8.982   8.253  1.00  0.00     0.001 A 
ATOM     50  C   UNL     1       8.552   6.825   9.327  1.00  0.00     0.001 A 
ATOM     51  C   UNL     1       8.132   8.148   9.218  1.00  0.00     0.000 A 
ENDBRANCH  27  46
BRANCH  39  52
ATOM     52  C   UNL     1      16.876   8.646   6.680  1.00  0.00    -0.014 A 
ATOM     53  C   UNL     1      17.231   8.565   8.035  1.00  0.00     0.009 A 
ATOM     54  C   UNL     1      17.361   9.714   5.909  1.00  0.00     0.009 A 
ATOM     55  C   UNL     1      18.014   9.562   8.618  1.00  0.00     0.001 A 
ATOM     56  C   UNL     1      18.175  10.687   6.485  1.00  0.00     0.001 A 
ATOM     57  C   UNL     1      18.489  10.618   7.842  1.00  0.00     0.000 A 
ENDBRANCH  39  52
ENDBRANCH  13  14
ENDBRANCH   6   8
ENDBRANCH   3   4
ENDBRANCH   2   3
ENDBRANCH   1   2
BRANCH   1  58
ATOM     58  N   UNL     1       6.012   1.540  -3.492  1.00  0.00    -0.354 N 
ATOM     59  C   UNL     1       6.213   2.033  -4.837  1.00  0.00     0.244 C 
ATOM     60  H   UNL     1       5.493   2.207  -2.987  1.00  0.00     0.163 HD
ATOM     61  O   UNL     1       5.563   3.121  -4.563  1.00  0.00    -0.273 OA
BRANCH  59  62
ATOM     62  C   UNL     1       7.240   1.394  -6.676  1.00  0.00     0.197 C 
BRANCH  62  63
ATOM     63  N   UNL     1       6.978   1.893  -8.284  1.00  0.00    -0.340 N 
ATOM     64  C   UNL     1       6.161   1.440  -9.280  1.00  0.00     0.243 C 
ATOM     65  H   UNL     1       7.528   2.666  -8.550  1.00  0.00     0.164 HD
ATOM     66  O   UNL     1       5.874   2.248 -10.172  1.00  0.00    -0.273 OA
BRANCH  64  67
ATOM     67  C   UNL     1       5.551   0.022  -9.303  1.00  0.00     0.176 C 
BRANCH  67  68
ATOM     68  N   UNL     1       6.637  -0.956  -9.092  1.00  0.00    -0.340 N 
ATOM     69  C   UNL     1       7.497  -1.487 -10.027  1.00  0.00     0.251 C 
ATOM     70  H   UNL     1       6.762  -1.267  -8.166  1.00  0.00     0.164 HD
ATOM     71  O   UNL     1       8.496  -2.109  -9.684  1.00  0.00    -0.269 OA
BRANCH  69  72
ATOM     72  C   UNL     1       7.133  -1.434 -11.459  1.00  0.00     0.040 A 
ATOM     73  C   UNL     1       6.924  -0.232 -12.142  1.00  0.00     0.017 A 
ATOM     74  C   UNL     1       6.900  -2.659 -12.095  1.00  0.00     0.017 A 
ATOM     75  C   UNL     1       6.335  -0.253 -13.406  1.00  0.00     0.040 A 
ATOM     76  C   UNL     1       6.346  -2.676 -13.373  1.00  0.00     0.040 A 
ATOM     77  C   UNL     1       6.035  -1.474 -14.001  1.00  0.00     0.123 A 
ATOM     78  F   UNL     1       5.429  -1.493 -15.195  1.00  0.00    -0.207 F 
ENDBRANCH  69  72
ENDBRANCH  67  68
BRANCH  67  79
ATOM     79  C   UNL     1       4.258  -0.144  -8.458  1.00  0.00     0.072 C 
BRANCH  79  80
ATOM     80  C   UNL     1       4.499  -0.071  -6.994  1.00  0.00    -0.020 A 
ATOM     81  C   UNL     1       4.452  -1.153  -6.124  1.00  0.00     0.087 A 
ATOM     82  C   UNL     1       5.151   0.993  -6.325  1.00  0.00     0.003 A 
ATOM     83  N   UNL     1       5.509  -1.130  -5.233  1.00  0.00    -0.361 N 
ATOM     84  C   UNL     1       6.241   0.024  -5.374  1.00  0.00     0.046 A 
ATOM     85  C   UNL     1       5.569   2.700  -6.704  1.00  0.00     0.010 A 
ATOM     86  H   UNL     1       5.710  -1.844  -4.586  1.00  0.00     0.166 HD
ATOM     87  C   UNL     1       7.809   0.728  -4.795  1.00  0.00     0.026 A 
ATOM     88  C   UNL     1       7.124   3.421  -6.127  1.00  0.00     0.001 A 
ATOM     89  C   UNL     1       8.200   2.458  -5.117  1.00  0.00     0.002 A 
ENDBRANCH  79  80
ENDBRANCH  67  79
ENDBRANCH  64  67
ENDBRANCH  62  63
BRANCH  62  90
ATOM     90  C   UNL     1       8.960   1.108  -7.027  1.00  0.00     0.191 C 
BRANCH  90  91
ATOM     91  O   UNL     1       9.559  -0.056  -6.449  1.00  0.00    -0.394 OA
ATOM     92  H   UNL     1       9.553   0.024  -5.482  1.00  0.00     0.210 HD
ENDBRANCH  90  91
ENDBRANCH  62  90
ENDBRANCH  59  62
ENDBRANCH   1  58
TORSDOF 18
