REMARK SMILES C[C@H](C(=O)NCCCNC(=O)c1ccc(-c2c3nc(c(-c4ccccc4)c4ccc([nH]4)c(-c4ccccc4)c4nc(c(-c5ccccc5)c5ccc2[nH]5)C=C4)C=C3)cc1)c1cccc(C(=O)c2ccccc2)c1
REMARK SMILES IDX 6 1 5 2 3 3 4 4 2 6 1 7 60 8 61 9 73 10 62 11 64 12 63 13
REMARK SMILES IDX 65 14 66 15 67 16 68 17 72 18 69 19 71 20 70 21 7 22 8 23
REMARK SMILES IDX 9 24 10 25 11 27 12 28 13 29 59 30 14 31 58 32 15 33 16 34
REMARK SMILES IDX 17 35 52 36 18 37 57 38 51 39 53 40 19 41 56 42 50 43 49 44
REMARK SMILES IDX 20 46 42 47 27 48 41 49 28 50 31 51 40 52 54 53 29 54 30 55
REMARK SMILES IDX 39 57 55 58 32 59 21 60 22 61 26 62 23 63 25 64 24 65 43 66
REMARK SMILES IDX 44 67 48 68 45 69 47 70 46 71 33 72 34 73 38 74 35 75 37 76
REMARK SMILES IDX 36 77
REMARK H PARENT 5 5 9 26 53 45 31 56
REMARK Flexibility Score: inf
ROOT
ATOM      1  C   UNL     1      -0.360  -1.233   1.310  1.00  0.00     0.117 C 
ENDROOT
BRANCH   1   2
ATOM      2  N   UNL     1       0.759  -0.343   1.057  1.00  0.00    -0.356 N 
ATOM      3  C   UNL     1       1.022   0.600   0.120  1.00  0.00     0.227 C 
ATOM      4  O   UNL     1       2.111   1.178   0.257  1.00  0.00    -0.274 OA
ATOM      5  H   UNL     1       1.488  -0.449   1.710  1.00  0.00     0.163 HD
BRANCH   3   6
ATOM      6  C   UNL     1       0.171   0.922  -1.111  1.00  0.00     0.105 C 
ATOM      7  C   UNL     1       0.681   0.148  -2.329  1.00  0.00     0.023 C 
BRANCH   6   8
ATOM      8  C   UNL     1      -1.343   0.965  -0.967  1.00  0.00    -0.035 A 
ATOM      9  C   UNL     1      -1.936   2.136  -0.464  1.00  0.00     0.004 A 
ATOM     10  C   UNL     1      -2.189  -0.079  -1.389  1.00  0.00     0.016 A 
ATOM     11  C   UNL     1      -3.323   2.268  -0.393  1.00  0.00     0.001 A 
ATOM     12  C   UNL     1      -3.588   0.036  -1.290  1.00  0.00     0.023 A 
ATOM     13  C   UNL     1      -4.146   1.222  -0.802  1.00  0.00     0.012 A 
BRANCH  12  14
ATOM     14  C   UNL     1      -4.521  -1.043  -1.733  1.00  0.00     0.193 C 
ATOM     15  O   UNL     1      -5.708  -0.808  -1.938  1.00  0.00    -0.289 OA
BRANCH  14  16
ATOM     16  C   UNL     1      -4.036  -2.417  -1.949  1.00  0.00     0.022 A 
ATOM     17  C   UNL     1      -4.109  -2.976  -3.227  1.00  0.00     0.012 A 
ATOM     18  C   UNL     1      -3.500  -3.143  -0.888  1.00  0.00     0.012 A 
ATOM     19  C   UNL     1      -3.576  -4.245  -3.460  1.00  0.00     0.001 A 
ATOM     20  C   UNL     1      -2.954  -4.399  -1.139  1.00  0.00     0.001 A 
ATOM     21  C   UNL     1      -2.977  -4.947  -2.418  1.00  0.00     0.000 A 
ENDBRANCH  14  16
ENDBRANCH  12  14
ENDBRANCH   6   8
ENDBRANCH   3   6
ENDBRANCH   1   2
BRANCH   1  22
ATOM     22  C   UNL     1      -0.196  -2.578   0.609  1.00  0.00     0.042 C 
BRANCH  22  23
ATOM     23  C   UNL     1      -0.076  -3.801   1.528  1.00  0.00     0.118 C 
BRANCH  23  24
ATOM     24  N   UNL     1      -1.173  -3.990   2.469  1.00  0.00    -0.352 N 
ATOM     25  C   UNL     1      -2.081  -4.998   2.717  1.00  0.00     0.251 C 
ATOM     26  H   UNL     1      -1.295  -3.217   3.066  1.00  0.00     0.163 HD
ATOM     27  O   UNL     1      -2.855  -4.838   3.652  1.00  0.00    -0.269 OA
BRANCH  25  28
ATOM     28  C   UNL     1      -2.224  -6.223   1.880  1.00  0.00     0.039 A 
ATOM     29  C   UNL     1      -3.522  -6.744   1.719  1.00  0.00     0.014 A 
ATOM     30  C   UNL     1      -1.168  -6.875   1.247  1.00  0.00     0.014 A 
ATOM     31  C   UNL     1      -3.764  -7.850   0.890  1.00  0.00     0.010 A 
ATOM     32  C   UNL     1      -1.419  -7.934   0.360  1.00  0.00     0.010 A 
ATOM     33  C   UNL     1      -2.718  -8.442   0.173  1.00  0.00    -0.014 A 
BRANCH  33  34
ATOM     34  C   UNL     1      -2.939  -9.625  -0.714  1.00  0.00     0.031 A 
ATOM     35  C   UNL     1      -2.256 -10.934  -0.401  1.00  0.00     0.074 A 
ATOM     36  C   UNL     1      -3.703  -9.545  -1.823  1.00  0.00     0.049 A 
ATOM     37  N   UNL     1      -2.204 -12.036  -1.110  1.00  0.00    -0.248 NA
ATOM     38  C   UNL     1      -1.519 -11.005   0.871  1.00  0.00     0.031 C 
ATOM     39  C   UNL     1      -4.450  -8.369  -2.268  1.00  0.00     0.029 A 
ATOM     40  N   UNL     1      -3.962 -10.485  -2.796  1.00  0.00    -0.354 N 
ATOM     41  C   UNL     1      -1.407 -12.914  -0.387  1.00  0.00     0.074 A 
ATOM     42  C   UNL     1      -0.963 -12.205   0.794  1.00  0.00     0.031 C 
ATOM     43  C   UNL     1      -5.075  -8.653  -3.424  1.00  0.00     0.029 A 
ATOM     44  C   UNL     1      -4.757 -10.022  -3.818  1.00  0.00     0.049 A 
ATOM     45  H   UNL     1      -3.611 -11.404  -2.762  1.00  0.00     0.167 HD
ATOM     46  C   UNL     1      -1.084 -14.202  -0.658  1.00  0.00     0.031 A 
ATOM     47  C   UNL     1      -5.177 -10.622  -4.950  1.00  0.00     0.031 A 
ATOM     48  C   UNL     1      -1.546 -14.945  -1.798  1.00  0.00     0.049 A 
ATOM     49  C   UNL     1      -4.783 -12.046  -5.245  1.00  0.00     0.074 A 
ATOM     50  C   UNL     1      -1.303 -16.271  -2.117  1.00  0.00     0.029 A 
ATOM     51  N   UNL     1      -2.354 -14.436  -2.799  1.00  0.00    -0.354 N 
ATOM     52  N   UNL     1      -4.050 -12.866  -4.534  1.00  0.00    -0.248 NA
ATOM     53  C   UNL     1      -5.289 -12.627  -6.500  1.00  0.00     0.031 C 
ATOM     54  C   UNL     1      -1.937 -16.555  -3.331  1.00  0.00     0.029 A 
ATOM     55  C   UNL     1      -2.607 -15.416  -3.744  1.00  0.00     0.049 A 
ATOM     56  H   UNL     1      -2.698 -13.514  -2.835  1.00  0.00     0.167 HD
ATOM     57  C   UNL     1      -4.038 -14.066  -5.236  1.00  0.00     0.074 A 
ATOM     58  C   UNL     1      -4.840 -13.872  -6.423  1.00  0.00     0.031 C 
ATOM     59  C   UNL     1      -3.416 -15.227  -4.918  1.00  0.00     0.031 A 
BRANCH  46  60
ATOM     60  C   UNL     1      -0.173 -14.899   0.312  1.00  0.00    -0.014 A 
ATOM     61  C   UNL     1      -0.633 -15.305   1.574  1.00  0.00     0.009 A 
ATOM     62  C   UNL     1       1.151 -15.183  -0.057  1.00  0.00     0.009 A 
ATOM     63  C   UNL     1       0.227 -15.950   2.463  1.00  0.00     0.001 A 
ATOM     64  C   UNL     1       2.001 -15.852   0.825  1.00  0.00     0.001 A 
ATOM     65  C   UNL     1       1.541 -16.227   2.087  1.00  0.00     0.000 A 
ENDBRANCH  46  60
BRANCH  47  66
ATOM     66  C   UNL     1      -6.032  -9.886  -5.918  1.00  0.00    -0.014 A 
ATOM     67  C   UNL     1      -7.388 -10.219  -6.064  1.00  0.00     0.009 A 
ATOM     68  C   UNL     1      -5.483  -8.894  -6.744  1.00  0.00     0.009 A 
ATOM     69  C   UNL     1      -8.168  -9.597  -7.041  1.00  0.00     0.001 A 
ATOM     70  C   UNL     1      -6.273  -8.256  -7.703  1.00  0.00     0.001 A 
ATOM     71  C   UNL     1      -7.610  -8.616  -7.859  1.00  0.00     0.000 A 
ENDBRANCH  47  66
BRANCH  59  72
ATOM     72  C   UNL     1      -3.613 -16.397  -5.839  1.00  0.00    -0.014 A 
ATOM     73  C   UNL     1      -2.977 -16.458  -7.088  1.00  0.00     0.009 A 
ATOM     74  C   UNL     1      -4.414 -17.476  -5.430  1.00  0.00     0.009 A 
ATOM     75  C   UNL     1      -3.160 -17.565  -7.921  1.00  0.00     0.001 A 
ATOM     76  C   UNL     1      -4.576 -18.591  -6.254  1.00  0.00     0.001 A 
ATOM     77  C   UNL     1      -3.955 -18.632  -7.501  1.00  0.00     0.000 A 
ENDBRANCH  59  72
ENDBRANCH  33  34
ENDBRANCH  25  28
ENDBRANCH  23  24
ENDBRANCH  22  23
ENDBRANCH   1  22
TORSDOF 13
