REMARK SMILES CC[C@H](C)N1C(=O)c2ccccc2[C@@H](C(=O)NCCCNC(=O)c2ccc(-c3c4nc(c(-c5ccccc5)c5ccc([nH]5)c(-c5ccccc5)c5nc(c(-c6ccccc6)c6ccc3[nH]6)C=C5)C=C4)cc2)C12CCCCC2
REMARK SMILES IDX 19 1 18 2 17 3 15 4 16 5 14 7 5 8 6 9 72 10 7 11 8 12 73 13
REMARK SMILES IDX 77 14 9 15 13 16 74 17 76 18 10 19 12 20 75 21 11 22 3 23
REMARK SMILES IDX 4 24 2 25 1 26 20 27 21 28 22 29 23 31 24 32 25 33 71 34
REMARK SMILES IDX 26 35 70 36 27 37 28 38 29 39 64 40 30 41 69 42 63 43 65 44
REMARK SMILES IDX 31 45 68 46 62 47 61 48 32 50 54 51 39 52 53 53 40 54 43 55
REMARK SMILES IDX 52 56 66 57 41 58 42 59 51 61 67 62 44 63 33 64 34 65 38 66
REMARK SMILES IDX 35 67 37 68 36 69 55 70 56 71 60 72 57 73 59 74 58 75 45 76
REMARK SMILES IDX 46 77 50 78 47 79 49 80 48 81
REMARK H PARENT 17 6 21 30 65 49 43 60
REMARK Flexibility Score: inf
ROOT
ATOM      1  C   UNL     1       0.804  -6.819  -4.573  1.00  0.00     0.042 C 
ENDROOT
BRANCH   1   2
ATOM      2  C   UNL     1      -0.009  -7.255  -3.357  1.00  0.00     0.117 C 
BRANCH   2   3
ATOM      3  N   UNL     1       0.782  -7.878  -2.302  1.00  0.00    -0.355 N 
ATOM      4  C   UNL     1       1.070  -7.546  -1.012  1.00  0.00     0.229 C 
ATOM      5  O   UNL     1       1.731  -8.380  -0.383  1.00  0.00    -0.274 OA
ATOM      6  H   UNL     1       1.199  -8.725  -2.583  1.00  0.00     0.163 HD
BRANCH   4   7
ATOM      7  C   UNL     1       0.573  -6.261  -0.321  1.00  0.00     0.135 C 
ATOM      8  N   UNL     1       0.514  -3.705  -0.465  1.00  0.00    -0.329 N 
ATOM      9  C   UNL     1      -0.785  -3.725  -0.989  1.00  0.00     0.254 C 
ATOM     10  C   UNL     1       1.428  -4.938  -0.544  1.00  0.00     0.059 C 
ATOM     11  O   UNL     1      -1.401  -2.733  -1.369  1.00  0.00    -0.269 OA
ATOM     12  C   UNL     1      -1.523  -5.003  -0.971  1.00  0.00     0.044 A 
ATOM     13  C   UNL     1       2.145  -4.802  -1.912  1.00  0.00     0.030 C 
ATOM     14  C   UNL     1       2.572  -4.909   0.539  1.00  0.00     0.030 C 
ATOM     15  C   UNL     1      -2.876  -5.017  -1.349  1.00  0.00     0.014 A 
ATOM     16  C   UNL     1      -0.928  -6.163  -0.497  1.00  0.00    -0.020 A 
ATOM     17  C   UNL     1       3.323  -5.740  -2.186  1.00  0.00     0.002 C 
ATOM     18  C   UNL     1       3.701  -5.917   0.321  1.00  0.00     0.002 C 
ATOM     19  C   UNL     1      -3.648  -6.169  -1.197  1.00  0.00     0.001 A 
ATOM     20  C   UNL     1      -1.739  -7.296  -0.264  1.00  0.00     0.005 A 
ATOM     21  C   UNL     1       4.339  -5.774  -1.055  1.00  0.00     0.000 C 
ATOM     22  C   UNL     1      -3.085  -7.301  -0.621  1.00  0.00     0.000 A 
BRANCH   8  23
ATOM     23  C   UNL     1       1.017  -2.419   0.094  1.00  0.00     0.082 C 
ATOM     24  C   UNL     1       0.668  -1.147  -0.697  1.00  0.00     0.031 C 
BRANCH  23  25
ATOM     25  C   UNL     1       0.561  -2.314   1.562  1.00  0.00     0.021 C 
ATOM     26  C   UNL     1       1.390  -1.337   2.378  1.00  0.00     0.006 C 
ENDBRANCH  23  25
ENDBRANCH   8  23
ENDBRANCH   4   7
ENDBRANCH   2   3
ENDBRANCH   1   2
BRANCH   1  27
ATOM     27  C   UNL     1       1.835  -7.824  -5.056  1.00  0.00     0.118 C 
BRANCH  27  28
ATOM     28  N   UNL     1       1.296  -8.705  -6.073  1.00  0.00    -0.352 N 
ATOM     29  C   UNL     1       1.570  -8.719  -7.418  1.00  0.00     0.251 C 
ATOM     30  H   UNL     1       0.650  -9.379  -5.759  1.00  0.00     0.163 HD
ATOM     31  O   UNL     1       0.845  -9.349  -8.188  1.00  0.00    -0.269 OA
BRANCH  29  32
ATOM     32  C   UNL     1       2.720  -7.952  -7.948  1.00  0.00     0.039 A 
ATOM     33  C   UNL     1       3.960  -7.979  -7.302  1.00  0.00     0.014 A 
ATOM     34  C   UNL     1       2.557  -7.193  -9.109  1.00  0.00     0.014 A 
ATOM     35  C   UNL     1       4.981  -7.133  -7.724  1.00  0.00     0.010 A 
ATOM     36  C   UNL     1       3.616  -6.416  -9.587  1.00  0.00     0.010 A 
ATOM     37  C   UNL     1       4.827  -6.348  -8.877  1.00  0.00    -0.014 A 
BRANCH  37  38
ATOM     38  C   UNL     1       5.939  -5.476  -9.340  1.00  0.00     0.031 A 
ATOM     39  C   UNL     1       5.772  -3.981  -9.401  1.00  0.00     0.074 A 
ATOM     40  C   UNL     1       7.116  -6.032  -9.692  1.00  0.00     0.049 A 
ATOM     41  N   UNL     1       6.624  -3.074  -9.811  1.00  0.00    -0.248 NA
ATOM     42  C   UNL     1       4.486  -3.429  -8.945  1.00  0.00     0.031 C 
ATOM     43  C   UNL     1       7.415  -7.465  -9.652  1.00  0.00     0.029 A 
ATOM     44  N   UNL     1       8.283  -5.462 -10.136  1.00  0.00    -0.354 N 
ATOM     45  C   UNL     1       5.973  -1.854  -9.682  1.00  0.00     0.074 A 
ATOM     46  C   UNL     1       4.644  -2.134  -9.185  1.00  0.00     0.031 C 
ATOM     47  C   UNL     1       8.693  -7.657 -10.009  1.00  0.00     0.029 A 
ATOM     48  C   UNL     1       9.283  -6.374 -10.377  1.00  0.00     0.049 A 
ATOM     49  H   UNL     1       8.394  -4.493 -10.269  1.00  0.00     0.167 HD
ATOM     50  C   UNL     1       6.445  -0.612  -9.943  1.00  0.00     0.031 A 
ATOM     51  C   UNL     1      10.530  -6.209 -10.860  1.00  0.00     0.031 A 
ATOM     52  C   UNL     1       7.773  -0.336 -10.427  1.00  0.00     0.049 A 
ATOM     53  C   UNL     1      11.007  -4.827 -11.206  1.00  0.00     0.074 A 
ATOM     54  C   UNL     1       8.345   0.896 -10.698  1.00  0.00     0.029 A 
ATOM     55  N   UNL     1       8.732  -1.295 -10.710  1.00  0.00    -0.354 N 
ATOM     56  N   UNL     1      10.383  -3.683 -11.065  1.00  0.00    -0.248 NA
ATOM     57  C   UNL     1      12.358  -4.708 -11.773  1.00  0.00     0.031 C 
ATOM     58  C   UNL     1       9.623   0.678 -11.213  1.00  0.00     0.029 A 
ATOM     59  C   UNL     1       9.881  -0.683 -11.183  1.00  0.00     0.049 A 
ATOM     60  H   UNL     1       8.615  -2.265 -10.592  1.00  0.00     0.167 HD
ATOM     61  C   UNL     1      11.270  -2.709 -11.503  1.00  0.00     0.074 A 
ATOM     62  C   UNL     1      12.483  -3.393 -11.900  1.00  0.00     0.031 C 
ATOM     63  C   UNL     1      11.089  -1.368 -11.569  1.00  0.00     0.031 A 
BRANCH  50  64
ATOM     64  C   UNL     1       5.529   0.562  -9.722  1.00  0.00    -0.014 A 
ATOM     65  C   UNL     1       5.108   1.333 -10.819  1.00  0.00     0.009 A 
ATOM     66  C   UNL     1       5.173   0.976  -8.429  1.00  0.00     0.009 A 
ATOM     67  C   UNL     1       4.370   2.502 -10.626  1.00  0.00     0.001 A 
ATOM     68  C   UNL     1       4.407   2.129  -8.241  1.00  0.00     0.001 A 
ATOM     69  C   UNL     1       4.017   2.897  -9.337  1.00  0.00     0.000 A 
ENDBRANCH  50  64
BRANCH  51  70
ATOM     70  C   UNL     1      11.407  -7.399 -11.034  1.00  0.00    -0.014 A 
ATOM     71  C   UNL     1      11.087  -8.393 -11.974  1.00  0.00     0.009 A 
ATOM     72  C   UNL     1      12.534  -7.579 -10.218  1.00  0.00     0.009 A 
ATOM     73  C   UNL     1      11.853  -9.556 -12.069  1.00  0.00     0.001 A 
ATOM     74  C   UNL     1      13.319  -8.728 -10.340  1.00  0.00     0.001 A 
ATOM     75  C   UNL     1      12.971  -9.721 -11.255  1.00  0.00     0.000 A 
ENDBRANCH  51  70
BRANCH  63  76
ATOM     76  C   UNL     1      12.228  -0.518 -12.063  1.00  0.00    -0.014 A 
ATOM     77  C   UNL     1      12.860   0.376 -11.181  1.00  0.00     0.009 A 
ATOM     78  C   UNL     1      12.585  -0.499 -13.419  1.00  0.00     0.009 A 
ATOM     79  C   UNL     1      13.803   1.290 -11.651  1.00  0.00     0.001 A 
ATOM     80  C   UNL     1      13.554   0.395 -13.881  1.00  0.00     0.001 A 
ATOM     81  C   UNL     1      14.151   1.298 -13.000  1.00  0.00     0.000 A 
ENDBRANCH  63  76
ENDBRANCH  37  38
ENDBRANCH  29  32
ENDBRANCH  27  28
ENDBRANCH   1  27
TORSDOF 12
