REMARK SMILES O=C(NCCCNC(=O)c1ccc(Cn2cc(Br)cc([N+](=O)[O-])c2=O)nc1)c1ccc(-c2c3nc(c(-c4ccccc4)c4ccc([nH]4)c(-c4ccccc4)c4nc(c(-c5ccccc5)c5ccc2[nH]5)C=C4)C=C3)cc1
REMARK SMILES IDX 5 1 4 2 3 3 1 4 2 5 28 7 29 8 75 9 30 10 74 11 31 12 32 13
REMARK SMILES IDX 33 14 68 15 34 16 73 17 67 18 69 19 35 20 72 21 66 22 65 23
REMARK SMILES IDX 36 25 58 26 43 27 57 28 44 29 47 30 56 31 70 32 45 33 46 34
REMARK SMILES IDX 55 36 71 37 48 38 37 39 38 40 42 41 39 42 41 43 40 44 59 45
REMARK SMILES IDX 60 46 64 47 61 48 63 49 62 50 49 51 50 52 54 53 51 54 53 55
REMARK SMILES IDX 52 56 6 57 7 58 8 59 9 61 10 62 11 63 27 64 12 65 26 66
REMARK SMILES IDX 13 67 14 68 15 69 16 70 24 71 17 72 20 73 25 74 18 75 19 76
REMARK SMILES IDX 21 77 22 78 23 79
REMARK H PARENT 3 6 69 24 47 35 7 60
REMARK Flexibility Score: inf
ROOT
ATOM      1  C   UNL     1       4.868  -1.056  -2.203  1.00  0.00     0.042 C 
ENDROOT
BRANCH   1   2
ATOM      2  C   UNL     1       4.533   0.142  -1.323  1.00  0.00     0.118 C 
BRANCH   2   3
ATOM      3  N   UNL     1       3.102   0.279  -1.090  1.00  0.00    -0.352 N 
ATOM      4  O   UNL     1       1.134   0.100  -0.037  1.00  0.00    -0.269 OA
ATOM      5  C   UNL     1       2.358   0.160   0.055  1.00  0.00     0.251 C 
ATOM      6  H   UNL     1       2.578   0.494  -1.895  1.00  0.00     0.163 HD
BRANCH   5   7
ATOM      7  C   UNL     1       2.992   0.110   1.391  1.00  0.00     0.039 A 
ATOM      8  C   UNL     1       2.383  -0.659   2.390  1.00  0.00     0.014 A 
ATOM      9  C   UNL     1       4.114   0.880   1.703  1.00  0.00     0.014 A 
ATOM     10  C   UNL     1       2.906  -0.668   3.685  1.00  0.00     0.010 A 
ATOM     11  C   UNL     1       4.689   0.800   2.969  1.00  0.00     0.010 A 
ATOM     12  C   UNL     1       4.070   0.056   3.983  1.00  0.00    -0.014 A 
BRANCH  12  13
ATOM     13  C   UNL     1       4.608   0.117   5.366  1.00  0.00     0.031 A 
ATOM     14  C   UNL     1       4.631   1.432   6.099  1.00  0.00     0.074 A 
ATOM     15  C   UNL     1       5.103  -0.990   5.951  1.00  0.00     0.049 A 
ATOM     16  N   UNL     1       5.114   1.708   7.285  1.00  0.00    -0.248 NA
ATOM     17  C   UNL     1       4.059   2.597   5.402  1.00  0.00     0.031 C 
ATOM     18  C   UNL     1       5.151  -2.320   5.342  1.00  0.00     0.029 A 
ATOM     19  N   UNL     1       5.659  -1.171   7.194  1.00  0.00    -0.354 N 
ATOM     20  C   UNL     1       4.924   3.074   7.460  1.00  0.00     0.074 A 
ATOM     21  C   UNL     1       4.332   3.582   6.244  1.00  0.00     0.031 C 
ATOM     22  C   UNL     1       5.677  -3.185   6.223  1.00  0.00     0.029 A 
ATOM     23  C   UNL     1       6.043  -2.467   7.441  1.00  0.00     0.049 A 
ATOM     24  H   UNL     1       5.771  -0.442   7.845  1.00  0.00     0.167 HD
ATOM     25  C   UNL     1       5.194   3.833   8.547  1.00  0.00     0.031 A 
ATOM     26  C   UNL     1       6.627  -3.016   8.524  1.00  0.00     0.031 A 
ATOM     27  C   UNL     1       5.749   3.319   9.769  1.00  0.00     0.049 A 
ATOM     28  C   UNL     1       6.929  -2.151   9.717  1.00  0.00     0.074 A 
ATOM     29  C   UNL     1       6.002   4.000  10.947  1.00  0.00     0.029 A 
ATOM     30  N   UNL     1       6.128   2.002   9.974  1.00  0.00    -0.354 N 
ATOM     31  N   UNL     1       6.698  -0.871   9.885  1.00  0.00    -0.248 NA
ATOM     32  C   UNL     1       7.560  -2.805  10.873  1.00  0.00     0.031 C 
ATOM     33  C   UNL     1       6.590   3.108  11.845  1.00  0.00     0.029 A 
ATOM     34  C   UNL     1       6.638   1.856  11.251  1.00  0.00     0.049 A 
ATOM     35  H   UNL     1       6.047   1.280   9.310  1.00  0.00     0.167 HD
ATOM     36  C   UNL     1       7.133  -0.571  11.170  1.00  0.00     0.074 A 
ATOM     37  C   UNL     1       7.628  -1.806  11.744  1.00  0.00     0.031 C 
ATOM     38  C   UNL     1       7.123   0.621  11.813  1.00  0.00     0.031 A 
BRANCH  25  39
ATOM     39  C   UNL     1       4.884   5.303   8.477  1.00  0.00    -0.014 A 
ATOM     40  C   UNL     1       5.930   6.239   8.511  1.00  0.00     0.009 A 
ATOM     41  C   UNL     1       3.559   5.767   8.463  1.00  0.00     0.009 A 
ATOM     42  C   UNL     1       5.657   7.607   8.543  1.00  0.00     0.001 A 
ATOM     43  C   UNL     1       3.289   7.137   8.463  1.00  0.00     0.001 A 
ATOM     44  C   UNL     1       4.337   8.055   8.513  1.00  0.00     0.000 A 
ENDBRANCH  25  39
BRANCH  26  45
ATOM     45  C   UNL     1       6.931  -4.472   8.531  1.00  0.00    -0.014 A 
ATOM     46  C   UNL     1       7.929  -5.001   7.697  1.00  0.00     0.009 A 
ATOM     47  C   UNL     1       6.188  -5.349   9.336  1.00  0.00     0.009 A 
ATOM     48  C   UNL     1       8.161  -6.378   7.651  1.00  0.00     0.001 A 
ATOM     49  C   UNL     1       6.442  -6.722   9.310  1.00  0.00     0.001 A 
ATOM     50  C   UNL     1       7.421  -7.237   8.461  1.00  0.00     0.000 A 
ENDBRANCH  26  45
BRANCH  38  51
ATOM     51  C   UNL     1       7.644   0.671  13.222  1.00  0.00    -0.014 A 
ATOM     52  C   UNL     1       6.758   0.928  14.281  1.00  0.00     0.009 A 
ATOM     53  C   UNL     1       9.019   0.590  13.489  1.00  0.00     0.009 A 
ATOM     54  C   UNL     1       7.240   1.126  15.576  1.00  0.00     0.001 A 
ATOM     55  C   UNL     1       9.495   0.758  14.791  1.00  0.00     0.001 A 
ATOM     56  C   UNL     1       8.607   1.038  15.830  1.00  0.00     0.000 A 
ENDBRANCH  38  51
ENDBRANCH  12  13
ENDBRANCH   5   7
ENDBRANCH   2   3
ENDBRANCH   1   2
BRANCH   1  57
ATOM     57  C   UNL     1       4.214  -1.022  -3.580  1.00  0.00     0.118 C 
BRANCH  57  58
ATOM     58  N   UNL     1       4.662   0.106  -4.382  1.00  0.00    -0.352 N 
ATOM     59  C   UNL     1       5.556   0.136  -5.421  1.00  0.00     0.252 C 
ATOM     60  H   UNL     1       4.264   0.975  -4.144  1.00  0.00     0.163 HD
ATOM     61  O   UNL     1       5.963   1.209  -5.858  1.00  0.00    -0.269 OA
BRANCH  59  62
ATOM     62  C   UNL     1       6.052  -1.120  -5.997  1.00  0.00     0.058 A 
ATOM     63  C   UNL     1       5.201  -2.124  -6.457  1.00  0.00     0.017 A 
ATOM     64  C   UNL     1       7.415  -1.315  -6.094  1.00  0.00     0.125 A 
ATOM     65  C   UNL     1       5.745  -3.326  -6.910  1.00  0.00     0.026 A 
ATOM     66  N   UNL     1       7.962  -2.474  -6.528  1.00  0.00    -0.259 NA
ATOM     67  C   UNL     1       7.130  -3.477  -6.908  1.00  0.00     0.060 A 
BRANCH  67  68
ATOM     68  C   UNL     1       7.781  -4.774  -7.351  1.00  0.00     0.181 C 
BRANCH  68  69
ATOM     69  N   UNL     1       8.424  -4.634  -8.658  1.00  0.00    -0.303 N 
ATOM     70  C   UNL     1       7.765  -5.060  -9.805  1.00  0.00     0.105 A 
ATOM     71  C   UNL     1       9.708  -4.059  -8.703  1.00  0.00     0.329 A 
ATOM     72  C   UNL     1       8.290  -4.877 -11.027  1.00  0.00     0.041 A 
ATOM     73  C   UNL     1      10.160  -3.699 -10.065  1.00  0.00     0.335 A 
ATOM     74  O   UNL     1      10.425  -3.926  -7.714  1.00  0.00    -0.261 OA
ATOM     75  Br  UNL     1       7.465  -5.510 -12.571  1.00  0.00    -0.049 Br
ATOM     76  C   UNL     1       9.510  -4.114 -11.165  1.00  0.00     0.109 A 
BRANCH  73  77
ATOM     77  N   UNL     1      11.309  -2.849 -10.234  1.00  0.00     0.068 N 
ATOM     78  O   UNL     1      11.447  -1.900  -9.453  1.00  0.00    -0.258 OA
ATOM     79  O   UNL     1      12.050  -3.078 -11.203  1.00  0.00    -0.258 OA
ENDBRANCH  73  77
ENDBRANCH  68  69
ENDBRANCH  67  68
ENDBRANCH  59  62
ENDBRANCH  57  58
ENDBRANCH   1  57
TORSDOF 13
