REMARK SMILES CCCc1cc2c(cc1Cl)C=C(C(=O)NCCCNC(=O)c1ccc(-c3c4nc(c(-c5ccccc5)c5ccc([nH]5)c(-c5ccccc5)c5nc(c(-c6ccccc6)c6ccc3[nH]6)C=C5)C=C4)cc1)[C@@H](C(F)(F)F)O2
REMARK SMILES IDX 17 1 16 2 15 3 13 4 14 5 12 7 4 8 5 9 9 10 6 11 8 12 10 13
REMARK SMILES IDX 7 14 75 15 11 16 70 17 3 18 2 19 1 20 71 21 72 22 73 23
REMARK SMILES IDX 74 24 18 25 19 26 20 27 21 29 22 30 23 31 69 32 24 33 68 34
REMARK SMILES IDX 25 35 26 36 27 37 62 38 28 39 67 40 61 41 63 42 29 43 66 44
REMARK SMILES IDX 60 45 59 46 30 48 52 49 37 50 51 51 38 52 41 53 50 54 64 55
REMARK SMILES IDX 39 56 40 57 49 59 65 60 42 61 31 62 32 63 36 64 33 65 35 66
REMARK SMILES IDX 34 67 53 68 54 69 58 70 55 71 57 72 56 73 43 74 44 75 48 76
REMARK SMILES IDX 45 77 47 78 46 79
REMARK H PARENT 15 6 19 28 63 47 41 58
REMARK Flexibility Score: inf
ROOT
ATOM      1  C   UNL     1      -3.360   4.687  -6.511  1.00  0.00     0.042 C 
ENDROOT
BRANCH   1   2
ATOM      2  C   UNL     1      -1.861   4.930  -6.413  1.00  0.00     0.118 C 
BRANCH   2   3
ATOM      3  N   UNL     1      -1.553   6.112  -5.623  1.00  0.00    -0.352 N 
ATOM      4  C   UNL     1      -1.142   6.382  -4.362  1.00  0.00     0.251 C 
ATOM      5  O   UNL     1      -1.010   7.581  -4.098  1.00  0.00    -0.270 OA
ATOM      6  H   UNL     1      -1.676   6.937  -6.146  1.00  0.00     0.163 HD
BRANCH   4   7
ATOM      7  C   UNL     1      -0.855   5.360  -3.317  1.00  0.00     0.067 C 
ATOM      8  C   UNL     1       0.549   2.866   0.825  1.00  0.00    -0.026 A 
ATOM      9  C   UNL     1      -0.290   2.579  -0.261  1.00  0.00     0.052 A 
ATOM     10  C   UNL     1       0.999   4.196   0.968  1.00  0.00     0.045 A 
ATOM     11  C   UNL     1      -0.569   3.551  -1.218  1.00  0.00     0.128 A 
ATOM     12  C   UNL     1       0.671   5.184   0.028  1.00  0.00     0.032 A 
ATOM     13  Cl  UNL     1       1.981   4.680   2.309  1.00  0.00    -0.084 Cl
ATOM     14  C   UNL     1      -0.096   4.855  -1.088  1.00  0.00     0.019 A 
ATOM     15  O   UNL     1      -1.318   3.158  -2.294  1.00  0.00    -0.475 OA
ATOM     16  C   UNL     1      -0.422   5.826  -2.128  1.00  0.00     0.025 C 
ATOM     17  C   UNL     1      -1.001   3.878  -3.518  1.00  0.00     0.314 C 
BRANCH   8  18
ATOM     18  C   UNL     1       0.958   1.793   1.818  1.00  0.00     0.037 C 
BRANCH  18  19
ATOM     19  C   UNL     1       0.618   0.329   1.496  1.00  0.00     0.001 C 
ATOM     20  C   UNL     1       1.422  -0.249   0.336  1.00  0.00     0.004 C 
ENDBRANCH  18  19
ENDBRANCH   8  18
BRANCH  17  21
ATOM     21  C   UNL     1       0.228   3.244  -4.206  1.00  0.00     0.429 C 
ATOM     22  F   UNL     1      -0.088   2.018  -4.696  1.00  0.00    -0.167 F 
ATOM     23  F   UNL     1       0.665   3.977  -5.258  1.00  0.00    -0.167 F 
ATOM     24  F   UNL     1       1.283   3.088  -3.378  1.00  0.00    -0.167 F 
ENDBRANCH  17  21
ENDBRANCH   4   7
ENDBRANCH   2   3
ENDBRANCH   1   2
BRANCH   1  25
ATOM     25  C   UNL     1      -4.031   5.608  -7.522  1.00  0.00     0.118 C 
BRANCH  25  26
ATOM     26  N   UNL     1      -3.630   5.307  -8.894  1.00  0.00    -0.352 N 
ATOM     27  C   UNL     1      -4.353   4.790  -9.942  1.00  0.00     0.251 C 
ATOM     28  H   UNL     1      -2.688   5.506  -9.101  1.00  0.00     0.163 HD
ATOM     29  O   UNL     1      -3.772   4.402 -10.952  1.00  0.00    -0.269 OA
BRANCH  27  30
ATOM     30  C   UNL     1      -5.822   4.684  -9.849  1.00  0.00     0.039 A 
ATOM     31  C   UNL     1      -6.567   5.710  -9.271  1.00  0.00     0.014 A 
ATOM     32  C   UNL     1      -6.464   3.546 -10.347  1.00  0.00     0.014 A 
ATOM     33  C   UNL     1      -7.915   5.516  -9.009  1.00  0.00     0.010 A 
ATOM     34  C   UNL     1      -7.845   3.401 -10.182  1.00  0.00     0.010 A 
ATOM     35  C   UNL     1      -8.572   4.362  -9.464  1.00  0.00    -0.014 A 
BRANCH  35  36
ATOM     36  C   UNL     1     -10.018   4.198  -9.173  1.00  0.00     0.031 A 
ATOM     37  C   UNL     1     -10.506   3.081  -8.292  1.00  0.00     0.074 A 
ATOM     38  C   UNL     1     -10.883   5.121  -9.634  1.00  0.00     0.049 A 
ATOM     39  N   UNL     1     -11.726   2.828  -7.889  1.00  0.00    -0.248 NA
ATOM     40  C   UNL     1      -9.502   2.124  -7.799  1.00  0.00     0.031 C 
ATOM     41  C   UNL     1     -10.520   6.265 -10.475  1.00  0.00     0.029 A 
ATOM     42  N   UNL     1     -12.229   5.276  -9.424  1.00  0.00    -0.354 N 
ATOM     43  C   UNL     1     -11.638   1.680  -7.112  1.00  0.00     0.074 A 
ATOM     44  C   UNL     1     -10.253   1.265  -7.124  1.00  0.00     0.031 C 
ATOM     45  C   UNL     1     -11.596   7.047 -10.638  1.00  0.00     0.029 A 
ATOM     46  C   UNL     1     -12.740   6.422  -9.983  1.00  0.00     0.049 A 
ATOM     47  H   UNL     1     -12.776   4.629  -8.922  1.00  0.00     0.167 HD
ATOM     48  C   UNL     1     -12.622   1.036  -6.440  1.00  0.00     0.031 A 
ATOM     49  C   UNL     1     -13.991   6.919  -9.980  1.00  0.00     0.031 A 
ATOM     50  C   UNL     1     -14.000   1.452  -6.432  1.00  0.00     0.049 A 
ATOM     51  C   UNL     1     -15.074   6.162  -9.273  1.00  0.00     0.074 A 
ATOM     52  C   UNL     1     -15.074   0.855  -5.795  1.00  0.00     0.029 A 
ATOM     53  N   UNL     1     -14.492   2.572  -7.085  1.00  0.00    -0.354 N 
ATOM     54  N   UNL     1     -14.979   5.060  -8.570  1.00  0.00    -0.248 NA
ATOM     55  C   UNL     1     -16.435   6.707  -9.365  1.00  0.00     0.031 C 
ATOM     56  C   UNL     1     -16.225   1.587  -6.104  1.00  0.00     0.029 A 
ATOM     57  C   UNL     1     -15.858   2.674  -6.881  1.00  0.00     0.049 A 
ATOM     58  H   UNL     1     -13.951   3.201  -7.614  1.00  0.00     0.167 HD
ATOM     59  C   UNL     1     -16.266   4.775  -8.137  1.00  0.00     0.074 A 
ATOM     60  C   UNL     1     -17.119   5.835  -8.635  1.00  0.00     0.031 C 
ATOM     61  C   UNL     1     -16.698   3.724  -7.399  1.00  0.00     0.031 A 
BRANCH  48  62
ATOM     62  C   UNL     1     -12.249  -0.201  -5.671  1.00  0.00    -0.014 A 
ATOM     63  C   UNL     1     -12.694  -1.458  -6.112  1.00  0.00     0.009 A 
ATOM     64  C   UNL     1     -11.510  -0.122  -4.481  1.00  0.00     0.009 A 
ATOM     65  C   UNL     1     -12.408  -2.610  -5.375  1.00  0.00     0.001 A 
ATOM     66  C   UNL     1     -11.202  -1.279  -3.761  1.00  0.00     0.001 A 
ATOM     67  C   UNL     1     -11.657  -2.520  -4.204  1.00  0.00     0.000 A 
ENDBRANCH  48  62
BRANCH  49  68
ATOM     68  C   UNL     1     -14.255   8.204 -10.677  1.00  0.00    -0.014 A 
ATOM     69  C   UNL     1     -14.174   8.282 -12.077  1.00  0.00     0.009 A 
ATOM     70  C   UNL     1     -14.489   9.376  -9.944  1.00  0.00     0.009 A 
ATOM     71  C   UNL     1     -14.279   9.513 -12.727  1.00  0.00     0.001 A 
ATOM     72  C   UNL     1     -14.623  10.602 -10.599  1.00  0.00     0.001 A 
ATOM     73  C   UNL     1     -14.505  10.672 -11.987  1.00  0.00     0.000 A 
ENDBRANCH  49  68
BRANCH  61  74
ATOM     74  C   UNL     1     -18.163   3.654  -7.082  1.00  0.00    -0.014 A 
ATOM     75  C   UNL     1     -18.605   3.875  -5.768  1.00  0.00     0.009 A 
ATOM     76  C   UNL     1     -19.094   3.272  -8.060  1.00  0.00     0.009 A 
ATOM     77  C   UNL     1     -19.950   3.703  -5.436  1.00  0.00     0.001 A 
ATOM     78  C   UNL     1     -20.442   3.125  -7.730  1.00  0.00     0.001 A 
ATOM     79  C   UNL     1     -20.867   3.331  -6.418  1.00  0.00     0.000 A 
ENDBRANCH  61  74
ENDBRANCH  35  36
ENDBRANCH  27  30
ENDBRANCH  25  26
ENDBRANCH   1  25
TORSDOF 13
