REMARK SMILES C[C@H](C(=O)NCCCNC(=O)c1ccc(-c2c3nc(c(-c4ccccc4)c4ccc([nH]4)c(-c4ccccc4)c4nc(c(-c5ccccc5)c5ccc2[nH]5)C=C4)C=C3)cc1)c1ccc2c(c1)[nH]c1ccc(Cl)cc12
REMARK SMILES IDX 7 1 6 2 5 3 3 4 4 5 2 7 1 8 60 9 61 10 65 11 62 12 64 13
REMARK SMILES IDX 63 14 66 15 73 16 67 17 72 19 68 20 70 21 69 22 71 23 8 24
REMARK SMILES IDX 9 25 10 26 11 28 12 29 13 30 59 31 14 32 58 33 15 34 16 35
REMARK SMILES IDX 17 36 52 37 18 38 57 39 51 40 53 41 19 42 56 43 50 44 49 45
REMARK SMILES IDX 20 47 42 48 27 49 41 50 28 51 31 52 40 53 54 54 29 55 30 56
REMARK SMILES IDX 39 58 55 59 32 60 21 61 22 62 26 63 23 64 25 65 24 66 43 67
REMARK SMILES IDX 44 68 48 69 45 70 47 71 46 72 33 73 34 74 38 75 35 76 37 77
REMARK SMILES IDX 36 78
REMARK H PARENT 5 6 66 18 9 27 53 46 31 57
REMARK Flexibility Score: inf
ROOT
ATOM      1  C   UNL     1      -1.608   1.806   1.928  1.00  0.00     0.042 C 
ENDROOT
BRANCH   1   2
ATOM      2  C   UNL     1      -1.325   1.059   0.640  1.00  0.00     0.117 C 
BRANCH   2   3
ATOM      3  N   UNL     1       0.076   0.918   0.305  1.00  0.00    -0.356 N 
ATOM      4  C   UNL     1       0.699  -0.003  -0.476  1.00  0.00     0.227 C 
ATOM      5  O   UNL     1       1.798   0.356  -0.925  1.00  0.00    -0.274 OA
ATOM      6  H   UNL     1       0.669   1.594   0.705  1.00  0.00     0.163 HD
BRANCH   4   7
ATOM      7  C   UNL     1       0.268  -1.464  -0.657  1.00  0.00     0.105 C 
ATOM      8  C   UNL     1       1.055  -2.227   0.434  1.00  0.00     0.023 C 
BRANCH   7   9
ATOM      9  C   UNL     1      -1.211  -1.851  -0.732  1.00  0.00    -0.034 A 
ATOM     10  C   UNL     1      -2.171  -1.077  -1.403  1.00  0.00     0.005 A 
ATOM     11  C   UNL     1      -1.640  -3.057  -0.150  1.00  0.00     0.031 A 
ATOM     12  C   UNL     1      -3.553  -1.366  -1.313  1.00  0.00     0.011 A 
ATOM     13  C   UNL     1      -3.005  -3.337  -0.074  1.00  0.00     0.047 A 
ATOM     14  C   UNL     1      -3.985  -2.505  -0.598  1.00  0.00     0.007 A 
ATOM     15  N   UNL     1      -3.631  -4.403   0.515  1.00  0.00    -0.355 N 
ATOM     16  C   UNL     1      -5.253  -3.064  -0.210  1.00  0.00     0.009 A 
ATOM     17  C   UNL     1      -4.989  -4.221   0.527  1.00  0.00     0.047 A 
ATOM     18  H   UNL     1      -3.169  -5.192   0.880  1.00  0.00     0.167 HD
ATOM     19  C   UNL     1      -6.603  -2.685  -0.378  1.00  0.00     0.031 A 
ATOM     20  C   UNL     1      -5.979  -4.999   1.135  1.00  0.00     0.028 A 
ATOM     21  C   UNL     1      -7.606  -3.459   0.221  1.00  0.00     0.041 A 
ATOM     22  C   UNL     1      -7.301  -4.589   0.977  1.00  0.00     0.022 A 
ATOM     23  Cl  UNL     1      -9.257  -3.003   0.032  1.00  0.00    -0.084 Cl
ENDBRANCH   7   9
ENDBRANCH   4   7
ENDBRANCH   2   3
ENDBRANCH   1   2
BRANCH   1  24
ATOM     24  C   UNL     1      -0.958   3.169   2.068  1.00  0.00     0.118 C 
BRANCH  24  25
ATOM     25  N   UNL     1      -1.442   4.166   1.123  1.00  0.00    -0.352 N 
ATOM     26  C   UNL     1      -2.174   5.314   1.320  1.00  0.00     0.251 C 
ATOM     27  H   UNL     1      -1.204   3.989   0.184  1.00  0.00     0.163 HD
ATOM     28  O   UNL     1      -2.562   5.957   0.345  1.00  0.00    -0.269 OA
BRANCH  26  29
ATOM     29  C   UNL     1      -2.536   5.770   2.682  1.00  0.00     0.039 A 
ATOM     30  C   UNL     1      -3.791   6.349   2.897  1.00  0.00     0.014 A 
ATOM     31  C   UNL     1      -1.649   5.647   3.751  1.00  0.00     0.014 A 
ATOM     32  C   UNL     1      -4.170   6.736   4.186  1.00  0.00     0.010 A 
ATOM     33  C   UNL     1      -2.081   5.890   5.049  1.00  0.00     0.010 A 
ATOM     34  C   UNL     1      -3.332   6.475   5.282  1.00  0.00    -0.014 A 
BRANCH  34  35
ATOM     35  C   UNL     1      -3.707   6.868   6.665  1.00  0.00     0.031 A 
ATOM     36  C   UNL     1      -2.827   7.818   7.441  1.00  0.00     0.074 A 
ATOM     37  C   UNL     1      -4.802   6.341   7.247  1.00  0.00     0.049 A 
ATOM     38  N   UNL     1      -2.957   8.251   8.670  1.00  0.00    -0.248 NA
ATOM     39  C   UNL     1      -1.621   8.320   6.759  1.00  0.00     0.031 C 
ATOM     40  C   UNL     1      -5.706   5.366   6.632  1.00  0.00     0.029 A 
ATOM     41  N   UNL     1      -5.340   6.553   8.491  1.00  0.00    -0.354 N 
ATOM     42  C   UNL     1      -1.845   9.051   8.907  1.00  0.00     0.074 A 
ATOM     43  C   UNL     1      -1.011   8.977   7.731  1.00  0.00     0.031 C 
ATOM     44  C   UNL     1      -6.708   5.098   7.485  1.00  0.00     0.029 A 
ATOM     45  C   UNL     1      -6.497   5.848   8.719  1.00  0.00     0.049 A 
ATOM     46  H   UNL     1      -4.936   7.155   9.158  1.00  0.00     0.167 HD
ATOM     47  C   UNL     1      -1.556   9.813   9.988  1.00  0.00     0.031 A 
ATOM     48  C   UNL     1      -7.299   5.810   9.800  1.00  0.00     0.031 A 
ATOM     49  C   UNL     1      -2.393   9.902  11.153  1.00  0.00     0.049 A 
ATOM     50  C   UNL     1      -6.964   6.667  10.989  1.00  0.00     0.074 A 
ATOM     51  C   UNL     1      -2.218  10.679  12.284  1.00  0.00     0.029 A 
ATOM     52  N   UNL     1      -3.567   9.187  11.333  1.00  0.00    -0.354 N 
ATOM     53  N   UNL     1      -5.944   7.471  11.169  1.00  0.00    -0.248 NA
ATOM     54  C   UNL     1      -7.907   6.628  12.116  1.00  0.00     0.031 C 
ATOM     55  C   UNL     1      -3.261  10.395  13.172  1.00  0.00     0.029 A 
ATOM     56  C   UNL     1      -4.121   9.493  12.564  1.00  0.00     0.049 A 
ATOM     57  H   UNL     1      -3.950   8.556  10.682  1.00  0.00     0.167 HD
ATOM     58  C   UNL     1      -6.138   8.058  12.414  1.00  0.00     0.074 A 
ATOM     59  C   UNL     1      -7.383   7.530  12.934  1.00  0.00     0.031 C 
ATOM     60  C   UNL     1      -5.359   8.956  13.066  1.00  0.00     0.031 A 
BRANCH  47  61
ATOM     61  C   UNL     1      -0.280  10.611   9.946  1.00  0.00    -0.014 A 
ATOM     62  C   UNL     1      -0.113  11.673   9.040  1.00  0.00     0.009 A 
ATOM     63  C   UNL     1       0.770  10.302  10.824  1.00  0.00     0.009 A 
ATOM     64  C   UNL     1       1.094  12.373   8.979  1.00  0.00     0.001 A 
ATOM     65  C   UNL     1       1.963  11.028  10.786  1.00  0.00     0.001 A 
ATOM     66  C   UNL     1       2.129  12.052   9.855  1.00  0.00     0.000 A 
ENDBRANCH  47  61
BRANCH  48  67
ATOM     67  C   UNL     1      -8.514   4.952   9.795  1.00  0.00    -0.014 A 
ATOM     68  C   UNL     1      -9.796   5.524   9.757  1.00  0.00     0.009 A 
ATOM     69  C   UNL     1      -8.399   3.553   9.826  1.00  0.00     0.009 A 
ATOM     70  C   UNL     1     -10.934   4.714   9.781  1.00  0.00     0.001 A 
ATOM     71  C   UNL     1      -9.538   2.746   9.818  1.00  0.00     0.001 A 
ATOM     72  C   UNL     1     -10.805   3.327   9.806  1.00  0.00     0.000 A 
ENDBRANCH  48  67
BRANCH  60  73
ATOM     73  C   UNL     1      -5.856   9.460  14.394  1.00  0.00    -0.014 A 
ATOM     74  C   UNL     1      -5.897   8.633  15.527  1.00  0.00     0.009 A 
ATOM     75  C   UNL     1      -6.263  10.798  14.515  1.00  0.00     0.009 A 
ATOM     76  C   UNL     1      -6.378   9.124  16.742  1.00  0.00     0.001 A 
ATOM     77  C   UNL     1      -6.710  11.296  15.739  1.00  0.00     0.001 A 
ATOM     78  C   UNL     1      -6.779  10.456  16.848  1.00  0.00     0.000 A 
ENDBRANCH  60  73
ENDBRANCH  34  35
ENDBRANCH  26  29
ENDBRANCH  24  25
ENDBRANCH   1  24
TORSDOF 11
