REMARK SMILES CS(=O)(=O)c1ccc(-c2cc(Cl)cnc2-c2ccc(C(=O)NCCCNC(=O)c3ccc(-c4c5nc(c(-c6ccccc6)c6ccc([nH]6)c(-c6ccccc6)c6nc(c(-c7ccccc7)c7ccc4[nH]7)C=C6)C=C5)cc3)nc2)cc1
REMARK SMILES IDX 23 1 22 2 20 3 21 4 19 6 16 7 17 8 78 9 18 10 77 11 15 12
REMARK SMILES IDX 9 13 10 14 11 15 14 16 12 17 13 18 8 19 5 20 6 21 80 22 7 23
REMARK SMILES IDX 79 24 2 25 1 26 3 27 4 28 24 29 25 30 26 31 27 32 28 34
REMARK SMILES IDX 29 35 30 36 76 37 31 38 75 39 32 40 33 41 34 42 69 43 35 44
REMARK SMILES IDX 74 45 68 46 70 47 36 48 73 49 67 50 66 51 37 53 59 54 44 55
REMARK SMILES IDX 58 56 45 57 48 58 57 59 71 60 46 61 47 62 56 64 72 65 49 66
REMARK SMILES IDX 38 67 39 68 43 69 40 70 42 71 41 72 60 73 61 74 65 75 62 76
REMARK SMILES IDX 64 77 63 78 50 79 51 80 55 81 52 82 54 83 53 84
REMARK H PARENT 22 5 26 33 70 52 48 63
REMARK Flexibility Score: inf
ROOT
ATOM      1  C   UNL     1       0.680   1.414  -7.655  1.00  0.00     0.118 C 
ENDROOT
BRANCH   1   2
ATOM      2  N   UNL     1       2.069   1.506  -8.067  1.00  0.00    -0.351 N 
ATOM      3  C   UNL     1       3.098   2.362  -7.740  1.00  0.00     0.269 C 
ATOM      4  O   UNL     1       4.187   2.117  -8.265  1.00  0.00    -0.268 OA
ATOM      5  H   UNL     1       2.330   0.812  -8.715  1.00  0.00     0.163 HD
BRANCH   3   6
ATOM      6  C   UNL     1       2.967   3.517  -6.781  1.00  0.00     0.128 A 
ATOM      7  C   UNL     1       2.937   5.522  -4.862  1.00  0.00     0.019 A 
ATOM      8  C   UNL     1       1.753   5.135  -5.495  1.00  0.00     0.014 A 
ATOM      9  C   UNL     1       4.105   4.919  -5.308  1.00  0.00     0.122 A 
ATOM     10  C   UNL     1       1.769   4.146  -6.478  1.00  0.00     0.035 A 
ATOM     11  N   UNL     1       4.142   3.921  -6.224  1.00  0.00    -0.250 NA
BRANCH   7  12
ATOM     12  C   UNL     1       2.922   6.463  -3.740  1.00  0.00     0.080 A 
ATOM     13  C   UNL     1       2.366   6.127  -2.483  1.00  0.00     0.010 A 
ATOM     14  C   UNL     1       2.268   7.156  -1.534  1.00  0.00     0.033 A 
ATOM     15  C   UNL     1       2.728   8.432  -1.841  1.00  0.00     0.060 A 
ATOM     16  N   UNL     1       3.403   7.697  -4.039  1.00  0.00    -0.254 NA
ATOM     17  Cl  UNL     1       2.582   9.708  -0.703  1.00  0.00    -0.083 Cl
ATOM     18  C   UNL     1       3.294   8.651  -3.085  1.00  0.00     0.132 A 
BRANCH  13  19
ATOM     19  C   UNL     1       1.879   4.768  -2.171  1.00  0.00    -0.016 A 
ATOM     20  C   UNL     1       0.911   2.157  -1.796  1.00  0.00     0.067 A 
ATOM     21  C   UNL     1       2.262   2.357  -2.075  1.00  0.00     0.021 A 
ATOM     22  C   UNL     1       0.039   3.240  -1.684  1.00  0.00     0.021 A 
ATOM     23  C   UNL     1       2.742   3.657  -2.241  1.00  0.00     0.010 A 
ATOM     24  C   UNL     1       0.525   4.539  -1.868  1.00  0.00     0.010 A 
BRANCH  20  25
ATOM     25  S   UNL     1       0.292   0.497  -1.655  1.00  0.00     0.175 S 
ATOM     26  C   UNL     1       0.893  -0.038  -0.074  1.00  0.00     0.163 C 
ATOM     27  O   UNL     1       0.948  -0.287  -2.688  1.00  0.00    -0.224 OA
ATOM     28  O   UNL     1      -1.151   0.572  -1.585  1.00  0.00    -0.224 OA
ENDBRANCH  20  25
ENDBRANCH  13  19
ENDBRANCH   7  12
ENDBRANCH   3   6
ENDBRANCH   1   2
BRANCH   1  29
ATOM     29  C   UNL     1      -0.242   2.067  -8.687  1.00  0.00     0.042 C 
BRANCH  29  30
ATOM     30  C   UNL     1      -0.428   1.223  -9.948  1.00  0.00     0.118 C 
BRANCH  30  31
ATOM     31  N   UNL     1      -1.169  -0.003  -9.678  1.00  0.00    -0.352 N 
ATOM     32  C   UNL     1      -2.407  -0.405 -10.111  1.00  0.00     0.251 C 
ATOM     33  H   UNL     1      -0.708  -0.644  -9.091  1.00  0.00     0.163 HD
ATOM     34  O   UNL     1      -2.964  -1.357  -9.572  1.00  0.00    -0.269 OA
BRANCH  32  35
ATOM     35  C   UNL     1      -3.082   0.306 -11.216  1.00  0.00     0.039 A 
ATOM     36  C   UNL     1      -4.450   0.574 -11.113  1.00  0.00     0.014 A 
ATOM     37  C   UNL     1      -2.377   0.683 -12.361  1.00  0.00     0.014 A 
ATOM     38  C   UNL     1      -5.092   1.295 -12.122  1.00  0.00     0.010 A 
ATOM     39  C   UNL     1      -3.001   1.461 -13.333  1.00  0.00     0.010 A 
ATOM     40  C   UNL     1      -4.361   1.788 -13.214  1.00  0.00    -0.014 A 
BRANCH  40  41
ATOM     41  C   UNL     1      -4.979   2.690 -14.216  1.00  0.00     0.031 A 
ATOM     42  C   UNL     1      -5.086   2.273 -15.656  1.00  0.00     0.074 A 
ATOM     43  C   UNL     1      -5.362   3.926 -13.838  1.00  0.00     0.049 A 
ATOM     44  N   UNL     1      -5.483   2.972 -16.689  1.00  0.00    -0.248 NA
ATOM     45  C   UNL     1      -4.676   0.897 -15.981  1.00  0.00     0.031 C 
ATOM     46  C   UNL     1      -5.277   4.460 -12.476  1.00  0.00     0.029 A 
ATOM     47  N   UNL     1      -5.878   4.967 -14.569  1.00  0.00    -0.354 N 
ATOM     48  C   UNL     1      -5.365   2.126 -17.784  1.00  0.00     0.074 A 
ATOM     49  C   UNL     1      -4.814   0.879 -17.299  1.00  0.00     0.031 C 
ATOM     50  C   UNL     1      -5.733   5.722 -12.469  1.00  0.00     0.029 A 
ATOM     51  C   UNL     1      -6.091   6.106 -13.829  1.00  0.00     0.049 A 
ATOM     52  H   UNL     1      -6.077   4.904 -15.531  1.00  0.00     0.167 HD
ATOM     53  C   UNL     1      -5.704   2.361 -19.074  1.00  0.00     0.031 A 
ATOM     54  C   UNL     1      -6.499   7.332 -14.207  1.00  0.00     0.031 A 
ATOM     55  C   UNL     1      -6.243   3.606 -19.554  1.00  0.00     0.049 A 
ATOM     56  C   UNL     1      -6.809   7.584 -15.656  1.00  0.00     0.074 A 
ATOM     57  C   UNL     1      -6.652   3.930 -20.836  1.00  0.00     0.029 A 
ATOM     58  N   UNL     1      -6.442   4.733 -18.773  1.00  0.00    -0.354 N 
ATOM     59  N   UNL     1      -6.757   6.752 -16.668  1.00  0.00    -0.248 NA
ATOM     60  C   UNL     1      -7.236   8.944 -16.016  1.00  0.00     0.031 C 
ATOM     61  C   UNL     1      -7.044   5.272 -20.843  1.00  0.00     0.029 A 
ATOM     62  C   UNL     1      -6.936   5.765 -19.553  1.00  0.00     0.049 A 
ATOM     63  H   UNL     1      -6.260   4.792 -17.807  1.00  0.00     0.167 HD
ATOM     64  C   UNL     1      -7.158   7.482 -17.779  1.00  0.00     0.074 A 
ATOM     65  C   UNL     1      -7.479   8.815 -17.313  1.00  0.00     0.031 C 
ATOM     66  C   UNL     1      -7.246   7.086 -19.072  1.00  0.00     0.031 A 
BRANCH  53  67
ATOM     67  C   UNL     1      -5.501   1.246 -20.062  1.00  0.00    -0.014 A 
ATOM     68  C   UNL     1      -6.311   0.099 -20.034  1.00  0.00     0.009 A 
ATOM     69  C   UNL     1      -4.532   1.367 -21.070  1.00  0.00     0.009 A 
ATOM     70  C   UNL     1      -6.133  -0.916 -20.976  1.00  0.00     0.001 A 
ATOM     71  C   UNL     1      -4.376   0.364 -22.028  1.00  0.00     0.001 A 
ATOM     72  C   UNL     1      -5.171  -0.780 -21.976  1.00  0.00     0.000 A 
ENDBRANCH  53  67
BRANCH  54  73
ATOM     73  C   UNL     1      -6.605   8.428 -13.207  1.00  0.00    -0.014 A 
ATOM     74  C   UNL     1      -7.854   8.968 -12.864  1.00  0.00     0.009 A 
ATOM     75  C   UNL     1      -5.451   8.957 -12.606  1.00  0.00     0.009 A 
ATOM     76  C   UNL     1      -7.941  10.037 -11.968  1.00  0.00     0.001 A 
ATOM     77  C   UNL     1      -5.545  10.002 -11.685  1.00  0.00     0.001 A 
ATOM     78  C   UNL     1      -6.788  10.550 -11.377  1.00  0.00     0.000 A 
ENDBRANCH  54  73
BRANCH  66  79
ATOM     79  C   UNL     1      -7.721   8.102 -20.072  1.00  0.00    -0.014 A 
ATOM     80  C   UNL     1      -6.896   9.165 -20.471  1.00  0.00     0.009 A 
ATOM     81  C   UNL     1      -8.985   7.960 -20.665  1.00  0.00     0.009 A 
ATOM     82  C   UNL     1      -7.339  10.080 -21.427  1.00  0.00     0.001 A 
ATOM     83  C   UNL     1      -9.412   8.859 -21.643  1.00  0.00     0.001 A 
ATOM     84  C   UNL     1      -8.592   9.922 -22.018  1.00  0.00     0.000 A 
ENDBRANCH  66  79
ENDBRANCH  40  41
ENDBRANCH  32  35
ENDBRANCH  30  31
ENDBRANCH  29  30
ENDBRANCH   1  29
TORSDOF 13
