REMARK SMILES Cc1cc(-c2ccc(/C=C/C(=O)NCCCNC(=O)c3ccc(-c4c5nc(c(-c6ccccc6)c6ccc([nH]6)c(-c6ccccc6)c6nc(c(-c7ccccc7)c7ccc4[nH]7)C=C6)C=C5)cc3)o2)c(C)cc1Br
REMARK SMILES IDX 15 1 14 2 13 3 11 4 12 5 10 7 9 8 8 9 5 10 6 11 68 12 7 13
REMARK SMILES IDX 4 14 1 15 2 16 3 17 72 18 71 19 73 20 69 21 70 22 16 23
REMARK SMILES IDX 17 24 18 25 19 27 20 28 21 29 67 30 22 31 66 32 23 33 24 34
REMARK SMILES IDX 25 35 60 36 26 37 65 38 59 39 61 40 27 41 64 42 58 43 57 44
REMARK SMILES IDX 28 46 50 47 35 48 49 49 36 50 39 51 48 52 62 53 37 54 38 55
REMARK SMILES IDX 47 57 63 58 40 59 29 60 30 61 34 62 31 63 33 64 32 65 51 66
REMARK SMILES IDX 52 67 56 68 53 69 55 70 54 71 41 72 42 73 46 74 43 75 45 76
REMARK SMILES IDX 44 77
REMARK H PARENT 13 6 17 26 61 45 39 56
REMARK Flexibility Score: inf
ROOT
ATOM      1  C   UNL     1      -9.320   5.470   1.342  1.00  0.00     0.042 C 
ENDROOT
BRANCH   1   2
ATOM      2  C   UNL     1      -8.968   4.570   0.160  1.00  0.00     0.118 C 
BRANCH   2   3
ATOM      3  N   UNL     1      -8.420   5.341  -0.943  1.00  0.00    -0.352 N 
ATOM      4  C   UNL     1      -7.148   5.477  -1.403  1.00  0.00     0.244 C 
ATOM      5  O   UNL     1      -6.952   6.128  -2.427  1.00  0.00    -0.270 OA
ATOM      6  H   UNL     1      -9.090   5.856  -1.448  1.00  0.00     0.163 HD
BRANCH   4   7
ATOM      7  C   UNL     1      -6.008   4.791  -0.754  1.00  0.00     0.075 C 
ATOM      8  C   UNL     1      -5.839   4.667   0.568  1.00  0.00     0.053 C 
BRANCH   8   9
ATOM      9  C   UNL     1      -4.738   3.952   1.104  1.00  0.00     0.127 A 
ATOM     10  C   UNL     1      -2.688   3.129   1.314  1.00  0.00     0.135 A 
ATOM     11  C   UNL     1      -3.384   2.696   2.417  1.00  0.00     0.051 A 
ATOM     12  O   UNL     1      -3.505   3.855   0.503  1.00  0.00    -0.457 OA
ATOM     13  C   UNL     1      -4.682   3.241   2.296  1.00  0.00     0.051 A 
BRANCH  10  14
ATOM     14  C   UNL     1      -1.312   2.968   0.870  1.00  0.00     0.020 A 
ATOM     15  C   UNL     1       0.977   0.013   0.140  1.00  0.00     0.045 C 
ATOM     16  C   UNL     1       0.533   1.435   0.334  1.00  0.00    -0.036 A 
ATOM     17  C   UNL     1      -0.800   1.668   0.720  1.00  0.00     0.016 A 
ATOM     18  C   UNL     1       1.351   2.543   0.082  1.00  0.00     0.021 A 
ATOM     19  C   UNL     1       0.854   3.844   0.233  1.00  0.00     0.020 A 
ATOM     20  Br  UNL     1       3.157   2.368  -0.479  1.00  0.00    -0.051 Br
ATOM     21  C   UNL     1      -0.474   4.072   0.629  1.00  0.00    -0.039 A 
ATOM     22  C   UNL     1      -0.961   5.489   0.773  1.00  0.00     0.045 C 
ENDBRANCH  10  14
ENDBRANCH   8   9
ENDBRANCH   4   7
ENDBRANCH   2   3
ENDBRANCH   1   2
BRANCH   1  23
ATOM     23  C   UNL     1     -10.599   6.272   1.127  1.00  0.00     0.118 C 
BRANCH  23  24
ATOM     24  N   UNL     1     -11.786   5.426   1.111  1.00  0.00    -0.352 N 
ATOM     25  C   UNL     1     -12.881   5.399   1.940  1.00  0.00     0.251 C 
ATOM     26  H   UNL     1     -11.807   4.763   0.384  1.00  0.00     0.163 HD
ATOM     27  O   UNL     1     -13.665   4.458   1.871  1.00  0.00    -0.269 OA
BRANCH  25  28
ATOM     28  C   UNL     1     -13.112   6.477   2.927  1.00  0.00     0.039 A 
ATOM     29  C   UNL     1     -12.841   7.810   2.620  1.00  0.00     0.014 A 
ATOM     30  C   UNL     1     -13.643   6.147   4.179  1.00  0.00     0.014 A 
ATOM     31  C   UNL     1     -12.926   8.780   3.612  1.00  0.00     0.010 A 
ATOM     32  C   UNL     1     -13.827   7.142   5.144  1.00  0.00     0.010 A 
ATOM     33  C   UNL     1     -13.420   8.460   4.886  1.00  0.00    -0.014 A 
BRANCH  33  34
ATOM     34  C   UNL     1     -13.502   9.517   5.928  1.00  0.00     0.031 A 
ATOM     35  C   UNL     1     -12.685   9.421   7.187  1.00  0.00     0.074 A 
ATOM     36  C   UNL     1     -14.272  10.601   5.707  1.00  0.00     0.049 A 
ATOM     37  N   UNL     1     -12.592  10.277   8.175  1.00  0.00    -0.248 NA
ATOM     38  C   UNL     1     -11.867   8.211   7.367  1.00  0.00     0.031 C 
ATOM     39  C   UNL     1     -15.093  10.818   4.514  1.00  0.00     0.029 A 
ATOM     40  N   UNL     1     -14.463  11.737   6.453  1.00  0.00    -0.354 N 
ATOM     41  C   UNL     1     -11.717   9.707   9.091  1.00  0.00     0.074 A 
ATOM     42  C   UNL     1     -11.343   8.412   8.569  1.00  0.00     0.031 C 
ATOM     43  C   UNL     1     -15.640  12.040   4.575  1.00  0.00     0.029 A 
ATOM     44  C   UNL     1     -15.274  12.663   5.843  1.00  0.00     0.049 A 
ATOM     45  H   UNL     1     -14.058  11.874   7.340  1.00  0.00     0.167 HD
ATOM     46  C   UNL     1     -11.252  10.225  10.252  1.00  0.00     0.031 A 
ATOM     47  C   UNL     1     -15.686  13.879   6.253  1.00  0.00     0.031 A 
ATOM     48  C   UNL     1     -11.630  11.515  10.769  1.00  0.00     0.049 A 
ATOM     49  C   UNL     1     -15.215  14.401   7.580  1.00  0.00     0.074 A 
ATOM     50  C   UNL     1     -11.204  12.130  11.933  1.00  0.00     0.029 A 
ATOM     51  N   UNL     1     -12.520  12.385  10.157  1.00  0.00    -0.354 N 
ATOM     52  N   UNL     1     -14.375  13.856   8.426  1.00  0.00    -0.248 NA
ATOM     53  C   UNL     1     -15.744  15.703   8.008  1.00  0.00     0.031 C 
ATOM     54  C   UNL     1     -11.893  13.337  12.064  1.00  0.00     0.029 A 
ATOM     55  C   UNL     1     -12.681  13.518  10.939  1.00  0.00     0.049 A 
ATOM     56  H   UNL     1     -12.970  12.223   9.297  1.00  0.00     0.167 HD
ATOM     57  C   UNL     1     -14.260  14.754   9.479  1.00  0.00     0.074 A 
ATOM     58  C   UNL     1     -15.100  15.889   9.155  1.00  0.00     0.031 C 
ATOM     59  C   UNL     1     -13.523  14.642  10.611  1.00  0.00     0.031 A 
BRANCH  46  60
ATOM     60  C   UNL     1     -10.284   9.398  11.059  1.00  0.00    -0.014 A 
ATOM     61  C   UNL     1     -10.652   8.931  12.331  1.00  0.00     0.009 A 
ATOM     62  C   UNL     1      -8.979   9.152  10.602  1.00  0.00     0.009 A 
ATOM     63  C   UNL     1      -9.734   8.249  13.133  1.00  0.00     0.001 A 
ATOM     64  C   UNL     1      -8.074   8.437  11.390  1.00  0.00     0.001 A 
ATOM     65  C   UNL     1      -8.448   7.996  12.659  1.00  0.00     0.000 A 
ENDBRANCH  46  60
BRANCH  47  66
ATOM     66  C   UNL     1     -16.572  14.679   5.365  1.00  0.00    -0.014 A 
ATOM     67  C   UNL     1     -17.874  14.241   5.068  1.00  0.00     0.009 A 
ATOM     68  C   UNL     1     -16.091  15.839   4.740  1.00  0.00     0.009 A 
ATOM     69  C   UNL     1     -18.657  14.919   4.133  1.00  0.00     0.001 A 
ATOM     70  C   UNL     1     -16.891  16.537   3.830  1.00  0.00     0.001 A 
ATOM     71  C   UNL     1     -18.166  16.068   3.516  1.00  0.00     0.000 A 
ENDBRANCH  47  66
BRANCH  59  72
ATOM     72  C   UNL     1     -13.569  15.775  11.601  1.00  0.00    -0.014 A 
ATOM     73  C   UNL     1     -12.411  16.532  11.848  1.00  0.00     0.009 A 
ATOM     74  C   UNL     1     -14.713  16.014  12.378  1.00  0.00     0.009 A 
ATOM     75  C   UNL     1     -12.388  17.483  12.868  1.00  0.00     0.001 A 
ATOM     76  C   UNL     1     -14.698  16.992  13.375  1.00  0.00     0.001 A 
ATOM     77  C   UNL     1     -13.532  17.715  13.629  1.00  0.00     0.000 A 
ENDBRANCH  59  72
ENDBRANCH  33  34
ENDBRANCH  25  28
ENDBRANCH  23  24
ENDBRANCH   1  23
TORSDOF 12
