REMARK SMILES Cc1nsc(N(C)C(=O)[C@@H](C)CCC[C@H](C)[NH3+])c1C(=O)NCCCNC(=O)c1ccc(-c2c3nc(c(-c4ccccc4)c4ccc([nH]4)c(-c4ccccc4)c4nc(c(-c5ccccc5)c5ccc2[nH]5)C=C4)C=C3)cc1
REMARK SMILES IDX 1 1 2 2 3 3 4 4 5 5 18 6 19 7 20 8 21 9 22 11 23 12 24 13
REMARK SMILES IDX 25 14 26 15 27 17 28 18 29 19 75 20 30 21 74 22 31 23 32 24
REMARK SMILES IDX 33 25 68 26 34 27 73 28 67 29 69 30 35 31 72 32 66 33 65 34
REMARK SMILES IDX 36 36 58 37 43 38 57 39 44 40 47 41 56 42 70 43 45 44 46 45
REMARK SMILES IDX 55 47 71 48 48 49 37 50 38 51 42 52 39 53 41 54 40 55 59 56
REMARK SMILES IDX 60 57 64 58 61 59 63 60 62 61 49 62 50 63 54 64 51 65 53 66
REMARK SMILES IDX 52 67 6 68 7 69 8 70 9 71 10 72 11 73 12 74 13 75 14 76
REMARK SMILES IDX 15 77 16 78 17 79
REMARK H PARENT 21 10 25 16 69 35 47 46 17 80 17 81 17 82
REMARK Flexibility Score: inf
ROOT
ATOM      1  C   UNL     1       6.053  -2.594  13.927  1.00  0.00     0.069 C 
ATOM      2  C   UNL     1       5.627  -2.715  12.500  1.00  0.00     0.066 A 
ATOM      3  N   UNL     1       5.939  -3.884  11.948  1.00  0.00    -0.195 NA
ATOM      4  S   UNL     1       5.248  -3.985  10.480  1.00  0.00    -0.017 S 
ATOM      5  C   UNL     1       4.552  -2.411  10.447  1.00  0.00     0.131 A 
ATOM      6  C   UNL     1       4.907  -1.760  11.646  1.00  0.00     0.097 A 
ENDROOT
BRANCH   6   7
ATOM      7  C   UNL     1       4.450  -0.412  12.008  1.00  0.00     0.256 C 
ATOM      8  O   UNL     1       3.274  -0.073  11.853  1.00  0.00    -0.269 OA
ATOM      9  N   UNL     1       5.320   0.535  12.533  1.00  0.00    -0.352 N 
ATOM     10  H   UNL     1       5.054   1.475  12.413  1.00  0.00     0.163 HD
BRANCH   9  11
ATOM     11  C   UNL     1       6.568   0.318  13.234  1.00  0.00     0.118 C 
BRANCH  11  12
ATOM     12  C   UNL     1       7.693   1.332  13.109  1.00  0.00     0.042 C 
BRANCH  12  13
ATOM     13  C   UNL     1       7.368   2.740  13.547  1.00  0.00     0.118 C 
BRANCH  13  14
ATOM     14  N   UNL     1       7.124   2.920  14.977  1.00  0.00    -0.352 N 
ATOM     15  C   UNL     1       7.075   4.128  15.652  1.00  0.00     0.251 C 
ATOM     16  H   UNL     1       6.981   2.105  15.511  1.00  0.00     0.163 HD
ATOM     17  O   UNL     1       7.154   4.177  16.880  1.00  0.00    -0.269 OA
BRANCH  15  18
ATOM     18  C   UNL     1       6.942   5.368  14.861  1.00  0.00     0.039 A 
ATOM     19  C   UNL     1       7.735   6.487  15.117  1.00  0.00     0.014 A 
ATOM     20  C   UNL     1       6.063   5.356  13.777  1.00  0.00     0.014 A 
ATOM     21  C   UNL     1       7.717   7.540  14.204  1.00  0.00     0.010 A 
ATOM     22  C   UNL     1       6.158   6.320  12.802  1.00  0.00     0.010 A 
ATOM     23  C   UNL     1       6.962   7.430  13.019  1.00  0.00    -0.014 A 
BRANCH  23  24
ATOM     24  C   UNL     1       7.178   8.362  11.911  1.00  0.00     0.031 A 
ATOM     25  C   UNL     1       8.614   8.470  11.540  1.00  0.00     0.074 A 
ATOM     26  C   UNL     1       6.198   8.923  11.164  1.00  0.00     0.049 A 
ATOM     27  N   UNL     1       9.411   9.440  11.836  1.00  0.00    -0.248 NA
ATOM     28  C   UNL     1       9.300   7.298  10.965  1.00  0.00     0.031 C 
ATOM     29  C   UNL     1       4.756   8.653  11.238  1.00  0.00     0.029 A 
ATOM     30  N   UNL     1       6.279   9.792  10.110  1.00  0.00    -0.354 N 
ATOM     31  C   UNL     1      10.623   9.129  11.230  1.00  0.00     0.074 A 
ATOM     32  C   UNL     1      10.566   7.724  10.926  1.00  0.00     0.031 C 
ATOM     33  C   UNL     1       4.136   9.157  10.146  1.00  0.00     0.029 A 
ATOM     34  C   UNL     1       5.095   9.935   9.384  1.00  0.00     0.049 A 
ATOM     35  H   UNL     1       7.105  10.277   9.883  1.00  0.00     0.167 HD
ATOM     36  C   UNL     1      11.391  10.130  10.713  1.00  0.00     0.031 A 
ATOM     37  C   UNL     1       4.901  10.659   8.251  1.00  0.00     0.031 A 
ATOM     38  C   UNL     1      10.901  11.414  11.156  1.00  0.00     0.049 A 
ATOM     39  C   UNL     1       5.971  11.672   8.194  1.00  0.00     0.074 A 
ATOM     40  C   UNL     1      10.878  12.137  12.327  1.00  0.00     0.029 A 
ATOM     41  N   UNL     1       9.918  11.915  10.343  1.00  0.00    -0.354 N 
ATOM     42  N   UNL     1       6.028  12.680   9.013  1.00  0.00    -0.248 NA
ATOM     43  C   UNL     1       7.189  11.396   7.445  1.00  0.00     0.031 C 
ATOM     44  C   UNL     1       9.729  12.980  12.246  1.00  0.00     0.029 A 
ATOM     45  C   UNL     1       9.125  12.809  11.002  1.00  0.00     0.049 A 
ATOM     46  H   UNL     1       9.799  11.662   9.399  1.00  0.00     0.167 HD
ATOM     47  C   UNL     1       7.379  12.841   9.238  1.00  0.00     0.074 A 
ATOM     48  C   UNL     1       8.037  12.179   8.117  1.00  0.00     0.031 C 
ATOM     49  C   UNL     1       7.833  13.187  10.476  1.00  0.00     0.031 A 
BRANCH  36  50
ATOM     50  C   UNL     1      12.146  10.028   9.398  1.00  0.00    -0.014 A 
ATOM     51  C   UNL     1      12.750  11.200   8.895  1.00  0.00     0.009 A 
ATOM     52  C   UNL     1      12.034   8.953   8.498  1.00  0.00     0.009 A 
ATOM     53  C   UNL     1      13.127  11.318   7.551  1.00  0.00     0.001 A 
ATOM     54  C   UNL     1      12.436   9.057   7.162  1.00  0.00     0.001 A 
ATOM     55  C   UNL     1      12.957  10.249   6.681  1.00  0.00     0.000 A 
ENDBRANCH  36  50
BRANCH  37  56
ATOM     56  C   UNL     1       3.934  10.544   7.137  1.00  0.00    -0.014 A 
ATOM     57  C   UNL     1       3.640  11.656   6.325  1.00  0.00     0.009 A 
ATOM     58  C   UNL     1       3.553   9.277   6.670  1.00  0.00     0.009 A 
ATOM     59  C   UNL     1       3.051  11.498   5.063  1.00  0.00     0.001 A 
ATOM     60  C   UNL     1       2.965   9.119   5.407  1.00  0.00     0.001 A 
ATOM     61  C   UNL     1       2.733  10.227   4.596  1.00  0.00     0.000 A 
ENDBRANCH  37  56
BRANCH  49  62
ATOM     62  C   UNL     1       6.871  13.876  11.399  1.00  0.00    -0.014 A 
ATOM     63  C   UNL     1       5.708  13.282  11.916  1.00  0.00     0.009 A 
ATOM     64  C   UNL     1       7.207  15.171  11.816  1.00  0.00     0.009 A 
ATOM     65  C   UNL     1       4.893  13.984  12.810  1.00  0.00     0.001 A 
ATOM     66  C   UNL     1       6.407  15.861  12.724  1.00  0.00     0.001 A 
ATOM     67  C   UNL     1       5.246  15.271  13.216  1.00  0.00     0.000 A 
ENDBRANCH  49  62
ENDBRANCH  23  24
ENDBRANCH  15  18
ENDBRANCH  13  14
ENDBRANCH  12  13
ENDBRANCH  11  12
ENDBRANCH   9  11
ENDBRANCH   6   7
BRANCH   5  68
ATOM     68  N   UNL     1       3.785  -2.089   9.286  1.00  0.00    -0.305 N 
ATOM     69  C   UNL     1       3.305  -3.138   8.377  1.00  0.00     0.154 C 
BRANCH  68  70
ATOM     70  C   UNL     1       3.577  -0.740   8.987  1.00  0.00     0.230 C 
ATOM     71  O   UNL     1       4.412   0.127   9.286  1.00  0.00    -0.274 OA
BRANCH  70  72
ATOM     72  C   UNL     1       2.349  -0.284   8.151  1.00  0.00     0.076 C 
ATOM     73  C   UNL     1       2.685  -0.216   6.656  1.00  0.00     0.018 C 
BRANCH  72  74
ATOM     74  C   UNL     1       0.992  -0.978   8.389  1.00  0.00     0.013 C 
BRANCH  74  75
ATOM     75  C   UNL     1       0.273  -0.607   9.689  1.00  0.00     0.007 C 
BRANCH  75  76
ATOM     76  C   UNL     1      -0.087   0.869   9.914  1.00  0.00     0.064 C 
BRANCH  76  77
ATOM     77  C   UNL     1      -1.159   1.484   8.989  1.00  0.00     0.177 C 
ATOM     78  C   UNL     1      -0.732   1.666   7.535  1.00  0.00     0.075 C 
BRANCH  77  79
ATOM     79  N   UNL     1      -1.509   2.816   9.501  1.00  0.00    -0.355 N 
ATOM     80  H   UNL     1      -0.689   3.421   9.466  1.00  0.00     0.344 HD
ATOM     81  H   UNL     1      -1.831   2.735  10.466  1.00  0.00     0.344 HD
ATOM     82  H   UNL     1      -2.252   3.216   8.928  1.00  0.00     0.344 HD
ENDBRANCH  77  79
ENDBRANCH  76  77
ENDBRANCH  75  76
ENDBRANCH  74  75
ENDBRANCH  72  74
ENDBRANCH  70  72
ENDBRANCH  68  70
ENDBRANCH   5  68
TORSDOF 18
