REMARK SMILES NC(=S)S/C=C/C(=O)NCCCNC(=O)c1ccc(-c2c3nc(c(-c4ccccc4)c4ccc([nH]4)c(-c4ccccc4)c4nc(c(-c5ccccc5)c5ccc2[nH]5)C=C4)C=C3)cc1
REMARK SMILES IDX 10 1 9 2 7 3 8 4 6 6 5 7 4 8 2 9 3 10 1 11 11 14 12 15 13 16
REMARK SMILES IDX 14 17 15 19 16 20 17 21 63 22 18 23 62 24 19 25 20 26 21 27
REMARK SMILES IDX 56 28 22 29 61 30 55 31 57 32 23 33 60 34 54 35 53 36 24 38
REMARK SMILES IDX 46 39 31 40 45 41 32 42 35 43 44 44 58 45 33 46 34 47 43 49
REMARK SMILES IDX 59 50 36 51 25 52 26 53 30 54 27 55 29 56 28 57 47 58 48 59
REMARK SMILES IDX 52 60 49 61 51 62 50 63 37 64 38 65 42 66 39 67 41 68 40 69
REMARK H PARENT 9 5 1 12 1 13 13 18 57 37 35 48
REMARK Flexibility Score: inf
ROOT
ATOM      1  C   UNL     1      -0.522  -2.826   6.251  1.00  0.00     0.118 C 
ENDROOT
BRANCH   1   2
ATOM      2  N   UNL     1      -1.833  -2.345   5.848  1.00  0.00    -0.352 N 
ATOM      3  C   UNL     1      -2.273  -1.907   4.637  1.00  0.00     0.244 C 
ATOM      4  O   UNL     1      -3.459  -1.644   4.472  1.00  0.00    -0.270 OA
ATOM      5  H   UNL     1      -2.510  -2.335   6.563  1.00  0.00     0.163 HD
BRANCH   3   6
ATOM      6  C   UNL     1      -1.331  -1.843   3.506  1.00  0.00     0.078 C 
ATOM      7  C   UNL     1      -0.273  -1.022   3.522  1.00  0.00     0.054 C 
BRANCH   7   8
ATOM      8  S   UNL     1       0.886  -0.973   2.240  1.00  0.00    -0.069 SA
BRANCH   8   9
ATOM      9  C   UNL     1       0.118  -0.155   0.902  1.00  0.00     0.135 C 
ATOM     10  S   UNL     1      -1.443   0.373   0.716  1.00  0.00    -0.053 S 
BRANCH   9  11
ATOM     11  N   UNL     1       1.019   0.030  -0.100  1.00  0.00    -0.384 N 
ATOM     12  H   UNL     1       0.745   0.479  -0.932  1.00  0.00     0.158 HD
ATOM     13  H   UNL     1       1.946  -0.286   0.006  1.00  0.00     0.158 HD
ENDBRANCH   9  11
ENDBRANCH   8   9
ENDBRANCH   7   8
ENDBRANCH   3   6
ENDBRANCH   1   2
BRANCH   1  14
ATOM     14  C   UNL     1       0.078  -1.960   7.355  1.00  0.00     0.042 C 
BRANCH  14  15
ATOM     15  C   UNL     1      -0.655  -2.060   8.692  1.00  0.00     0.118 C 
BRANCH  15  16
ATOM     16  N   UNL     1      -0.546  -3.385   9.284  1.00  0.00    -0.352 N 
ATOM     17  C   UNL     1      -0.093  -3.776  10.518  1.00  0.00     0.251 C 
ATOM     18  H   UNL     1      -0.846  -4.121   8.704  1.00  0.00     0.163 HD
ATOM     19  O   UNL     1       0.099  -4.970  10.731  1.00  0.00    -0.269 OA
BRANCH  17  20
ATOM     20  C   UNL     1       0.172  -2.793  11.594  1.00  0.00     0.039 A 
ATOM     21  C   UNL     1       1.251  -3.027  12.453  1.00  0.00     0.014 A 
ATOM     22  C   UNL     1      -0.670  -1.701  11.822  1.00  0.00     0.014 A 
ATOM     23  C   UNL     1       1.501  -2.158  13.517  1.00  0.00     0.010 A 
ATOM     24  C   UNL     1      -0.382  -0.796  12.845  1.00  0.00     0.010 A 
ATOM     25  C   UNL     1       0.695  -1.026  13.715  1.00  0.00    -0.014 A 
BRANCH  25  26
ATOM     26  C   UNL     1       0.956  -0.100  14.846  1.00  0.00     0.031 A 
ATOM     27  C   UNL     1      -0.033   0.027  15.973  1.00  0.00     0.074 A 
ATOM     28  C   UNL     1       2.075   0.649  14.849  1.00  0.00     0.049 A 
ATOM     29  N   UNL     1       0.029   0.775  17.047  1.00  0.00    -0.248 NA
ATOM     30  C   UNL     1      -1.263  -0.774  15.872  1.00  0.00     0.031 C 
ATOM     31  C   UNL     1       3.095   0.653  13.799  1.00  0.00     0.029 A 
ATOM     32  N   UNL     1       2.543   1.550  15.772  1.00  0.00    -0.354 N 
ATOM     33  C   UNL     1      -1.156   0.548  17.736  1.00  0.00     0.074 A 
ATOM     34  C   UNL     1      -1.938  -0.371  16.938  1.00  0.00     0.031 C 
ATOM     35  C   UNL     1       4.084   1.490  14.152  1.00  0.00     0.029 A 
ATOM     36  C   UNL     1       3.756   2.101  15.436  1.00  0.00     0.049 A 
ATOM     37  H   UNL     1       2.056   1.780  16.596  1.00  0.00     0.167 HD
ATOM     38  C   UNL     1      -1.552   1.044  18.933  1.00  0.00     0.031 A 
ATOM     39  C   UNL     1       4.522   2.991  16.093  1.00  0.00     0.031 A 
ATOM     40  C   UNL     1      -0.772   1.947  19.737  1.00  0.00     0.049 A 
ATOM     41  C   UNL     1       4.071   3.510  17.428  1.00  0.00     0.074 A 
ATOM     42  C   UNL     1      -1.065   2.462  20.988  1.00  0.00     0.029 A 
ATOM     43  N   UNL     1       0.458   2.468  19.368  1.00  0.00    -0.354 N 
ATOM     44  N   UNL     1       2.978   3.234  18.096  1.00  0.00    -0.248 NA
ATOM     45  C   UNL     1       4.973   4.451  18.108  1.00  0.00     0.031 C 
ATOM     46  C   UNL     1      -0.028   3.327  21.359  1.00  0.00     0.029 A 
ATOM     47  C   UNL     1       0.931   3.311  20.359  1.00  0.00     0.049 A 
ATOM     48  H   UNL     1       0.926   2.268  18.525  1.00  0.00     0.167 HD
ATOM     49  C   UNL     1       3.071   3.946  19.284  1.00  0.00     0.074 A 
ATOM     50  C   UNL     1       4.336   4.651  19.253  1.00  0.00     0.031 C 
ATOM     51  C   UNL     1       2.188   4.010  20.311  1.00  0.00     0.031 A 
BRANCH  38  52
ATOM     52  C   UNL     1      -2.903   0.619  19.441  1.00  0.00    -0.014 A 
ATOM     53  C   UNL     1      -3.131  -0.692  19.890  1.00  0.00     0.009 A 
ATOM     54  C   UNL     1      -3.954   1.546  19.492  1.00  0.00     0.009 A 
ATOM     55  C   UNL     1      -4.396  -1.075  20.342  1.00  0.00     0.001 A 
ATOM     56  C   UNL     1      -5.211   1.168  19.971  1.00  0.00     0.001 A 
ATOM     57  C   UNL     1      -5.433  -0.145  20.385  1.00  0.00     0.000 A 
ENDBRANCH  38  52
BRANCH  39  58
ATOM     58  C   UNL     1       5.819   3.424  15.511  1.00  0.00    -0.014 A 
ATOM     59  C   UNL     1       7.029   2.980  16.066  1.00  0.00     0.009 A 
ATOM     60  C   UNL     1       5.853   4.282  14.402  1.00  0.00     0.009 A 
ATOM     61  C   UNL     1       8.248   3.409  15.537  1.00  0.00     0.001 A 
ATOM     62  C   UNL     1       7.074   4.688  13.859  1.00  0.00     0.001 A 
ATOM     63  C   UNL     1       8.270   4.258  14.432  1.00  0.00     0.000 A 
ENDBRANCH  39  58
BRANCH  51  64
ATOM     64  C   UNL     1       2.579   4.851  21.493  1.00  0.00    -0.014 A 
ATOM     65  C   UNL     1       2.584   6.253  21.421  1.00  0.00     0.009 A 
ATOM     66  C   UNL     1       2.934   4.230  22.700  1.00  0.00     0.009 A 
ATOM     67  C   UNL     1       2.977   7.014  22.523  1.00  0.00     0.001 A 
ATOM     68  C   UNL     1       3.301   4.994  23.808  1.00  0.00     0.001 A 
ATOM     69  C   UNL     1       3.333   6.385  23.715  1.00  0.00     0.000 A 
ENDBRANCH  51  64
ENDBRANCH  25  26
ENDBRANCH  17  20
ENDBRANCH  15  16
ENDBRANCH  14  15
ENDBRANCH   1  14
TORSDOF 13
