REMARK SMILES O=C(NCCCNC(=O)c1ccc(-c2c3nc(c(-c4ccccc4)c4ccc([nH]4)c(-c4ccccc4)c4nc(c(-c5ccccc5)c5ccc2[nH]5)C=C4)C=C3)cc1)c1ccc(N[C@H]2OC[C@@H](O)[C@@H](O)[C@H]2O)cc1
REMARK SMILES IDX 4 1 3 2 1 3 2 4 58 6 59 7 73 8 60 9 72 10 61 11 62 12 63 14
REMARK SMILES IDX 64 15 70 16 65 17 68 18 66 19 71 20 69 22 67 24 5 26 6 27
REMARK SMILES IDX 7 28 8 29 9 31 10 32 11 33 57 34 12 35 56 36 13 37 14 38
REMARK SMILES IDX 15 39 50 40 16 41 55 42 49 43 51 44 17 45 54 46 48 47 47 48
REMARK SMILES IDX 18 50 40 51 25 52 39 53 26 54 29 55 38 56 52 57 27 58 28 59
REMARK SMILES IDX 37 61 53 62 30 63 19 64 20 65 24 66 21 67 23 68 22 69 41 70
REMARK SMILES IDX 42 71 46 72 43 73 45 74 44 75 31 76 32 77 36 78 33 79 35 80
REMARK SMILES IDX 34 81
REMARK H PARENT 3 5 62 13 71 21 69 23 67 25 7 30 51 49 29 60
REMARK Flexibility Score: inf
ROOT
ATOM      1  C   UNL     1       2.652  -5.080   8.662  1.00  0.00     0.118 C 
ENDROOT
BRANCH   1   2
ATOM      2  N   UNL     1       3.574  -5.104   9.792  1.00  0.00    -0.352 N 
ATOM      3  O   UNL     1       5.577  -5.192  10.830  1.00  0.00    -0.269 OA
ATOM      4  C   UNL     1       4.939  -4.940   9.813  1.00  0.00     0.251 C 
ATOM      5  H   UNL     1       3.157  -5.260  10.670  1.00  0.00     0.163 HD
BRANCH   4   6
ATOM      6  C   UNL     1       5.634  -4.475   8.598  1.00  0.00     0.039 A 
ATOM      7  C   UNL     1       5.175  -3.351   7.917  1.00  0.00     0.016 A 
ATOM      8  C   UNL     1       6.758  -5.157   8.135  1.00  0.00     0.016 A 
ATOM      9  C   UNL     1       5.751  -2.999   6.699  1.00  0.00     0.026 A 
ATOM     10  C   UNL     1       7.349  -4.772   6.925  1.00  0.00     0.026 A 
ATOM     11  C   UNL     1       6.821  -3.722   6.158  1.00  0.00     0.036 A 
BRANCH  11  12
ATOM     12  N   UNL     1       7.412  -3.404   4.941  1.00  0.00    -0.358 N 
ATOM     13  H   UNL     1       8.271  -3.824   4.706  1.00  0.00     0.163 HD
BRANCH  12  14
ATOM     14  C   UNL     1       6.803  -2.472   4.002  1.00  0.00     0.244 C 
ATOM     15  O   UNL     1       6.775  -1.174   4.599  1.00  0.00    -0.353 OA
ATOM     16  C   UNL     1       7.664  -2.388   2.722  1.00  0.00     0.195 C 
ATOM     17  C   UNL     1       6.094  -0.208   3.793  1.00  0.00     0.197 C 
ATOM     18  C   UNL     1       7.017  -1.370   1.770  1.00  0.00     0.178 C 
ATOM     19  C   UNL     1       6.814  -0.011   2.459  1.00  0.00     0.171 C 
BRANCH  16  20
ATOM     20  O   UNL     1       9.002  -1.949   3.064  1.00  0.00    -0.386 OA
ATOM     21  H   UNL     1       8.957  -1.079   3.490  1.00  0.00     0.211 HD
ENDBRANCH  16  20
BRANCH  18  22
ATOM     22  O   UNL     1       7.820  -1.210   0.599  1.00  0.00    -0.387 OA
ATOM     23  H   UNL     1       8.693  -0.869   0.850  1.00  0.00     0.211 HD
ENDBRANCH  18  22
BRANCH  19  24
ATOM     24  O   UNL     1       8.085   0.617   2.686  1.00  0.00    -0.388 OA
ATOM     25  H   UNL     1       8.626   0.053   3.260  1.00  0.00     0.211 HD
ENDBRANCH  19  24
ENDBRANCH  12  14
ENDBRANCH  11  12
ENDBRANCH   4   6
ENDBRANCH   1   2
BRANCH   1  26
ATOM     26  C   UNL     1       2.081  -6.457   8.351  1.00  0.00     0.042 C 
BRANCH  26  27
ATOM     27  C   UNL     1       1.192  -7.017   9.453  1.00  0.00     0.118 C 
BRANCH  27  28
ATOM     28  N   UNL     1      -0.023  -6.235   9.651  1.00  0.00    -0.352 N 
ATOM     29  C   UNL     1      -1.334  -6.527   9.363  1.00  0.00     0.251 C 
ATOM     30  H   UNL     1       0.120  -5.351  10.059  1.00  0.00     0.163 HD
ATOM     31  O   UNL     1      -2.185  -5.645   9.440  1.00  0.00    -0.269 OA
BRANCH  29  32
ATOM     32  C   UNL     1      -1.725  -7.885   8.926  1.00  0.00     0.039 A 
ATOM     33  C   UNL     1      -2.621  -8.020   7.861  1.00  0.00     0.014 A 
ATOM     34  C   UNL     1      -1.218  -9.021   9.559  1.00  0.00     0.014 A 
ATOM     35  C   UNL     1      -2.922  -9.291   7.364  1.00  0.00     0.010 A 
ATOM     36  C   UNL     1      -1.455 -10.280   9.015  1.00  0.00     0.010 A 
ATOM     37  C   UNL     1      -2.293 -10.425   7.899  1.00  0.00    -0.014 A 
BRANCH  37  38
ATOM     38  C   UNL     1      -2.451 -11.769   7.288  1.00  0.00     0.031 A 
ATOM     39  C   UNL     1      -3.068 -12.893   8.072  1.00  0.00     0.074 A 
ATOM     40  C   UNL     1      -1.946 -12.002   6.060  1.00  0.00     0.049 A 
ATOM     41  N   UNL     1      -3.149 -14.163   7.768  1.00  0.00    -0.248 NA
ATOM     42  C   UNL     1      -3.652 -12.547   9.378  1.00  0.00     0.031 C 
ATOM     43  C   UNL     1      -1.303 -11.005   5.200  1.00  0.00     0.029 A 
ATOM     44  N   UNL     1      -1.878 -13.162   5.328  1.00  0.00    -0.354 N 
ATOM     45  C   UNL     1      -3.777 -14.770   8.848  1.00  0.00     0.074 A 
ATOM     46  C   UNL     1      -4.022 -13.737   9.831  1.00  0.00     0.031 C 
ATOM     47  C   UNL     1      -0.920 -11.591   4.055  1.00  0.00     0.029 A 
ATOM     48  C   UNL     1      -1.241 -13.013   4.119  1.00  0.00     0.049 A 
ATOM     49  H   UNL     1      -2.250 -14.018   5.639  1.00  0.00     0.167 HD
ATOM     50  C   UNL     1      -4.130 -16.068   9.001  1.00  0.00     0.031 A 
ATOM     51  C   UNL     1      -0.925 -13.922   3.179  1.00  0.00     0.031 A 
ATOM     52  C   UNL     1      -3.897 -17.095   8.022  1.00  0.00     0.049 A 
ATOM     53  C   UNL     1      -1.277 -15.365   3.401  1.00  0.00     0.074 A 
ATOM     54  C   UNL     1      -4.262 -18.430   8.070  1.00  0.00     0.029 A 
ATOM     55  N   UNL     1      -3.236 -16.903   6.820  1.00  0.00    -0.354 N 
ATOM     56  N   UNL     1      -1.906 -15.915   4.411  1.00  0.00    -0.248 NA
ATOM     57  C   UNL     1      -0.867 -16.315   2.356  1.00  0.00     0.031 C 
ATOM     58  C   UNL     1      -3.785 -19.055   6.914  1.00  0.00     0.029 A 
ATOM     59  C   UNL     1      -3.160 -18.100   6.129  1.00  0.00     0.049 A 
ATOM     60  H   UNL     1      -2.875 -16.044   6.504  1.00  0.00     0.167 HD
ATOM     61  C   UNL     1      -1.984 -17.268   4.115  1.00  0.00     0.074 A 
ATOM     62  C   UNL     1      -1.353 -17.456   2.825  1.00  0.00     0.031 C 
ATOM     63  C   UNL     1      -2.527 -18.269   4.848  1.00  0.00     0.031 A 
BRANCH  50  64
ATOM     64  C   UNL     1      -4.814 -16.454  10.281  1.00  0.00    -0.014 A 
ATOM     65  C   UNL     1      -6.148 -16.092  10.523  1.00  0.00     0.009 A 
ATOM     66  C   UNL     1      -4.136 -17.234  11.230  1.00  0.00     0.009 A 
ATOM     67  C   UNL     1      -6.783 -16.484  11.704  1.00  0.00     0.001 A 
ATOM     68  C   UNL     1      -4.780 -17.643  12.399  1.00  0.00     0.001 A 
ATOM     69  C   UNL     1      -6.100 -17.263  12.637  1.00  0.00     0.000 A 
ENDBRANCH  50  64
BRANCH  51  70
ATOM     70  C   UNL     1      -0.215 -13.505   1.942  1.00  0.00    -0.014 A 
ATOM     71  C   UNL     1      -0.880 -13.511   0.707  1.00  0.00     0.009 A 
ATOM     72  C   UNL     1       1.135 -13.125   1.985  1.00  0.00     0.009 A 
ATOM     73  C   UNL     1      -0.200 -13.171  -0.465  1.00  0.00     0.001 A 
ATOM     74  C   UNL     1       1.806 -12.760   0.815  1.00  0.00     0.001 A 
ATOM     75  C   UNL     1       1.140 -12.793  -0.409  1.00  0.00     0.000 A 
ENDBRANCH  51  70
BRANCH  63  76
ATOM     76  C   UNL     1      -2.482 -19.650   4.263  1.00  0.00    -0.014 A 
ATOM     77  C   UNL     1      -1.291 -20.391   4.255  1.00  0.00     0.009 A 
ATOM     78  C   UNL     1      -3.654 -20.231   3.754  1.00  0.00     0.009 A 
ATOM     79  C   UNL     1      -1.270 -21.683   3.727  1.00  0.00     0.001 A 
ATOM     80  C   UNL     1      -3.634 -21.531   3.248  1.00  0.00     0.001 A 
ATOM     81  C   UNL     1      -2.442 -22.253   3.229  1.00  0.00     0.000 A 
ENDBRANCH  63  76
ENDBRANCH  37  38
ENDBRANCH  29  32
ENDBRANCH  27  28
ENDBRANCH  26  27
ENDBRANCH   1  26
TORSDOF 15
