REMARK SMILES Cc1ccc([C@H](CC2CCCC2)C(=O)NCCCNC(=O)c2ccc(-c3c4nc(c(-c5ccccc5)c5ccc([nH]5)c(-c5ccccc5)c5nc(c(-c6ccccc6)c6ccc3[nH]6)C=C5)C=C4)cc2)cc1
REMARK SMILES IDX 17 1 16 2 15 3 13 4 14 5 6 7 5 8 1 9 2 10 3 11 71 12 4 13
REMARK SMILES IDX 70 14 7 15 8 16 9 17 12 18 10 19 11 20 18 21 19 22 20 23
REMARK SMILES IDX 21 25 22 26 23 27 69 28 24 29 68 30 25 31 26 32 27 33 62 34
REMARK SMILES IDX 28 35 67 36 61 37 63 38 29 39 66 40 60 41 59 42 30 44 52 45
REMARK SMILES IDX 37 46 51 47 38 48 41 49 50 50 64 51 39 52 40 53 49 55 65 56
REMARK SMILES IDX 42 57 31 58 32 59 36 60 33 61 35 62 34 63 53 64 54 65 58 66
REMARK SMILES IDX 55 67 57 68 56 69 43 70 44 71 48 72 45 73 47 74 46 75
REMARK H PARENT 15 6 19 24 63 43 41 54
REMARK Flexibility Score: inf
ROOT
ATOM      1  C   UNL     1      -0.953  -3.138   0.598  1.00  0.00     0.042 C 
ENDROOT
BRANCH   1   2
ATOM      2  C   UNL     1      -2.386  -2.851   0.196  1.00  0.00     0.117 C 
BRANCH   2   3
ATOM      3  N   UNL     1      -3.096  -2.029   1.169  1.00  0.00    -0.356 N 
ATOM      4  C   UNL     1      -3.686  -0.804   1.013  1.00  0.00     0.227 C 
ATOM      5  O   UNL     1      -4.369  -0.384   1.953  1.00  0.00    -0.274 OA
ATOM      6  H   UNL     1      -3.160  -2.413   2.073  1.00  0.00     0.163 HD
BRANCH   4   7
ATOM      7  C   UNL     1      -3.487   0.047  -0.250  1.00  0.00     0.109 C 
BRANCH   7   8
ATOM      8  C   UNL     1      -4.072  -0.546  -1.544  1.00  0.00    -0.036 A 
ATOM      9  C   UNL     1      -4.855  -2.444  -5.349  1.00  0.00     0.044 C 
ATOM     10  C   UNL     1      -4.663  -1.754  -4.034  1.00  0.00    -0.051 A 
ATOM     11  C   UNL     1      -4.206  -0.436  -3.979  1.00  0.00     0.004 A 
ATOM     12  C   UNL     1      -4.970  -2.405  -2.839  1.00  0.00     0.004 A 
ATOM     13  C   UNL     1      -3.920   0.161  -2.750  1.00  0.00     0.005 A 
ATOM     14  C   UNL     1      -4.715  -1.791  -1.609  1.00  0.00     0.005 A 
ENDBRANCH   7   8
BRANCH   7  15
ATOM     15  C   UNL     1      -1.988   0.436  -0.412  1.00  0.00     0.022 C 
BRANCH  15  16
ATOM     16  C   UNL     1      -1.494   1.551   0.521  1.00  0.00    -0.010 C 
ATOM     17  C   UNL     1      -1.148   1.117   1.944  1.00  0.00     0.003 C 
ATOM     18  C   UNL     1      -0.150   2.111   0.038  1.00  0.00     0.003 C 
ATOM     19  C   UNL     1      -0.252   2.239   2.466  1.00  0.00     0.000 C 
ATOM     20  C   UNL     1       0.411   2.860   1.238  1.00  0.00     0.000 C 
ENDBRANCH  15  16
ENDBRANCH   7  15
ENDBRANCH   4   7
ENDBRANCH   2   3
ENDBRANCH   1   2
BRANCH   1  21
ATOM     21  C   UNL     1      -0.837  -4.312   1.550  1.00  0.00     0.118 C 
BRANCH  21  22
ATOM     22  N   UNL     1      -0.851  -5.623   0.906  1.00  0.00    -0.352 N 
ATOM     23  C   UNL     1      -0.813  -6.890   1.473  1.00  0.00     0.251 C 
ATOM     24  H   UNL     1      -0.894  -5.606  -0.077  1.00  0.00     0.163 HD
ATOM     25  O   UNL     1      -0.809  -7.878   0.759  1.00  0.00    -0.269 OA
BRANCH  23  26
ATOM     26  C   UNL     1      -0.939  -7.036   2.947  1.00  0.00     0.039 A 
ATOM     27  C   UNL     1      -1.820  -8.009   3.433  1.00  0.00     0.014 A 
ATOM     28  C   UNL     1      -0.439  -6.063   3.801  1.00  0.00     0.014 A 
ATOM     29  C   UNL     1      -2.424  -7.817   4.672  1.00  0.00     0.010 A 
ATOM     30  C   UNL     1      -1.149  -5.779   4.944  1.00  0.00     0.010 A 
ATOM     31  C   UNL     1      -2.185  -6.625   5.346  1.00  0.00    -0.014 A 
BRANCH  31  32
ATOM     32  C   UNL     1      -3.011  -6.121   6.431  1.00  0.00     0.031 A 
ATOM     33  C   UNL     1      -2.451  -6.041   7.792  1.00  0.00     0.074 A 
ATOM     34  C   UNL     1      -4.229  -5.605   6.154  1.00  0.00     0.049 A 
ATOM     35  N   UNL     1      -3.158  -5.904   8.860  1.00  0.00    -0.248 NA
ATOM     36  C   UNL     1      -1.023  -6.189   8.066  1.00  0.00     0.031 C 
ATOM     37  C   UNL     1      -5.057  -4.756   7.005  1.00  0.00     0.029 A 
ATOM     38  N   UNL     1      -5.064  -5.944   5.087  1.00  0.00    -0.354 N 
ATOM     39  C   UNL     1      -2.292  -5.627   9.890  1.00  0.00     0.074 A 
ATOM     40  C   UNL     1      -0.983  -5.942   9.376  1.00  0.00     0.031 C 
ATOM     41  C   UNL     1      -6.332  -4.839   6.592  1.00  0.00     0.029 A 
ATOM     42  C   UNL     1      -6.385  -5.870   5.570  1.00  0.00     0.049 A 
ATOM     43  H   UNL     1      -4.784  -6.187   4.175  1.00  0.00     0.167 HD
ATOM     44  C   UNL     1      -2.777  -5.016  11.005  1.00  0.00     0.031 A 
ATOM     45  C   UNL     1      -7.163  -6.990   5.643  1.00  0.00     0.031 A 
ATOM     46  C   UNL     1      -4.241  -4.993  11.003  1.00  0.00     0.049 A 
ATOM     47  C   UNL     1      -7.581  -7.350   7.054  1.00  0.00     0.074 A 
ATOM     48  C   UNL     1      -5.179  -4.003  10.765  1.00  0.00     0.029 A 
ATOM     49  N   UNL     1      -4.930  -6.202  10.971  1.00  0.00    -0.354 N 
ATOM     50  N   UNL     1      -7.005  -6.887   8.130  1.00  0.00    -0.248 NA
ATOM     51  C   UNL     1      -8.661  -8.283   7.363  1.00  0.00     0.031 C 
ATOM     52  C   UNL     1      -6.425  -4.637  10.499  1.00  0.00     0.029 A 
ATOM     53  C   UNL     1      -6.250  -6.005  10.617  1.00  0.00     0.049 A 
ATOM     54  H   UNL     1      -4.530  -7.079  11.172  1.00  0.00     0.167 HD
ATOM     55  C   UNL     1      -7.591  -7.434   9.242  1.00  0.00     0.074 A 
ATOM     56  C   UNL     1      -8.634  -8.292   8.708  1.00  0.00     0.031 C 
ATOM     57  C   UNL     1      -7.155  -7.144  10.504  1.00  0.00     0.031 A 
BRANCH  44  58
ATOM     58  C   UNL     1      -1.926  -4.210  11.966  1.00  0.00    -0.014 A 
ATOM     59  C   UNL     1      -2.553  -3.340  12.877  1.00  0.00     0.009 A 
ATOM     60  C   UNL     1      -0.520  -4.173  11.967  1.00  0.00     0.009 A 
ATOM     61  C   UNL     1      -1.824  -2.457  13.690  1.00  0.00     0.001 A 
ATOM     62  C   UNL     1       0.217  -3.295  12.773  1.00  0.00     0.001 A 
ATOM     63  C   UNL     1      -0.437  -2.426  13.629  1.00  0.00     0.000 A 
ENDBRANCH  44  58
BRANCH  45  64
ATOM     64  C   UNL     1      -6.885  -7.972   4.556  1.00  0.00    -0.014 A 
ATOM     65  C   UNL     1      -7.190  -7.598   3.231  1.00  0.00     0.009 A 
ATOM     66  C   UNL     1      -6.001  -9.040   4.761  1.00  0.00     0.009 A 
ATOM     67  C   UNL     1      -6.529  -8.186   2.148  1.00  0.00     0.001 A 
ATOM     68  C   UNL     1      -5.352  -9.637   3.671  1.00  0.00     0.001 A 
ATOM     69  C   UNL     1      -5.585  -9.184   2.372  1.00  0.00     0.000 A 
ENDBRANCH  45  64
BRANCH  57  70
ATOM     70  C   UNL     1      -7.555  -7.859  11.776  1.00  0.00    -0.014 A 
ATOM     71  C   UNL     1      -8.131  -9.134  11.829  1.00  0.00     0.009 A 
ATOM     72  C   UNL     1      -7.212  -7.275  13.019  1.00  0.00     0.009 A 
ATOM     73  C   UNL     1      -8.389  -9.771  13.053  1.00  0.00     0.001 A 
ATOM     74  C   UNL     1      -7.420  -7.926  14.237  1.00  0.00     0.001 A 
ATOM     75  C   UNL     1      -8.022  -9.173  14.254  1.00  0.00     0.000 A 
ENDBRANCH  57  70
ENDBRANCH  31  32
ENDBRANCH  23  26
ENDBRANCH  21  22
ENDBRANCH   1  21
TORSDOF 13
