REMARK SMILES O=C(CN1C(=O)/C(=C2/Sc3ccccc3N2CCCS(=O)(=O)[O-])SC1=S)NCCCNC(=O)c1ccc(-c2c3nc(c(-c4ccccc4)c4ccc([nH]4)c(-c4ccccc4)c4nc(c(-c5ccccc5)c5ccc2[nH]5)C=C4)C=C3)cc1
REMARK SMILES IDX 1 1 2 2 27 3 3 5 4 6 5 7 25 8 6 9 7 10 24 11 26 12 8 13 9 14
REMARK SMILES IDX 16 15 10 16 15 17 11 18 14 19 12 20 13 21 17 22 18 23 19 24
REMARK SMILES IDX 20 25 21 26 22 27 23 28 28 29 29 30 30 31 31 32 32 33 33 35
REMARK SMILES IDX 34 36 35 37 81 38 36 39 80 40 37 41 38 42 39 43 74 44 40 45
REMARK SMILES IDX 79 46 73 47 75 48 41 49 78 50 72 51 71 52 42 54 64 55 49 56
REMARK SMILES IDX 63 57 50 58 53 59 62 60 76 61 51 62 52 63 61 65 77 66 54 67
REMARK SMILES IDX 43 68 44 69 48 70 45 71 47 72 46 73 65 74 66 75 70 76 67 77
REMARK SMILES IDX 69 78 68 79 55 80 56 81 60 82 57 83 59 84 58 85
REMARK H PARENT 27 4 31 34 75 53 53 64
REMARK Flexibility Score: inf
ROOT
ATOM      1  O   UNL     1       1.834  -0.101  -0.386  1.00  0.00    -0.273 OA
ATOM      2  C   UNL     1       2.863  -0.142   0.290  1.00  0.00     0.240 C 
ATOM      3  N   UNL     1       3.169  -1.232   1.065  1.00  0.00    -0.354 N 
ATOM      4  H   UNL     1       4.012  -1.245   1.572  1.00  0.00     0.163 HD
ENDROOT
BRANCH   2   5
ATOM      5  C   UNL     1       3.986   0.862   0.040  1.00  0.00     0.227 C 
BRANCH   5   6
ATOM      6  N   UNL     1       4.953   1.285   1.060  1.00  0.00    -0.283 N 
ATOM      7  C   UNL     1       4.796   2.513   1.681  1.00  0.00     0.269 C 
ATOM      8  C   UNL     1       6.142   0.656   1.335  1.00  0.00     0.148 C 
ATOM      9  O   UNL     1       3.734   2.983   2.061  1.00  0.00    -0.268 OA
ATOM     10  C   UNL     1       6.129   3.120   1.937  1.00  0.00     0.111 C 
ATOM     11  S   UNL     1       7.184   1.754   2.225  1.00  0.00    -0.052 SA
ATOM     12  S   UNL     1       6.611  -0.882   0.912  1.00  0.00    -0.052 S 
ATOM     13  C   UNL     1       6.506   4.419   1.792  1.00  0.00     0.100 C 
ATOM     14  S   UNL     1       8.278   4.774   2.063  1.00  0.00    -0.068 SA
ATOM     15  N   UNL     1       5.795   5.596   1.419  1.00  0.00    -0.334 N 
ATOM     16  C   UNL     1       7.987   6.486   1.720  1.00  0.00     0.037 A 
ATOM     17  C   UNL     1       6.649   6.742   1.369  1.00  0.00     0.056 A 
ATOM     18  C   UNL     1       8.942   7.492   1.826  1.00  0.00     0.017 A 
ATOM     19  C   UNL     1       6.299   8.056   1.055  1.00  0.00     0.027 A 
ATOM     20  C   UNL     1       8.564   8.804   1.557  1.00  0.00     0.001 A 
ATOM     21  C   UNL     1       7.253   9.082   1.160  1.00  0.00     0.002 A 
BRANCH  15  22
ATOM     22  C   UNL     1       4.354   5.870   1.524  1.00  0.00     0.124 C 
BRANCH  22  23
ATOM     23  C   UNL     1       3.608   5.882   0.176  1.00  0.00     0.037 C 
BRANCH  23  24
ATOM     24  C   UNL     1       2.816   4.630  -0.177  1.00  0.00     0.124 C 
BRANCH  24  25
ATOM     25  S   UNL     1       1.302   4.333   0.746  1.00  0.00     0.095 S 
ATOM     26  O   UNL     1       0.275   5.221   0.259  1.00  0.00    -0.243 OA
ATOM     27  O   UNL     1       1.096   2.906   0.867  1.00  0.00    -0.243 OA
ATOM     28  O   UNL     1       1.737   4.838   2.214  1.00  0.00    -0.748 OA
ENDBRANCH  24  25
ENDBRANCH  23  24
ENDBRANCH  22  23
ENDBRANCH  15  22
ENDBRANCH   5   6
ENDBRANCH   2   5
BRANCH   3  29
ATOM     29  C   UNL     1       2.268  -2.368   1.149  1.00  0.00     0.117 C 
BRANCH  29  30
ATOM     30  C   UNL     1       2.504  -3.398   0.047  1.00  0.00     0.042 C 
BRANCH  30  31
ATOM     31  C   UNL     1       3.949  -3.857  -0.103  1.00  0.00     0.118 C 
BRANCH  31  32
ATOM     32  N   UNL     1       4.544  -4.356   1.132  1.00  0.00    -0.352 N 
ATOM     33  C   UNL     1       5.265  -5.505   1.354  1.00  0.00     0.251 C 
ATOM     34  H   UNL     1       4.409  -3.785   1.923  1.00  0.00     0.163 HD
ATOM     35  O   UNL     1       5.633  -5.803   2.485  1.00  0.00    -0.269 OA
BRANCH  33  36
ATOM     36  C   UNL     1       5.531  -6.410   0.221  1.00  0.00     0.039 A 
ATOM     37  C   UNL     1       6.047  -5.910  -0.976  1.00  0.00     0.014 A 
ATOM     38  C   UNL     1       5.155  -7.750   0.329  1.00  0.00     0.014 A 
ATOM     39  C   UNL     1       5.985  -6.694  -2.121  1.00  0.00     0.010 A 
ATOM     40  C   UNL     1       5.180  -8.562  -0.805  1.00  0.00     0.010 A 
ATOM     41  C   UNL     1       5.525  -8.020  -2.053  1.00  0.00    -0.014 A 
BRANCH  41  42
ATOM     42  C   UNL     1       5.357  -8.814  -3.297  1.00  0.00     0.031 A 
ATOM     43  C   UNL     1       3.988  -9.278  -3.724  1.00  0.00     0.074 A 
ATOM     44  C   UNL     1       6.429  -9.085  -4.065  1.00  0.00     0.049 A 
ATOM     45  N   UNL     1       3.653 -10.018  -4.752  1.00  0.00    -0.248 NA
ATOM     46  C   UNL     1       2.845  -8.860  -2.895  1.00  0.00     0.031 C 
ATOM     47  C   UNL     1       7.797  -8.648  -3.783  1.00  0.00     0.029 A 
ATOM     48  N   UNL     1       6.535  -9.778  -5.244  1.00  0.00    -0.354 N 
ATOM     49  C   UNL     1       2.273 -10.171  -4.678  1.00  0.00     0.074 A 
ATOM     50  C   UNL     1       1.832  -9.475  -3.491  1.00  0.00     0.031 C 
ATOM     51  C   UNL     1       8.597  -9.047  -4.781  1.00  0.00     0.029 A 
ATOM     52  C   UNL     1       7.819  -9.838  -5.729  1.00  0.00     0.049 A 
ATOM     53  H   UNL     1       5.766 -10.192  -5.698  1.00  0.00     0.167 HD
ATOM     54  C   UNL     1       1.450 -10.824  -5.531  1.00  0.00     0.031 A 
ATOM     55  C   UNL     1       8.326 -10.481  -6.799  1.00  0.00     0.031 A 
ATOM     56  C   UNL     1       1.896 -11.498  -6.723  1.00  0.00     0.049 A 
ATOM     57  C   UNL     1       7.404 -11.274  -7.682  1.00  0.00     0.074 A 
ATOM     58  C   UNL     1       1.130 -12.163  -7.665  1.00  0.00     0.029 A 
ATOM     59  N   UNL     1       3.215 -11.595  -7.136  1.00  0.00    -0.354 N 
ATOM     60  N   UNL     1       6.101 -11.400  -7.606  1.00  0.00    -0.248 NA
ATOM     61  C   UNL     1       8.016 -12.015  -8.794  1.00  0.00     0.031 C 
ATOM     62  C   UNL     1       1.992 -12.730  -8.603  1.00  0.00     0.029 A 
ATOM     63  C   UNL     1       3.288 -12.347  -8.296  1.00  0.00     0.049 A 
ATOM     64  H   UNL     1       3.984 -11.190  -6.673  1.00  0.00     0.167 HD
ATOM     65  C   UNL     1       5.736 -12.220  -8.665  1.00  0.00     0.074 A 
ATOM     66  C   UNL     1       6.951 -12.545  -9.383  1.00  0.00     0.031 C 
ATOM     67  C   UNL     1       4.502 -12.664  -9.006  1.00  0.00     0.031 A 
BRANCH  54  68
ATOM     68  C   UNL     1      -0.023 -10.865  -5.223  1.00  0.00    -0.014 A 
ATOM     69  C   UNL     1      -0.636 -12.094  -4.925  1.00  0.00     0.009 A 
ATOM     70  C   UNL     1      -0.828  -9.722  -5.346  1.00  0.00     0.009 A 
ATOM     71  C   UNL     1      -2.022 -12.184  -4.783  1.00  0.00     0.001 A 
ATOM     72  C   UNL     1      -2.211  -9.808  -5.170  1.00  0.00     0.001 A 
ATOM     73  C   UNL     1      -2.808 -11.040  -4.903  1.00  0.00     0.000 A 
ENDBRANCH  54  68
BRANCH  55  74
ATOM     74  C   UNL     1       9.786 -10.398  -7.069  1.00  0.00    -0.014 A 
ATOM     75  C   UNL     1      10.712 -10.950  -6.166  1.00  0.00     0.009 A 
ATOM     76  C   UNL     1      10.267  -9.706  -8.189  1.00  0.00     0.009 A 
ATOM     77  C   UNL     1      12.084 -10.774  -6.356  1.00  0.00     0.001 A 
ATOM     78  C   UNL     1      11.642  -9.564  -8.396  1.00  0.00     0.001 A 
ATOM     79  C   UNL     1      12.548 -10.084  -7.473  1.00  0.00     0.000 A 
ENDBRANCH  55  74
BRANCH  67  80
ATOM     80  C   UNL     1       4.370 -13.551 -10.213  1.00  0.00    -0.014 A 
ATOM     81  C   UNL     1       3.678 -13.088 -11.345  1.00  0.00     0.009 A 
ATOM     82  C   UNL     1       4.794 -14.887 -10.175  1.00  0.00     0.009 A 
ATOM     83  C   UNL     1       3.381 -13.955 -12.398  1.00  0.00     0.001 A 
ATOM     84  C   UNL     1       4.524 -15.743 -11.244  1.00  0.00     0.001 A 
ATOM     85  C   UNL     1       3.804 -15.282 -12.346  1.00  0.00     0.000 A 
ENDBRANCH  67  80
ENDBRANCH  41  42
ENDBRANCH  33  36
ENDBRANCH  31  32
ENDBRANCH  30  31
ENDBRANCH  29  30
ENDBRANCH   3  29
TORSDOF 15
