REMARK SMILES C=CCN(CC(=O)NCCCNC(=O)c1ccc(-c2c3nc(c(-c4ccccc4)c4ccc([nH]4)c(-c4ccccc4)c4nc(c(-c5ccccc5)c5ccc2[nH]5)C=C4)C=C3)cc1)C(=O)NCC(C)C
REMARK SMILES IDX 9 1 8 2 6 3 7 4 5 6 4 7 3 8 2 9 1 10 63 11 64 12 65 13 66 15
REMARK SMILES IDX 67 16 68 17 69 18 10 19 11 20 12 21 13 22 14 24 15 25 16 26
REMARK SMILES IDX 62 27 17 28 61 29 18 30 19 31 20 32 55 33 21 34 60 35 54 36
REMARK SMILES IDX 56 37 22 38 59 39 53 40 52 41 23 43 45 44 30 45 44 46 31 47
REMARK SMILES IDX 34 48 43 49 57 50 32 51 33 52 42 54 58 55 35 56 24 57 25 58
REMARK SMILES IDX 29 59 26 60 28 61 27 62 46 63 47 64 51 65 48 66 50 67 49 68
REMARK SMILES IDX 36 69 37 70 41 71 38 72 40 73 39 74
REMARK H PARENT 8 5 65 14 12 23 56 42 34 53
REMARK Flexibility Score: inf
ROOT
ATOM      1  C   UNL     1      -4.438   0.848  -0.685  1.00  0.00     0.117 C 
ENDROOT
BRANCH   1   2
ATOM      2  N   UNL     1      -4.721   2.161  -0.148  1.00  0.00    -0.354 N 
ATOM      3  C   UNL     1      -3.924   3.266  -0.112  1.00  0.00     0.239 C 
ATOM      4  O   UNL     1      -4.497   4.359  -0.063  1.00  0.00    -0.273 OA
ATOM      5  H   UNL     1      -5.617   2.272   0.246  1.00  0.00     0.163 HD
BRANCH   3   6
ATOM      6  C   UNL     1      -2.399   3.192  -0.297  1.00  0.00     0.221 C 
BRANCH   6   7
ATOM      7  N   UNL     1      -1.716   2.167   0.489  1.00  0.00    -0.312 N 
BRANCH   7   8
ATOM      8  C   UNL     1      -1.071   1.092  -0.268  1.00  0.00     0.149 C 
BRANCH   8   9
ATOM      9  C   UNL     1       0.412   1.303  -0.347  1.00  0.00    -0.013 C 
ATOM     10  C   UNL     1       1.302   0.348  -0.041  1.00  0.00     0.006 C 
ENDBRANCH   8   9
ENDBRANCH   7   8
BRANCH   7  11
ATOM     11  C   UNL     1      -1.556   2.141   1.845  1.00  0.00     0.318 C 
ATOM     12  O   UNL     1      -1.031   1.175   2.411  1.00  0.00    -0.249 OA
ATOM     13  N   UNL     1      -1.944   3.117   2.678  1.00  0.00    -0.338 N 
ATOM     14  H   UNL     1      -1.706   2.883   3.604  1.00  0.00     0.165 HD
BRANCH  13  15
ATOM     15  C   UNL     1      -2.606   4.418   2.647  1.00  0.00     0.120 C 
BRANCH  15  16
ATOM     16  C   UNL     1      -3.981   4.358   3.338  1.00  0.00     0.002 C 
ATOM     17  C   UNL     1      -3.838   4.184   4.854  1.00  0.00     0.009 C 
ATOM     18  C   UNL     1      -4.793   5.624   3.056  1.00  0.00     0.009 C 
ENDBRANCH  15  16
ENDBRANCH  13  15
ENDBRANCH   7  11
ENDBRANCH   6   7
ENDBRANCH   3   6
ENDBRANCH   1   2
BRANCH   1  19
ATOM     19  C   UNL     1      -4.298  -0.238   0.374  1.00  0.00     0.042 C 
BRANCH  19  20
ATOM     20  C   UNL     1      -5.565  -0.517   1.178  1.00  0.00     0.118 C 
BRANCH  20  21
ATOM     21  N   UNL     1      -6.697  -0.892   0.341  1.00  0.00    -0.352 N 
ATOM     22  C   UNL     1      -7.428  -2.047   0.265  1.00  0.00     0.251 C 
ATOM     23  H   UNL     1      -6.989  -0.188  -0.282  1.00  0.00     0.163 HD
ATOM     24  O   UNL     1      -8.222  -2.183  -0.667  1.00  0.00    -0.269 OA
BRANCH  22  25
ATOM     25  C   UNL     1      -7.290  -3.133   1.261  1.00  0.00     0.039 A 
ATOM     26  C   UNL     1      -7.428  -4.457   0.825  1.00  0.00     0.014 A 
ATOM     27  C   UNL     1      -7.114  -2.873   2.622  1.00  0.00     0.014 A 
ATOM     28  C   UNL     1      -7.347  -5.510   1.739  1.00  0.00     0.010 A 
ATOM     29  C   UNL     1      -6.957  -3.926   3.523  1.00  0.00     0.010 A 
ATOM     30  C   UNL     1      -7.088  -5.255   3.094  1.00  0.00    -0.014 A 
BRANCH  30  31
ATOM     31  C   UNL     1      -6.973  -6.366   4.073  1.00  0.00     0.031 A 
ATOM     32  C   UNL     1      -7.979  -6.510   5.183  1.00  0.00     0.074 A 
ATOM     33  C   UNL     1      -5.938  -7.223   3.991  1.00  0.00     0.049 A 
ATOM     34  N   UNL     1      -8.025  -7.397   6.146  1.00  0.00    -0.248 NA
ATOM     35  C   UNL     1      -9.063  -5.516   5.231  1.00  0.00     0.031 C 
ATOM     36  C   UNL     1      -4.874  -7.174   2.987  1.00  0.00     0.029 A 
ATOM     37  N   UNL     1      -5.612  -8.306   4.769  1.00  0.00    -0.354 N 
ATOM     38  C   UNL     1      -9.126  -7.055   6.923  1.00  0.00     0.074 A 
ATOM     39  C   UNL     1      -9.693  -5.855   6.346  1.00  0.00     0.031 C 
ATOM     40  C   UNL     1      -4.030  -8.199   3.190  1.00  0.00     0.029 A 
ATOM     41  C   UNL     1      -4.473  -8.955   4.357  1.00  0.00     0.049 A 
ATOM     42  H   UNL     1      -6.143  -8.590   5.548  1.00  0.00     0.167 HD
ATOM     43  C   UNL     1      -9.632  -7.690   8.007  1.00  0.00     0.031 A 
ATOM     44  C   UNL     1      -3.856 -10.040   4.860  1.00  0.00     0.031 A 
ATOM     45  C   UNL     1      -9.081  -8.892   8.574  1.00  0.00     0.049 A 
ATOM     46  C   UNL     1      -4.438 -10.730   6.061  1.00  0.00     0.074 A 
ATOM     47  C   UNL     1      -9.554  -9.640   9.638  1.00  0.00     0.029 A 
ATOM     48  N   UNL     1      -7.933  -9.522   8.119  1.00  0.00    -0.354 N 
ATOM     49  N   UNL     1      -5.514 -10.428   6.746  1.00  0.00    -0.248 NA
ATOM     50  C   UNL     1      -3.725 -11.919   6.549  1.00  0.00     0.031 C 
ATOM     51  C   UNL     1      -8.669 -10.702   9.853  1.00  0.00     0.029 A 
ATOM     52  C   UNL     1      -7.673 -10.642   8.892  1.00  0.00     0.049 A 
ATOM     53  H   UNL     1      -7.385  -9.220   7.360  1.00  0.00     0.167 HD
ATOM     54  C   UNL     1      -5.624 -11.405   7.726  1.00  0.00     0.074 A 
ATOM     55  C   UNL     1      -4.512 -12.315   7.540  1.00  0.00     0.031 C 
ATOM     56  C   UNL     1      -6.565 -11.538   8.692  1.00  0.00     0.031 A 
BRANCH  43  57
ATOM     57  C   UNL     1     -10.847  -7.087   8.655  1.00  0.00    -0.014 A 
ATOM     58  C   UNL     1     -12.102  -7.128   8.026  1.00  0.00     0.009 A 
ATOM     59  C   UNL     1     -10.742  -6.492   9.922  1.00  0.00     0.009 A 
ATOM     60  C   UNL     1     -13.218  -6.551   8.635  1.00  0.00     0.001 A 
ATOM     61  C   UNL     1     -11.866  -5.940  10.541  1.00  0.00     0.001 A 
ATOM     62  C   UNL     1     -13.100  -5.961   9.893  1.00  0.00     0.000 A 
ENDBRANCH  43  57
BRANCH  44  63
ATOM     63  C   UNL     1      -2.629 -10.563   4.206  1.00  0.00    -0.014 A 
ATOM     64  C   UNL     1      -2.675 -11.755   3.466  1.00  0.00     0.009 A 
ATOM     65  C   UNL     1      -1.411  -9.875   4.313  1.00  0.00     0.009 A 
ATOM     66  C   UNL     1      -1.520 -12.258   2.864  1.00  0.00     0.001 A 
ATOM     67  C   UNL     1      -0.263 -10.367   3.688  1.00  0.00     0.001 A 
ATOM     68  C   UNL     1      -0.317 -11.562   2.972  1.00  0.00     0.000 A 
ENDBRANCH  44  63
BRANCH  56  69
ATOM     69  C   UNL     1      -6.454 -12.731   9.598  1.00  0.00    -0.014 A 
ATOM     70  C   UNL     1      -5.474 -12.799  10.599  1.00  0.00     0.009 A 
ATOM     71  C   UNL     1      -7.371 -13.786   9.469  1.00  0.00     0.009 A 
ATOM     72  C   UNL     1      -5.395 -13.915  11.434  1.00  0.00     0.001 A 
ATOM     73  C   UNL     1      -7.306 -14.889  10.321  1.00  0.00     0.001 A 
ATOM     74  C   UNL     1      -6.313 -14.956  11.297  1.00  0.00     0.000 A 
ENDBRANCH  56  69
ENDBRANCH  30  31
ENDBRANCH  22  25
ENDBRANCH  20  21
ENDBRANCH  19  20
ENDBRANCH   1  19
TORSDOF 16
