REMARK SMILES Cc1ccc(S(=O)(=O)n2cc(C(=O)C(=O)N[C@@H](Cc3c[nH]c4ccccc34)C(=O)NCCCNC(=O)c3ccc(-c4c5nc(c(-c6ccccc6)c6ccc([nH]6)c(-c6ccccc6)c6nc(c(-c7ccccc7)c7ccc4[nH]7)C=C6)C=C5)cc3)c3ccccc32)cc1
REMARK SMILES IDX 28 1 29 2 30 3 17 5 16 6 14 7 15 8 12 10 13 11 11 12 9 13
REMARK SMILES IDX 10 14 90 15 85 16 89 17 86 18 88 19 87 20 6 21 7 22 8 23
REMARK SMILES IDX 5 24 1 25 2 26 3 27 92 28 4 29 91 30 18 31 19 32 20 33 27 34
REMARK SMILES IDX 21 35 22 36 26 37 23 39 25 40 24 41 31 42 32 43 33 44 34 45
REMARK SMILES IDX 35 46 36 48 37 49 38 50 84 51 39 52 83 53 40 54 41 55 42 56
REMARK SMILES IDX 77 57 43 58 82 59 76 60 78 61 44 62 81 63 75 64 74 65 45 67
REMARK SMILES IDX 67 68 52 69 66 70 53 71 56 72 65 73 79 74 54 75 55 76 64 78
REMARK SMILES IDX 80 79 57 80 46 81 47 82 51 83 48 84 50 85 49 86 68 87 69 88
REMARK SMILES IDX 73 89 70 90 72 91 71 92 58 93 59 94 63 95 60 96 62 97 61 98
REMARK H PARENT 30 4 16 9 21 38 34 47 78 66 56 77
REMARK Flexibility Score: inf
ROOT
ATOM      1  C   UNL     1     -11.644   1.639  -1.230  1.00  0.00     0.242 C 
ATOM      2  O   UNL     1     -11.964   0.501  -1.600  1.00  0.00    -0.273 OA
ATOM      3  N   UNL     1     -12.208   2.661  -1.928  1.00  0.00    -0.354 N 
ATOM      4  H   UNL     1     -12.339   2.466  -2.884  1.00  0.00     0.163 HD
ENDROOT
BRANCH   1   5
ATOM      5  C   UNL     1     -10.746   1.801   0.022  1.00  0.00     0.176 C 
BRANCH   5   6
ATOM      6  N   UNL     1      -9.657   2.791  -0.081  1.00  0.00    -0.337 N 
ATOM      7  C   UNL     1      -8.301   2.612  -0.375  1.00  0.00     0.293 C 
ATOM      8  O   UNL     1      -7.513   3.534  -0.241  1.00  0.00    -0.265 OA
ATOM      9  H   UNL     1      -9.927   3.724   0.082  1.00  0.00     0.164 HD
BRANCH   7  10
ATOM     10  C   UNL     1      -7.797   1.270  -0.933  1.00  0.00     0.252 C 
ATOM     11  O   UNL     1      -8.471   0.803  -1.851  1.00  0.00    -0.283 OA
BRANCH  10  12
ATOM     12  C   UNL     1      -6.656   0.515  -0.364  1.00  0.00     0.054 A 
ATOM     13  N   UNL     1      -4.686  -0.226   0.509  1.00  0.00    -0.240 N 
ATOM     14  C   UNL     1      -5.350   0.895  -0.008  1.00  0.00     0.117 A 
ATOM     15  C   UNL     1      -5.644  -1.246   0.651  1.00  0.00     0.065 A 
ATOM     16  C   UNL     1      -6.689  -0.907  -0.204  1.00  0.00     0.012 A 
ATOM     17  C   UNL     1      -5.542  -2.536   1.211  1.00  0.00     0.028 A 
ATOM     18  C   UNL     1      -7.528  -1.940  -0.677  1.00  0.00     0.011 A 
ATOM     19  C   UNL     1      -6.335  -3.548   0.675  1.00  0.00     0.002 A 
ATOM     20  C   UNL     1      -7.287  -3.262  -0.293  1.00  0.00     0.001 A 
BRANCH  13  21
ATOM     21  S   UNL     1      -3.146  -0.881  -0.025  1.00  0.00     0.268 S 
ATOM     22  O   UNL     1      -3.413  -1.266  -1.400  1.00  0.00    -0.201 OA
ATOM     23  O   UNL     1      -2.874  -1.884   0.998  1.00  0.00    -0.201 OA
BRANCH  21  24
ATOM     24  C   UNL     1      -1.592  -0.059  -0.076  1.00  0.00     0.088 A 
ATOM     25  C   UNL     1       2.613   0.966  -0.034  1.00  0.00     0.044 C 
ATOM     26  C   UNL     1       1.144   0.655  -0.090  1.00  0.00    -0.051 A 
ATOM     27  C   UNL     1       0.781  -0.657  -0.351  1.00  0.00     0.005 A 
ATOM     28  C   UNL     1       0.128   1.606   0.160  1.00  0.00     0.005 A 
ATOM     29  C   UNL     1      -0.561  -0.997  -0.356  1.00  0.00     0.022 A 
ATOM     30  C   UNL     1      -1.250   1.257   0.175  1.00  0.00     0.022 A 
ENDBRANCH  21  24
ENDBRANCH  13  21
ENDBRANCH  10  12
ENDBRANCH   7  10
ENDBRANCH   5   6
BRANCH   5  31
ATOM     31  C   UNL     1     -11.547   1.848   1.360  1.00  0.00     0.072 C 
BRANCH  31  32
ATOM     32  C   UNL     1     -12.341   3.087   1.695  1.00  0.00    -0.020 A 
ATOM     33  C   UNL     1     -13.723   3.162   1.789  1.00  0.00     0.087 A 
ATOM     34  C   UNL     1     -11.852   4.410   1.969  1.00  0.00     0.003 A 
ATOM     35  N   UNL     1     -14.080   4.473   1.975  1.00  0.00    -0.361 N 
ATOM     36  C   UNL     1     -12.957   5.265   2.006  1.00  0.00     0.046 A 
ATOM     37  C   UNL     1     -10.570   4.980   2.105  1.00  0.00     0.010 A 
ATOM     38  H   UNL     1     -15.004   4.799   2.072  1.00  0.00     0.166 HD
ATOM     39  C   UNL     1     -12.838   6.660   2.054  1.00  0.00     0.026 A 
ATOM     40  C   UNL     1     -10.430   6.372   2.120  1.00  0.00     0.001 A 
ATOM     41  C   UNL     1     -11.548   7.198   2.068  1.00  0.00     0.002 A 
ENDBRANCH  31  32
ENDBRANCH   5  31
ENDBRANCH   1   5
BRANCH   3  42
ATOM     42  C   UNL     1     -12.654   3.984  -1.534  1.00  0.00     0.117 C 
BRANCH  42  43
ATOM     43  C   UNL     1     -11.631   5.089  -1.722  1.00  0.00     0.042 C 
BRANCH  43  44
ATOM     44  C   UNL     1     -12.254   6.334  -2.338  1.00  0.00     0.118 C 
BRANCH  44  45
ATOM     45  N   UNL     1     -13.012   7.213  -1.446  1.00  0.00    -0.352 N 
ATOM     46  C   UNL     1     -13.820   8.292  -1.794  1.00  0.00     0.251 C 
ATOM     47  H   UNL     1     -12.941   7.018  -0.483  1.00  0.00     0.163 HD
ATOM     48  O   UNL     1     -14.425   8.939  -0.947  1.00  0.00    -0.269 OA
BRANCH  46  49
ATOM     49  C   UNL     1     -14.045   8.553  -3.240  1.00  0.00     0.039 A 
ATOM     50  C   UNL     1     -15.344   8.353  -3.715  1.00  0.00     0.014 A 
ATOM     51  C   UNL     1     -12.955   8.488  -4.100  1.00  0.00     0.014 A 
ATOM     52  C   UNL     1     -15.513   7.730  -4.946  1.00  0.00     0.010 A 
ATOM     53  C   UNL     1     -13.111   7.750  -5.257  1.00  0.00     0.010 A 
ATOM     54  C   UNL     1     -14.379   7.285  -5.626  1.00  0.00    -0.014 A 
BRANCH  54  55
ATOM     55  C   UNL     1     -14.433   6.226  -6.630  1.00  0.00     0.031 A 
ATOM     56  C   UNL     1     -14.195   6.553  -8.046  1.00  0.00     0.074 A 
ATOM     57  C   UNL     1     -14.713   4.939  -6.308  1.00  0.00     0.049 A 
ATOM     58  N   UNL     1     -14.798   5.971  -9.029  1.00  0.00    -0.248 NA
ATOM     59  C   UNL     1     -13.282   7.608  -8.463  1.00  0.00     0.031 C 
ATOM     60  C   UNL     1     -14.629   3.777  -7.193  1.00  0.00     0.029 A 
ATOM     61  N   UNL     1     -15.351   4.440  -5.173  1.00  0.00    -0.354 N 
ATOM     62  C   UNL     1     -14.129   6.331 -10.173  1.00  0.00     0.074 A 
ATOM     63  C   UNL     1     -13.271   7.427  -9.785  1.00  0.00     0.031 C 
ATOM     64  C   UNL     1     -15.458   2.827  -6.735  1.00  0.00     0.029 A 
ATOM     65  C   UNL     1     -16.172   3.381  -5.601  1.00  0.00     0.049 A 
ATOM     66  H   UNL     1     -15.246   4.766  -4.250  1.00  0.00     0.167 HD
ATOM     67  C   UNL     1     -14.236   5.568 -11.296  1.00  0.00     0.031 A 
ATOM     68  C   UNL     1     -17.521   3.336  -5.399  1.00  0.00     0.031 A 
ATOM     69  C   UNL     1     -15.124   4.419 -11.114  1.00  0.00     0.049 A 
ATOM     70  C   UNL     1     -18.326   3.252  -6.684  1.00  0.00     0.074 A 
ATOM     71  C   UNL     1     -14.911   3.058 -10.956  1.00  0.00     0.029 A 
ATOM     72  N   UNL     1     -16.455   4.634 -10.793  1.00  0.00    -0.354 N 
ATOM     73  N   UNL     1     -17.810   3.211  -7.880  1.00  0.00    -0.248 NA
ATOM     74  C   UNL     1     -19.786   3.352  -6.721  1.00  0.00     0.031 C 
ATOM     75  C   UNL     1     -16.138   2.455 -10.563  1.00  0.00     0.029 A 
ATOM     76  C   UNL     1     -17.096   3.447 -10.489  1.00  0.00     0.049 A 
ATOM     77  H   UNL     1     -16.888   5.518 -10.782  1.00  0.00     0.167 HD
ATOM     78  C   UNL     1     -18.799   3.363  -8.820  1.00  0.00     0.074 A 
ATOM     79  C   UNL     1     -20.021   3.441  -8.041  1.00  0.00     0.031 C 
ATOM     80  C   UNL     1     -18.514   3.475 -10.154  1.00  0.00     0.031 A 
BRANCH  67  81
ATOM     81  C   UNL     1     -13.291   5.722 -12.463  1.00  0.00    -0.014 A 
ATOM     82  C   UNL     1     -12.965   4.607 -13.254  1.00  0.00     0.009 A 
ATOM     83  C   UNL     1     -12.652   6.926 -12.807  1.00  0.00     0.009 A 
ATOM     84  C   UNL     1     -11.970   4.660 -14.239  1.00  0.00     0.001 A 
ATOM     85  C   UNL     1     -11.620   6.978 -13.753  1.00  0.00     0.001 A 
ATOM     86  C   UNL     1     -11.269   5.838 -14.460  1.00  0.00     0.000 A 
ENDBRANCH  67  81
BRANCH  68  87
ATOM     87  C   UNL     1     -17.953   4.057  -4.171  1.00  0.00    -0.014 A 
ATOM     88  C   UNL     1     -17.542   3.536  -2.928  1.00  0.00     0.009 A 
ATOM     89  C   UNL     1     -18.359   5.397  -4.239  1.00  0.00     0.009 A 
ATOM     90  C   UNL     1     -17.390   4.373  -1.820  1.00  0.00     0.001 A 
ATOM     91  C   UNL     1     -18.222   6.226  -3.121  1.00  0.00     0.001 A 
ATOM     92  C   UNL     1     -17.694   5.727  -1.930  1.00  0.00     0.000 A 
ENDBRANCH  68  87
BRANCH  80  93
ATOM     93  C   UNL     1     -19.512   3.668 -11.280  1.00  0.00    -0.014 A 
ATOM     94  C   UNL     1     -20.864   3.313 -11.218  1.00  0.00     0.009 A 
ATOM     95  C   UNL     1     -19.060   4.162 -12.528  1.00  0.00     0.009 A 
ATOM     96  C   UNL     1     -21.730   3.524 -12.304  1.00  0.00     0.001 A 
ATOM     97  C   UNL     1     -19.912   4.358 -13.619  1.00  0.00     0.001 A 
ATOM     98  C   UNL     1     -21.256   4.054 -13.500  1.00  0.00     0.000 A 
ENDBRANCH  80  93
ENDBRANCH  54  55
ENDBRANCH  46  49
ENDBRANCH  44  45
ENDBRANCH  43  44
ENDBRANCH  42  43
ENDBRANCH   3  42
TORSDOF 17
