REMARK SMILES O=C(NCCCNC(=O)[C@H]1CC2=c3ccccc3=N[C@H]2[C@@H](c2ccccc2)[NH2+]1)c1ccc(-c2c3nc(c(-c4ccccc4)c4ccc([nH]4)c(-c4ccccc4)c4nc(c(-c5ccccc5)c5ccc2[nH]5)C=C4)C=C3)cc1
REMARK SMILES IDX 4 1 3 2 1 3 2 4 29 6 30 7 76 8 31 9 75 10 32 11 33 12 34 13
REMARK SMILES IDX 69 14 35 15 74 16 68 17 70 18 36 19 73 20 67 21 66 22 37 24
REMARK SMILES IDX 59 25 44 26 58 27 45 28 48 29 57 30 71 31 46 32 47 33 56 35
REMARK SMILES IDX 72 36 49 37 38 38 39 39 43 40 40 41 42 42 41 43 60 44 61 45
REMARK SMILES IDX 65 46 62 47 64 48 63 49 50 50 51 51 55 52 52 53 54 54 53 55
REMARK SMILES IDX 5 56 6 57 7 58 8 59 9 61 10 62 11 63 28 64 12 65 21 66 13 69
REMARK SMILES IDX 20 70 14 71 18 72 19 73 15 74 17 75 16 76 22 77 23 78 27 79
REMARK SMILES IDX 24 80 26 81 25 82
REMARK H PARENT 3 5 70 23 48 34 7 60 28 67 28 68
REMARK Flexibility Score: inf
ROOT
ATOM      1  C   UNL     1       4.289  -0.657  -1.191  1.00  0.00     0.118 C 
ENDROOT
BRANCH   1   2
ATOM      2  N   UNL     1       2.902  -0.245  -1.075  1.00  0.00    -0.352 N 
ATOM      3  O   UNL     1       0.997   0.373  -0.077  1.00  0.00    -0.269 OA
ATOM      4  C   UNL     1       2.234   0.371  -0.052  1.00  0.00     0.251 C 
ATOM      5  H   UNL     1       2.349  -0.441  -1.866  1.00  0.00     0.163 HD
BRANCH   4   6
ATOM      6  C   UNL     1       2.931   1.039   1.074  1.00  0.00     0.039 A 
ATOM      7  C   UNL     1       2.284   1.097   2.315  1.00  0.00     0.014 A 
ATOM      8  C   UNL     1       4.138   1.724   0.907  1.00  0.00     0.014 A 
ATOM      9  C   UNL     1       2.829   1.845   3.363  1.00  0.00     0.010 A 
ATOM     10  C   UNL     1       4.735   2.383   1.983  1.00  0.00     0.010 A 
ATOM     11  C   UNL     1       4.056   2.505   3.202  1.00  0.00    -0.014 A 
BRANCH  11  12
ATOM     12  C   UNL     1       4.567   3.437   4.242  1.00  0.00     0.031 A 
ATOM     13  C   UNL     1       4.675   4.911   3.931  1.00  0.00     0.074 A 
ATOM     14  C   UNL     1       4.925   2.981   5.457  1.00  0.00     0.049 A 
ATOM     15  N   UNL     1       5.108   5.887   4.690  1.00  0.00    -0.248 NA
ATOM     16  C   UNL     1       4.266   5.344   2.583  1.00  0.00     0.031 C 
ATOM     17  C   UNL     1       4.881   1.583   5.886  1.00  0.00     0.029 A 
ATOM     18  N   UNL     1       5.381   3.655   6.564  1.00  0.00    -0.354 N 
ATOM     19  C   UNL     1       5.051   7.032   3.902  1.00  0.00     0.074 A 
ATOM     20  C   UNL     1       4.591   6.628   2.595  1.00  0.00     0.031 C 
ATOM     21  C   UNL     1       5.241   1.509   7.178  1.00  0.00     0.029 A 
ATOM     22  C   UNL     1       5.574   2.848   7.659  1.00  0.00     0.049 A 
ATOM     23  H   UNL     1       5.553   4.624   6.572  1.00  0.00     0.167 HD
ATOM     24  C   UNL     1       5.327   8.312   4.242  1.00  0.00     0.031 A 
ATOM     25  C   UNL     1       5.955   3.153   8.915  1.00  0.00     0.031 A 
ATOM     26  C   UNL     1       5.729   8.729   5.556  1.00  0.00     0.049 A 
ATOM     27  C   UNL     1       6.225   4.588   9.278  1.00  0.00     0.074 A 
ATOM     28  C   UNL     1       5.993  10.010   6.008  1.00  0.00     0.029 A 
ATOM     29  N   UNL     1       5.899   7.877   6.634  1.00  0.00    -0.354 N 
ATOM     30  N   UNL     1       6.144   5.658   8.527  1.00  0.00    -0.248 NA
ATOM     31  C   UNL     1       6.621   4.858  10.669  1.00  0.00     0.031 C 
ATOM     32  C   UNL     1       6.353   9.930   7.355  1.00  0.00     0.029 A 
ATOM     33  C   UNL     1       6.263   8.605   7.752  1.00  0.00     0.049 A 
ATOM     34  H   UNL     1       5.779   6.900   6.609  1.00  0.00     0.167 HD
ATOM     35  C   UNL     1       6.440   6.730   9.360  1.00  0.00     0.074 A 
ATOM     36  C   UNL     1       6.699   6.183  10.675  1.00  0.00     0.031 C 
ATOM     37  C   UNL     1       6.489   8.050   9.059  1.00  0.00     0.031 A 
BRANCH  24  38
ATOM     38  C   UNL     1       5.188   9.367   3.181  1.00  0.00    -0.014 A 
ATOM     39  C   UNL     1       6.330  10.011   2.681  1.00  0.00     0.009 A 
ATOM     40  C   UNL     1       3.924   9.777   2.728  1.00  0.00     0.009 A 
ATOM     41  C   UNL     1       6.211  11.049   1.755  1.00  0.00     0.001 A 
ATOM     42  C   UNL     1       3.808  10.796   1.780  1.00  0.00     0.001 A 
ATOM     43  C   UNL     1       4.951  11.436   1.301  1.00  0.00     0.000 A 
ENDBRANCH  24  38
BRANCH  25  44
ATOM     44  C   UNL     1       6.032   2.083   9.942  1.00  0.00    -0.014 A 
ATOM     45  C   UNL     1       7.053   1.121   9.908  1.00  0.00     0.009 A 
ATOM     46  C   UNL     1       5.062   2.007  10.955  1.00  0.00     0.009 A 
ATOM     47  C   UNL     1       7.095   0.099  10.860  1.00  0.00     0.001 A 
ATOM     48  C   UNL     1       5.122   1.000  11.921  1.00  0.00     0.001 A 
ATOM     49  C   UNL     1       6.134   0.044  11.869  1.00  0.00     0.000 A 
ENDBRANCH  25  44
BRANCH  37  50
ATOM     50  C   UNL     1       6.782   9.016  10.170  1.00  0.00    -0.014 A 
ATOM     51  C   UNL     1       5.764   9.868  10.629  1.00  0.00     0.009 A 
ATOM     52  C   UNL     1       8.079   9.164  10.683  1.00  0.00     0.009 A 
ATOM     53  C   UNL     1       6.040  10.856  11.574  1.00  0.00     0.001 A 
ATOM     54  C   UNL     1       8.346  10.138  11.647  1.00  0.00     0.001 A 
ATOM     55  C   UNL     1       7.330  10.988  12.085  1.00  0.00     0.000 A 
ENDBRANCH  37  50
ENDBRANCH  11  12
ENDBRANCH   4   6
ENDBRANCH   1   2
BRANCH   1  56
ATOM     56  C   UNL     1       4.464  -2.140  -0.897  1.00  0.00     0.042 C 
BRANCH  56  57
ATOM     57  C   UNL     1       4.040  -3.050  -2.047  1.00  0.00     0.118 C 
BRANCH  57  58
ATOM     58  N   UNL     1       4.885  -2.874  -3.218  1.00  0.00    -0.351 N 
ATOM     59  C   UNL     1       5.913  -3.617  -3.726  1.00  0.00     0.278 C 
ATOM     60  H   UNL     1       4.676  -2.068  -3.744  1.00  0.00     0.163 HD
ATOM     61  O   UNL     1       6.559  -3.119  -4.653  1.00  0.00    -0.268 OA
BRANCH  59  62
ATOM     62  C   UNL     1       6.256  -5.019  -3.177  1.00  0.00     0.277 C 
ATOM     63  C   UNL     1       6.764  -4.944  -1.720  1.00  0.00     0.109 C 
ATOM     64  N   UNL     1       5.114  -5.927  -3.450  1.00  0.00    -0.327 N 
ATOM     65  C   UNL     1       6.177  -6.028  -0.888  1.00  0.00    -0.024 C 
ATOM     66  C   UNL     1       5.269  -7.294  -2.878  1.00  0.00     0.243 C 
ATOM     67  H   UNL     1       5.008  -6.013  -4.461  1.00  0.00     0.347 HD
ATOM     68  H   UNL     1       4.297  -5.512  -3.001  1.00  0.00     0.347 HD
ATOM     69  C   UNL     1       5.605  -6.031   0.310  1.00  0.00     0.002 A 
ATOM     70  C   UNL     1       6.095  -7.378  -1.537  1.00  0.00     0.196 C 
ATOM     71  C   UNL     1       5.325  -5.060   1.316  1.00  0.00     0.010 A 
ATOM     72  C   UNL     1       5.207  -7.442   0.463  1.00  0.00     0.066 A 
ATOM     73  N   UNL     1       5.493  -8.260  -0.502  1.00  0.00    -0.270 NA
ATOM     74  C   UNL     1       4.662  -5.449   2.418  1.00  0.00     0.001 A 
ATOM     75  C   UNL     1       4.508  -7.798   1.714  1.00  0.00     0.028 A 
ATOM     76  C   UNL     1       4.253  -6.832   2.612  1.00  0.00     0.002 A 
BRANCH  66  77
ATOM     77  C   UNL     1       3.932  -8.045  -2.824  1.00  0.00     0.012 A 
ATOM     78  C   UNL     1       3.947  -9.448  -2.938  1.00  0.00     0.010 A 
ATOM     79  C   UNL     1       2.692  -7.423  -2.591  1.00  0.00     0.010 A 
ATOM     80  C   UNL     1       2.774 -10.197  -2.827  1.00  0.00     0.001 A 
ATOM     81  C   UNL     1       1.516  -8.172  -2.500  1.00  0.00     0.001 A 
ATOM     82  C   UNL     1       1.557  -9.558  -2.614  1.00  0.00     0.000 A 
ENDBRANCH  66  77
ENDBRANCH  59  62
ENDBRANCH  57  58
ENDBRANCH  56  57
ENDBRANCH   1  56
TORSDOF 11
