REMARK SMILES Cc1ccccc1[C@@H](Cc1c(Cl)cccc1Cl)C(=O)NCCCNC(=O)c1ccc(-c2c3nc(c(-c4ccccc4)c4ccc([nH]4)c(-c4ccccc4)c4nc(c(-c5ccccc5)c5ccc2[nH]5)C=C4)C=C3)cc1
REMARK SMILES IDX 22 1 21 2 20 3 18 4 19 5 8 7 7 8 1 9 2 10 3 11 4 12 6 13
REMARK SMILES IDX 5 14 9 15 10 16 11 17 16 18 12 19 13 20 15 21 17 22 14 23
REMARK SMILES IDX 23 24 24 25 25 26 26 28 27 29 28 30 74 31 29 32 73 33 30 34
REMARK SMILES IDX 31 35 32 36 67 37 33 38 72 39 66 40 68 41 34 42 71 43 65 44
REMARK SMILES IDX 64 45 35 47 57 48 42 49 56 50 43 51 46 52 55 53 69 54 44 55
REMARK SMILES IDX 45 56 54 58 70 59 47 60 36 61 37 62 41 63 38 64 40 65 39 66
REMARK SMILES IDX 58 67 59 68 63 69 60 70 62 71 61 72 48 73 49 74 53 75 50 76
REMARK SMILES IDX 52 77 51 78
REMARK H PARENT 20 6 24 27 68 46 46 57
REMARK Flexibility Score: inf
ROOT
ATOM      1  C   UNL     1      -2.868   2.998   0.346  1.00  0.00     0.042 C 
ENDROOT
BRANCH   1   2
ATOM      2  C   UNL     1      -1.701   3.977   0.281  1.00  0.00     0.117 C 
BRANCH   2   3
ATOM      3  N   UNL     1      -0.706   3.679   1.292  1.00  0.00    -0.355 N 
ATOM      4  C   UNL     1       0.407   2.897   1.273  1.00  0.00     0.227 C 
ATOM      5  O   UNL     1       0.888   2.636   2.385  1.00  0.00    -0.274 OA
ATOM      6  H   UNL     1      -0.865   4.127   2.154  1.00  0.00     0.163 HD
BRANCH   4   7
ATOM      7  C   UNL     1       1.077   2.329   0.001  1.00  0.00     0.113 C 
BRANCH   7   8
ATOM      8  C   UNL     1       0.566   0.913  -0.327  1.00  0.00    -0.032 A 
ATOM      9  C   UNL     1       2.761  -0.291   0.318  1.00  0.00     0.044 C 
ATOM     10  C   UNL     1       1.300  -0.262  -0.045  1.00  0.00    -0.047 A 
ATOM     11  C   UNL     1       0.651  -1.514  -0.102  1.00  0.00     0.004 A 
ATOM     12  C   UNL     1      -0.678  -1.626  -0.496  1.00  0.00     0.000 A 
ATOM     13  C   UNL     1      -0.730   0.752  -0.849  1.00  0.00     0.005 A 
ATOM     14  C   UNL     1      -1.359  -0.493  -0.907  1.00  0.00     0.000 A 
ENDBRANCH   7   8
BRANCH   7  15
ATOM     15  C   UNL     1       1.244   3.255  -1.231  1.00  0.00     0.057 C 
BRANCH  15  16
ATOM     16  C   UNL     1       1.414   4.763  -1.055  1.00  0.00    -0.010 A 
ATOM     17  C   UNL     1       0.754   5.657  -1.935  1.00  0.00     0.045 A 
ATOM     18  C   UNL     1       2.242   5.353  -0.078  1.00  0.00     0.045 A 
ATOM     19  Cl  UNL     1      -0.166   5.117  -3.303  1.00  0.00    -0.084 Cl
ATOM     20  C   UNL     1       0.823   7.047  -1.766  1.00  0.00     0.021 A 
ATOM     21  C   UNL     1       2.279   6.744   0.108  1.00  0.00     0.021 A 
ATOM     22  Cl  UNL     1       3.346   4.455   0.901  1.00  0.00    -0.084 Cl
ATOM     23  C   UNL     1       1.560   7.592  -0.725  1.00  0.00     0.003 A 
ENDBRANCH  15  16
ENDBRANCH   7  15
ENDBRANCH   4   7
ENDBRANCH   2   3
ENDBRANCH   1   2
BRANCH   1  24
ATOM     24  C   UNL     1      -3.937   3.370   1.355  1.00  0.00     0.118 C 
BRANCH  24  25
ATOM     25  N   UNL     1      -5.201   3.768   0.738  1.00  0.00    -0.352 N 
ATOM     26  C   UNL     1      -6.409   4.066   1.351  1.00  0.00     0.251 C 
ATOM     27  H   UNL     1      -5.194   3.833  -0.244  1.00  0.00     0.163 HD
ATOM     28  O   UNL     1      -7.365   4.447   0.705  1.00  0.00    -0.269 OA
BRANCH  26  29
ATOM     29  C   UNL     1      -6.452   4.055   2.832  1.00  0.00     0.039 A 
ATOM     30  C   UNL     1      -6.766   5.260   3.464  1.00  0.00     0.014 A 
ATOM     31  C   UNL     1      -5.877   3.005   3.541  1.00  0.00     0.014 A 
ATOM     32  C   UNL     1      -6.240   5.510   4.725  1.00  0.00     0.010 A 
ATOM     33  C   UNL     1      -5.256   3.294   4.740  1.00  0.00     0.010 A 
ATOM     34  C   UNL     1      -5.368   4.576   5.287  1.00  0.00    -0.014 A 
BRANCH  34  35
ATOM     35  C   UNL     1      -4.451   4.926   6.367  1.00  0.00     0.031 A 
ATOM     36  C   UNL     1      -4.710   4.430   7.738  1.00  0.00     0.074 A 
ATOM     37  C   UNL     1      -3.374   5.715   6.130  1.00  0.00     0.049 A 
ATOM     38  N   UNL     1      -4.372   5.061   8.815  1.00  0.00    -0.248 NA
ATOM     39  C   UNL     1      -5.442   3.196   8.004  1.00  0.00     0.031 C 
ATOM     40  C   UNL     1      -2.295   6.011   7.074  1.00  0.00     0.029 A 
ATOM     41  N   UNL     1      -3.109   6.582   5.064  1.00  0.00    -0.354 N 
ATOM     42  C   UNL     1      -4.539   4.191   9.869  1.00  0.00     0.074 A 
ATOM     43  C   UNL     1      -5.317   3.099   9.331  1.00  0.00     0.031 C 
ATOM     44  C   UNL     1      -1.722   7.171   6.717  1.00  0.00     0.029 A 
ATOM     45  C   UNL     1      -2.515   7.720   5.631  1.00  0.00     0.049 A 
ATOM     46  H   UNL     1      -3.300   6.425   4.111  1.00  0.00     0.167 HD
ATOM     47  C   UNL     1      -3.864   4.405  11.034  1.00  0.00     0.031 A 
ATOM     48  C   UNL     1      -3.046   8.979   5.613  1.00  0.00     0.031 A 
ATOM     49  C   UNL     1      -3.120   5.665  11.014  1.00  0.00     0.049 A 
ATOM     50  C   UNL     1      -3.180   9.602   6.993  1.00  0.00     0.074 A 
ATOM     51  C   UNL     1      -1.778   5.963  10.840  1.00  0.00     0.029 A 
ATOM     52  N   UNL     1      -3.806   6.869  10.910  1.00  0.00    -0.354 N 
ATOM     53  N   UNL     1      -3.145   8.916   8.101  1.00  0.00    -0.248 NA
ATOM     54  C   UNL     1      -3.438  11.022   7.235  1.00  0.00     0.031 C 
ATOM     55  C   UNL     1      -1.665   7.352  10.579  1.00  0.00     0.029 A 
ATOM     56  C   UNL     1      -2.935   7.900  10.615  1.00  0.00     0.049 A 
ATOM     57  H   UNL     1      -4.778   6.973  11.031  1.00  0.00     0.167 HD
ATOM     58  C   UNL     1      -3.374   9.743   9.169  1.00  0.00     0.074 A 
ATOM     59  C   UNL     1      -3.539  11.057   8.577  1.00  0.00     0.031 C 
ATOM     60  C   UNL     1      -3.428   9.261  10.445  1.00  0.00     0.031 A 
BRANCH  47  61
ATOM     61  C   UNL     1      -3.622   3.325  12.071  1.00  0.00    -0.014 A 
ATOM     62  C   UNL     1      -2.505   3.418  12.924  1.00  0.00     0.009 A 
ATOM     63  C   UNL     1      -4.398   2.163  12.218  1.00  0.00     0.009 A 
ATOM     64  C   UNL     1      -2.126   2.373  13.779  1.00  0.00     0.001 A 
ATOM     65  C   UNL     1      -4.009   1.098  13.043  1.00  0.00     0.001 A 
ATOM     66  C   UNL     1      -2.861   1.197  13.815  1.00  0.00     0.000 A 
ENDBRANCH  47  61
BRANCH  48  67
ATOM     67  C   UNL     1      -3.982   9.258   4.494  1.00  0.00    -0.014 A 
ATOM     68  C   UNL     1      -3.471   9.324   3.184  1.00  0.00     0.009 A 
ATOM     69  C   UNL     1      -5.367   9.131   4.669  1.00  0.00     0.009 A 
ATOM     70  C   UNL     1      -4.311   9.150   2.081  1.00  0.00     0.001 A 
ATOM     71  C   UNL     1      -6.206   8.966   3.561  1.00  0.00     0.001 A 
ATOM     72  C   UNL     1      -5.674   8.939   2.272  1.00  0.00     0.000 A 
ENDBRANCH  48  67
BRANCH  60  73
ATOM     73  C   UNL     1      -3.879  10.014  11.675  1.00  0.00    -0.014 A 
ATOM     74  C   UNL     1      -4.693  11.153  11.656  1.00  0.00     0.009 A 
ATOM     75  C   UNL     1      -3.579   9.476  12.949  1.00  0.00     0.009 A 
ATOM     76  C   UNL     1      -5.147  11.746  12.844  1.00  0.00     0.001 A 
ATOM     77  C   UNL     1      -4.065  10.037  14.133  1.00  0.00     0.001 A 
ATOM     78  C   UNL     1      -4.842  11.183  14.080  1.00  0.00     0.000 A 
ENDBRANCH  60  73
ENDBRANCH  34  35
ENDBRANCH  26  29
ENDBRANCH  24  25
ENDBRANCH   1  24
TORSDOF 13
