REMARK SMILES COc1cc(OC(F)(F)F)cc2c1O[C@@H](C(F)(F)F)C(C(=O)NCCCNC(=O)c1ccc(-c3c4nc(c(-c5ccccc5)c5ccc([nH]5)c(-c5ccccc5)c5nc(c(-c6ccccc6)c6ccc3[nH]6)C=C5)C=C4)cc1)=C2
REMARK SMILES IDX 25 1 24 2 23 3 21 4 22 5 20 7 3 8 4 9 13 10 5 11 12 12 14 13
REMARK SMILES IDX 11 14 78 15 15 16 2 17 1 18 6 19 7 20 8 21 9 22 10 23 16 24
REMARK SMILES IDX 17 25 18 26 19 27 26 28 27 29 28 30 29 32 30 33 31 34 77 35
REMARK SMILES IDX 32 36 76 37 33 38 34 39 35 40 70 41 36 42 75 43 69 44 71 45
REMARK SMILES IDX 37 46 74 47 68 48 67 49 38 51 60 52 45 53 59 54 46 55 49 56
REMARK SMILES IDX 58 57 72 58 47 59 48 60 57 62 73 63 50 64 39 65 40 66 44 67
REMARK SMILES IDX 41 68 43 69 42 70 61 71 62 72 66 73 63 74 65 75 64 76 51 77
REMARK SMILES IDX 52 78 56 79 53 80 55 81 54 82
REMARK H PARENT 23 6 27 31 71 50 49 61
REMARK Flexibility Score: inf
ROOT
ATOM      1  C   UNL     1       5.980   5.685  -3.796  1.00  0.00     0.042 C 
ENDROOT
BRANCH   1   2
ATOM      2  C   UNL     1       6.236   4.183  -3.947  1.00  0.00     0.118 C 
BRANCH   2   3
ATOM      3  N   UNL     1       6.696   3.615  -2.689  1.00  0.00    -0.352 N 
ATOM      4  C   UNL     1       6.050   3.020  -1.654  1.00  0.00     0.251 C 
ATOM      5  O   UNL     1       6.694   2.775  -0.637  1.00  0.00    -0.270 OA
ATOM      6  H   UNL     1       7.670   3.675  -2.564  1.00  0.00     0.163 HD
BRANCH   4   7
ATOM      7  C   UNL     1       4.628   2.595  -1.723  1.00  0.00     0.067 C 
ATOM      8  C   UNL     1       0.701   1.105  -1.889  1.00  0.00     0.165 A 
ATOM      9  C   UNL     1      -0.290   1.839  -2.553  1.00  0.00     0.097 A 
ATOM     10  C   UNL     1       2.013   1.588  -1.812  1.00  0.00     0.170 A 
ATOM     11  C   UNL     1       0.009   3.083  -3.104  1.00  0.00     0.134 A 
ATOM     12  C   UNL     1       2.313   2.837  -2.351  1.00  0.00     0.025 A 
ATOM     13  O   UNL     1       2.978   0.774  -1.298  1.00  0.00    -0.471 OA
ATOM     14  C   UNL     1       1.310   3.581  -2.986  1.00  0.00     0.059 A 
ATOM     15  C   UNL     1       3.682   3.329  -2.324  1.00  0.00     0.026 C 
ATOM     16  C   UNL     1       4.259   1.353  -0.921  1.00  0.00     0.314 C 
BRANCH   8  17
ATOM     17  O   UNL     1       0.301  -0.116  -1.407  1.00  0.00    -0.493 OA
ATOM     18  C   UNL     1       0.609  -0.299  -0.025  1.00  0.00     0.278 C 
ENDBRANCH   8  17
BRANCH  11  19
ATOM     19  O   UNL     1      -0.845   3.903  -3.783  1.00  0.00    -0.406 OA
BRANCH  19  20
ATOM     20  C   UNL     1      -2.178   3.458  -3.978  1.00  0.00     0.573 C 
ATOM     21  F   UNL     1      -2.211   2.304  -4.675  1.00  0.00    -0.132 F 
ATOM     22  F   UNL     1      -2.809   3.295  -2.796  1.00  0.00    -0.132 F 
ATOM     23  F   UNL     1      -2.844   4.397  -4.686  1.00  0.00    -0.132 F 
ENDBRANCH  19  20
ENDBRANCH  11  19
BRANCH  16  24
ATOM     24  C   UNL     1       5.293   0.202  -0.925  1.00  0.00     0.429 C 
ATOM     25  F   UNL     1       6.262   0.367   0.002  1.00  0.00    -0.167 F 
ATOM     26  F   UNL     1       4.699  -0.984  -0.620  1.00  0.00    -0.167 F 
ATOM     27  F   UNL     1       5.884   0.045  -2.131  1.00  0.00    -0.167 F 
ENDBRANCH  16  24
ENDBRANCH   4   7
ENDBRANCH   2   3
ENDBRANCH   1   2
BRANCH   1  28
ATOM     28  C   UNL     1       7.260   6.510  -3.680  1.00  0.00     0.118 C 
BRANCH  28  29
ATOM     29  N   UNL     1       7.969   6.589  -4.947  1.00  0.00    -0.352 N 
ATOM     30  C   UNL     1       8.363   7.689  -5.667  1.00  0.00     0.251 C 
ATOM     31  H   UNL     1       8.203   5.721  -5.349  1.00  0.00     0.163 HD
ATOM     32  O   UNL     1       8.747   7.547  -6.823  1.00  0.00    -0.269 OA
BRANCH  30  33
ATOM     33  C   UNL     1       8.321   9.042  -5.069  1.00  0.00     0.039 A 
ATOM     34  C   UNL     1       7.904  10.113  -5.866  1.00  0.00     0.014 A 
ATOM     35  C   UNL     1       8.749   9.273  -3.758  1.00  0.00     0.014 A 
ATOM     36  C   UNL     1       7.877  11.406  -5.338  1.00  0.00     0.010 A 
ATOM     37  C   UNL     1       8.663  10.553  -3.213  1.00  0.00     0.010 A 
ATOM     38  C   UNL     1       8.236  11.634  -4.000  1.00  0.00    -0.014 A 
BRANCH  38  39
ATOM     39  C   UNL     1       8.183  12.996  -3.413  1.00  0.00     0.031 A 
ATOM     40  C   UNL     1       9.448  13.684  -2.977  1.00  0.00     0.074 A 
ATOM     41  C   UNL     1       6.991  13.592  -3.220  1.00  0.00     0.049 A 
ATOM     42  N   UNL     1       9.596  14.845  -2.389  1.00  0.00    -0.248 NA
ATOM     43  C   UNL     1      10.710  12.965  -3.212  1.00  0.00     0.031 C 
ATOM     44  C   UNL     1       5.690  13.018  -3.569  1.00  0.00     0.029 A 
ATOM     45  N   UNL     1       6.681  14.812  -2.673  1.00  0.00    -0.354 N 
ATOM     46  C   UNL     1      10.960  14.984  -2.166  1.00  0.00     0.074 A 
ATOM     47  C   UNL     1      11.592  13.773  -2.644  1.00  0.00     0.031 C 
ATOM     48  C   UNL     1       4.724  13.894  -3.248  1.00  0.00     0.029 A 
ATOM     49  C   UNL     1       5.333  15.072  -2.638  1.00  0.00     0.049 A 
ATOM     50  H   UNL     1       7.361  15.440  -2.337  1.00  0.00     0.167 HD
ATOM     51  C   UNL     1      11.630  16.030  -1.626  1.00  0.00     0.031 A 
ATOM     52  C   UNL     1       4.661  16.137  -2.163  1.00  0.00     0.031 A 
ATOM     53  C   UNL     1      11.005  17.241  -1.164  1.00  0.00     0.049 A 
ATOM     54  C   UNL     1       5.426  17.283  -1.564  1.00  0.00     0.074 A 
ATOM     55  C   UNL     1      11.602  18.380  -0.653  1.00  0.00     0.029 A 
ATOM     56  N   UNL     1       9.637  17.469  -1.157  1.00  0.00    -0.354 N 
ATOM     57  N   UNL     1       6.720  17.423  -1.415  1.00  0.00    -0.248 NA
ATOM     58  C   UNL     1       4.635  18.423  -1.079  1.00  0.00     0.031 C 
ATOM     59  C   UNL     1      10.593  19.281  -0.296  1.00  0.00     0.029 A 
ATOM     60  C   UNL     1       9.371  18.722  -0.632  1.00  0.00     0.049 A 
ATOM     61  H   UNL     1       8.957  16.834  -1.478  1.00  0.00     0.167 HD
ATOM     62  C   UNL     1       6.902  18.676  -0.844  1.00  0.00     0.074 A 
ATOM     63  C   UNL     1       5.585  19.260  -0.687  1.00  0.00     0.031 C 
ATOM     64  C   UNL     1       8.056  19.288  -0.483  1.00  0.00     0.031 A 
BRANCH  51  65
ATOM     65  C   UNL     1      13.123  15.905  -1.499  1.00  0.00    -0.014 A 
ATOM     66  C   UNL     1      13.955  15.941  -2.630  1.00  0.00     0.009 A 
ATOM     67  C   UNL     1      13.708  15.781  -0.229  1.00  0.00     0.009 A 
ATOM     68  C   UNL     1      15.339  15.818  -2.494  1.00  0.00     0.001 A 
ATOM     69  C   UNL     1      15.095  15.686  -0.094  1.00  0.00     0.001 A 
ATOM     70  C   UNL     1      15.908  15.694  -1.226  1.00  0.00     0.000 A 
ENDBRANCH  51  65
BRANCH  52  71
ATOM     71  C   UNL     1       3.179  16.178  -2.250  1.00  0.00    -0.014 A 
ATOM     72  C   UNL     1       2.544  17.041  -3.156  1.00  0.00     0.009 A 
ATOM     73  C   UNL     1       2.391  15.356  -1.430  1.00  0.00     0.009 A 
ATOM     74  C   UNL     1       1.151  17.097  -3.223  1.00  0.00     0.001 A 
ATOM     75  C   UNL     1       0.998  15.395  -1.517  1.00  0.00     0.001 A 
ATOM     76  C   UNL     1       0.379  16.272  -2.407  1.00  0.00     0.000 A 
ENDBRANCH  52  71
BRANCH  64  77
ATOM     77  C   UNL     1       7.947  20.674   0.086  1.00  0.00    -0.014 A 
ATOM     78  C   UNL     1       7.465  20.892   1.385  1.00  0.00     0.009 A 
ATOM     79  C   UNL     1       8.370  21.772  -0.679  1.00  0.00     0.009 A 
ATOM     80  C   UNL     1       7.380  22.189   1.896  1.00  0.00     0.001 A 
ATOM     81  C   UNL     1       8.309  23.064  -0.155  1.00  0.00     0.001 A 
ATOM     82  C   UNL     1       7.806  23.272   1.128  1.00  0.00     0.000 A 
ENDBRANCH  64  77
ENDBRANCH  38  39
ENDBRANCH  30  33
ENDBRANCH  28  29
ENDBRANCH   1  28
TORSDOF 14
