REMARK SMILES NC(=O)[C@@H]1CCC[N@@H+]1[C@@H](C(=O)NCCCNC(=O)c1ccc(-c2c3nc(c(-c4ccccc4)c4ccc([nH]4)c(-c4ccccc4)c4nc(c(-c5ccccc5)c5ccc2[nH]5)C=C4)C=C3)cc1)c1c[nH]c2cc(OCc3ccccc3)ccc12
REMARK SMILES IDX 13 1 12 2 10 3 11 4 9 6 8 7 4 8 5 9 6 10 7 11 2 13 1 14 3 17
REMARK SMILES IDX 67 18 68 19 83 20 69 21 70 22 82 23 71 25 81 26 72 27 73 28
REMARK SMILES IDX 74 29 75 30 76 31 80 32 77 33 79 34 78 35 14 36 15 37 16 38
REMARK SMILES IDX 17 39 18 41 19 42 20 43 66 44 21 45 65 46 22 47 23 48 24 49
REMARK SMILES IDX 59 50 25 51 64 52 58 53 60 54 26 55 63 56 57 57 56 58 27 60
REMARK SMILES IDX 49 61 34 62 48 63 35 64 38 65 47 66 61 67 36 68 37 69 46 71
REMARK SMILES IDX 62 72 39 73 28 74 29 75 33 76 30 77 32 78 31 79 50 80 51 81
REMARK SMILES IDX 55 82 52 83 54 84 53 85 40 86 41 87 45 88 42 89 44 90 43 91
REMARK H PARENT 12 5 8 12 1 15 1 16 69 24 16 40 60 59 38 70
REMARK Flexibility Score: inf
ROOT
ATOM      1  C   UNL     1      -1.909  -0.092   2.302  1.00  0.00     0.118 C 
ENDROOT
BRANCH   1   2
ATOM      2  N   UNL     1      -1.835   0.568   3.593  1.00  0.00    -0.351 N 
ATOM      3  C   UNL     1      -1.348   1.743   4.082  1.00  0.00     0.283 C 
ATOM      4  O   UNL     1      -1.320   1.734   5.318  1.00  0.00    -0.268 OA
ATOM      5  H   UNL     1      -2.244   0.022   4.303  1.00  0.00     0.163 HD
BRANCH   3   6
ATOM      6  C   UNL     1      -0.854   2.938   3.209  1.00  0.00     0.308 C 
BRANCH   6   7
ATOM      7  N   UNL     1       0.639   2.970   2.983  1.00  0.00    -0.311 N 
ATOM      8  C   UNL     1       1.324   1.922   2.219  1.00  0.00     0.275 C 
ATOM      9  C   UNL     1       1.666   0.863   3.261  1.00  0.00     0.081 C 
ATOM     10  C   UNL     1       1.878   1.645   4.547  1.00  0.00     0.068 C 
ATOM     11  C   UNL     1       1.465   3.060   4.200  1.00  0.00     0.264 C 
ATOM     12  H   UNL     1       0.591   3.814   2.413  1.00  0.00     0.349 HD
BRANCH   8  13
ATOM     13  C   UNL     1       0.707   1.510   0.885  1.00  0.00     0.275 C 
ATOM     14  N   UNL     1       1.358   0.498   0.234  1.00  0.00    -0.365 N 
ATOM     15  H   UNL     1       1.022   0.175  -0.633  1.00  0.00     0.159 HD
ATOM     16  H   UNL     1       2.162   0.094   0.633  1.00  0.00     0.159 HD
ATOM     17  O   UNL     1      -0.250   2.054   0.333  1.00  0.00    -0.268 OA
ENDBRANCH   8  13
ENDBRANCH   6   7
BRANCH   6  18
ATOM     18  C   UNL     1      -1.141   4.365   3.805  1.00  0.00     0.044 A 
ATOM     19  C   UNL     1      -0.817   5.533   3.112  1.00  0.00     0.094 A 
ATOM     20  C   UNL     1      -1.214   4.781   5.191  1.00  0.00     0.009 A 
ATOM     21  N   UNL     1      -0.150   6.332   4.016  1.00  0.00    -0.361 N 
ATOM     22  C   UNL     1      -0.240   5.777   5.268  1.00  0.00     0.050 A 
ATOM     23  C   UNL     1      -1.668   4.223   6.407  1.00  0.00     0.015 A 
ATOM     24  H   UNL     1       0.319   7.169   3.797  1.00  0.00     0.166 HD
ATOM     25  C   UNL     1       0.539   5.957   6.415  1.00  0.00     0.073 A 
ATOM     26  C   UNL     1      -0.960   4.464   7.596  1.00  0.00     0.047 A 
ATOM     27  C   UNL     1       0.188   5.245   7.568  1.00  0.00     0.121 A 
BRANCH  27  28
ATOM     28  O   UNL     1       1.125   5.232   8.569  1.00  0.00    -0.489 OA
BRANCH  28  29
ATOM     29  C   UNL     1       0.659   5.577   9.876  1.00  0.00     0.265 C 
BRANCH  29  30
ATOM     30  C   UNL     1       1.002   7.010  10.229  1.00  0.00    -0.011 A 
ATOM     31  C   UNL     1       0.949   7.432  11.563  1.00  0.00     0.007 A 
ATOM     32  C   UNL     1       1.333   7.959   9.250  1.00  0.00     0.007 A 
ATOM     33  C   UNL     1       1.211   8.764  11.896  1.00  0.00     0.000 A 
ATOM     34  C   UNL     1       1.588   9.287   9.577  1.00  0.00     0.000 A 
ATOM     35  C   UNL     1       1.523   9.691  10.902  1.00  0.00     0.000 A 
ENDBRANCH  29  30
ENDBRANCH  28  29
ENDBRANCH  27  28
ENDBRANCH   6  18
ENDBRANCH   3   6
ENDBRANCH   1   2
BRANCH   1  36
ATOM     36  C   UNL     1      -0.924  -1.271   2.147  1.00  0.00     0.042 C 
BRANCH  36  37
ATOM     37  C   UNL     1      -0.769  -2.207   3.359  1.00  0.00     0.118 C 
BRANCH  37  38
ATOM     38  N   UNL     1      -1.334  -3.515   3.089  1.00  0.00    -0.352 N 
ATOM     39  C   UNL     1      -0.812  -4.761   3.310  1.00  0.00     0.251 C 
ATOM     40  H   UNL     1      -2.231  -3.506   2.684  1.00  0.00     0.163 HD
ATOM     41  O   UNL     1      -1.343  -5.730   2.757  1.00  0.00    -0.269 OA
BRANCH  39  42
ATOM     42  C   UNL     1       0.357  -4.995   4.196  1.00  0.00     0.039 A 
ATOM     43  C   UNL     1       1.246  -6.023   3.854  1.00  0.00     0.014 A 
ATOM     44  C   UNL     1       0.515  -4.334   5.418  1.00  0.00     0.014 A 
ATOM     45  C   UNL     1       2.273  -6.395   4.728  1.00  0.00     0.010 A 
ATOM     46  C   UNL     1       1.567  -4.682   6.277  1.00  0.00     0.010 A 
ATOM     47  C   UNL     1       2.440  -5.734   5.954  1.00  0.00    -0.014 A 
BRANCH  47  48
ATOM     48  C   UNL     1       3.496  -6.172   6.908  1.00  0.00     0.031 A 
ATOM     49  C   UNL     1       3.129  -6.852   8.202  1.00  0.00     0.074 A 
ATOM     50  C   UNL     1       4.794  -5.956   6.622  1.00  0.00     0.049 A 
ATOM     51  N   UNL     1       3.912  -7.316   9.146  1.00  0.00    -0.248 NA
ATOM     52  C   UNL     1       1.694  -7.021   8.478  1.00  0.00     0.031 C 
ATOM     53  C   UNL     1       5.294  -5.291   5.418  1.00  0.00     0.029 A 
ATOM     54  N   UNL     1       5.931  -6.275   7.324  1.00  0.00    -0.354 N 
ATOM     55  C   UNL     1       3.068  -7.814  10.131  1.00  0.00     0.074 A 
ATOM     56  C   UNL     1       1.713  -7.563   9.688  1.00  0.00     0.031 C 
ATOM     57  C   UNL     1       6.637  -5.268   5.457  1.00  0.00     0.029 A 
ATOM     58  C   UNL     1       7.091  -5.891   6.697  1.00  0.00     0.049 A 
ATOM     59  H   UNL     1       5.915  -6.734   8.195  1.00  0.00     0.167 HD
ATOM     60  C   UNL     1       3.386  -8.435  11.294  1.00  0.00     0.031 A 
ATOM     61  C   UNL     1       8.377  -6.026   7.073  1.00  0.00     0.031 A 
ATOM     62  C   UNL     1       4.730  -8.697  11.739  1.00  0.00     0.049 A 
ATOM     63  C   UNL     1       8.707  -6.716   8.367  1.00  0.00     0.074 A 
ATOM     64  C   UNL     1       5.147  -9.372  12.874  1.00  0.00     0.029 A 
ATOM     65  N   UNL     1       5.875  -8.290  11.074  1.00  0.00    -0.354 N 
ATOM     66  N   UNL     1       7.896  -7.240   9.253  1.00  0.00    -0.248 NA
ATOM     67  C   UNL     1      10.132  -6.845   8.703  1.00  0.00     0.031 C 
ATOM     68  C   UNL     1       6.546  -9.333  12.919  1.00  0.00     0.029 A 
ATOM     69  C   UNL     1       6.999  -8.678  11.786  1.00  0.00     0.049 A 
ATOM     70  H   UNL     1       5.888  -7.799  10.221  1.00  0.00     0.167 HD
ATOM     71  C   UNL     1       8.711  -7.778  10.240  1.00  0.00     0.074 A 
ATOM     72  C   UNL     1      10.080  -7.534   9.834  1.00  0.00     0.031 C 
ATOM     73  C   UNL     1       8.356  -8.420  11.380  1.00  0.00     0.031 A 
BRANCH  60  74
ATOM     74  C   UNL     1       2.249  -8.864  12.181  1.00  0.00    -0.014 A 
ATOM     75  C   UNL     1       1.417  -9.939  11.832  1.00  0.00     0.009 A 
ATOM     76  C   UNL     1       2.027  -8.203  13.400  1.00  0.00     0.009 A 
ATOM     77  C   UNL     1       0.361 -10.317  12.665  1.00  0.00     0.001 A 
ATOM     78  C   UNL     1       0.988  -8.601  14.244  1.00  0.00     0.001 A 
ATOM     79  C   UNL     1       0.149  -9.650  13.871  1.00  0.00     0.000 A 
ENDBRANCH  60  74
BRANCH  61  80
ATOM     80  C   UNL     1       9.458  -5.508   6.196  1.00  0.00    -0.014 A 
ATOM     81  C   UNL     1      10.271  -6.392   5.470  1.00  0.00     0.009 A 
ATOM     82  C   UNL     1       9.678  -4.127   6.076  1.00  0.00     0.009 A 
ATOM     83  C   UNL     1      11.294  -5.903   4.655  1.00  0.00     0.001 A 
ATOM     84  C   UNL     1      10.685  -3.641   5.241  1.00  0.00     0.001 A 
ATOM     85  C   UNL     1      11.497  -4.529   4.536  1.00  0.00     0.000 A 
ENDBRANCH  61  80
BRANCH  73  86
ATOM     86  C   UNL     1       9.467  -8.919  12.259  1.00  0.00    -0.014 A 
ATOM     87  C   UNL     1      10.241  -8.035  13.027  1.00  0.00     0.009 A 
ATOM     88  C   UNL     1       9.726 -10.297  12.341  1.00  0.00     0.009 A 
ATOM     89  C   UNL     1      11.275  -8.518  13.832  1.00  0.00     0.001 A 
ATOM     90  C   UNL     1      10.743 -10.778  13.167  1.00  0.00     0.001 A 
ATOM     91  C   UNL     1      11.522  -9.888  13.904  1.00  0.00     0.000 A 
ENDBRANCH  73  86
ENDBRANCH  47  48
ENDBRANCH  39  42
ENDBRANCH  37  38
ENDBRANCH  36  37
ENDBRANCH   1  36
TORSDOF 16
