REMARK SMILES C[NH2+][C@]1(C(=O)NCCCNC(=O)c2ccc(-c3c4nc(c(-c5ccccc5)c5ccc([nH]5)c(-c5ccccc5)c5nc(c(-c6ccccc6)c6ccc3[nH]6)C=C5)C=C4)cc2)CCC[C@@H](Sc2nccn2C)C1
REMARK SMILES IDX 8 1 7 2 6 3 4 4 5 5 3 7 61 8 72 9 62 10 64 11 63 12 2 13
REMARK SMILES IDX 1 14 65 17 66 18 67 19 70 20 68 21 69 22 71 23 9 24 10 25
REMARK SMILES IDX 11 26 12 28 13 29 14 30 60 31 15 32 59 33 16 34 17 35 18 36
REMARK SMILES IDX 53 37 19 38 58 39 52 40 54 41 20 42 57 43 51 44 50 45 21 47
REMARK SMILES IDX 43 48 28 49 42 50 29 51 32 52 41 53 55 54 30 55 31 56 40 58
REMARK SMILES IDX 56 59 33 60 22 61 23 62 27 63 24 64 26 65 25 66 44 67 45 68
REMARK SMILES IDX 49 69 46 70 48 71 47 72 34 73 35 74 39 75 36 76 38 77 37 78
REMARK H PARENT 6 6 2 15 2 16 10 27 54 46 32 57
REMARK Flexibility Score: inf
ROOT
ATOM      1  C   UNL     1       0.981   0.274   4.865  1.00  0.00     0.042 C 
ENDROOT
BRANCH   1   2
ATOM      2  C   UNL     1       0.537   1.291   3.829  1.00  0.00     0.118 C 
BRANCH   2   3
ATOM      3  N   UNL     1       1.111   1.041   2.519  1.00  0.00    -0.351 N 
ATOM      4  C   UNL     1       0.539   0.853   1.294  1.00  0.00     0.281 C 
ATOM      5  O   UNL     1       1.341   0.607   0.388  1.00  0.00    -0.268 OA
ATOM      6  H   UNL     1       2.095   1.000   2.513  1.00  0.00     0.163 HD
BRANCH   4   7
ATOM      7  C   UNL     1      -1.024   0.897   1.097  1.00  0.00     0.176 C 
ATOM      8  C   UNL     1      -1.575  -0.380   1.795  1.00  0.00     0.079 C 
ATOM      9  C   UNL     1      -1.636   2.225   1.639  1.00  0.00     0.094 C 
ATOM     10  C   UNL     1      -3.077  -0.368   2.039  1.00  0.00     0.008 C 
ATOM     11  C   UNL     1      -3.106   2.139   2.078  1.00  0.00     0.061 C 
ATOM     12  C   UNL     1      -3.473   0.864   2.837  1.00  0.00     0.015 C 
BRANCH   7  13
ATOM     13  N   UNL     1      -1.429   0.731  -0.338  1.00  0.00    -0.336 N 
ATOM     14  C   UNL     1      -0.733   1.573  -1.305  1.00  0.00     0.331 C 
ATOM     15  H   UNL     1      -1.266  -0.241  -0.598  1.00  0.00     0.346 HD
ATOM     16  H   UNL     1      -2.407   1.018  -0.380  1.00  0.00     0.346 HD
ENDBRANCH   7  13
BRANCH  11  17
ATOM     17  S   UNL     1      -3.659   3.636   2.989  1.00  0.00    -0.084 SA
BRANCH  17  18
ATOM     18  C   UNL     1      -2.905   3.469   4.541  1.00  0.00     0.167 A 
ATOM     19  N   UNL     1      -1.609   3.405   4.746  1.00  0.00    -0.231 NA
ATOM     20  N   UNL     1      -3.598   3.434   5.723  1.00  0.00    -0.329 N 
ATOM     21  C   UNL     1      -1.452   3.347   6.107  1.00  0.00     0.132 A 
ATOM     22  C   UNL     1      -2.673   3.348   6.735  1.00  0.00     0.108 A 
ATOM     23  C   UNL     1      -5.021   3.468   5.947  1.00  0.00     0.152 C 
ENDBRANCH  17  18
ENDBRANCH  11  17
ENDBRANCH   4   7
ENDBRANCH   2   3
ENDBRANCH   1   2
BRANCH   1  24
ATOM     24  C   UNL     1       2.479   0.265   5.114  1.00  0.00     0.118 C 
BRANCH  24  25
ATOM     25  N   UNL     1       2.968   1.515   5.682  1.00  0.00    -0.352 N 
ATOM     26  C   UNL     1       3.567   1.757   6.893  1.00  0.00     0.251 C 
ATOM     27  H   UNL     1       2.850   2.307   5.109  1.00  0.00     0.163 HD
ATOM     28  O   UNL     1       3.751   2.911   7.269  1.00  0.00    -0.269 OA
BRANCH  26  29
ATOM     29  C   UNL     1       3.958   0.628   7.763  1.00  0.00     0.039 A 
ATOM     30  C   UNL     1       3.700   0.711   9.133  1.00  0.00     0.014 A 
ATOM     31  C   UNL     1       4.558  -0.515   7.231  1.00  0.00     0.014 A 
ATOM     32  C   UNL     1       3.969  -0.386   9.954  1.00  0.00     0.010 A 
ATOM     33  C   UNL     1       4.725  -1.641   8.028  1.00  0.00     0.010 A 
ATOM     34  C   UNL     1       4.438  -1.588   9.400  1.00  0.00    -0.014 A 
BRANCH  34  35
ATOM     35  C   UNL     1       4.643  -2.799  10.234  1.00  0.00     0.031 A 
ATOM     36  C   UNL     1       6.013  -3.409  10.354  1.00  0.00     0.074 A 
ATOM     37  C   UNL     1       3.586  -3.388  10.828  1.00  0.00     0.049 A 
ATOM     38  N   UNL     1       6.378  -4.501  10.978  1.00  0.00    -0.248 NA
ATOM     39  C   UNL     1       7.112  -2.721   9.658  1.00  0.00     0.031 C 
ATOM     40  C   UNL     1       2.199  -2.922  10.753  1.00  0.00     0.029 A 
ATOM     41  N   UNL     1       3.514  -4.514  11.609  1.00  0.00    -0.354 N 
ATOM     42  C   UNL     1       7.738  -4.638  10.732  1.00  0.00     0.074 A 
ATOM     43  C   UNL     1       8.123  -3.553   9.857  1.00  0.00     0.031 C 
ATOM     44  C   UNL     1       1.421  -3.735  11.486  1.00  0.00     0.029 A 
ATOM     45  C   UNL     1       2.243  -4.804  12.043  1.00  0.00     0.049 A 
ATOM     46  H   UNL     1       4.299  -5.063  11.837  1.00  0.00     0.167 HD
ATOM     47  C   UNL     1       8.598  -5.569  11.208  1.00  0.00     0.031 A 
ATOM     48  C   UNL     1       1.788  -5.822  12.799  1.00  0.00     0.031 A 
ATOM     49  C   UNL     1       8.219  -6.640  12.090  1.00  0.00     0.049 A 
ATOM     50  C   UNL     1       2.760  -6.851  13.304  1.00  0.00     0.074 A 
ATOM     51  C   UNL     1       9.025  -7.600  12.675  1.00  0.00     0.029 A 
ATOM     52  N   UNL     1       6.923  -6.892  12.512  1.00  0.00    -0.354 N 
ATOM     53  N   UNL     1       4.056  -6.925  13.120  1.00  0.00    -0.248 NA
ATOM     54  C   UNL     1       2.207  -7.932  14.132  1.00  0.00     0.031 C 
ATOM     55  C   UNL     1       8.209  -8.467  13.408  1.00  0.00     0.029 A 
ATOM     56  C   UNL     1       6.904  -8.008  13.331  1.00  0.00     0.049 A 
ATOM     57  H   UNL     1       6.134  -6.357  12.267  1.00  0.00     0.167 HD
ATOM     58  C   UNL     1       4.477  -8.039  13.834  1.00  0.00     0.074 A 
ATOM     59  C   UNL     1       3.301  -8.601  14.467  1.00  0.00     0.031 C 
ATOM     60  C   UNL     1       5.726  -8.551  13.956  1.00  0.00     0.031 A 
BRANCH  47  61
ATOM     61  C   UNL     1      10.036  -5.471  10.780  1.00  0.00    -0.014 A 
ATOM     62  C   UNL     1      10.860  -4.425  11.227  1.00  0.00     0.009 A 
ATOM     63  C   UNL     1      10.585  -6.458   9.947  1.00  0.00     0.009 A 
ATOM     64  C   UNL     1      12.193  -4.350  10.819  1.00  0.00     0.001 A 
ATOM     65  C   UNL     1      11.927  -6.398   9.566  1.00  0.00     0.001 A 
ATOM     66  C   UNL     1      12.727  -5.340   9.994  1.00  0.00     0.000 A 
ENDBRANCH  47  61
BRANCH  48  67
ATOM     67  C   UNL     1       0.343  -5.914  13.139  1.00  0.00    -0.014 A 
ATOM     68  C   UNL     1      -0.094  -5.707  14.456  1.00  0.00     0.009 A 
ATOM     69  C   UNL     1      -0.606  -6.224  12.152  1.00  0.00     0.009 A 
ATOM     70  C   UNL     1      -1.445  -5.841  14.785  1.00  0.00     0.001 A 
ATOM     71  C   UNL     1      -1.960  -6.327  12.477  1.00  0.00     0.001 A 
ATOM     72  C   UNL     1      -2.377  -6.146  13.795  1.00  0.00     0.000 A 
ENDBRANCH  48  67
BRANCH  60  73
ATOM     73  C   UNL     1       5.894  -9.754  14.842  1.00  0.00    -0.014 A 
ATOM     74  C   UNL     1       5.419 -11.017  14.459  1.00  0.00     0.009 A 
ATOM     75  C   UNL     1       6.579  -9.624  16.061  1.00  0.00     0.009 A 
ATOM     76  C   UNL     1       5.598 -12.121  15.296  1.00  0.00     0.001 A 
ATOM     77  C   UNL     1       6.785 -10.735  16.880  1.00  0.00     0.001 A 
ATOM     78  C   UNL     1       6.285 -11.980  16.502  1.00  0.00     0.000 A 
ENDBRANCH  60  73
ENDBRANCH  34  35
ENDBRANCH  26  29
ENDBRANCH  24  25
ENDBRANCH   1  24
TORSDOF 13
