REMARK SMILES Cc1cccc(-c2ccccc2C(=O)N2CC[C@H](O)C[C@@H]2C(=O)NCCCNC(=O)c2ccc(-c3c4nc(c(-c5ccccc5)c5ccc([nH]5)c(-c5ccccc5)c5nc(c(-c6ccccc6)c6ccc3[nH]6)C=C5)C=C4)cc2)c1
REMARK SMILES IDX 25 1 24 2 22 3 23 4 21 6 15 7 16 8 17 9 20 10 18 11 13 12
REMARK SMILES IDX 14 13 12 14 7 15 8 16 9 17 11 18 10 19 6 20 1 21 2 22 3 23
REMARK SMILES IDX 79 24 4 25 5 26 19 27 26 29 27 30 28 31 29 32 30 34 31 35
REMARK SMILES IDX 32 36 78 37 33 38 77 39 34 40 35 41 36 42 71 43 37 44 76 45
REMARK SMILES IDX 70 46 72 47 38 48 75 49 69 50 68 51 39 53 61 54 46 55 60 56
REMARK SMILES IDX 47 57 50 58 59 59 73 60 48 61 49 62 58 64 74 65 51 66 40 67
REMARK SMILES IDX 41 68 45 69 42 70 44 71 43 72 62 73 63 74 67 75 64 76 66 77
REMARK SMILES IDX 65 78 52 79 53 80 57 81 54 82 56 83 55 84
REMARK H PARENT 24 5 19 28 28 33 72 52 50 63
REMARK Flexibility Score: inf
ROOT
ATOM      1  C   UNL     1      -3.599   2.890  -5.131  1.00  0.00     0.117 C 
ENDROOT
BRANCH   1   2
ATOM      2  N   UNL     1      -3.057   4.208  -5.445  1.00  0.00    -0.354 N 
ATOM      3  C   UNL     1      -1.789   4.703  -5.322  1.00  0.00     0.242 C 
ATOM      4  O   UNL     1      -1.623   5.894  -5.614  1.00  0.00    -0.273 OA
ATOM      5  H   UNL     1      -3.714   4.847  -5.806  1.00  0.00     0.163 HD
BRANCH   3   6
ATOM      6  C   UNL     1      -0.635   3.861  -4.722  1.00  0.00     0.177 C 
ATOM      7  N   UNL     1      -0.556   4.109  -3.269  1.00  0.00    -0.326 N 
ATOM      8  C   UNL     1       0.055   5.370  -2.843  1.00  0.00     0.123 C 
ATOM      9  C   UNL     1       1.443   5.543  -3.445  1.00  0.00     0.053 C 
ATOM     10  C   UNL     1       0.704   4.136  -5.426  1.00  0.00     0.067 C 
ATOM     11  C   UNL     1       1.436   5.396  -4.962  1.00  0.00     0.118 C 
BRANCH   7  12
ATOM     12  C   UNL     1      -1.137   3.159  -2.427  1.00  0.00     0.255 C 
ATOM     13  O   UNL     1      -1.375   2.020  -2.830  1.00  0.00    -0.269 OA
BRANCH  12  14
ATOM     14  C   UNL     1      -1.665   3.544  -1.079  1.00  0.00     0.047 A 
ATOM     15  C   UNL     1      -1.698   2.614  -0.015  1.00  0.00    -0.006 A 
ATOM     16  C   UNL     1      -2.451   2.942   1.133  1.00  0.00     0.009 A 
ATOM     17  C   UNL     1      -3.147   4.147   1.233  1.00  0.00     0.001 A 
ATOM     18  C   UNL     1      -2.377   4.756  -0.965  1.00  0.00     0.014 A 
ATOM     19  C   UNL     1      -3.101   5.060   0.188  1.00  0.00     0.001 A 
BRANCH  15  20
ATOM     20  C   UNL     1      -1.002   1.315  -0.036  1.00  0.00    -0.017 A 
ATOM     21  C   UNL     1       2.564  -0.055   0.029  1.00  0.00     0.044 C 
ATOM     22  C   UNL     1       1.066   0.012   0.009  1.00  0.00    -0.051 A 
ATOM     23  C   UNL     1       0.317  -1.170   0.007  1.00  0.00     0.003 A 
ATOM     24  C   UNL     1       0.400   1.246  -0.014  1.00  0.00     0.012 A 
ATOM     25  C   UNL     1      -1.075  -1.121  -0.018  1.00  0.00     0.001 A 
ATOM     26  C   UNL     1      -1.729   0.112  -0.038  1.00  0.00     0.009 A 
ENDBRANCH  15  20
ENDBRANCH  12  14
ENDBRANCH   7  12
BRANCH  11  27
ATOM     27  O   UNL     1       0.927   6.578  -5.569  1.00  0.00    -0.393 OA
ATOM     28  H   UNL     1       0.008   6.713  -5.292  1.00  0.00     0.210 HD
ENDBRANCH  11  27
ENDBRANCH   3   6
ENDBRANCH   1   2
BRANCH   1  29
ATOM     29  C   UNL     1      -4.259   2.841  -3.758  1.00  0.00     0.042 C 
BRANCH  29  30
ATOM     30  C   UNL     1      -5.585   3.576  -3.654  1.00  0.00     0.118 C 
BRANCH  30  31
ATOM     31  N   UNL     1      -6.763   2.750  -3.876  1.00  0.00    -0.352 N 
ATOM     32  C   UNL     1      -8.104   3.107  -3.881  1.00  0.00     0.251 C 
ATOM     33  H   UNL     1      -6.581   1.798  -4.048  1.00  0.00     0.163 HD
ATOM     34  O   UNL     1      -8.959   2.256  -4.046  1.00  0.00    -0.269 OA
BRANCH  32  35
ATOM     35  C   UNL     1      -8.485   4.544  -3.832  1.00  0.00     0.039 A 
ATOM     36  C   UNL     1      -9.473   4.981  -4.724  1.00  0.00     0.014 A 
ATOM     37  C   UNL     1      -7.753   5.473  -3.101  1.00  0.00     0.014 A 
ATOM     38  C   UNL     1      -9.523   6.324  -5.085  1.00  0.00     0.010 A 
ATOM     39  C   UNL     1      -7.722   6.782  -3.533  1.00  0.00     0.010 A 
ATOM     40  C   UNL     1      -8.554   7.187  -4.579  1.00  0.00    -0.014 A 
BRANCH  40  41
ATOM     41  C   UNL     1      -8.234   8.474  -5.179  1.00  0.00     0.031 A 
ATOM     42  C   UNL     1      -8.582   9.732  -4.502  1.00  0.00     0.074 A 
ATOM     43  C   UNL     1      -7.507   8.506  -6.317  1.00  0.00     0.049 A 
ATOM     44  N   UNL     1      -8.681  10.867  -5.106  1.00  0.00    -0.248 NA
ATOM     45  C   UNL     1      -8.897   9.804  -3.081  1.00  0.00     0.031 C 
ATOM     46  C   UNL     1      -6.814   9.647  -6.907  1.00  0.00     0.029 A 
ATOM     47  N   UNL     1      -7.429   7.516  -7.292  1.00  0.00    -0.354 N 
ATOM     48  C   UNL     1      -8.751  11.841  -4.140  1.00  0.00     0.074 A 
ATOM     49  C   UNL     1      -8.985  11.126  -2.906  1.00  0.00     0.031 C 
ATOM     50  C   UNL     1      -6.592   9.395  -8.207  1.00  0.00     0.029 A 
ATOM     51  C   UNL     1      -7.277   8.156  -8.535  1.00  0.00     0.049 A 
ATOM     52  H   UNL     1      -7.472   6.544  -7.139  1.00  0.00     0.167 HD
ATOM     53  C   UNL     1      -8.465  13.130  -4.476  1.00  0.00     0.031 A 
ATOM     54  C   UNL     1      -8.242   8.025  -9.493  1.00  0.00     0.031 A 
ATOM     55  C   UNL     1      -8.223  13.290  -5.912  1.00  0.00     0.049 A 
ATOM     56  C   UNL     1      -8.968   9.316  -9.833  1.00  0.00     0.074 A 
ATOM     57  C   UNL     1      -7.100  13.510  -6.694  1.00  0.00     0.029 A 
ATOM     58  N   UNL     1      -9.234  12.944  -6.795  1.00  0.00    -0.354 N 
ATOM     59  N   UNL     1      -8.739  10.466  -9.260  1.00  0.00    -0.248 NA
ATOM     60  C   UNL     1     -10.082   9.386 -10.780  1.00  0.00     0.031 C 
ATOM     61  C   UNL     1      -7.458  13.302  -8.059  1.00  0.00     0.029 A 
ATOM     62  C   UNL     1      -8.799  12.970  -8.104  1.00  0.00     0.049 A 
ATOM     63  H   UNL     1     -10.150  12.708  -6.521  1.00  0.00     0.167 HD
ATOM     64  C   UNL     1      -9.671  11.379  -9.675  1.00  0.00     0.074 A 
ATOM     65  C   UNL     1     -10.484  10.662 -10.640  1.00  0.00     0.031 C 
ATOM     66  C   UNL     1      -9.743  12.639  -9.157  1.00  0.00     0.031 A 
BRANCH  53  67
ATOM     67  C   UNL     1      -8.178  14.212  -3.462  1.00  0.00    -0.014 A 
ATOM     68  C   UNL     1      -7.398  15.323  -3.832  1.00  0.00     0.009 A 
ATOM     69  C   UNL     1      -8.603  14.186  -2.123  1.00  0.00     0.009 A 
ATOM     70  C   UNL     1      -6.987  16.289  -2.903  1.00  0.00     0.001 A 
ATOM     71  C   UNL     1      -8.167  15.125  -1.178  1.00  0.00     0.001 A 
ATOM     72  C   UNL     1      -7.347  16.173  -1.568  1.00  0.00     0.000 A 
ENDBRANCH  53  67
BRANCH  54  73
ATOM     73  C   UNL     1      -8.862   6.668  -9.499  1.00  0.00    -0.014 A 
ATOM     74  C   UNL     1      -8.055   5.574  -9.871  1.00  0.00     0.009 A 
ATOM     75  C   UNL     1     -10.048   6.417  -8.795  1.00  0.00     0.009 A 
ATOM     76  C   UNL     1      -8.361   4.279  -9.440  1.00  0.00     0.001 A 
ATOM     77  C   UNL     1     -10.357   5.116  -8.377  1.00  0.00     0.001 A 
ATOM     78  C   UNL     1      -9.495   4.057  -8.666  1.00  0.00     0.000 A 
ENDBRANCH  54  73
BRANCH  66  79
ATOM     79  C   UNL     1     -10.752  13.673  -9.576  1.00  0.00    -0.014 A 
ATOM     80  C   UNL     1     -11.119  13.877 -10.912  1.00  0.00     0.009 A 
ATOM     81  C   UNL     1     -11.272  14.576  -8.624  1.00  0.00     0.009 A 
ATOM     82  C   UNL     1     -12.004  14.905 -11.270  1.00  0.00     0.001 A 
ATOM     83  C   UNL     1     -12.135  15.615  -8.979  1.00  0.00     0.001 A 
ATOM     84  C   UNL     1     -12.510  15.772 -10.305  1.00  0.00     0.000 A 
ENDBRANCH  66  79
ENDBRANCH  40  41
ENDBRANCH  32  35
ENDBRANCH  30  31
ENDBRANCH  29  30
ENDBRANCH   1  29
TORSDOF 14
