REMARK SMILES COC(=O)c1ccc([C@H]2Nc3c(C(=O)NCCCNC(=O)c4ccc(-c5c6nc(c(-c7ccccc7)c7ccc([nH]7)c(-c7ccccc7)c7nc(c(-c8ccccc8)c8ccc5[nH]8)C=C7)C=C6)cc4)cccc3[C@H]3[C@H]4CC[C@H](C4)[C@H]32)cc1
REMARK SMILES IDX 16 1 15 2 13 3 14 4 12 6 9 7 10 8 80 9 11 10 74 12 78 13
REMARK SMILES IDX 73 14 75 15 77 16 79 17 70 18 72 19 76 20 71 21 8 22 5 23
REMARK SMILES IDX 6 24 82 25 7 26 81 27 3 28 4 29 2 30 1 31 17 32 18 33 19 34
REMARK SMILES IDX 20 35 21 37 22 38 23 39 69 40 24 41 68 42 25 43 26 44 27 45
REMARK SMILES IDX 62 46 28 47 67 48 61 49 63 50 29 51 66 52 60 53 59 54 30 56
REMARK SMILES IDX 52 57 37 58 51 59 38 60 41 61 50 62 64 63 39 64 40 65 49 67
REMARK SMILES IDX 65 68 42 69 31 70 32 71 36 72 33 73 35 74 34 75 53 76 54 77
REMARK SMILES IDX 58 78 55 79 57 80 56 81 43 82 44 83 48 84 45 85 47 86 46 87
REMARK H PARENT 15 5 10 11 19 36 63 55 41 66
REMARK Flexibility Score: inf
ROOT
ATOM      1  C   UNL     1      -3.082  12.514   6.610  1.00  0.00     0.118 C 
ENDROOT
BRANCH   1   2
ATOM      2  N   UNL     1      -2.642  12.033   5.307  1.00  0.00    -0.352 N 
ATOM      3  C   UNL     1      -2.478  10.736   4.869  1.00  0.00     0.253 C 
ATOM      4  O   UNL     1      -1.924  10.524   3.794  1.00  0.00    -0.269 OA
ATOM      5  H   UNL     1      -2.431  12.732   4.646  1.00  0.00     0.163 HD
BRANCH   3   6
ATOM      6  C   UNL     1      -2.920   9.625   5.746  1.00  0.00     0.063 A 
ATOM      7  C   UNL     1      -1.010   6.820   4.708  1.00  0.00     0.113 C 
ATOM      8  N   UNL     1      -0.965   8.219   5.195  1.00  0.00    -0.377 N 
ATOM      9  C   UNL     1      -0.903   5.913   5.965  1.00  0.00     0.027 C 
ATOM     10  C   UNL     1      -2.078   8.536   6.006  1.00  0.00     0.051 A 
ATOM     11  H   UNL     1      -0.244   8.853   4.979  1.00  0.00     0.161 HD
ATOM     12  C   UNL     1      -1.464   6.509   7.288  1.00  0.00     0.030 C 
ATOM     13  C   UNL     1      -1.234   4.406   6.084  1.00  0.00    -0.005 C 
ATOM     14  C   UNL     1      -2.420   7.640   7.039  1.00  0.00    -0.020 A 
ATOM     15  C   UNL     1      -1.922   5.244   8.056  1.00  0.00    -0.003 C 
ATOM     16  C   UNL     1      -2.726   4.053   6.132  1.00  0.00     0.004 C 
ATOM     17  C   UNL     1      -0.891   4.206   7.581  1.00  0.00     0.008 C 
ATOM     18  C   UNL     1      -4.183   9.682   6.348  1.00  0.00     0.016 A 
ATOM     19  C   UNL     1      -3.580   7.853   7.789  1.00  0.00     0.006 A 
ATOM     20  C   UNL     1      -3.204   4.640   7.465  1.00  0.00     0.004 C 
ATOM     21  C   UNL     1      -4.495   8.826   7.398  1.00  0.00     0.001 A 
BRANCH   7  22
ATOM     22  C   UNL     1      -2.039   6.825   3.571  1.00  0.00    -0.025 A 
ATOM     23  C   UNL     1      -3.873   7.564   1.520  1.00  0.00     0.060 A 
ATOM     24  C   UNL     1      -2.505   7.761   1.342  1.00  0.00     0.016 A 
ATOM     25  C   UNL     1      -4.322   6.953   2.697  1.00  0.00     0.016 A 
ATOM     26  C   UNL     1      -1.607   7.387   2.345  1.00  0.00     0.007 A 
ATOM     27  C   UNL     1      -3.414   6.607   3.719  1.00  0.00     0.007 A 
BRANCH  23  28
ATOM     28  C   UNL     1      -4.784   8.078   0.462  1.00  0.00     0.337 C 
ATOM     29  O   UNL     1      -4.407   8.378  -0.663  1.00  0.00    -0.246 OA
BRANCH  28  30
ATOM     30  O   UNL     1      -6.048   8.227   0.934  1.00  0.00    -0.465 OA
ATOM     31  C   UNL     1      -6.941   8.831  -0.006  1.00  0.00     0.282 C 
ENDBRANCH  28  30
ENDBRANCH  23  28
ENDBRANCH   7  22
ENDBRANCH   3   6
ENDBRANCH   1   2
BRANCH   1  32
ATOM     32  C   UNL     1      -1.986  13.218   7.388  1.00  0.00     0.042 C 
BRANCH  32  33
ATOM     33  C   UNL     1      -1.557  14.540   6.777  1.00  0.00     0.118 C 
BRANCH  33  34
ATOM     34  N   UNL     1      -2.645  15.508   6.713  1.00  0.00    -0.352 N 
ATOM     35  C   UNL     1      -2.811  16.714   7.346  1.00  0.00     0.251 C 
ATOM     36  H   UNL     1      -3.385  15.254   6.115  1.00  0.00     0.163 HD
ATOM     37  O   UNL     1      -3.899  17.281   7.293  1.00  0.00    -0.269 OA
BRANCH  35  38
ATOM     38  C   UNL     1      -1.702  17.322   8.112  1.00  0.00     0.039 A 
ATOM     39  C   UNL     1      -1.993  17.967   9.318  1.00  0.00     0.014 A 
ATOM     40  C   UNL     1      -0.386  17.271   7.651  1.00  0.00     0.014 A 
ATOM     41  C   UNL     1      -0.955  18.482  10.097  1.00  0.00     0.010 A 
ATOM     42  C   UNL     1       0.655  17.694   8.472  1.00  0.00     0.010 A 
ATOM     43  C   UNL     1       0.382  18.302   9.705  1.00  0.00    -0.014 A 
BRANCH  43  44
ATOM     44  C   UNL     1       1.504  18.717  10.584  1.00  0.00     0.031 A 
ATOM     45  C   UNL     1       2.490  19.756  10.126  1.00  0.00     0.074 A 
ATOM     46  C   UNL     1       1.675  18.103  11.771  1.00  0.00     0.049 A 
ATOM     47  N   UNL     1       3.559  20.203  10.737  1.00  0.00    -0.248 NA
ATOM     48  C   UNL     1       2.261  20.355   8.802  1.00  0.00     0.031 C 
ATOM     49  C   UNL     1       0.815  17.048  12.313  1.00  0.00     0.029 A 
ATOM     50  N   UNL     1       2.634  18.275  12.738  1.00  0.00    -0.354 N 
ATOM     51  C   UNL     1       4.134  21.122   9.868  1.00  0.00     0.074 A 
ATOM     52  C   UNL     1       3.327  21.131   8.668  1.00  0.00     0.031 C 
ATOM     53  C   UNL     1       1.265  16.692  13.525  1.00  0.00     0.029 A 
ATOM     54  C   UNL     1       2.472  17.453  13.827  1.00  0.00     0.049 A 
ATOM     55  H   UNL     1       3.369  18.926  12.658  1.00  0.00     0.167 HD
ATOM     56  C   UNL     1       5.224  21.902  10.059  1.00  0.00     0.031 A 
ATOM     57  C   UNL     1       3.218  17.317  14.939  1.00  0.00     0.031 A 
ATOM     58  C   UNL     1       6.028  21.893  11.253  1.00  0.00     0.049 A 
ATOM     59  C   UNL     1       4.442  18.171  15.111  1.00  0.00     0.074 A 
ATOM     60  C   UNL     1       7.118  22.687  11.563  1.00  0.00     0.029 A 
ATOM     61  N   UNL     1       5.835  21.040  12.329  1.00  0.00    -0.354 N 
ATOM     62  N   UNL     1       4.927  19.091  14.313  1.00  0.00    -0.248 NA
ATOM     63  C   UNL     1       5.218  17.972  16.343  1.00  0.00     0.031 C 
ATOM     64  C   UNL     1       7.624  22.271  12.799  1.00  0.00     0.029 A 
ATOM     65  C   UNL     1       6.808  21.265  13.289  1.00  0.00     0.049 A 
ATOM     66  H   UNL     1       5.113  20.374  12.400  1.00  0.00     0.167 HD
ATOM     67  C   UNL     1       6.048  19.598  14.957  1.00  0.00     0.074 A 
ATOM     68  C   UNL     1       6.158  18.898  16.221  1.00  0.00     0.031 C 
ATOM     69  C   UNL     1       6.911  20.555  14.539  1.00  0.00     0.031 A 
BRANCH  56  70
ATOM     70  C   UNL     1       5.621  22.827   8.940  1.00  0.00    -0.014 A 
ATOM     71  C   UNL     1       4.834  23.939   8.598  1.00  0.00     0.009 A 
ATOM     72  C   UNL     1       6.821  22.608   8.246  1.00  0.00     0.009 A 
ATOM     73  C   UNL     1       5.221  24.789   7.560  1.00  0.00     0.001 A 
ATOM     74  C   UNL     1       7.223  23.478   7.231  1.00  0.00     0.001 A 
ATOM     75  C   UNL     1       6.418  24.561   6.881  1.00  0.00     0.000 A 
ENDBRANCH  56  70
BRANCH  57  76
ATOM     76  C   UNL     1       2.827  16.331  15.982  1.00  0.00    -0.014 A 
ATOM     77  C   UNL     1       2.370  16.764  17.237  1.00  0.00     0.009 A 
ATOM     78  C   UNL     1       2.917  14.953  15.732  1.00  0.00     0.009 A 
ATOM     79  C   UNL     1       2.041  15.837  18.229  1.00  0.00     0.001 A 
ATOM     80  C   UNL     1       2.555  14.028  16.715  1.00  0.00     0.001 A 
ATOM     81  C   UNL     1       2.129  14.471  17.965  1.00  0.00     0.000 A 
ENDBRANCH  57  76
BRANCH  69  82
ATOM     82  C   UNL     1       8.034  20.922  15.469  1.00  0.00    -0.014 A 
ATOM     83  C   UNL     1       9.102  20.043  15.708  1.00  0.00     0.009 A 
ATOM     84  C   UNL     1       8.040  22.183  16.088  1.00  0.00     0.009 A 
ATOM     85  C   UNL     1      10.133  20.404  16.578  1.00  0.00     0.001 A 
ATOM     86  C   UNL     1       9.089  22.554  16.930  1.00  0.00     0.001 A 
ATOM     87  C   UNL     1      10.129  21.661  17.182  1.00  0.00     0.000 A 
ENDBRANCH  69  82
ENDBRANCH  43  44
ENDBRANCH  35  38
ENDBRANCH  33  34
ENDBRANCH  32  33
ENDBRANCH   1  32
TORSDOF 13
