REMARK SMILES O=C(NCCCNC(=O)[C@H](c1c[nH]c2cc(F)ccc12)[NH+]1CCN(c2ccccc2)CC1)c1ccc(-c2c3nc(c(-c4ccccc4)c4ccc([nH]4)c(-c4ccccc4)c4nc(c(-c5ccccc5)c5ccc2[nH]5)C=C4)C=C3)cc1
REMARK SMILES IDX 5 1 4 2 3 3 1 4 2 5 33 7 34 8 80 9 35 10 79 11 36 12 37 13
REMARK SMILES IDX 38 14 73 15 39 16 78 17 72 18 74 19 40 20 77 21 71 22 70 23
REMARK SMILES IDX 41 25 63 26 48 27 62 28 49 29 52 30 61 31 75 32 50 33 51 34
REMARK SMILES IDX 60 36 76 37 53 38 42 39 43 40 47 41 44 42 46 43 45 44 64 45
REMARK SMILES IDX 65 46 69 47 66 48 68 49 67 50 54 51 55 52 59 53 56 54 58 55
REMARK SMILES IDX 57 56 6 57 7 58 8 59 9 61 10 62 21 63 22 64 32 65 23 67
REMARK SMILES IDX 31 68 24 69 25 70 26 71 30 72 27 73 29 74 28 75 11 76 12 77
REMARK SMILES IDX 20 78 13 79 14 80 19 81 15 83 18 84 16 85 17 86
REMARK H PARENT 3 6 74 24 52 35 7 60 21 66 13 82
REMARK Flexibility Score: inf
ROOT
ATOM      1  C   UNL     1       8.055  -1.695   2.488  1.00  0.00     0.042 C 
ENDROOT
BRANCH   1   2
ATOM      2  C   UNL     1       8.639  -0.702   1.492  1.00  0.00     0.118 C 
BRANCH   2   3
ATOM      3  N   UNL     1      10.075  -0.877   1.337  1.00  0.00    -0.352 N 
ATOM      4  O   UNL     1      11.939  -1.772   0.449  1.00  0.00    -0.269 OA
ATOM      5  C   UNL     1      10.774  -1.424   0.293  1.00  0.00     0.251 C 
ATOM      6  H   UNL     1      10.622  -0.558   2.089  1.00  0.00     0.163 HD
BRANCH   5   7
ATOM      7  C   UNL     1      10.122  -1.584  -1.022  1.00  0.00     0.039 A 
ATOM      8  C   UNL     1       9.322  -0.563  -1.543  1.00  0.00     0.014 A 
ATOM      9  C   UNL     1      10.366  -2.740  -1.767  1.00  0.00     0.014 A 
ATOM     10  C   UNL     1       8.679  -0.740  -2.760  1.00  0.00     0.010 A 
ATOM     11  C   UNL     1       9.790  -2.879  -3.030  1.00  0.00     0.010 A 
ATOM     12  C   UNL     1       8.934  -1.884  -3.530  1.00  0.00    -0.014 A 
BRANCH  12  13
ATOM     13  C   UNL     1       8.380  -1.978  -4.900  1.00  0.00     0.031 A 
ATOM     14  C   UNL     1       7.389  -3.041  -5.264  1.00  0.00     0.074 A 
ATOM     15  C   UNL     1       8.803  -1.093  -5.823  1.00  0.00     0.049 A 
ATOM     16  N   UNL     1       6.834  -3.283  -6.424  1.00  0.00    -0.248 NA
ATOM     17  C   UNL     1       6.975  -3.960  -4.193  1.00  0.00     0.031 C 
ATOM     18  C   UNL     1       9.777  -0.024  -5.581  1.00  0.00     0.029 A 
ATOM     19  N   UNL     1       8.473  -0.950  -7.145  1.00  0.00    -0.354 N 
ATOM     20  C   UNL     1       6.025  -4.394  -6.231  1.00  0.00     0.074 A 
ATOM     21  C   UNL     1       6.177  -4.792  -4.847  1.00  0.00     0.031 C 
ATOM     22  C   UNL     1       9.946   0.679  -6.710  1.00  0.00     0.029 A 
ATOM     23  C   UNL     1       9.148   0.071  -7.767  1.00  0.00     0.049 A 
ATOM     24  H   UNL     1       7.817  -1.523  -7.603  1.00  0.00     0.167 HD
ATOM     25  C   UNL     1       5.229  -5.023  -7.129  1.00  0.00     0.031 A 
ATOM     26  C   UNL     1       9.154   0.459  -9.055  1.00  0.00     0.031 A 
ATOM     27  C   UNL     1       5.096  -4.625  -8.507  1.00  0.00     0.049 A 
ATOM     28  C   UNL     1       8.293  -0.275 -10.037  1.00  0.00     0.074 A 
ATOM     29  C   UNL     1       4.283  -5.168  -9.486  1.00  0.00     0.029 A 
ATOM     30  N   UNL     1       5.807  -3.594  -9.103  1.00  0.00    -0.354 N 
ATOM     31  N   UNL     1       7.490  -1.291  -9.828  1.00  0.00    -0.248 NA
ATOM     32  C   UNL     1       8.334   0.190 -11.428  1.00  0.00     0.031 C 
ATOM     33  C   UNL     1       4.547  -4.505 -10.690  1.00  0.00     0.029 A 
ATOM     34  C   UNL     1       5.478  -3.507 -10.446  1.00  0.00     0.049 A 
ATOM     35  H   UNL     1       6.450  -3.010  -8.641  1.00  0.00     0.167 HD
ATOM     36  C   UNL     1       6.918  -1.579 -11.058  1.00  0.00     0.074 A 
ATOM     37  C   UNL     1       7.453  -0.619 -12.003  1.00  0.00     0.031 C 
ATOM     38  C   UNL     1       6.029  -2.552 -11.374  1.00  0.00     0.031 A 
BRANCH  25  39
ATOM     39  C   UNL     1       4.478  -6.237  -6.655  1.00  0.00    -0.014 A 
ATOM     40  C   UNL     1       3.409  -6.134  -5.751  1.00  0.00     0.009 A 
ATOM     41  C   UNL     1       4.835  -7.506  -7.139  1.00  0.00     0.009 A 
ATOM     42  C   UNL     1       2.743  -7.279  -5.308  1.00  0.00     0.001 A 
ATOM     43  C   UNL     1       4.149  -8.646  -6.716  1.00  0.00     0.001 A 
ATOM     44  C   UNL     1       3.112  -8.534  -5.792  1.00  0.00     0.000 A 
ENDBRANCH  25  39
BRANCH  26  45
ATOM     45  C   UNL     1      10.034   1.579  -9.472  1.00  0.00    -0.014 A 
ATOM     46  C   UNL     1       9.495   2.827  -9.814  1.00  0.00     0.009 A 
ATOM     47  C   UNL     1      11.430   1.418  -9.474  1.00  0.00     0.009 A 
ATOM     48  C   UNL     1      10.336   3.888 -10.160  1.00  0.00     0.001 A 
ATOM     49  C   UNL     1      12.268   2.487  -9.792  1.00  0.00     0.001 A 
ATOM     50  C   UNL     1      11.720   3.719 -10.140  1.00  0.00     0.000 A 
ENDBRANCH  26  45
BRANCH  38  51
ATOM     51  C   UNL     1       5.560  -2.611 -12.800  1.00  0.00    -0.014 A 
ATOM     52  C   UNL     1       6.396  -3.086 -13.822  1.00  0.00     0.009 A 
ATOM     53  C   UNL     1       4.246  -2.230 -13.114  1.00  0.00     0.009 A 
ATOM     54  C   UNL     1       5.930  -3.156 -15.136  1.00  0.00     0.001 A 
ATOM     55  C   UNL     1       3.775  -2.327 -14.423  1.00  0.00     0.001 A 
ATOM     56  C   UNL     1       4.619  -2.783 -15.434  1.00  0.00     0.000 A 
ENDBRANCH  38  51
ENDBRANCH  12  13
ENDBRANCH   5   7
ENDBRANCH   2   3
ENDBRANCH   1   2
BRANCH   1  57
ATOM     57  C   UNL     1       8.598  -1.503   3.900  1.00  0.00     0.118 C 
BRANCH  57  58
ATOM     58  N   UNL     1       8.297  -0.180   4.402  1.00  0.00    -0.351 N 
ATOM     59  C   UNL     1       7.232   0.318   5.091  1.00  0.00     0.283 C 
ATOM     60  H   UNL     1       8.994   0.488   4.208  1.00  0.00     0.163 HD
ATOM     61  O   UNL     1       7.254   1.550   5.180  1.00  0.00    -0.268 OA
BRANCH  59  62
ATOM     62  C   UNL     1       6.197  -0.582   5.831  1.00  0.00     0.307 C 
BRANCH  62  63
ATOM     63  N   UNL     1       5.058   0.120   6.459  1.00  0.00    -0.318 N 
ATOM     64  C   UNL     1       5.132   0.250   7.918  1.00  0.00     0.284 C 
ATOM     65  C   UNL     1       4.510   1.332   5.823  1.00  0.00     0.284 C 
ATOM     66  H   UNL     1       4.343  -0.573   6.239  1.00  0.00     0.349 HD
ATOM     67  C   UNL     1       5.755   1.566   8.420  1.00  0.00     0.178 C 
ATOM     68  C   UNL     1       4.900   2.723   6.411  1.00  0.00     0.178 C 
ATOM     69  N   UNL     1       4.985   2.688   7.880  1.00  0.00    -0.360 N 
BRANCH  69  70
ATOM     70  C   UNL     1       4.865   3.879   8.577  1.00  0.00     0.037 A 
ATOM     71  C   UNL     1       5.827   4.326   9.492  1.00  0.00     0.026 A 
ATOM     72  C   UNL     1       3.722   4.676   8.408  1.00  0.00     0.026 A 
ATOM     73  C   UNL     1       5.655   5.517  10.209  1.00  0.00     0.002 A 
ATOM     74  C   UNL     1       3.538   5.862   9.124  1.00  0.00     0.002 A 
ATOM     75  C   UNL     1       4.507   6.283  10.027  1.00  0.00     0.000 A 
ENDBRANCH  69  70
ENDBRANCH  62  63
BRANCH  62  76
ATOM     76  C   UNL     1       5.613  -1.718   5.012  1.00  0.00     0.044 A 
ATOM     77  C   UNL     1       4.713  -1.649   3.960  1.00  0.00     0.094 A 
ATOM     78  C   UNL     1       5.912  -3.119   5.187  1.00  0.00     0.009 A 
ATOM     79  N   UNL     1       4.531  -2.909   3.454  1.00  0.00    -0.361 N 
ATOM     80  C   UNL     1       5.309  -3.813   4.137  1.00  0.00     0.049 A 
ATOM     81  C   UNL     1       6.719  -3.844   6.096  1.00  0.00     0.014 A 
ATOM     82  H   UNL     1       3.929  -3.135   2.708  1.00  0.00     0.166 HD
ATOM     83  C   UNL     1       5.529  -5.177   3.909  1.00  0.00     0.065 A 
ATOM     84  C   UNL     1       6.955  -5.204   5.879  1.00  0.00     0.040 A 
ATOM     85  C   UNL     1       6.379  -5.844   4.791  1.00  0.00     0.125 A 
ATOM     86  F   UNL     1       6.652  -7.138   4.578  1.00  0.00    -0.207 F 
ENDBRANCH  62  76
ENDBRANCH  59  62
ENDBRANCH  57  58
ENDBRANCH   1  57
TORSDOF 13
