REMARK SMILES Cc1nccn1C1(C(=O)NCCCNC(=O)c2ccc(-c3c4nc(c(-c5ccccc5)c5ccc([nH]5)c(-c5ccccc5)c5nc(c(-c6ccccc6)c6ccc3[nH]6)C=C5)C=C4)cc2)CCN(C(=O)[C@@H]2C[C@H]2c2ccccc2)CC1
REMARK SMILES IDX 12 1 11 2 10 3 8 4 9 5 7 7 65 8 80 9 66 10 79 11 67 12 68 13
REMARK SMILES IDX 69 14 6 15 1 16 2 17 3 18 4 19 5 20 70 21 71 22 72 23 73 24
REMARK SMILES IDX 74 25 78 26 75 27 77 28 76 29 13 30 14 31 15 32 16 34 17 35
REMARK SMILES IDX 18 36 64 37 19 38 63 39 20 40 21 41 22 42 57 43 23 44 62 45
REMARK SMILES IDX 56 46 58 47 24 48 61 49 55 50 54 51 25 53 47 54 32 55 46 56
REMARK SMILES IDX 33 57 36 58 45 59 59 60 34 61 35 62 44 64 60 65 37 66 26 67
REMARK SMILES IDX 27 68 31 69 28 70 30 71 29 72 48 73 49 74 53 75 50 76 52 77
REMARK SMILES IDX 51 78 38 79 39 80 43 81 40 82 42 83 41 84
REMARK H PARENT 10 6 14 33 58 52 36 63
REMARK Flexibility Score: inf
ROOT
ATOM      1  C   UNL     1      -4.212   2.056   2.941  1.00  0.00     0.042 C 
ENDROOT
BRANCH   1   2
ATOM      2  C   UNL     1      -2.861   1.496   3.398  1.00  0.00     0.117 C 
BRANCH   2   3
ATOM      3  N   UNL     1      -2.836   0.038   3.525  1.00  0.00    -0.354 N 
ATOM      4  C   UNL     1      -2.076  -0.962   2.959  1.00  0.00     0.246 C 
ATOM      5  O   UNL     1      -2.277  -2.052   3.499  1.00  0.00    -0.272 OA
ATOM      6  H   UNL     1      -3.511  -0.304   4.154  1.00  0.00     0.163 HD
BRANCH   4   7
ATOM      7  C   UNL     1      -1.031  -0.704   1.782  1.00  0.00     0.127 C 
ATOM      8  C   UNL     1      -1.850  -0.030   0.653  1.00  0.00     0.061 C 
ATOM      9  C   UNL     1       0.049   0.162   2.466  1.00  0.00     0.061 C 
ATOM     10  C   UNL     1      -1.204   1.150  -0.058  1.00  0.00     0.122 C 
ATOM     11  C   UNL     1       0.715   1.100   1.503  1.00  0.00     0.122 C 
ATOM     12  N   UNL     1      -0.246   1.891   0.757  1.00  0.00    -0.342 N 
ATOM     13  C   UNL     1      -0.093   3.246   0.455  1.00  0.00     0.226 C 
ATOM     14  O   UNL     1      -0.520   3.713  -0.599  1.00  0.00    -0.275 OA
BRANCH   7  15
ATOM     15  N   UNL     1      -0.355  -1.943   1.202  1.00  0.00    -0.320 N 
ATOM     16  C   UNL     1       1.293  -1.136  -0.737  1.00  0.00     0.087 C 
ATOM     17  C   UNL     1       0.623  -2.091   0.190  1.00  0.00     0.106 A 
ATOM     18  N   UNL     1       0.994  -3.353   0.077  1.00  0.00    -0.242 NA
ATOM     19  C   UNL     1       0.233  -4.067   0.924  1.00  0.00     0.131 A 
ATOM     20  C   UNL     1      -0.618  -3.239   1.600  1.00  0.00     0.108 A 
ENDBRANCH   7  15
BRANCH  13  21
ATOM     21  C   UNL     1       0.389   4.224   1.471  1.00  0.00     0.087 C 
ATOM     22  C   UNL     1       1.825   4.669   1.542  1.00  0.00     0.023 C 
ATOM     23  C   UNL     1       1.206   3.960   2.707  1.00  0.00     0.032 C 
BRANCH  23  24
ATOM     24  C   UNL     1       0.806   4.518   4.036  1.00  0.00    -0.044 A 
ATOM     25  C   UNL     1       1.815   4.799   4.969  1.00  0.00     0.004 A 
ATOM     26  C   UNL     1      -0.519   4.445   4.499  1.00  0.00     0.004 A 
ATOM     27  C   UNL     1       1.535   4.873   6.331  1.00  0.00     0.000 A 
ATOM     28  C   UNL     1      -0.806   4.530   5.863  1.00  0.00     0.000 A 
ATOM     29  C   UNL     1       0.228   4.709   6.779  1.00  0.00     0.000 A 
ENDBRANCH  23  24
ENDBRANCH  13  21
ENDBRANCH   4   7
ENDBRANCH   2   3
ENDBRANCH   1   2
BRANCH   1  30
ATOM     30  C   UNL     1      -5.305   1.945   3.991  1.00  0.00     0.118 C 
BRANCH  30  31
ATOM     31  N   UNL     1      -5.146   2.862   5.124  1.00  0.00    -0.352 N 
ATOM     32  C   UNL     1      -6.051   3.092   6.147  1.00  0.00     0.251 C 
ATOM     33  H   UNL     1      -4.304   3.370   5.162  1.00  0.00     0.163 HD
ATOM     34  O   UNL     1      -5.965   4.095   6.856  1.00  0.00    -0.269 OA
BRANCH  32  35
ATOM     35  C   UNL     1      -7.122   2.107   6.373  1.00  0.00     0.039 A 
ATOM     36  C   UNL     1      -8.441   2.483   6.638  1.00  0.00     0.014 A 
ATOM     37  C   UNL     1      -6.780   0.765   6.239  1.00  0.00     0.014 A 
ATOM     38  C   UNL     1      -9.420   1.493   6.674  1.00  0.00     0.010 A 
ATOM     39  C   UNL     1      -7.763  -0.172   6.072  1.00  0.00     0.010 A 
ATOM     40  C   UNL     1      -9.076   0.166   6.358  1.00  0.00    -0.014 A 
BRANCH  40  41
ATOM     41  C   UNL     1     -10.096  -0.862   6.191  1.00  0.00     0.031 A 
ATOM     42  C   UNL     1     -11.190  -0.477   5.261  1.00  0.00     0.074 A 
ATOM     43  C   UNL     1      -9.968  -2.128   6.649  1.00  0.00     0.049 A 
ATOM     44  N   UNL     1     -12.419  -0.236   5.566  1.00  0.00    -0.248 NA
ATOM     45  C   UNL     1     -10.850  -0.174   3.859  1.00  0.00     0.031 C 
ATOM     46  C   UNL     1      -8.812  -2.763   7.295  1.00  0.00     0.029 A 
ATOM     47  N   UNL     1     -10.832  -3.170   6.521  1.00  0.00    -0.354 N 
ATOM     48  C   UNL     1     -13.064   0.039   4.366  1.00  0.00     0.074 A 
ATOM     49  C   UNL     1     -12.025   0.249   3.389  1.00  0.00     0.031 C 
ATOM     50  C   UNL     1      -8.949  -4.108   7.255  1.00  0.00     0.029 A 
ATOM     51  C   UNL     1     -10.272  -4.423   6.750  1.00  0.00     0.049 A 
ATOM     52  H   UNL     1     -11.780  -3.048   6.284  1.00  0.00     0.167 HD
ATOM     53  C   UNL     1     -14.395  -0.203   4.216  1.00  0.00     0.031 A 
ATOM     54  C   UNL     1     -10.850  -5.628   6.505  1.00  0.00     0.031 A 
ATOM     55  C   UNL     1     -15.052  -0.373   5.490  1.00  0.00     0.049 A 
ATOM     56  C   UNL     1     -12.312  -5.396   6.416  1.00  0.00     0.074 A 
ATOM     57  C   UNL     1     -15.151   0.398   6.633  1.00  0.00     0.029 A 
ATOM     58  N   UNL     1     -15.354  -1.657   5.882  1.00  0.00    -0.354 N 
ATOM     59  N   UNL     1     -13.040  -5.030   7.432  1.00  0.00    -0.248 NA
ATOM     60  C   UNL     1     -12.865  -5.098   5.104  1.00  0.00     0.031 C 
ATOM     61  C   UNL     1     -14.978  -0.525   7.708  1.00  0.00     0.029 A 
ATOM     62  C   UNL     1     -14.891  -1.808   7.165  1.00  0.00     0.049 A 
ATOM     63  H   UNL     1     -15.815  -2.340   5.343  1.00  0.00     0.167 HD
ATOM     64  C   UNL     1     -13.894  -4.067   6.917  1.00  0.00     0.074 A 
ATOM     65  C   UNL     1     -13.794  -4.208   5.462  1.00  0.00     0.031 C 
ATOM     66  C   UNL     1     -14.372  -3.050   7.693  1.00  0.00     0.031 A 
BRANCH  53  67
ATOM     67  C   UNL     1     -14.993  -0.715   2.930  1.00  0.00    -0.014 A 
ATOM     68  C   UNL     1     -16.385  -0.896   2.855  1.00  0.00     0.009 A 
ATOM     69  C   UNL     1     -14.225  -1.292   1.900  1.00  0.00     0.009 A 
ATOM     70  C   UNL     1     -16.964  -1.673   1.844  1.00  0.00     0.001 A 
ATOM     71  C   UNL     1     -14.802  -2.032   0.866  1.00  0.00     0.001 A 
ATOM     72  C   UNL     1     -16.171  -2.246   0.854  1.00  0.00     0.000 A 
ENDBRANCH  53  67
BRANCH  54  73
ATOM     73  C   UNL     1     -10.229  -6.891   6.037  1.00  0.00    -0.014 A 
ATOM     74  C   UNL     1     -10.968  -8.087   6.026  1.00  0.00     0.009 A 
ATOM     75  C   UNL     1      -9.016  -6.872   5.324  1.00  0.00     0.009 A 
ATOM     76  C   UNL     1     -10.539  -9.198   5.284  1.00  0.00     0.001 A 
ATOM     77  C   UNL     1      -8.585  -7.982   4.588  1.00  0.00     0.001 A 
ATOM     78  C   UNL     1      -9.356  -9.139   4.552  1.00  0.00     0.000 A 
ENDBRANCH  54  73
BRANCH  66  79
ATOM     79  C   UNL     1     -14.134  -3.101   9.185  1.00  0.00    -0.014 A 
ATOM     80  C   UNL     1     -12.857  -3.158   9.772  1.00  0.00     0.009 A 
ATOM     81  C   UNL     1     -15.240  -2.918  10.029  1.00  0.00     0.009 A 
ATOM     82  C   UNL     1     -12.700  -3.061  11.161  1.00  0.00     0.001 A 
ATOM     83  C   UNL     1     -15.082  -2.800  11.412  1.00  0.00     0.001 A 
ATOM     84  C   UNL     1     -13.813  -2.877  11.978  1.00  0.00     0.000 A 
ENDBRANCH  66  79
ENDBRANCH  40  41
ENDBRANCH  32  35
ENDBRANCH  30  31
ENDBRANCH   1  30
TORSDOF 13
