REMARK SMILES CC1(C)CCC[N@H+](CC[C@@H]2CCC[C@]2([NH3+])C(=O)NCCCNC(=O)c2ccc(-c3c4nc(c(-c5ccccc5)c5ccc([nH]5)c(-c5ccccc5)c5nc(c(-c6ccccc6)c6ccc3[nH]6)C=C5)C=C4)cc2)CC1
REMARK SMILES IDX 16 1 17 2 18 3 14 5 10 6 11 7 12 8 13 9 9 10 8 11 7 12 73 14
REMARK SMILES IDX 74 15 2 16 1 17 3 18 6 20 5 21 4 22 15 24 19 28 20 29 21 30
REMARK SMILES IDX 22 31 23 32 24 34 25 35 26 36 72 37 27 38 71 39 28 40 29 41
REMARK SMILES IDX 30 42 65 43 31 44 70 45 64 46 66 47 32 48 69 49 63 50 62 51
REMARK SMILES IDX 33 53 55 54 40 55 54 56 41 57 44 58 53 59 67 60 42 61 43 62
REMARK SMILES IDX 52 64 68 65 45 66 34 67 35 68 39 69 36 70 38 71 37 72 56 73
REMARK SMILES IDX 57 74 61 75 58 76 60 77 59 78 46 79 47 80 51 81 48 82 50 83
REMARK SMILES IDX 49 84
REMARK H PARENT 18 4 7 13 15 25 15 26 15 27 22 33 66 52 44 63
REMARK Flexibility Score: 90.00
ROOT
ATOM      1  C   UNL     1      -1.839   7.070   3.029  1.00  0.00     0.281 C 
ATOM      2  O   UNL     1      -1.965   6.986   4.257  1.00  0.00    -0.268 OA
ATOM      3  N   UNL     1      -2.980   7.373   2.348  1.00  0.00    -0.351 N 
ATOM      4  H   UNL     1      -3.780   7.418   2.921  1.00  0.00     0.163 HD
ENDROOT
BRANCH   1   5
ATOM      5  C   UNL     1      -0.460   6.795   2.332  1.00  0.00     0.177 C 
ATOM      6  C   UNL     1      -0.264   5.335   1.863  1.00  0.00     0.066 C 
ATOM      7  C   UNL     1      -0.058   4.586   3.188  1.00  0.00     0.011 C 
ATOM      8  C   UNL     1       0.791   5.520   4.037  1.00  0.00     0.008 C 
ATOM      9  C   UNL     1       0.674   6.904   3.388  1.00  0.00     0.079 C 
BRANCH   6  10
ATOM     10  C   UNL     1      -1.351   4.657   1.029  1.00  0.00     0.072 C 
BRANCH  10  11
ATOM     11  C   UNL     1      -1.217   4.815  -0.495  1.00  0.00     0.262 C 
BRANCH  11  12
ATOM     12  N   UNL     1      -0.439   3.780  -1.176  1.00  0.00    -0.335 N 
ATOM     13  H   UNL     1      -0.485   4.060  -2.156  1.00  0.00     0.348 HD
BRANCH  12  14
ATOM     14  C   UNL     1      -1.089   2.490  -1.331  1.00  0.00     0.262 C 
BRANCH  14  15
ATOM     15  C   UNL     1      -0.226   1.232  -1.522  1.00  0.00     0.068 C 
BRANCH  15  16
ATOM     16  C   UNL     1       0.667   0.786  -0.334  1.00  0.00    -0.030 CG0
ATOM     17  C   UNL     1       1.152  -0.667  -0.589  1.00  0.00     0.011 C 
ATOM     18  C   UNL     1      -0.118   0.773   0.992  1.00  0.00     0.011 C 
ATOM     19  G   UNL     1       1.928   1.672  -0.225  1.00  0.00     0.000 G0
ENDBRANCH  15  16
ENDBRANCH  14  15
ENDBRANCH  12  14
BRANCH  12  20
ATOM     20  C   UNL     1       1.002   3.885  -1.154  1.00  0.00     0.262 C 
BRANCH  20  21
ATOM     21  C   UNL     1       1.710   3.162  -0.012  1.00  0.00     0.062 C 
BRANCH  21  22
ATOM     22  C   UNL     1       1.928   1.672  -0.225  1.00  0.00     0.012 CG0
ATOM     23  G   UNL     1       0.667   0.786  -0.334  1.00  0.00     0.000 G0
ENDBRANCH  21  22
ENDBRANCH  20  21
ENDBRANCH  12  20
ENDBRANCH  11  12
ENDBRANCH  10  11
ENDBRANCH   6  10
BRANCH   5  24
ATOM     24  N   UNL     1      -0.210   7.795   1.278  1.00  0.00    -0.345 N 
ATOM     25  H   UNL     1       0.688   7.604   0.834  1.00  0.00     0.345 HD
ATOM     26  H   UNL     1      -0.195   8.727   1.690  1.00  0.00     0.345 HD
ATOM     27  H   UNL     1      -0.952   7.744   0.579  1.00  0.00     0.345 HD
ENDBRANCH   5  24
ENDBRANCH   1   5
BRANCH   3  28
ATOM     28  C   UNL     1      -3.253   7.645   0.944  1.00  0.00     0.118 C 
BRANCH  28  29
ATOM     29  C   UNL     1      -4.285   6.699   0.331  1.00  0.00     0.042 C 
BRANCH  29  30
ATOM     30  C   UNL     1      -5.615   6.632   1.064  1.00  0.00     0.118 C 
BRANCH  30  31
ATOM     31  N   UNL     1      -6.524   7.680   0.636  1.00  0.00    -0.352 N 
ATOM     32  C   UNL     1      -7.632   7.592  -0.166  1.00  0.00     0.251 C 
ATOM     33  H   UNL     1      -6.314   8.582   0.970  1.00  0.00     0.163 HD
ATOM     34  O   UNL     1      -8.128   8.624  -0.628  1.00  0.00    -0.269 OA
BRANCH  32  35
ATOM     35  C   UNL     1      -8.240   6.282  -0.496  1.00  0.00     0.039 A 
ATOM     36  C   UNL     1      -8.749   6.078  -1.783  1.00  0.00     0.014 A 
ATOM     37  C   UNL     1      -8.378   5.277   0.467  1.00  0.00     0.014 A 
ATOM     38  C   UNL     1      -9.367   4.866  -2.109  1.00  0.00     0.010 A 
ATOM     39  C   UNL     1      -8.911   4.038   0.116  1.00  0.00     0.010 A 
ATOM     40  C   UNL     1      -9.441   3.829  -1.166  1.00  0.00    -0.014 A 
BRANCH  40  41
ATOM     41  C   UNL     1     -10.132   2.549  -1.471  1.00  0.00     0.031 A 
ATOM     42  C   UNL     1     -11.364   2.159  -0.695  1.00  0.00     0.074 A 
ATOM     43  C   UNL     1      -9.637   1.712  -2.402  1.00  0.00     0.049 A 
ATOM     44  N   UNL     1     -12.065   1.054  -0.751  1.00  0.00    -0.248 NA
ATOM     45  C   UNL     1     -11.859   3.131   0.295  1.00  0.00     0.031 C 
ATOM     46  C   UNL     1      -8.439   1.949  -3.209  1.00  0.00     0.029 A 
ATOM     47  N   UNL     1     -10.083   0.483  -2.823  1.00  0.00    -0.354 N 
ATOM     48  C   UNL     1     -13.056   1.186   0.214  1.00  0.00     0.074 A 
ATOM     49  C   UNL     1     -12.841   2.455   0.872  1.00  0.00     0.031 C 
ATOM     50  C   UNL     1      -8.261   0.913  -4.045  1.00  0.00     0.029 A 
ATOM     51  C   UNL     1      -9.307  -0.077  -3.808  1.00  0.00     0.049 A 
ATOM     52  H   UNL     1     -10.883   0.045  -2.453  1.00  0.00     0.167 HD
ATOM     53  C   UNL     1     -14.069   0.339   0.516  1.00  0.00     0.031 A 
ATOM     54  C   UNL     1      -9.421  -1.258  -4.445  1.00  0.00     0.031 A 
ATOM     55  C   UNL     1     -14.308  -0.910  -0.155  1.00  0.00     0.049 A 
ATOM     56  C   UNL     1     -10.554  -2.182  -4.096  1.00  0.00     0.074 A 
ATOM     57  C   UNL     1     -15.342  -1.809   0.038  1.00  0.00     0.029 A 
ATOM     58  N   UNL     1     -13.505  -1.431  -1.156  1.00  0.00    -0.354 N 
ATOM     59  N   UNL     1     -11.511  -2.019  -3.214  1.00  0.00    -0.248 NA
ATOM     60  C   UNL     1     -10.628  -3.448  -4.839  1.00  0.00     0.031 C 
ATOM     61  C   UNL     1     -15.142  -2.895  -0.820  1.00  0.00     0.029 A 
ATOM     62  C   UNL     1     -14.010  -2.649  -1.579  1.00  0.00     0.049 A 
ATOM     63  H   UNL     1     -12.694  -1.000  -1.513  1.00  0.00     0.167 HD
ATOM     64  C   UNL     1     -12.314  -3.148  -3.315  1.00  0.00     0.074 A 
ATOM     65  C   UNL     1     -11.740  -3.981  -4.351  1.00  0.00     0.031 C 
ATOM     66  C   UNL     1     -13.429  -3.464  -2.613  1.00  0.00     0.031 A 
BRANCH  53  67
ATOM     67  C   UNL     1     -14.993   0.740   1.632  1.00  0.00    -0.014 A 
ATOM     68  C   UNL     1     -15.901   1.800   1.480  1.00  0.00     0.009 A 
ATOM     69  C   UNL     1     -14.969   0.035   2.845  1.00  0.00     0.009 A 
ATOM     70  C   UNL     1     -16.735   2.174   2.536  1.00  0.00     0.001 A 
ATOM     71  C   UNL     1     -15.825   0.392   3.889  1.00  0.00     0.001 A 
ATOM     72  C   UNL     1     -16.699   1.467   3.738  1.00  0.00     0.000 A 
ENDBRANCH  53  67
BRANCH  54  73
ATOM     73  C   UNL     1      -8.442  -1.629  -5.499  1.00  0.00    -0.014 A 
ATOM     74  C   UNL     1      -8.821  -1.627  -6.850  1.00  0.00     0.009 A 
ATOM     75  C   UNL     1      -7.128  -1.988  -5.162  1.00  0.00     0.009 A 
ATOM     76  C   UNL     1      -7.910  -1.998  -7.841  1.00  0.00     0.001 A 
ATOM     77  C   UNL     1      -6.211  -2.334  -6.158  1.00  0.00     0.001 A 
ATOM     78  C   UNL     1      -6.605  -2.346  -7.495  1.00  0.00     0.000 A 
ENDBRANCH  54  73
BRANCH  66  79
ATOM     79  C   UNL     1     -14.124  -4.747  -2.968  1.00  0.00    -0.014 A 
ATOM     80  C   UNL     1     -13.594  -5.990  -2.593  1.00  0.00     0.009 A 
ATOM     81  C   UNL     1     -15.352  -4.705  -3.648  1.00  0.00     0.009 A 
ATOM     82  C   UNL     1     -14.266  -7.170  -2.919  1.00  0.00     0.001 A 
ATOM     83  C   UNL     1     -16.034  -5.885  -3.950  1.00  0.00     0.001 A 
ATOM     84  C   UNL     1     -15.486  -7.116  -3.592  1.00  0.00     0.000 A 
ENDBRANCH  66  79
ENDBRANCH  40  41
ENDBRANCH  32  35
ENDBRANCH  30  31
ENDBRANCH  29  30
ENDBRANCH  28  29
ENDBRANCH   3  28
TORSDOF 14
