REMARK SMILES COc1cccc(-n2cc(C(=O)NCCCNC(=O)c3ccc(-c4c5nc(c(-c6ccccc6)c6ccc([nH]6)c(-c6ccccc6)c6nc(c(-c7ccccc7)c7ccc4[nH]7)C=C6)C=C5)cc3)c3c2[C@H](c2cc(OC)c(OC)c(OC)c2)CC(=O)N3)c1
REMARK SMILES IDX 15 1 14 2 13 3 11 4 12 5 10 7 8 8 9 9 69 10 68 11 70 12
REMARK SMILES IDX 86 13 83 14 84 15 85 17 7 18 3 19 4 20 87 21 5 22 6 23 2 24
REMARK SMILES IDX 1 25 71 26 72 27 82 28 73 29 79 30 76 31 74 32 75 33 80 34
REMARK SMILES IDX 81 35 77 36 78 37 16 38 17 39 18 40 19 42 20 43 21 44 67 45
REMARK SMILES IDX 22 46 66 47 23 48 24 49 25 50 60 51 26 52 65 53 59 54 61 55
REMARK SMILES IDX 27 56 64 57 58 58 57 59 28 61 50 62 35 63 49 64 36 65 39 66
REMARK SMILES IDX 48 67 62 68 37 69 38 70 47 72 63 73 40 74 29 75 30 76 34 77
REMARK SMILES IDX 31 78 33 79 32 80 51 81 52 82 56 83 53 84 55 85 54 86 41 87
REMARK SMILES IDX 42 88 46 89 43 90 45 91 44 92
REMARK H PARENT 13 6 86 16 17 41 61 60 39 71
REMARK Flexibility Score: inf
ROOT
ATOM      1  C   UNL     1       9.012  -5.649  -2.292  1.00  0.00     0.042 C 
ENDROOT
BRANCH   1   2
ATOM      2  C   UNL     1       8.735  -6.232  -0.898  1.00  0.00     0.118 C 
BRANCH   2   3
ATOM      3  N   UNL     1       8.452  -5.197   0.070  1.00  0.00    -0.352 N 
ATOM      4  C   UNL     1       7.311  -4.553   0.466  1.00  0.00     0.254 C 
ATOM      5  O   UNL     1       7.474  -3.768   1.406  1.00  0.00    -0.269 OA
ATOM      6  H   UNL     1       9.255  -4.889   0.549  1.00  0.00     0.163 HD
BRANCH   4   7
ATOM      7  C   UNL     1       5.973  -4.736  -0.121  1.00  0.00     0.081 A 
ATOM      8  N   UNL     1       3.713  -4.406  -0.153  1.00  0.00    -0.317 N 
ATOM      9  C   UNL     1       4.881  -4.148   0.519  1.00  0.00     0.107 A 
ATOM     10  C   UNL     1       4.020  -5.142  -1.273  1.00  0.00     0.055 A 
ATOM     11  C   UNL     1       5.395  -5.298  -1.299  1.00  0.00     0.076 A 
ATOM     12  C   UNL     1       3.097  -5.608  -2.385  1.00  0.00     0.078 C 
ATOM     13  N   UNL     1       5.931  -5.908  -2.402  1.00  0.00    -0.324 N 
ATOM     14  C   UNL     1       3.888  -5.459  -3.703  1.00  0.00     0.115 C 
ATOM     15  C   UNL     1       5.272  -6.069  -3.589  1.00  0.00     0.225 C 
ATOM     16  H   UNL     1       6.851  -6.252  -2.337  1.00  0.00     0.170 HD
ATOM     17  O   UNL     1       5.825  -6.638  -4.530  1.00  0.00    -0.275 OA
BRANCH   8  18
ATOM     18  C   UNL     1       2.452  -3.970   0.289  1.00  0.00     0.049 A 
ATOM     19  C   UNL     1       0.835  -2.214   0.611  1.00  0.00     0.120 A 
ATOM     20  C   UNL     1      -0.051  -3.163   1.137  1.00  0.00     0.046 A 
ATOM     21  C   UNL     1       2.101  -2.619   0.181  1.00  0.00     0.073 A 
ATOM     22  C   UNL     1       0.331  -4.495   1.289  1.00  0.00     0.006 A 
ATOM     23  C   UNL     1       1.604  -4.893   0.898  1.00  0.00     0.027 A 
BRANCH  19  24
ATOM     24  O   UNL     1       0.338  -0.941   0.592  1.00  0.00    -0.497 OA
ATOM     25  C   UNL     1       1.112   0.056  -0.059  1.00  0.00     0.278 C 
ENDBRANCH  19  24
ENDBRANCH   8  18
BRANCH  12  26
ATOM     26  C   UNL     1       2.547  -7.025  -2.167  1.00  0.00    -0.031 A 
ATOM     27  C   UNL     1       1.431  -7.191  -1.349  1.00  0.00     0.055 A 
ATOM     28  C   UNL     1       3.102  -8.197  -2.710  1.00  0.00     0.055 A 
ATOM     29  C   UNL     1       1.005  -8.451  -0.920  1.00  0.00     0.164 A 
ATOM     30  C   UNL     1       2.603  -9.481  -2.407  1.00  0.00     0.164 A 
ATOM     31  C   UNL     1       1.563  -9.617  -1.469  1.00  0.00     0.203 A 
BRANCH  29  32
ATOM     32  O   UNL     1       0.003  -8.401   0.019  1.00  0.00    -0.493 OA
ATOM     33  C   UNL     1       0.148  -9.320   1.101  1.00  0.00     0.278 C 
ENDBRANCH  29  32
BRANCH  30  34
ATOM     34  O   UNL     1       3.146 -10.619  -2.948  1.00  0.00    -0.493 OA
ATOM     35  C   UNL     1       3.908 -10.491  -4.144  1.00  0.00     0.278 C 
ENDBRANCH  30  34
BRANCH  31  36
ATOM     36  O   UNL     1       1.032 -10.794  -1.010  1.00  0.00    -0.490 OA
ATOM     37  C   UNL     1       1.087 -11.941  -1.843  1.00  0.00     0.278 C 
ENDBRANCH  31  36
ENDBRANCH  12  26
ENDBRANCH   4   7
ENDBRANCH   2   3
ENDBRANCH   1   2
BRANCH   1  38
ATOM     38  C   UNL     1      10.486  -5.502  -2.607  1.00  0.00     0.118 C 
BRANCH  38  39
ATOM     39  N   UNL     1      11.094  -6.809  -2.863  1.00  0.00    -0.352 N 
ATOM     40  C   UNL     1      12.432  -7.136  -2.939  1.00  0.00     0.251 C 
ATOM     41  H   UNL     1      10.464  -7.553  -2.998  1.00  0.00     0.163 HD
ATOM     42  O   UNL     1      12.805  -8.157  -3.482  1.00  0.00    -0.269 OA
BRANCH  40  43
ATOM     43  C   UNL     1      13.398  -6.192  -2.360  1.00  0.00     0.039 A 
ATOM     44  C   UNL     1      14.497  -5.769  -3.107  1.00  0.00     0.014 A 
ATOM     45  C   UNL     1      13.120  -5.656  -1.105  1.00  0.00     0.014 A 
ATOM     46  C   UNL     1      15.263  -4.715  -2.624  1.00  0.00     0.010 A 
ATOM     47  C   UNL     1      13.794  -4.531  -0.697  1.00  0.00     0.010 A 
ATOM     48  C   UNL     1      14.883  -4.070  -1.436  1.00  0.00    -0.014 A 
BRANCH  48  49
ATOM     49  C   UNL     1      15.517  -2.805  -1.062  1.00  0.00     0.031 A 
ATOM     50  C   UNL     1      15.522  -1.774  -2.138  1.00  0.00     0.074 A 
ATOM     51  C   UNL     1      15.857  -2.487   0.206  1.00  0.00     0.049 A 
ATOM     52  N   UNL     1      16.545  -1.274  -2.747  1.00  0.00    -0.248 NA
ATOM     53  C   UNL     1      14.228  -1.329  -2.686  1.00  0.00     0.031 C 
ATOM     54  C   UNL     1      15.603  -3.277   1.417  1.00  0.00     0.029 A 
ATOM     55  N   UNL     1      16.373  -1.327   0.706  1.00  0.00    -0.354 N 
ATOM     56  C   UNL     1      16.041  -0.293  -3.597  1.00  0.00     0.074 A 
ATOM     57  C   UNL     1      14.617  -0.500  -3.657  1.00  0.00     0.031 C 
ATOM     58  C   UNL     1      15.707  -2.483   2.503  1.00  0.00     0.029 A 
ATOM     59  C   UNL     1      16.226  -1.197   2.082  1.00  0.00     0.049 A 
ATOM     60  H   UNL     1      16.809  -0.645   0.144  1.00  0.00     0.167 HD
ATOM     61  C   UNL     1      16.789   0.796  -3.927  1.00  0.00     0.031 A 
ATOM     62  C   UNL     1      16.500  -0.111   2.839  1.00  0.00     0.031 A 
ATOM     63  C   UNL     1      18.170   0.613  -3.560  1.00  0.00     0.049 A 
ATOM     64  C   UNL     1      17.449   0.734   2.090  1.00  0.00     0.074 A 
ATOM     65  C   UNL     1      19.240  -0.139  -3.987  1.00  0.00     0.029 A 
ATOM     66  N   UNL     1      18.460   1.063  -2.300  1.00  0.00    -0.354 N 
ATOM     67  N   UNL     1      18.670   0.369   1.823  1.00  0.00    -0.248 NA
ATOM     68  C   UNL     1      16.960   1.881   1.337  1.00  0.00     0.031 C 
ATOM     69  C   UNL     1      20.074  -0.313  -2.841  1.00  0.00     0.029 A 
ATOM     70  C   UNL     1      19.510   0.371  -1.764  1.00  0.00     0.049 A 
ATOM     71  H   UNL     1      17.977   1.788  -1.841  1.00  0.00     0.167 HD
ATOM     72  C   UNL     1      18.928   0.928   0.586  1.00  0.00     0.074 A 
ATOM     73  C   UNL     1      17.942   1.990   0.438  1.00  0.00     0.031 C 
ATOM     74  C   UNL     1      19.691   0.267  -0.331  1.00  0.00     0.031 A 
BRANCH  61  75
ATOM     75  C   UNL     1      16.224   2.201  -4.041  1.00  0.00    -0.014 A 
ATOM     76  C   UNL     1      17.112   3.254  -4.340  1.00  0.00     0.009 A 
ATOM     77  C   UNL     1      14.960   2.571  -3.544  1.00  0.00     0.009 A 
ATOM     78  C   UNL     1      16.781   4.590  -4.077  1.00  0.00     0.001 A 
ATOM     79  C   UNL     1      14.613   3.907  -3.315  1.00  0.00     0.001 A 
ATOM     80  C   UNL     1      15.534   4.915  -3.555  1.00  0.00     0.000 A 
ENDBRANCH  61  75
BRANCH  62  81
ATOM     81  C   UNL     1      15.884   0.329   4.106  1.00  0.00    -0.014 A 
ATOM     82  C   UNL     1      16.551   1.230   4.950  1.00  0.00     0.009 A 
ATOM     83  C   UNL     1      14.523   0.076   4.354  1.00  0.00     0.009 A 
ATOM     84  C   UNL     1      15.865   1.896   5.973  1.00  0.00     0.001 A 
ATOM     85  C   UNL     1      13.839   0.738   5.379  1.00  0.00     0.001 A 
ATOM     86  C   UNL     1      14.507   1.663   6.176  1.00  0.00     0.000 A 
ENDBRANCH  62  81
BRANCH  74  87
ATOM     87  C   UNL     1      20.637  -0.784   0.177  1.00  0.00    -0.014 A 
ATOM     88  C   UNL     1      20.224  -1.961   0.822  1.00  0.00     0.009 A 
ATOM     89  C   UNL     1      22.004  -0.605  -0.081  1.00  0.00     0.009 A 
ATOM     90  C   UNL     1      21.163  -2.916   1.225  1.00  0.00     0.001 A 
ATOM     91  C   UNL     1      22.937  -1.568   0.300  1.00  0.00     0.001 A 
ATOM     92  C   UNL     1      22.517  -2.720   0.960  1.00  0.00     0.000 A 
ENDBRANCH  74  87
ENDBRANCH  48  49
ENDBRANCH  40  43
ENDBRANCH  38  39
ENDBRANCH   1  38
TORSDOF 16
