REMARK SMILES CN1N[C@H](C(=O)N[C@@H](CC2=c3ccccc3=NC2)C(=O)NCCCNC(=O)c2ccc(-c3c4nc(c(-c5ccccc5)c5ccc([nH]5)c(-c5ccccc5)c5nc(c(-c6ccccc6)c6ccc3[nH]6)C=C5)C=C4)cc2)c2ccccc2C1=O
REMARK SMILES IDX 23 1 22 2 21 3 19 4 20 5 8 7 7 8 5 9 6 10 4 12 1 13 2 14
REMARK SMILES IDX 3 15 82 16 81 18 83 19 76 20 80 21 77 22 79 23 78 24 9 25
REMARK SMILES IDX 10 26 11 27 18 28 12 29 16 30 17 31 13 32 15 33 14 34 24 35
REMARK SMILES IDX 25 36 26 37 27 39 28 40 29 41 75 42 30 43 74 44 31 45 32 46
REMARK SMILES IDX 33 47 68 48 34 49 73 50 67 51 69 52 35 53 72 54 66 55 65 56
REMARK SMILES IDX 36 58 58 59 43 60 57 61 44 62 47 63 56 64 70 65 45 66 46 67
REMARK SMILES IDX 55 69 71 70 48 71 37 72 38 73 42 74 39 75 41 76 40 77 59 78
REMARK SMILES IDX 60 79 64 80 61 81 63 82 62 83 49 84 50 85 54 86 51 87 53 88
REMARK SMILES IDX 52 89
REMARK H PARENT 21 6 7 11 3 17 25 38 69 57 47 68
REMARK Flexibility Score: inf
ROOT
ATOM      1  C   UNL     1      -0.426   5.963   7.205  1.00  0.00     0.042 C 
ENDROOT
BRANCH   1   2
ATOM      2  C   UNL     1       0.074   4.575   6.853  1.00  0.00     0.117 C 
BRANCH   2   3
ATOM      3  N   UNL     1      -0.792   3.649   6.172  1.00  0.00    -0.354 N 
ATOM      4  C   UNL     1      -0.347   2.435   5.692  1.00  0.00     0.242 C 
ATOM      5  O   UNL     1      -1.041   1.447   5.954  1.00  0.00    -0.273 OA
ATOM      6  H   UNL     1      -1.738   3.891   6.045  1.00  0.00     0.163 HD
BRANCH   4   7
ATOM      7  C   UNL     1       1.004   2.263   4.911  1.00  0.00     0.175 C 
BRANCH   7   8
ATOM      8  N   UNL     1       1.512   3.435   4.184  1.00  0.00    -0.342 N 
ATOM      9  C   UNL     1       1.344   3.809   2.878  1.00  0.00     0.244 C 
ATOM     10  O   UNL     1       1.861   4.877   2.530  1.00  0.00    -0.273 OA
ATOM     11  H   UNL     1       2.061   4.050   4.723  1.00  0.00     0.164 HD
BRANCH   9  12
ATOM     12  C   UNL     1       0.552   2.949   1.856  1.00  0.00     0.195 C 
ATOM     13  C   UNL     1       1.139  -0.320   0.263  1.00  0.00     0.169 C 
ATOM     14  N   UNL     1       0.456   0.641   1.113  1.00  0.00    -0.276 N 
ATOM     15  N   UNL     1       1.228   1.638   1.758  1.00  0.00    -0.215 NA
ATOM     16  C   UNL     1      -0.908   0.485   1.383  1.00  0.00     0.268 C 
ATOM     17  H   UNL     1       2.095   1.762   1.235  1.00  0.00     0.149 HD
ATOM     18  C   UNL     1      -1.591   1.636   2.034  1.00  0.00     0.046 A 
ATOM     19  O   UNL     1      -1.561  -0.497   1.040  1.00  0.00    -0.268 OA
ATOM     20  C   UNL     1      -0.917   2.854   2.191  1.00  0.00    -0.007 A 
ATOM     21  C   UNL     1      -2.947   1.530   2.369  1.00  0.00     0.014 A 
ATOM     22  C   UNL     1      -1.648   3.988   2.585  1.00  0.00     0.007 A 
ATOM     23  C   UNL     1      -3.648   2.652   2.810  1.00  0.00     0.001 A 
ATOM     24  C   UNL     1      -3.005   3.885   2.894  1.00  0.00     0.000 A 
ENDBRANCH   9  12
ENDBRANCH   7   8
BRANCH   7  25
ATOM     25  C   UNL     1       2.140   1.455   5.635  1.00  0.00     0.068 C 
BRANCH  25  26
ATOM     26  C   UNL     1       3.055   2.101   6.679  1.00  0.00    -0.037 C 
ATOM     27  C   UNL     1       4.046   2.953   6.353  1.00  0.00     0.001 A 
ATOM     28  C   UNL     1       2.407   2.550   7.951  1.00  0.00     0.174 C 
ATOM     29  C   UNL     1       5.432   2.931   6.838  1.00  0.00     0.010 A 
ATOM     30  C   UNL     1       3.444   4.173   6.977  1.00  0.00     0.065 A 
ATOM     31  N   UNL     1       2.568   4.018   7.916  1.00  0.00    -0.280 NA
ATOM     32  C   UNL     1       6.082   4.114   6.932  1.00  0.00     0.001 A 
ATOM     33  C   UNL     1       4.075   5.426   6.527  1.00  0.00     0.028 A 
ATOM     34  C   UNL     1       5.417   5.346   6.510  1.00  0.00     0.002 A 
ENDBRANCH  25  26
ENDBRANCH   7  25
ENDBRANCH   4   7
ENDBRANCH   2   3
ENDBRANCH   1   2
BRANCH   1  35
ATOM     35  C   UNL     1      -1.020   6.068   8.612  1.00  0.00     0.118 C 
BRANCH  35  36
ATOM     36  N   UNL     1      -0.121   5.723   9.721  1.00  0.00    -0.352 N 
ATOM     37  C   UNL     1       0.604   6.422  10.669  1.00  0.00     0.251 C 
ATOM     38  H   UNL     1      -0.006   4.750   9.813  1.00  0.00     0.163 HD
ATOM     39  O   UNL     1       1.233   5.798  11.504  1.00  0.00    -0.269 OA
BRANCH  37  40
ATOM     40  C   UNL     1       0.703   7.904  10.663  1.00  0.00     0.039 A 
ATOM     41  C   UNL     1      -0.329   8.714  10.220  1.00  0.00     0.014 A 
ATOM     42  C   UNL     1       1.890   8.509  11.106  1.00  0.00     0.014 A 
ATOM     43  C   UNL     1      -0.083  10.047   9.924  1.00  0.00     0.010 A 
ATOM     44  C   UNL     1       2.080   9.890  10.960  1.00  0.00     0.010 A 
ATOM     45  C   UNL     1       1.128  10.660  10.279  1.00  0.00    -0.014 A 
BRANCH  45  46
ATOM     46  C   UNL     1       1.371  12.079   9.889  1.00  0.00     0.031 A 
ATOM     47  C   UNL     1       2.555  12.449   9.028  1.00  0.00     0.074 A 
ATOM     48  C   UNL     1       0.466  13.026  10.216  1.00  0.00     0.049 A 
ATOM     49  N   UNL     1       2.914  13.631   8.589  1.00  0.00    -0.248 NA
ATOM     50  C   UNL     1       3.457  11.364   8.607  1.00  0.00     0.031 C 
ATOM     51  C   UNL     1      -0.744  12.798  11.010  1.00  0.00     0.029 A 
ATOM     52  N   UNL     1       0.391  14.355   9.881  1.00  0.00    -0.354 N 
ATOM     53  C   UNL     1       4.095  13.435   7.882  1.00  0.00     0.074 A 
ATOM     54  C   UNL     1       4.408  12.027   7.963  1.00  0.00     0.031 C 
ATOM     55  C   UNL     1      -1.487  13.912  11.011  1.00  0.00     0.029 A 
ATOM     56  C   UNL     1      -0.757  14.969  10.322  1.00  0.00     0.049 A 
ATOM     57  H   UNL     1       1.093  14.824   9.373  1.00  0.00     0.167 HD
ATOM     58  C   UNL     1       4.847  14.344   7.218  1.00  0.00     0.031 A 
ATOM     59  C   UNL     1      -1.176  16.245  10.216  1.00  0.00     0.031 A 
ATOM     60  C   UNL     1       4.513  15.739   7.101  1.00  0.00     0.049 A 
ATOM     61  C   UNL     1      -0.298  17.244   9.523  1.00  0.00     0.074 A 
ATOM     62  C   UNL     1       5.210  16.733   6.436  1.00  0.00     0.029 A 
ATOM     63  N   UNL     1       3.387  16.333   7.647  1.00  0.00    -0.354 N 
ATOM     64  N   UNL     1       0.835  17.045   8.895  1.00  0.00    -0.248 NA
ATOM     65  C   UNL     1      -0.740  18.646   9.542  1.00  0.00     0.031 C 
ATOM     66  C   UNL     1       4.535  17.940   6.627  1.00  0.00     0.029 A 
ATOM     67  C   UNL     1       3.384  17.686   7.356  1.00  0.00     0.049 A 
ATOM     68  H   UNL     1       2.694  15.864   8.165  1.00  0.00     0.167 HD
ATOM     69  C   UNL     1       1.241  18.292   8.443  1.00  0.00     0.074 A 
ATOM     70  C   UNL     1       0.222  19.239   8.846  1.00  0.00     0.031 C 
ATOM     71  C   UNL     1       2.365  18.619   7.763  1.00  0.00     0.031 A 
BRANCH  58  72
ATOM     72  C   UNL     1       6.124  13.880   6.571  1.00  0.00    -0.014 A 
ATOM     73  C   UNL     1       7.357  14.308   7.090  1.00  0.00     0.009 A 
ATOM     74  C   UNL     1       6.113  13.115   5.395  1.00  0.00     0.009 A 
ATOM     75  C   UNL     1       8.551  13.995   6.438  1.00  0.00     0.001 A 
ATOM     76  C   UNL     1       7.311  12.779   4.760  1.00  0.00     0.001 A 
ATOM     77  C   UNL     1       8.527  13.228   5.275  1.00  0.00     0.000 A 
ENDBRANCH  58  72
BRANCH  59  78
ATOM     78  C   UNL     1      -2.478  16.639  10.818  1.00  0.00    -0.014 A 
ATOM     79  C   UNL     1      -2.660  16.596  12.211  1.00  0.00     0.009 A 
ATOM     80  C   UNL     1      -3.565  16.994  10.006  1.00  0.00     0.009 A 
ATOM     81  C   UNL     1      -3.910  16.857  12.775  1.00  0.00     0.001 A 
ATOM     82  C   UNL     1      -4.806  17.289  10.576  1.00  0.00     0.001 A 
ATOM     83  C   UNL     1      -4.982  17.206  11.957  1.00  0.00     0.000 A 
ENDBRANCH  59  78
BRANCH  71  84
ATOM     84  C   UNL     1       2.568  20.059   7.392  1.00  0.00    -0.014 A 
ATOM     85  C   UNL     1       2.479  20.451   6.047  1.00  0.00     0.009 A 
ATOM     86  C   UNL     1       2.963  21.000   8.354  1.00  0.00     0.009 A 
ATOM     87  C   UNL     1       2.803  21.754   5.668  1.00  0.00     0.001 A 
ATOM     88  C   UNL     1       3.261  22.310   7.975  1.00  0.00     0.001 A 
ATOM     89  C   UNL     1       3.192  22.683   6.632  1.00  0.00     0.000 A 
ENDBRANCH  71  84
ENDBRANCH  45  46
ENDBRANCH  37  40
ENDBRANCH  35  36
ENDBRANCH   1  35
TORSDOF 14
