REMARK SMILES Cc1cccc(NC(=O)COc2ccc(N3C[C@@H](C(=O)NCCCNC(=O)c4ccc(-c5c6nc(c(-c7ccccc7)c7ccc([nH]7)c(-c7ccccc7)c7nc(c(-c8ccccc8)c8ccc5[nH]8)C=C7)C=C6)cc4)CC3=O)cc2)c1
REMARK SMILES IDX 19 1 20 2 21 3 18 5 16 6 17 7 77 8 76 9 78 10 15 11 12 12
REMARK SMILES IDX 13 13 80 14 14 15 79 16 11 17 10 18 8 19 7 20 9 22 6 23 1 24
REMARK SMILES IDX 2 25 3 26 81 27 4 28 5 29 22 30 23 31 24 32 25 33 26 34
REMARK SMILES IDX 27 36 28 37 29 38 75 39 30 40 74 41 31 42 32 43 33 44 68 45
REMARK SMILES IDX 34 46 73 47 67 48 69 49 35 50 72 51 66 52 65 53 36 55 58 56
REMARK SMILES IDX 43 57 57 58 44 59 47 60 56 61 70 62 45 63 46 64 55 66 71 67
REMARK SMILES IDX 48 68 37 69 38 70 42 71 39 72 41 73 40 74 59 75 60 76 64 77
REMARK SMILES IDX 61 78 63 79 62 80 49 81 50 82 54 83 51 84 53 85 52 86
REMARK H PARENT 21 4 7 21 25 35 69 54 47 65
REMARK Flexibility Score: inf
ROOT
ATOM      1  C   UNL     1      -7.034   3.295  -8.941  1.00  0.00     0.225 C 
ATOM      2  O   UNL     1      -7.690   2.965  -9.933  1.00  0.00    -0.275 OA
ATOM      3  N   UNL     1      -7.454   4.396  -8.267  1.00  0.00    -0.356 N 
ATOM      4  H   UNL     1      -8.233   4.839  -8.675  1.00  0.00     0.163 HD
ENDROOT
BRANCH   1   5
ATOM      5  C   UNL     1      -5.826   2.468  -8.542  1.00  0.00     0.107 C 
ATOM      6  N   UNL     1      -4.781   2.246  -6.437  1.00  0.00    -0.312 N 
ATOM      7  C   UNL     1      -5.943   1.818  -7.180  1.00  0.00     0.139 C 
ATOM      8  C   UNL     1      -3.959   3.110  -7.165  1.00  0.00     0.227 C 
ATOM      9  C   UNL     1      -4.509   3.218  -8.564  1.00  0.00     0.116 C 
ATOM     10  O   UNL     1      -2.941   3.668  -6.815  1.00  0.00    -0.274 OA
BRANCH   6  11
ATOM     11  C   UNL     1      -4.580   1.863  -5.090  1.00  0.00     0.044 A 
ATOM     12  C   UNL     1      -4.252   1.112  -2.393  1.00  0.00     0.120 A 
ATOM     13  C   UNL     1      -4.883   0.256  -3.291  1.00  0.00     0.048 A 
ATOM     14  C   UNL     1      -3.754   2.328  -2.847  1.00  0.00     0.048 A 
ATOM     15  C   UNL     1      -5.073   0.639  -4.621  1.00  0.00     0.030 A 
ATOM     16  C   UNL     1      -3.900   2.691  -4.192  1.00  0.00     0.030 A 
BRANCH  12  17
ATOM     17  O   UNL     1      -4.108   0.620  -1.131  1.00  0.00    -0.484 OA
BRANCH  17  18
ATOM     18  C   UNL     1      -4.261   1.532  -0.059  1.00  0.00     0.329 C 
BRANCH  18  19
ATOM     19  C   UNL     1      -3.144   2.520   0.270  1.00  0.00     0.262 C 
ATOM     20  N   UNL     1      -1.827   2.181   0.322  1.00  0.00    -0.323 N 
ATOM     21  H   UNL     1      -1.240   2.960   0.456  1.00  0.00     0.170 HD
ATOM     22  O   UNL     1      -3.426   3.707   0.486  1.00  0.00    -0.271 OA
BRANCH  20  23
ATOM     23  C   UNL     1      -1.113   0.975   0.230  1.00  0.00     0.041 A 
ATOM     24  C   UNL     1       2.600   0.108  -0.072  1.00  0.00     0.044 C 
ATOM     25  C   UNL     1       1.110  -0.033   0.026  1.00  0.00    -0.049 A 
ATOM     26  C   UNL     1       0.529  -1.302   0.036  1.00  0.00     0.003 A 
ATOM     27  C   UNL     1       0.282   1.095   0.120  1.00  0.00     0.029 A 
ATOM     28  C   UNL     1      -0.851  -1.434   0.162  1.00  0.00     0.002 A 
ATOM     29  C   UNL     1      -1.665  -0.302   0.275  1.00  0.00     0.026 A 
ENDBRANCH  20  23
ENDBRANCH  18  19
ENDBRANCH  17  18
ENDBRANCH  12  17
ENDBRANCH   6  11
ENDBRANCH   1   5
BRANCH   3  30
ATOM     30  C   UNL     1      -6.974   5.048  -7.056  1.00  0.00     0.117 C 
BRANCH  30  31
ATOM     31  C   UNL     1      -6.095   6.254  -7.345  1.00  0.00     0.042 C 
BRANCH  31  32
ATOM     32  C   UNL     1      -6.861   7.476  -7.816  1.00  0.00     0.118 C 
BRANCH  32  33
ATOM     33  N   UNL     1      -7.331   8.341  -6.742  1.00  0.00    -0.352 N 
ATOM     34  C   UNL     1      -7.867   9.616  -6.792  1.00  0.00     0.251 C 
ATOM     35  H   UNL     1      -7.255   7.958  -5.839  1.00  0.00     0.163 HD
ATOM     36  O   UNL     1      -8.110  10.204  -5.741  1.00  0.00    -0.269 OA
BRANCH  34  37
ATOM     37  C   UNL     1      -8.338  10.191  -8.080  1.00  0.00     0.039 A 
ATOM     38  C   UNL     1      -9.578  10.846  -8.046  1.00  0.00     0.014 A 
ATOM     39  C   UNL     1      -7.817   9.760  -9.291  1.00  0.00     0.014 A 
ATOM     40  C   UNL     1     -10.433  10.724  -9.128  1.00  0.00     0.010 A 
ATOM     41  C   UNL     1      -8.701   9.489 -10.300  1.00  0.00     0.010 A 
ATOM     42  C   UNL     1     -10.025   9.906 -10.171  1.00  0.00    -0.014 A 
BRANCH  42  43
ATOM     43  C   UNL     1     -10.898   9.404 -11.203  1.00  0.00     0.031 A 
ATOM     44  C   UNL     1     -10.923  10.128 -12.472  1.00  0.00     0.074 A 
ATOM     45  C   UNL     1     -11.469   8.197 -11.011  1.00  0.00     0.049 A 
ATOM     46  N   UNL     1     -11.886  10.065 -13.316  1.00  0.00    -0.248 NA
ATOM     47  C   UNL     1      -9.852  11.038 -12.875  1.00  0.00     0.031 C 
ATOM     48  C   UNL     1     -12.100   7.308 -11.977  1.00  0.00     0.029 A 
ATOM     49  N   UNL     1     -11.752   7.612  -9.776  1.00  0.00    -0.354 N 
ATOM     50  C   UNL     1     -11.406  10.598 -14.488  1.00  0.00     0.074 A 
ATOM     51  C   UNL     1     -10.204  11.310 -14.133  1.00  0.00     0.031 C 
ATOM     52  C   UNL     1     -12.917   6.465 -11.317  1.00  0.00     0.029 A 
ATOM     53  C   UNL     1     -12.964   6.912  -9.933  1.00  0.00     0.049 A 
ATOM     54  H   UNL     1     -11.211   7.676  -8.956  1.00  0.00     0.167 HD
ATOM     55  C   UNL     1     -11.975  10.202 -15.658  1.00  0.00     0.031 A 
ATOM     56  C   UNL     1     -14.083   7.381  -9.300  1.00  0.00     0.031 A 
ATOM     57  C   UNL     1     -13.092   9.289 -15.407  1.00  0.00     0.049 A 
ATOM     58  C   UNL     1     -15.147   7.889 -10.261  1.00  0.00     0.074 A 
ATOM     59  C   UNL     1     -13.223   7.910 -15.460  1.00  0.00     0.029 A 
ATOM     60  N   UNL     1     -14.159   9.743 -14.646  1.00  0.00    -0.354 N 
ATOM     61  N   UNL     1     -14.956   8.118 -11.532  1.00  0.00    -0.248 NA
ATOM     62  C   UNL     1     -16.496   8.243  -9.836  1.00  0.00     0.031 C 
ATOM     63  C   UNL     1     -14.374   7.545 -14.702  1.00  0.00     0.029 A 
ATOM     64  C   UNL     1     -14.958   8.700 -14.216  1.00  0.00     0.049 A 
ATOM     65  H   UNL     1     -14.327  10.691 -14.439  1.00  0.00     0.167 HD
ATOM     66  C   UNL     1     -16.090   8.649 -12.095  1.00  0.00     0.074 A 
ATOM     67  C   UNL     1     -17.020   8.725 -10.978  1.00  0.00     0.031 C 
ATOM     68  C   UNL     1     -16.146   9.003 -13.419  1.00  0.00     0.031 A 
BRANCH  55  69
ATOM     69  C   UNL     1     -11.322  10.399 -17.000  1.00  0.00    -0.014 A 
ATOM     70  C   UNL     1     -11.592   9.485 -18.033  1.00  0.00     0.009 A 
ATOM     71  C   UNL     1     -10.414  11.428 -17.307  1.00  0.00     0.009 A 
ATOM     72  C   UNL     1     -10.945   9.550 -19.272  1.00  0.00     0.001 A 
ATOM     73  C   UNL     1      -9.736  11.481 -18.534  1.00  0.00     0.001 A 
ATOM     74  C   UNL     1     -10.000  10.537 -19.516  1.00  0.00     0.000 A 
ENDBRANCH  55  69
BRANCH  56  75
ATOM     75  C   UNL     1     -13.763   8.001  -7.970  1.00  0.00    -0.014 A 
ATOM     76  C   UNL     1     -13.125   7.195  -6.998  1.00  0.00     0.009 A 
ATOM     77  C   UNL     1     -13.684   9.394  -7.830  1.00  0.00     0.009 A 
ATOM     78  C   UNL     1     -12.285   7.762  -6.033  1.00  0.00     0.001 A 
ATOM     79  C   UNL     1     -12.871   9.957  -6.834  1.00  0.00     0.001 A 
ATOM     80  C   UNL     1     -12.130   9.143  -5.977  1.00  0.00     0.000 A 
ENDBRANCH  56  75
BRANCH  68  81
ATOM     81  C   UNL     1     -17.292   9.710 -14.127  1.00  0.00    -0.014 A 
ATOM     82  C   UNL     1     -18.604   9.790 -13.654  1.00  0.00     0.009 A 
ATOM     83  C   UNL     1     -17.061  10.321 -15.386  1.00  0.00     0.009 A 
ATOM     84  C   UNL     1     -19.588  10.526 -14.334  1.00  0.00     0.001 A 
ATOM     85  C   UNL     1     -18.033  11.050 -16.072  1.00  0.00     0.001 A 
ATOM     86  C   UNL     1     -19.299  11.170 -15.532  1.00  0.00     0.000 A 
ENDBRANCH  68  81
ENDBRANCH  42  43
ENDBRANCH  34  37
ENDBRANCH  32  33
ENDBRANCH  31  32
ENDBRANCH  30  31
ENDBRANCH   3  30
TORSDOF 15
