REMARK SMILES C[C@H](NC(=O)N[C@](C)(C(=O)NCCCNC(=O)c1ccc(-c2c3nc(c(-c4ccccc4)c4ccc([nH]4)c(-c4ccccc4)c4nc(c(-c5ccccc5)c5ccc2[nH]5)C=C4)C=C3)cc1)C(F)(F)F)C(N)=O
REMARK SMILES IDX 12 1 11 2 9 3 10 4 7 6 8 7 6 8 3 9 4 10 5 12 2 14 1 15 70 16
REMARK SMILES IDX 71 17 72 18 66 21 67 22 68 23 69 24 13 25 14 26 15 27 16 28
REMARK SMILES IDX 17 30 18 31 19 32 65 33 20 34 64 35 21 36 22 37 23 38 58 39
REMARK SMILES IDX 24 40 63 41 57 42 59 43 25 44 62 45 56 46 55 47 26 49 48 50
REMARK SMILES IDX 33 51 47 52 34 53 37 54 46 55 60 56 35 57 36 58 45 60 61 61
REMARK SMILES IDX 38 62 27 63 28 64 32 65 29 66 31 67 30 68 49 69 50 70 54 71
REMARK SMILES IDX 51 72 53 73 52 74 39 75 40 76 44 77 41 78 43 79 42 80
REMARK H PARENT 11 5 3 11 6 13 71 19 71 20 15 29 59 48 37 59
REMARK Flexibility Score: inf
ROOT
ATOM      1  C   UNL     1      -2.183   0.320   3.501  1.00  0.00     0.117 C 
ENDROOT
BRANCH   1   2
ATOM      2  N   UNL     1      -3.389   0.281   2.680  1.00  0.00    -0.354 N 
ATOM      3  C   UNL     1      -4.082  -0.741   2.089  1.00  0.00     0.255 C 
ATOM      4  O   UNL     1      -5.047  -0.387   1.405  1.00  0.00    -0.272 OA
ATOM      5  H   UNL     1      -3.782   1.169   2.518  1.00  0.00     0.163 HD
BRANCH   3   6
ATOM      6  C   UNL     1      -3.588  -2.212   2.118  1.00  0.00     0.213 C 
ATOM      7  C   UNL     1      -2.448  -2.287   1.115  1.00  0.00     0.056 C 
BRANCH   6   8
ATOM      8  N   UNL     1      -3.296  -2.541   3.551  1.00  0.00    -0.316 N 
ATOM      9  N   UNL     1      -1.316  -3.712   4.189  1.00  0.00    -0.327 N 
ATOM     10  C   UNL     1      -2.463  -3.101   4.405  1.00  0.00     0.316 C 
ATOM     11  H   UNL     1      -0.865  -3.891   5.045  1.00  0.00     0.166 HD
ATOM     12  O   UNL     1      -2.797  -3.000   5.592  1.00  0.00    -0.249 OA
ATOM     13  H   UNL     1      -4.046  -2.187   4.081  1.00  0.00     0.166 HD
BRANCH   9  14
ATOM     14  C   UNL     1      -0.500  -4.209   3.085  1.00  0.00     0.169 C 
ATOM     15  C   UNL     1      -1.224  -5.272   2.273  1.00  0.00     0.041 C 
BRANCH  14  16
ATOM     16  C   UNL     1       0.286  -3.094   2.363  1.00  0.00     0.239 C 
ATOM     17  N   UNL     1       0.885  -3.404   1.178  1.00  0.00    -0.368 N 
ATOM     18  O   UNL     1       0.480  -1.981   2.849  1.00  0.00    -0.273 OA
ATOM     19  H   UNL     1       0.743  -4.289   0.771  1.00  0.00     0.159 HD
ATOM     20  H   UNL     1       1.460  -2.743   0.729  1.00  0.00     0.159 HD
ENDBRANCH  14  16
ENDBRANCH   9  14
ENDBRANCH   6   8
BRANCH   6  21
ATOM     21  C   UNL     1      -4.761  -3.079   1.602  1.00  0.00     0.420 C 
ATOM     22  F   UNL     1      -5.106  -2.811   0.324  1.00  0.00    -0.168 F 
ATOM     23  F   UNL     1      -4.424  -4.396   1.629  1.00  0.00    -0.168 F 
ATOM     24  F   UNL     1      -5.863  -2.953   2.379  1.00  0.00    -0.168 F 
ENDBRANCH   6  21
ENDBRANCH   3   6
ENDBRANCH   1   2
BRANCH   1  25
ATOM     25  C   UNL     1      -0.957   0.838   2.760  1.00  0.00     0.042 C 
BRANCH  25  26
ATOM     26  C   UNL     1      -1.050   2.279   2.284  1.00  0.00     0.118 C 
BRANCH  26  27
ATOM     27  N   UNL     1      -1.118   3.236   3.376  1.00  0.00    -0.352 N 
ATOM     28  C   UNL     1      -0.227   4.183   3.812  1.00  0.00     0.251 C 
ATOM     29  H   UNL     1      -1.953   3.198   3.896  1.00  0.00     0.163 HD
ATOM     30  O   UNL     1      -0.454   4.760   4.877  1.00  0.00    -0.269 OA
BRANCH  28  31
ATOM     31  C   UNL     1       1.000   4.528   3.054  1.00  0.00     0.039 A 
ATOM     32  C   UNL     1       2.144   4.889   3.776  1.00  0.00     0.014 A 
ATOM     33  C   UNL     1       1.029   4.587   1.659  1.00  0.00     0.014 A 
ATOM     34  C   UNL     1       3.313   5.264   3.108  1.00  0.00     0.010 A 
ATOM     35  C   UNL     1       2.220   4.875   0.990  1.00  0.00     0.010 A 
ATOM     36  C   UNL     1       3.370   5.238   1.706  1.00  0.00    -0.014 A 
BRANCH  36  37
ATOM     37  C   UNL     1       4.606   5.627   0.979  1.00  0.00     0.031 A 
ATOM     38  C   UNL     1       4.612   6.835   0.079  1.00  0.00     0.074 A 
ATOM     39  C   UNL     1       5.718   4.874   1.090  1.00  0.00     0.049 A 
ATOM     40  N   UNL     1       5.578   7.303  -0.671  1.00  0.00    -0.248 NA
ATOM     41  C   UNL     1       3.360   7.604  -0.009  1.00  0.00     0.031 C 
ATOM     42  C   UNL     1       5.845   3.659   1.897  1.00  0.00     0.029 A 
ATOM     43  N   UNL     1       6.958   5.025   0.519  1.00  0.00    -0.354 N 
ATOM     44  C   UNL     1       5.043   8.399  -1.337  1.00  0.00     0.074 A 
ATOM     45  C   UNL     1       3.657   8.503  -0.935  1.00  0.00     0.031 C 
ATOM     46  C   UNL     1       7.101   3.193   1.794  1.00  0.00     0.029 A 
ATOM     47  C   UNL     1       7.857   4.056   0.892  1.00  0.00     0.049 A 
ATOM     48  H   UNL     1       7.181   5.758  -0.098  1.00  0.00     0.167 HD
ATOM     49  C   UNL     1       5.651   9.256  -2.192  1.00  0.00     0.031 A 
ATOM     50  C   UNL     1       9.147   3.881   0.549  1.00  0.00     0.031 A 
ATOM     51  C   UNL     1       7.036   9.183  -2.572  1.00  0.00     0.049 A 
ATOM     52  C   UNL     1       9.805   4.858  -0.383  1.00  0.00     0.074 A 
ATOM     53  C   UNL     1       7.755  10.042  -3.385  1.00  0.00     0.029 A 
ATOM     54  N   UNL     1       7.914   8.195  -2.156  1.00  0.00    -0.354 N 
ATOM     55  N   UNL     1       9.296   5.916  -0.964  1.00  0.00    -0.248 NA
ATOM     56  C   UNL     1      11.221   4.618  -0.697  1.00  0.00     0.031 C 
ATOM     57  C   UNL     1       9.063   9.555  -3.487  1.00  0.00     0.029 A 
ATOM     58  C   UNL     1       9.165   8.416  -2.706  1.00  0.00     0.049 A 
ATOM     59  H   UNL     1       7.683   7.448  -1.558  1.00  0.00     0.167 HD
ATOM     60  C   UNL     1      10.334   6.482  -1.693  1.00  0.00     0.074 A 
ATOM     61  C   UNL     1      11.504   5.658  -1.470  1.00  0.00     0.031 C 
ATOM     62  C   UNL     1      10.318   7.587  -2.477  1.00  0.00     0.031 A 
BRANCH  49  63
ATOM     63  C   UNL     1       4.810  10.355  -2.778  1.00  0.00    -0.014 A 
ATOM     64  C   UNL     1       4.394  11.445  -1.998  1.00  0.00     0.009 A 
ATOM     65  C   UNL     1       4.450  10.312  -4.134  1.00  0.00     0.009 A 
ATOM     66  C   UNL     1       3.602  12.452  -2.555  1.00  0.00     0.001 A 
ATOM     67  C   UNL     1       3.680  11.333  -4.694  1.00  0.00     0.001 A 
ATOM     68  C   UNL     1       3.249  12.396  -3.902  1.00  0.00     0.000 A 
ENDBRANCH  49  63
BRANCH  50  69
ATOM     69  C   UNL     1       9.917   2.745   1.115  1.00  0.00    -0.014 A 
ATOM     70  C   UNL     1      10.883   2.970   2.108  1.00  0.00     0.009 A 
ATOM     71  C   UNL     1       9.694   1.435   0.664  1.00  0.00     0.009 A 
ATOM     72  C   UNL     1      11.628   1.907   2.622  1.00  0.00     0.001 A 
ATOM     73  C   UNL     1      10.425   0.371   1.197  1.00  0.00     0.001 A 
ATOM     74  C   UNL     1      11.396   0.609   2.169  1.00  0.00     0.000 A 
ENDBRANCH  50  69
BRANCH  62  75
ATOM     75  C   UNL     1      11.612   7.982  -3.127  1.00  0.00    -0.014 A 
ATOM     76  C   UNL     1      12.114   7.275  -4.230  1.00  0.00     0.009 A 
ATOM     77  C   UNL     1      12.321   9.094  -2.647  1.00  0.00     0.009 A 
ATOM     78  C   UNL     1      13.320   7.657  -4.821  1.00  0.00     0.001 A 
ATOM     79  C   UNL     1      13.514   9.487  -3.255  1.00  0.00     0.001 A 
ATOM     80  C   UNL     1      14.017   8.763  -4.335  1.00  0.00     0.000 A 
ENDBRANCH  62  75
ENDBRANCH  36  37
ENDBRANCH  28  31
ENDBRANCH  26  27
ENDBRANCH  25  26
ENDBRANCH   1  25
TORSDOF 14
