REMARK SMILES CC1(C)[C@H](C(=O)N(Cc2ccccc2)Cc2ccccc2)CC[C@@]1(C)C(=O)NCCCNC(=O)c1ccc(-c2c3nc(c(-c4ccccc4)c4ccc([nH]4)c(-c4ccccc4)c4nc(c(-c5ccccc5)c5ccc2[nH]5)C=C4)C=C3)cc1
REMARK SMILES IDX 29 1 28 2 26 3 27 4 24 6 1 7 2 8 3 9 4 10 22 11 23 12 25 13
REMARK SMILES IDX 5 14 6 15 7 16 8 17 9 18 10 19 14 20 11 21 13 22 12 23 15 24
REMARK SMILES IDX 16 25 17 26 21 27 18 28 20 29 19 30 30 31 31 32 32 33 33 34
REMARK SMILES IDX 34 36 35 37 36 38 82 39 37 40 81 41 38 42 39 43 40 44 75 45
REMARK SMILES IDX 41 46 80 47 74 48 76 49 42 50 79 51 73 52 72 53 43 55 65 56
REMARK SMILES IDX 50 57 64 58 51 59 54 60 63 61 77 62 52 63 53 64 62 66 78 67
REMARK SMILES IDX 55 68 44 69 45 70 49 71 46 72 48 73 47 74 66 75 67 76 71 77
REMARK SMILES IDX 68 78 70 79 69 80 56 81 57 82 61 83 58 84 60 85 59 86
REMARK H PARENT 28 5 32 35 76 54 54 65
REMARK Flexibility Score: inf
ROOT
ATOM      1  C   UNL     1       1.764   1.741  -0.389  1.00  0.00     0.117 C 
ENDROOT
BRANCH   1   2
ATOM      2  N   UNL     1       2.713   1.739   0.694  1.00  0.00    -0.356 N 
ATOM      3  C   UNL     1       2.683   0.978   1.832  1.00  0.00     0.226 C 
ATOM      4  O   UNL     1       3.738   0.909   2.468  1.00  0.00    -0.274 OA
ATOM      5  H   UNL     1       3.473   2.358   0.606  1.00  0.00     0.163 HD
BRANCH   3   6
ATOM      6  C   UNL     1       1.360   0.366   2.372  1.00  0.00     0.052 C 
ATOM      7  C   UNL     1       1.290  -1.206   0.175  1.00  0.00     0.013 C 
ATOM      8  C   UNL     1       0.587  -0.720   1.463  1.00  0.00    -0.010 C 
ATOM      9  C   UNL     1      -0.805  -0.221   1.086  1.00  0.00     0.013 C 
ATOM     10  C   UNL     1       0.490  -1.982   2.383  1.00  0.00     0.085 C 
ATOM     11  C   UNL     1       0.543  -1.474   3.804  1.00  0.00     0.015 C 
ATOM     12  C   UNL     1       1.655  -0.429   3.690  1.00  0.00     0.018 C 
ATOM     13  C   UNL     1       0.513   1.592   2.824  1.00  0.00     0.022 C 
BRANCH  10  14
ATOM     14  C   UNL     1      -0.440  -3.149   1.980  1.00  0.00     0.226 C 
ATOM     15  O   UNL     1       0.139  -4.212   1.699  1.00  0.00    -0.275 OA
ATOM     16  N   UNL     1      -1.822  -3.059   1.821  1.00  0.00    -0.334 N 
BRANCH  16  17
ATOM     17  C   UNL     1      -2.746  -2.322   2.716  1.00  0.00     0.155 C 
BRANCH  17  18
ATOM     18  C   UNL     1      -3.814  -1.440   2.068  1.00  0.00    -0.029 A 
ATOM     19  C   UNL     1      -3.823  -0.051   2.295  1.00  0.00     0.005 A 
ATOM     20  C   UNL     1      -4.835  -1.950   1.253  1.00  0.00     0.005 A 
ATOM     21  C   UNL     1      -4.691   0.801   1.603  1.00  0.00     0.000 A 
ATOM     22  C   UNL     1      -5.713  -1.104   0.566  1.00  0.00     0.000 A 
ATOM     23  C   UNL     1      -5.621   0.274   0.716  1.00  0.00     0.000 A 
ENDBRANCH  17  18
ENDBRANCH  16  17
BRANCH  16  24
ATOM     24  C   UNL     1      -2.398  -4.154   1.021  1.00  0.00     0.155 C 
BRANCH  24  25
ATOM     25  C   UNL     1      -2.234  -3.994  -0.483  1.00  0.00    -0.029 A 
ATOM     26  C   UNL     1      -1.820  -5.091  -1.255  1.00  0.00     0.005 A 
ATOM     27  C   UNL     1      -2.537  -2.801  -1.156  1.00  0.00     0.005 A 
ATOM     28  C   UNL     1      -1.697  -4.990  -2.644  1.00  0.00     0.000 A 
ATOM     29  C   UNL     1      -2.402  -2.693  -2.543  1.00  0.00     0.000 A 
ATOM     30  C   UNL     1      -1.984  -3.790  -3.288  1.00  0.00     0.000 A 
ENDBRANCH  24  25
ENDBRANCH  16  24
ENDBRANCH  10  14
ENDBRANCH   3   6
ENDBRANCH   1   2
BRANCH   1  31
ATOM     31  C   UNL     1       1.621   3.024  -1.166  1.00  0.00     0.042 C 
BRANCH  31  32
ATOM     32  C   UNL     1       2.804   3.299  -2.073  1.00  0.00     0.118 C 
BRANCH  32  33
ATOM     33  N   UNL     1       3.076   2.229  -3.038  1.00  0.00    -0.352 N 
ATOM     34  C   UNL     1       2.890   2.143  -4.398  1.00  0.00     0.251 C 
ATOM     35  H   UNL     1       3.464   1.419  -2.637  1.00  0.00     0.163 HD
ATOM     36  O   UNL     1       3.072   1.073  -4.974  1.00  0.00    -0.269 OA
BRANCH  34  37
ATOM     37  C   UNL     1       2.437   3.318  -5.167  1.00  0.00     0.039 A 
ATOM     38  C   UNL     1       1.528   3.155  -6.217  1.00  0.00     0.014 A 
ATOM     39  C   UNL     1       2.883   4.590  -4.830  1.00  0.00     0.014 A 
ATOM     40  C   UNL     1       0.984   4.282  -6.838  1.00  0.00     0.010 A 
ATOM     41  C   UNL     1       2.222   5.700  -5.324  1.00  0.00     0.010 A 
ATOM     42  C   UNL     1       1.275   5.564  -6.348  1.00  0.00    -0.014 A 
BRANCH  42  43
ATOM     43  C   UNL     1       0.644   6.794  -6.887  1.00  0.00     0.031 A 
ATOM     44  C   UNL     1       1.516   7.915  -7.390  1.00  0.00     0.074 A 
ATOM     45  C   UNL     1      -0.692   6.954  -6.817  1.00  0.00     0.049 A 
ATOM     46  N   UNL     1       1.184   9.133  -7.732  1.00  0.00    -0.248 NA
ATOM     47  C   UNL     1       2.964   7.647  -7.462  1.00  0.00     0.031 C 
ATOM     48  C   UNL     1      -1.647   5.969  -6.304  1.00  0.00     0.029 A 
ATOM     49  N   UNL     1      -1.478   8.019  -7.177  1.00  0.00    -0.354 N 
ATOM     50  C   UNL     1       2.381   9.782  -8.007  1.00  0.00     0.074 A 
ATOM     51  C   UNL     1       3.448   8.850  -7.723  1.00  0.00     0.031 C 
ATOM     52  C   UNL     1      -2.893   6.454  -6.432  1.00  0.00     0.029 A 
ATOM     53  C   UNL     1      -2.821   7.803  -6.983  1.00  0.00     0.049 A 
ATOM     54  H   UNL     1      -1.115   8.859  -7.540  1.00  0.00     0.167 HD
ATOM     55  C   UNL     1       2.581  11.032  -8.487  1.00  0.00     0.031 A 
ATOM     56  C   UNL     1      -3.875   8.604  -7.223  1.00  0.00     0.031 A 
ATOM     57  C   UNL     1       1.518  11.939  -8.820  1.00  0.00     0.049 A 
ATOM     58  C   UNL     1      -3.635   9.980  -7.775  1.00  0.00     0.074 A 
ATOM     59  C   UNL     1       1.602  13.199  -9.382  1.00  0.00     0.029 A 
ATOM     60  N   UNL     1       0.171  11.668  -8.634  1.00  0.00    -0.354 N 
ATOM     61  N   UNL     1      -2.500  10.563  -8.076  1.00  0.00    -0.248 NA
ATOM     62  C   UNL     1      -4.824  10.806  -8.025  1.00  0.00     0.031 C 
ATOM     63  C   UNL     1       0.304  13.707  -9.505  1.00  0.00     0.029 A 
ATOM     64  C   UNL     1      -0.588  12.742  -9.061  1.00  0.00     0.049 A 
ATOM     65  H   UNL     1      -0.191  10.835  -8.255  1.00  0.00     0.167 HD
ATOM     66  C   UNL     1      -2.838  11.812  -8.580  1.00  0.00     0.074 A 
ATOM     67  C   UNL     1      -4.285  11.896  -8.552  1.00  0.00     0.031 C 
ATOM     68  C   UNL     1      -2.026  12.800  -9.028  1.00  0.00     0.031 A 
BRANCH  55  69
ATOM     69  C   UNL     1       4.006  11.471  -8.684  1.00  0.00    -0.014 A 
ATOM     70  C   UNL     1       4.819  10.883  -9.668  1.00  0.00     0.009 A 
ATOM     71  C   UNL     1       4.549  12.474  -7.868  1.00  0.00     0.009 A 
ATOM     72  C   UNL     1       6.161  11.249  -9.790  1.00  0.00     0.001 A 
ATOM     73  C   UNL     1       5.882  12.863  -8.016  1.00  0.00     0.001 A 
ATOM     74  C   UNL     1       6.690  12.240  -8.966  1.00  0.00     0.000 A 
ENDBRANCH  55  69
BRANCH  56  75
ATOM     75  C   UNL     1      -5.255   8.107  -6.989  1.00  0.00    -0.014 A 
ATOM     76  C   UNL     1      -6.080   7.793  -8.081  1.00  0.00     0.009 A 
ATOM     77  C   UNL     1      -5.755   7.937  -5.690  1.00  0.00     0.009 A 
ATOM     78  C   UNL     1      -7.385   7.339  -7.877  1.00  0.00     0.001 A 
ATOM     79  C   UNL     1      -7.053   7.459  -5.489  1.00  0.00     0.001 A 
ATOM     80  C   UNL     1      -7.868   7.169  -6.581  1.00  0.00     0.000 A 
ENDBRANCH  56  75
BRANCH  68  81
ATOM     81  C   UNL     1      -2.685  14.037  -9.564  1.00  0.00    -0.014 A 
ATOM     82  C   UNL     1      -3.277  14.976  -8.707  1.00  0.00     0.009 A 
ATOM     83  C   UNL     1      -2.668  14.286 -10.945  1.00  0.00     0.009 A 
ATOM     84  C   UNL     1      -3.865  16.130  -9.227  1.00  0.00     0.001 A 
ATOM     85  C   UNL     1      -3.233  15.453 -11.460  1.00  0.00     0.001 A 
ATOM     86  C   UNL     1      -3.838  16.369 -10.601  1.00  0.00     0.000 A 
ENDBRANCH  68  81
ENDBRANCH  42  43
ENDBRANCH  34  37
ENDBRANCH  32  33
ENDBRANCH  31  32
ENDBRANCH   1  31
TORSDOF 15
