REMARK SMILES CCC[C@H](C)C(=O)N1CC[C@H](C(=O)NCCCNC(=O)c2ccc(-c3c4nc(c(-c5ccccc5)c5ccc([nH]5)c(-c5ccccc5)c5nc(c(-c6ccccc6)c6ccc3[nH]6)C=C5)C=C4)cc2)[C@@H]1C
REMARK SMILES IDX 15 1 14 2 12 3 13 4 11 6 8 7 9 8 69 9 10 10 70 11 6 12 7 13
REMARK SMILES IDX 4 14 5 15 3 16 2 17 1 18 16 19 17 20 18 21 19 22 20 24 21 25
REMARK SMILES IDX 22 26 68 27 23 28 67 29 24 30 25 31 26 32 61 33 27 34 66 35
REMARK SMILES IDX 60 36 62 37 28 38 65 39 59 40 58 41 29 43 51 44 36 45 50 46
REMARK SMILES IDX 37 47 40 48 49 49 63 50 38 51 39 52 48 54 64 55 41 56 30 57
REMARK SMILES IDX 31 58 35 59 32 60 34 61 33 62 52 63 53 64 57 65 54 66 56 67
REMARK SMILES IDX 55 68 42 69 43 70 47 71 44 72 46 73 45 74
REMARK H PARENT 14 5 18 23 62 42 40 53
REMARK Flexibility Score: inf
ROOT
ATOM      1  C   UNL     1       3.089   4.323   5.275  1.00  0.00     0.117 C 
ENDROOT
BRANCH   1   2
ATOM      2  N   UNL     1       2.234   4.503   6.437  1.00  0.00    -0.356 N 
ATOM      3  C   UNL     1       0.944   4.189   6.704  1.00  0.00     0.225 C 
ATOM      4  O   UNL     1       0.606   4.311   7.889  1.00  0.00    -0.275 OA
ATOM      5  H   UNL     1       2.689   4.946   7.189  1.00  0.00     0.163 HD
BRANCH   3   6
ATOM      6  C   UNL     1      -0.130   3.818   5.678  1.00  0.00     0.102 C 
ATOM      7  N   UNL     1       0.423   3.828   3.365  1.00  0.00    -0.339 N 
ATOM      8  C   UNL     1       0.126   5.203   3.758  1.00  0.00     0.120 C 
ATOM      9  C   UNL     1       0.155   2.894   4.478  1.00  0.00     0.094 C 
ATOM     10  C   UNL     1      -0.683   5.084   5.032  1.00  0.00     0.037 C 
ATOM     11  C   UNL     1       1.214   1.834   4.793  1.00  0.00     0.032 C 
BRANCH   7  12
ATOM     12  C   UNL     1       0.824   3.632   2.063  1.00  0.00     0.225 C 
ATOM     13  O   UNL     1       1.399   4.548   1.460  1.00  0.00    -0.275 OA
BRANCH  12  14
ATOM     14  C   UNL     1       0.409   2.393   1.268  1.00  0.00     0.075 C 
ATOM     15  C   UNL     1       0.911   1.055   1.778  1.00  0.00     0.018 C 
BRANCH  14  16
ATOM     16  C   UNL     1      -1.114   2.374   1.053  1.00  0.00     0.013 C 
BRANCH  16  17
ATOM     17  C   UNL     1      -1.633   3.503   0.151  1.00  0.00    -0.003 C 
ATOM     18  C   UNL     1      -1.202   3.355  -1.301  1.00  0.00     0.004 C 
ENDBRANCH  16  17
ENDBRANCH  14  16
ENDBRANCH  12  14
ENDBRANCH   7  12
ENDBRANCH   3   6
ENDBRANCH   1   2
BRANCH   1  19
ATOM     19  C   UNL     1       3.932   5.546   4.956  1.00  0.00     0.042 C 
BRANCH  19  20
ATOM     20  C   UNL     1       5.003   5.830   5.998  1.00  0.00     0.118 C 
BRANCH  20  21
ATOM     21  N   UNL     1       6.025   4.790   6.059  1.00  0.00    -0.352 N 
ATOM     22  C   UNL     1       7.315   4.768   5.581  1.00  0.00     0.251 C 
ATOM     23  H   UNL     1       5.744   3.966   6.519  1.00  0.00     0.163 HD
ATOM     24  O   UNL     1       7.944   3.719   5.563  1.00  0.00    -0.269 OA
BRANCH  22  25
ATOM     25  C   UNL     1       7.933   6.006   5.060  1.00  0.00     0.039 A 
ATOM     26  C   UNL     1       8.671   5.955   3.874  1.00  0.00     0.014 A 
ATOM     27  C   UNL     1       7.774   7.218   5.731  1.00  0.00     0.014 A 
ATOM     28  C   UNL     1       9.149   7.138   3.305  1.00  0.00     0.010 A 
ATOM     29  C   UNL     1       8.156   8.402   5.113  1.00  0.00     0.010 A 
ATOM     30  C   UNL     1       8.838   8.377   3.888  1.00  0.00    -0.014 A 
BRANCH  30  31
ATOM     31  C   UNL     1       9.171   9.665   3.228  1.00  0.00     0.031 A 
ATOM     32  C   UNL     1      10.035  10.673   3.932  1.00  0.00     0.074 A 
ATOM     33  C   UNL     1       8.590   9.978   2.053  1.00  0.00     0.049 A 
ATOM     34  N   UNL     1      10.303  11.910   3.597  1.00  0.00    -0.248 NA
ATOM     35  C   UNL     1      10.647  10.249   5.202  1.00  0.00     0.031 C 
ATOM     36  C   UNL     1       7.683   9.113   1.293  1.00  0.00     0.029 A 
ATOM     37  N   UNL     1       8.656  11.126   1.302  1.00  0.00    -0.354 N 
ATOM     38  C   UNL     1      11.078  12.420   4.630  1.00  0.00     0.074 A 
ATOM     39  C   UNL     1      11.205  11.375   5.622  1.00  0.00     0.031 C 
ATOM     40  C   UNL     1       7.295   9.751   0.178  1.00  0.00     0.029 A 
ATOM     41  C   UNL     1       7.881  11.086   0.168  1.00  0.00     0.049 A 
ATOM     42  H   UNL     1       9.207  11.903   1.552  1.00  0.00     0.167 HD
ATOM     43  C   UNL     1      11.646  13.645   4.737  1.00  0.00     0.031 A 
ATOM     44  C   UNL     1       7.647  12.027  -0.766  1.00  0.00     0.031 A 
ATOM     45  C   UNL     1      11.546  14.672   3.736  1.00  0.00     0.049 A 
ATOM     46  C   UNL     1       8.293  13.375  -0.629  1.00  0.00     0.074 A 
ATOM     47  C   UNL     1      12.167  15.908   3.704  1.00  0.00     0.029 A 
ATOM     48  N   UNL     1      10.771  14.582   2.590  1.00  0.00    -0.354 N 
ATOM     49  N   UNL     1       9.090  13.815   0.315  1.00  0.00    -0.248 NA
ATOM     50  C   UNL     1       8.005  14.357  -1.683  1.00  0.00     0.031 C 
ATOM     51  C   UNL     1      11.728  16.587   2.563  1.00  0.00     0.029 A 
ATOM     52  C   UNL     1      10.870  15.755   1.862  1.00  0.00     0.049 A 
ATOM     53  H   UNL     1      10.231  13.800   2.333  1.00  0.00     0.167 HD
ATOM     54  C   UNL     1       9.406  15.120  -0.036  1.00  0.00     0.074 A 
ATOM     55  C   UNL     1       8.734  15.393  -1.290  1.00  0.00     0.031 C 
ATOM     56  C   UNL     1      10.181  16.014   0.625  1.00  0.00     0.031 A 
BRANCH  43  57
ATOM     57  C   UNL     1      12.420  13.941   5.991  1.00  0.00    -0.014 A 
ATOM     58  C   UNL     1      13.654  13.323   6.250  1.00  0.00     0.009 A 
ATOM     59  C   UNL     1      11.918  14.870   6.916  1.00  0.00     0.009 A 
ATOM     60  C   UNL     1      14.349  13.598   7.430  1.00  0.00     0.001 A 
ATOM     61  C   UNL     1      12.630  15.165   8.081  1.00  0.00     0.001 A 
ATOM     62  C   UNL     1      13.838  14.521   8.342  1.00  0.00     0.000 A 
ENDBRANCH  43  57
BRANCH  44  63
ATOM     63  C   UNL     1       6.752  11.724  -1.913  1.00  0.00    -0.014 A 
ATOM     64  C   UNL     1       7.283  11.534  -3.197  1.00  0.00     0.009 A 
ATOM     65  C   UNL     1       5.365  11.609  -1.727  1.00  0.00     0.009 A 
ATOM     66  C   UNL     1       6.442  11.251  -4.275  1.00  0.00     0.001 A 
ATOM     67  C   UNL     1       4.530  11.300  -2.803  1.00  0.00     0.001 A 
ATOM     68  C   UNL     1       5.068  11.128  -4.077  1.00  0.00     0.000 A 
ENDBRANCH  44  63
BRANCH  56  69
ATOM     69  C   UNL     1      10.342  17.370   0.003  1.00  0.00    -0.014 A 
ATOM     70  C   UNL     1       9.301  18.310   0.045  1.00  0.00     0.009 A 
ATOM     71  C   UNL     1      11.562  17.728  -0.590  1.00  0.00     0.009 A 
ATOM     72  C   UNL     1       9.473  19.577  -0.515  1.00  0.00     0.001 A 
ATOM     73  C   UNL     1      11.739  19.004  -1.126  1.00  0.00     0.001 A 
ATOM     74  C   UNL     1      10.693  19.924  -1.095  1.00  0.00     0.000 A 
ENDBRANCH  56  69
ENDBRANCH  30  31
ENDBRANCH  22  25
ENDBRANCH  20  21
ENDBRANCH  19  20
ENDBRANCH   1  19
TORSDOF 14
