REMARK SMILES C#CCN(CC(=O)NCCCNC(=O)c1ccc(-c2c3nc(c(-c4ccccc4)c4ccc([nH]4)c(-c4ccccc4)c4nc(c(-c5ccccc5)c5ccc2[nH]5)C=C4)C=C3)cc1)C(=O)N1CCO[C@@H](C#N)C1
REMARK SMILES IDX 9 1 8 2 6 3 7 4 5 6 4 7 3 8 2 9 1 10 63 11 64 12 65 13 66 14
REMARK SMILES IDX 72 15 67 16 69 17 68 18 70 19 71 20 10 21 11 22 12 23 13 24
REMARK SMILES IDX 14 26 15 27 16 28 62 29 17 30 61 31 18 32 19 33 20 34 55 35
REMARK SMILES IDX 21 36 60 37 54 38 56 39 22 40 59 41 53 42 52 43 23 45 45 46
REMARK SMILES IDX 30 47 44 48 31 49 34 50 43 51 57 52 32 53 33 54 42 56 58 57
REMARK SMILES IDX 35 58 24 59 25 60 29 61 26 62 28 63 27 64 46 65 47 66 51 67
REMARK SMILES IDX 48 68 50 69 49 70 36 71 37 72 41 73 38 74 40 75 39 76
REMARK H PARENT 8 5 12 25 56 44 34 55
REMARK Flexibility Score: inf
ROOT
ATOM      1  C   UNL     1      -5.213   0.225  -0.564  1.00  0.00     0.117 C 
ENDROOT
BRANCH   1   2
ATOM      2  N   UNL     1      -5.612   0.038   0.814  1.00  0.00    -0.354 N 
ATOM      3  C   UNL     1      -4.856   0.106   1.945  1.00  0.00     0.239 C 
ATOM      4  O   UNL     1      -5.444   0.007   3.025  1.00  0.00    -0.273 OA
ATOM      5  H   UNL     1      -6.564  -0.168   0.954  1.00  0.00     0.163 HD
BRANCH   3   6
ATOM      6  C   UNL     1      -3.348   0.335   1.852  1.00  0.00     0.222 C 
BRANCH   6   7
ATOM      7  N   UNL     1      -2.493  -0.627   1.145  1.00  0.00    -0.304 N 
BRANCH   7   8
ATOM      8  C   UNL     1      -1.764  -0.000   0.080  1.00  0.00     0.211 C 
BRANCH   8   9
ATOM      9  C   UNL     1      -0.244  -0.000   0.080  1.00  0.00    -0.085 C 
ATOM     10  C   UNL     1       1.059  -0.000   0.080  1.00  0.00     0.006 C 
ENDBRANCH   8   9
ENDBRANCH   7   8
BRANCH   7  11
ATOM     11  C   UNL     1      -2.135  -1.939   1.403  1.00  0.00     0.321 C 
ATOM     12  O   UNL     1      -1.365  -2.542   0.646  1.00  0.00    -0.248 OA
BRANCH  11  13
ATOM     13  N   UNL     1      -2.546  -2.592   2.530  1.00  0.00    -0.319 N 
ATOM     14  C   UNL     1      -1.631  -3.552   3.163  1.00  0.00     0.150 C 
ATOM     15  C   UNL     1      -3.895  -2.693   3.080  1.00  0.00     0.169 C 
ATOM     16  C   UNL     1      -1.678  -3.422   4.698  1.00  0.00     0.183 C 
ATOM     17  C   UNL     1      -3.847  -2.369   4.579  1.00  0.00     0.240 C 
ATOM     18  O   UNL     1      -3.021  -3.374   5.232  1.00  0.00    -0.360 OA
BRANCH  17  19
ATOM     19  C   UNL     1      -3.244  -0.981   4.719  1.00  0.00     0.096 C 
ATOM     20  N   UNL     1      -2.744   0.171   4.835  1.00  0.00    -0.195 NA
ENDBRANCH  17  19
ENDBRANCH  11  13
ENDBRANCH   7  11
ENDBRANCH   6   7
ENDBRANCH   3   6
ENDBRANCH   1   2
BRANCH   1  21
ATOM     21  C   UNL     1      -5.024  -1.093  -1.304  1.00  0.00     0.042 C 
BRANCH  21  22
ATOM     22  C   UNL     1      -6.269  -1.975  -1.327  1.00  0.00     0.118 C 
BRANCH  22  23
ATOM     23  N   UNL     1      -7.441  -1.273  -1.835  1.00  0.00    -0.352 N 
ATOM     24  C   UNL     1      -8.070  -1.346  -3.050  1.00  0.00     0.251 C 
ATOM     25  H   UNL     1      -7.849  -0.641  -1.199  1.00  0.00     0.163 HD
ATOM     26  O   UNL     1      -8.879  -0.475  -3.366  1.00  0.00    -0.269 OA
BRANCH  24  27
ATOM     27  C   UNL     1      -7.777  -2.449  -3.983  1.00  0.00     0.039 A 
ATOM     28  C   UNL     1      -7.636  -2.166  -5.345  1.00  0.00     0.014 A 
ATOM     29  C   UNL     1      -7.674  -3.765  -3.526  1.00  0.00     0.014 A 
ATOM     30  C   UNL     1      -7.307  -3.189  -6.235  1.00  0.00     0.010 A 
ATOM     31  C   UNL     1      -7.277  -4.771  -4.401  1.00  0.00     0.010 A 
ATOM     32  C   UNL     1      -7.077  -4.490  -5.760  1.00  0.00    -0.014 A 
BRANCH  32  33
ATOM     33  C   UNL     1      -6.577  -5.564  -6.652  1.00  0.00     0.031 A 
ATOM     34  C   UNL     1      -7.410  -6.785  -6.917  1.00  0.00     0.074 A 
ATOM     35  C   UNL     1      -5.325  -5.479  -7.141  1.00  0.00     0.049 A 
ATOM     36  N   UNL     1      -7.091  -7.875  -7.566  1.00  0.00    -0.248 NA
ATOM     37  C   UNL     1      -8.772  -6.792  -6.360  1.00  0.00     0.031 C 
ATOM     38  C   UNL     1      -4.406  -4.358  -6.928  1.00  0.00     0.029 A 
ATOM     39  N   UNL     1      -4.601  -6.361  -7.903  1.00  0.00    -0.354 N 
ATOM     40  C   UNL     1      -8.203  -8.703  -7.483  1.00  0.00     0.074 A 
ATOM     41  C   UNL     1      -9.191  -8.006  -6.688  1.00  0.00     0.031 C 
ATOM     42  C   UNL     1      -3.247  -4.614  -7.555  1.00  0.00     0.029 A 
ATOM     43  C   UNL     1      -3.322  -5.935  -8.169  1.00  0.00     0.049 A 
ATOM     44  H   UNL     1      -4.963  -7.217  -8.228  1.00  0.00     0.167 HD
ATOM     45  C   UNL     1      -8.387  -9.928  -8.031  1.00  0.00     0.031 A 
ATOM     46  C   UNL     1      -2.312  -6.549  -8.812  1.00  0.00     0.031 A 
ATOM     47  C   UNL     1      -7.403 -10.618  -8.821  1.00  0.00     0.049 A 
ATOM     48  C   UNL     1      -2.527  -7.929  -9.366  1.00  0.00     0.074 A 
ATOM     49  C   UNL     1      -7.518 -11.834  -9.473  1.00  0.00     0.029 A 
ATOM     50  N   UNL     1      -6.117 -10.158  -9.057  1.00  0.00    -0.354 N 
ATOM     51  N   UNL     1      -3.608  -8.669  -9.340  1.00  0.00    -0.248 NA
ATOM     52  C   UNL     1      -1.379  -8.558 -10.035  1.00  0.00     0.031 C 
ATOM     53  C   UNL     1      -6.283 -12.137 -10.054  1.00  0.00     0.029 A 
ATOM     54  C   UNL     1      -5.415 -11.084  -9.810  1.00  0.00     0.049 A 
ATOM     55  H   UNL     1      -5.756  -9.300  -8.737  1.00  0.00     0.167 HD
ATOM     56  C   UNL     1      -3.277  -9.845 -10.000  1.00  0.00     0.074 A 
ATOM     57  C   UNL     1      -1.902  -9.709 -10.435  1.00  0.00     0.031 C 
ATOM     58  C   UNL     1      -4.043 -10.940 -10.222  1.00  0.00     0.031 A 
BRANCH  45  59
ATOM     59  C   UNL     1      -9.704 -10.609  -7.780  1.00  0.00    -0.014 A 
ATOM     60  C   UNL     1     -10.887 -10.150  -8.380  1.00  0.00     0.009 A 
ATOM     61  C   UNL     1      -9.754 -11.753  -6.968  1.00  0.00     0.009 A 
ATOM     62  C   UNL     1     -12.099 -10.802  -8.143  1.00  0.00     0.001 A 
ATOM     63  C   UNL     1     -10.962 -12.419  -6.755  1.00  0.00     0.001 A 
ATOM     64  C   UNL     1     -12.135 -11.938  -7.335  1.00  0.00     0.000 A 
ENDBRANCH  45  59
BRANCH  46  65
ATOM     65  C   UNL     1      -0.999  -5.869  -8.954  1.00  0.00    -0.014 A 
ATOM     66  C   UNL     1      -0.569  -5.408 -10.207  1.00  0.00     0.009 A 
ATOM     67  C   UNL     1      -0.169  -5.676  -7.838  1.00  0.00     0.009 A 
ATOM     68  C   UNL     1       0.674  -4.787 -10.344  1.00  0.00     0.001 A 
ATOM     69  C   UNL     1       1.061  -5.029  -7.973  1.00  0.00     0.001 A 
ATOM     70  C   UNL     1       1.486  -4.593  -9.227  1.00  0.00     0.000 A 
ENDBRANCH  46  65
BRANCH  58  71
ATOM     71  C   UNL     1      -3.410 -12.076 -10.974  1.00  0.00    -0.014 A 
ATOM     72  C   UNL     1      -2.451 -12.901 -10.366  1.00  0.00     0.009 A 
ATOM     73  C   UNL     1      -3.810 -12.352 -12.291  1.00  0.00     0.009 A 
ATOM     74  C   UNL     1      -1.886 -13.964 -11.071  1.00  0.00     0.001 A 
ATOM     75  C   UNL     1      -3.263 -13.432 -12.984  1.00  0.00     0.001 A 
ATOM     76  C   UNL     1      -2.297 -14.233 -12.377  1.00  0.00     0.000 A 
ENDBRANCH  58  71
ENDBRANCH  32  33
ENDBRANCH  24  27
ENDBRANCH  22  23
ENDBRANCH  21  22
ENDBRANCH   1  21
TORSDOF 16
