REMARK SMILES C[C@H]1CN([C@@H](C(=O)NCCCNC(=O)c2ccc(-c3c4nc(c(-c5ccccc5)c5ccc([nH]5)c(-c5ccccc5)c5nc(c(-c6ccccc6)c6ccc3[nH]6)C=C5)C=C4)cc2)C(C)(C)C)S(=O)(=O)C1
REMARK SMILES IDX 10 1 9 2 8 3 6 4 7 5 5 7 4 8 1 9 2 10 3 11 70 12 67 13 68 14
REMARK SMILES IDX 69 15 63 16 64 17 65 18 66 19 11 20 12 21 13 22 14 24 15 25
REMARK SMILES IDX 16 26 62 27 17 28 61 29 18 30 19 31 20 32 55 33 21 34 60 35
REMARK SMILES IDX 54 36 56 37 22 38 59 39 53 40 52 41 23 43 45 44 30 45 44 46
REMARK SMILES IDX 31 47 34 48 43 49 57 50 32 51 33 52 42 54 58 55 35 56 24 57
REMARK SMILES IDX 25 58 29 59 26 60 28 61 27 62 46 63 47 64 51 65 48 66 50 67
REMARK SMILES IDX 49 68 36 69 37 70 41 71 38 72 40 73 39 74
REMARK H PARENT 8 6 12 23 56 42 34 53
REMARK Flexibility Score: inf
ROOT
ATOM      1  C   UNL     1      -1.300   2.405   0.324  1.00  0.00     0.042 C 
ENDROOT
BRANCH   1   2
ATOM      2  C   UNL     1      -1.380   3.075   1.711  1.00  0.00     0.117 C 
BRANCH   2   3
ATOM      3  N   UNL     1      -1.786   2.189   2.800  1.00  0.00    -0.355 N 
ATOM      4  C   UNL     1      -1.182   1.664   3.914  1.00  0.00     0.238 C 
ATOM      5  O   UNL     1      -1.936   1.009   4.639  1.00  0.00    -0.273 OA
ATOM      6  H   UNL     1      -2.722   1.897   2.712  1.00  0.00     0.163 HD
BRANCH   4   7
ATOM      7  C   UNL     1       0.315   1.881   4.245  1.00  0.00     0.167 C 
BRANCH   7   8
ATOM      8  N   UNL     1       1.237   0.871   3.623  1.00  0.00    -0.189 NA
ATOM      9  C   UNL     1      -0.410  -0.824   1.535  1.00  0.00     0.010 C 
ATOM     10  C   UNL     1       1.085  -0.479   1.606  1.00  0.00     0.017 C 
ATOM     11  C   UNL     1       1.425   0.917   2.164  1.00  0.00     0.107 C 
ATOM     12  C   UNL     1       1.796  -1.417   2.573  1.00  0.00     0.159 C 
ATOM     13  S   UNL     1       1.455  -0.717   4.184  1.00  0.00     0.215 S 
ATOM     14  O   UNL     1       2.671  -0.768   4.957  1.00  0.00    -0.212 OA
ATOM     15  O   UNL     1       0.196  -1.252   4.647  1.00  0.00    -0.212 OA
ENDBRANCH   7   8
BRANCH   7  16
ATOM     16  C   UNL     1       0.603   2.148   5.785  1.00  0.00    -0.013 C 
ATOM     17  C   UNL     1       2.061   2.634   5.964  1.00  0.00     0.013 C 
ATOM     18  C   UNL     1      -0.311   3.290   6.300  1.00  0.00     0.013 C 
ATOM     19  C   UNL     1       0.381   0.959   6.742  1.00  0.00     0.013 C 
ENDBRANCH   7  16
ENDBRANCH   4   7
ENDBRANCH   2   3
ENDBRANCH   1   2
BRANCH   1  20
ATOM     20  C   UNL     1      -2.501   1.555  -0.096  1.00  0.00     0.118 C 
BRANCH  20  21
ATOM     21  N   UNL     1      -3.434   2.298  -0.920  1.00  0.00    -0.352 N 
ATOM     22  C   UNL     1      -3.726   2.159  -2.256  1.00  0.00     0.251 C 
ATOM     23  H   UNL     1      -3.932   3.008  -0.453  1.00  0.00     0.163 HD
ATOM     24  O   UNL     1      -4.346   3.051  -2.829  1.00  0.00    -0.269 OA
BRANCH  22  25
ATOM     25  C   UNL     1      -3.296   0.965  -3.026  1.00  0.00     0.039 A 
ATOM     26  C   UNL     1      -2.800   1.150  -4.322  1.00  0.00     0.014 A 
ATOM     27  C   UNL     1      -3.448  -0.334  -2.529  1.00  0.00     0.014 A 
ATOM     28  C   UNL     1      -2.412   0.049  -5.094  1.00  0.00     0.010 A 
ATOM     29  C   UNL     1      -3.013  -1.431  -3.282  1.00  0.00     0.010 A 
ATOM     30  C   UNL     1      -2.487  -1.252  -4.571  1.00  0.00    -0.014 A 
BRANCH  30  31
ATOM     31  C   UNL     1      -1.983  -2.418  -5.348  1.00  0.00     0.031 A 
ATOM     32  C   UNL     1      -2.921  -3.487  -5.843  1.00  0.00     0.074 A 
ATOM     33  C   UNL     1      -0.659  -2.540  -5.574  1.00  0.00     0.049 A 
ATOM     34  N   UNL     1      -2.644  -4.593  -6.490  1.00  0.00    -0.248 NA
ATOM     35  C   UNL     1      -4.352  -3.293  -5.570  1.00  0.00     0.031 C 
ATOM     36  C   UNL     1       0.362  -1.582  -5.146  1.00  0.00     0.029 A 
ATOM     37  N   UNL     1       0.056  -3.523  -6.215  1.00  0.00    -0.354 N 
ATOM     38  C   UNL     1      -3.862  -5.231  -6.693  1.00  0.00     0.074 A 
ATOM     39  C   UNL     1      -4.875  -4.406  -6.068  1.00  0.00     0.031 C 
ATOM     40  C   UNL     1       1.567  -2.015  -5.549  1.00  0.00     0.029 A 
ATOM     41  C   UNL     1       1.412  -3.303  -6.218  1.00  0.00     0.049 A 
ATOM     42  H   UNL     1      -0.364  -4.310  -6.631  1.00  0.00     0.167 HD
ATOM     43  C   UNL     1      -4.116  -6.390  -7.348  1.00  0.00     0.031 A 
ATOM     44  C   UNL     1       2.425  -4.059  -6.685  1.00  0.00     0.031 A 
ATOM     45  C   UNL     1      -3.109  -7.219  -7.961  1.00  0.00     0.049 A 
ATOM     46  C   UNL     1       2.121  -5.377  -7.342  1.00  0.00     0.074 A 
ATOM     47  C   UNL     1      -3.278  -8.386  -8.687  1.00  0.00     0.029 A 
ATOM     48  N   UNL     1      -1.745  -6.978  -7.907  1.00  0.00    -0.354 N 
ATOM     49  N   UNL     1       0.958  -5.930  -7.584  1.00  0.00    -0.248 NA
ATOM     50  C   UNL     1       3.273  -6.175  -7.789  1.00  0.00     0.031 C 
ATOM     51  C   UNL     1      -2.014  -8.890  -9.008  1.00  0.00     0.029 A 
ATOM     52  C   UNL     1      -1.059  -8.001  -8.544  1.00  0.00     0.049 A 
ATOM     53  H   UNL     1      -1.325  -6.197  -7.481  1.00  0.00     0.167 HD
ATOM     54  C   UNL     1       1.236  -7.131  -8.225  1.00  0.00     0.074 A 
ATOM     55  C   UNL     1       2.676  -7.213  -8.359  1.00  0.00     0.031 C 
ATOM     56  C   UNL     1       0.375  -8.083  -8.659  1.00  0.00     0.031 A 
BRANCH  43  57
ATOM     57  C   UNL     1      -5.547  -6.854  -7.418  1.00  0.00    -0.014 A 
ATOM     58  C   UNL     1      -6.498  -6.179  -8.200  1.00  0.00     0.009 A 
ATOM     59  C   UNL     1      -5.937  -8.018  -6.735  1.00  0.00     0.009 A 
ATOM     60  C   UNL     1      -7.815  -6.639  -8.267  1.00  0.00     0.001 A 
ATOM     61  C   UNL     1      -7.246  -8.493  -6.829  1.00  0.00     0.001 A 
ATOM     62  C   UNL     1      -8.187  -7.798  -7.586  1.00  0.00     0.000 A 
ENDBRANCH  43  57
BRANCH  44  63
ATOM     63  C   UNL     1       3.831  -3.600  -6.525  1.00  0.00    -0.014 A 
ATOM     64  C   UNL     1       4.598  -3.240  -7.643  1.00  0.00     0.009 A 
ATOM     65  C   UNL     1       4.418  -3.533  -5.251  1.00  0.00     0.009 A 
ATOM     66  C   UNL     1       5.930  -2.846  -7.491  1.00  0.00     0.001 A 
ATOM     67  C   UNL     1       5.738  -3.106  -5.098  1.00  0.00     0.001 A 
ATOM     68  C   UNL     1       6.497  -2.773  -6.219  1.00  0.00     0.000 A 
ENDBRANCH  44  63
BRANCH  56  69
ATOM     69  C   UNL     1       0.964  -9.295  -9.327  1.00  0.00    -0.014 A 
ATOM     70  C   UNL     1       1.670 -10.258  -8.589  1.00  0.00     0.009 A 
ATOM     71  C   UNL     1       0.774  -9.499 -10.703  1.00  0.00     0.009 A 
ATOM     72  C   UNL     1       2.199 -11.386  -9.222  1.00  0.00     0.001 A 
ATOM     73  C   UNL     1       1.276 -10.643 -11.326  1.00  0.00     0.001 A 
ATOM     74  C   UNL     1       1.995 -11.581 -10.587  1.00  0.00     0.000 A 
ENDBRANCH  56  69
ENDBRANCH  30  31
ENDBRANCH  22  25
ENDBRANCH  20  21
ENDBRANCH   1  20
TORSDOF 12
