REMARK SMILES C[C@@H](CC(=O)NCCCNC(=O)c1ccc(-c2c3nc(c(-c4ccccc4)c4ccc([nH]4)c(-c4ccccc4)c4nc(c(-c5ccccc5)c5ccc2[nH]5)C=C4)C=C3)cc1)CC(=O)N1C[C@H](C)[C@@H](C)C1
REMARK SMILES IDX 7 1 6 2 4 3 5 4 3 6 2 7 1 8 61 9 62 10 63 11 64 12 65 13
REMARK SMILES IDX 70 14 66 15 68 16 67 17 69 18 8 19 9 20 10 21 11 22 12 24
REMARK SMILES IDX 13 25 14 26 60 27 15 28 59 29 16 30 17 31 18 32 53 33 19 34
REMARK SMILES IDX 58 35 52 36 54 37 20 38 57 39 51 40 50 41 21 43 43 44 28 45
REMARK SMILES IDX 42 46 29 47 32 48 41 49 55 50 30 51 31 52 40 54 56 55 33 56
REMARK SMILES IDX 22 57 23 58 27 59 24 60 26 61 25 62 44 63 45 64 49 65 46 66
REMARK SMILES IDX 48 67 47 68 34 69 35 70 39 71 36 72 38 73 37 74
REMARK H PARENT 6 5 10 23 54 42 32 53
REMARK Flexibility Score: inf
ROOT
ATOM      1  C   UNL     1       1.894  -2.361   1.226  1.00  0.00     0.117 C 
ENDROOT
BRANCH   1   2
ATOM      2  N   UNL     1       0.788  -3.065   0.604  1.00  0.00    -0.356 N 
ATOM      3  C   UNL     1       0.260  -2.965  -0.646  1.00  0.00     0.220 C 
ATOM      4  O   UNL     1      -0.722  -3.661  -0.912  1.00  0.00    -0.275 OA
ATOM      5  H   UNL     1       0.344  -3.726   1.185  1.00  0.00     0.163 HD
BRANCH   3   6
ATOM      6  C   UNL     1       0.852  -2.024  -1.683  1.00  0.00     0.103 C 
BRANCH   6   7
ATOM      7  C   UNL     1       0.392  -0.543  -1.652  1.00  0.00     0.004 C 
ATOM      8  C   UNL     1       1.565   0.360  -1.275  1.00  0.00     0.009 C 
BRANCH   7   9
ATOM      9  C   UNL     1      -0.868  -0.325  -0.804  1.00  0.00     0.104 C 
BRANCH   9  10
ATOM     10  C   UNL     1      -1.466   1.072  -0.760  1.00  0.00     0.222 C 
ATOM     11  O   UNL     1      -2.151   1.509  -1.682  1.00  0.00    -0.275 OA
ATOM     12  N   UNL     1      -1.329   1.726   0.453  1.00  0.00    -0.342 N 
ATOM     13  C   UNL     1      -2.420   2.509   1.008  1.00  0.00     0.123 C 
ATOM     14  C   UNL     1      -0.046   2.209   0.936  1.00  0.00     0.123 C 
ATOM     15  C   UNL     1      -1.762   3.711   1.687  1.00  0.00     0.010 C 
ATOM     16  C   UNL     1      -0.364   3.189   2.065  1.00  0.00     0.010 C 
ATOM     17  C   UNL     1      -1.687   4.891   0.718  1.00  0.00     0.010 C 
ATOM     18  C   UNL     1      -0.342   2.494   3.427  1.00  0.00     0.010 C 
ENDBRANCH   9  10
ENDBRANCH   7   9
ENDBRANCH   6   7
ENDBRANCH   3   6
ENDBRANCH   1   2
BRANCH   1  19
ATOM     19  C   UNL     1       1.416  -1.281   2.195  1.00  0.00     0.042 C 
BRANCH  19  20
ATOM     20  C   UNL     1       0.749  -1.794   3.467  1.00  0.00     0.118 C 
BRANCH  20  21
ATOM     21  N   UNL     1       1.718  -2.285   4.429  1.00  0.00    -0.352 N 
ATOM     22  C   UNL     1       1.989  -1.890   5.715  1.00  0.00     0.251 C 
ATOM     23  H   UNL     1       2.276  -3.028   4.104  1.00  0.00     0.163 HD
ATOM     24  O   UNL     1       3.003  -2.323   6.258  1.00  0.00    -0.269 OA
BRANCH  22  25
ATOM     25  C   UNL     1       1.112  -0.952   6.464  1.00  0.00     0.039 A 
ATOM     26  C   UNL     1       1.716  -0.080   7.378  1.00  0.00     0.014 A 
ATOM     27  C   UNL     1      -0.282  -0.969   6.360  1.00  0.00     0.014 A 
ATOM     28  C   UNL     1       0.939   0.786   8.152  1.00  0.00     0.010 A 
ATOM     29  C   UNL     1      -1.056  -0.056   7.086  1.00  0.00     0.010 A 
ATOM     30  C   UNL     1      -0.456   0.823   8.000  1.00  0.00    -0.014 A 
BRANCH  30  31
ATOM     31  C   UNL     1      -1.274   1.780   8.791  1.00  0.00     0.031 A 
ATOM     32  C   UNL     1      -2.253   1.298   9.828  1.00  0.00     0.074 A 
ATOM     33  C   UNL     1      -1.159   3.102   8.555  1.00  0.00     0.049 A 
ATOM     34  N   UNL     1      -3.017   2.000  10.630  1.00  0.00    -0.248 NA
ATOM     35  C   UNL     1      -2.413  -0.156   9.968  1.00  0.00     0.031 C 
ATOM     36  C   UNL     1      -0.296   3.708   7.540  1.00  0.00     0.029 A 
ATOM     37  N   UNL     1      -1.773   4.173   9.155  1.00  0.00    -0.354 N 
ATOM     38  C   UNL     1      -3.760   1.075  11.353  1.00  0.00     0.074 A 
ATOM     39  C   UNL     1      -3.384  -0.236  10.868  1.00  0.00     0.031 C 
ATOM     40  C   UNL     1      -0.417   5.043   7.603  1.00  0.00     0.029 A 
ATOM     41  C   UNL     1      -1.377   5.386   8.647  1.00  0.00     0.049 A 
ATOM     42  H   UNL     1      -2.433   4.081   9.880  1.00  0.00     0.167 HD
ATOM     43  C   UNL     1      -4.664   1.291  12.340  1.00  0.00     0.031 A 
ATOM     44  C   UNL     1      -1.738   6.639   8.985  1.00  0.00     0.031 A 
ATOM     45  C   UNL     1      -5.033   2.590  12.841  1.00  0.00     0.049 A 
ATOM     46  C   UNL     1      -2.706   6.856  10.111  1.00  0.00     0.074 A 
ATOM     47  C   UNL     1      -5.874   2.901  13.896  1.00  0.00     0.029 A 
ATOM     48  N   UNL     1      -4.590   3.793  12.317  1.00  0.00    -0.354 N 
ATOM     49  N   UNL     1      -3.326   5.968  10.849  1.00  0.00    -0.248 NA
ATOM     50  C   UNL     1      -3.009   8.251  10.461  1.00  0.00     0.031 C 
ATOM     51  C   UNL     1      -5.976   4.295  13.981  1.00  0.00     0.029 A 
ATOM     52  C   UNL     1      -5.162   4.850  13.007  1.00  0.00     0.049 A 
ATOM     53  H   UNL     1      -3.962   3.884  11.564  1.00  0.00     0.167 HD
ATOM     54  C   UNL     1      -4.084   6.695  11.757  1.00  0.00     0.074 A 
ATOM     55  C   UNL     1      -3.827   8.096  11.493  1.00  0.00     0.031 C 
ATOM     56  C   UNL     1      -4.919   6.240  12.723  1.00  0.00     0.031 A 
BRANCH  43  57
ATOM     57  C   UNL     1      -5.332   0.084  12.938  1.00  0.00    -0.014 A 
ATOM     58  C   UNL     1      -4.629  -0.801  13.772  1.00  0.00     0.009 A 
ATOM     59  C   UNL     1      -6.690  -0.160  12.682  1.00  0.00     0.009 A 
ATOM     60  C   UNL     1      -5.262  -1.927  14.302  1.00  0.00     0.001 A 
ATOM     61  C   UNL     1      -7.327  -1.273  13.235  1.00  0.00     0.001 A 
ATOM     62  C   UNL     1      -6.610  -2.161  14.035  1.00  0.00     0.000 A 
ENDBRANCH  43  57
BRANCH  44  63
ATOM     63  C   UNL     1      -1.149   7.790   8.256  1.00  0.00    -0.014 A 
ATOM     64  C   UNL     1      -0.155   8.578   8.854  1.00  0.00     0.009 A 
ATOM     65  C   UNL     1      -1.563   8.088   6.949  1.00  0.00     0.009 A 
ATOM     66  C   UNL     1       0.403   9.654   8.161  1.00  0.00     0.001 A 
ATOM     67  C   UNL     1      -0.986   9.150   6.250  1.00  0.00     0.001 A 
ATOM     68  C   UNL     1      -0.008   9.935   6.859  1.00  0.00     0.000 A 
ENDBRANCH  44  63
BRANCH  56  69
ATOM     69  C   UNL     1      -5.615   7.274  13.562  1.00  0.00    -0.014 A 
ATOM     70  C   UNL     1      -6.665   8.044  13.038  1.00  0.00     0.009 A 
ATOM     71  C   UNL     1      -5.225   7.471  14.896  1.00  0.00     0.009 A 
ATOM     72  C   UNL     1      -7.286   9.018  13.823  1.00  0.00     0.001 A 
ATOM     73  C   UNL     1      -5.864   8.429  15.685  1.00  0.00     0.001 A 
ATOM     74  C   UNL     1      -6.887   9.208  15.146  1.00  0.00     0.000 A 
ENDBRANCH  56  69
ENDBRANCH  30  31
ENDBRANCH  22  25
ENDBRANCH  20  21
ENDBRANCH  19  20
ENDBRANCH   1  19
TORSDOF 13
