REMARK SMILES CC[C@H](C)[NH2+]CCc1ccc(C(=O)NCCCNC(=O)c2ccc(-c3c4nc(c(-c5ccccc5)c5ccc([nH]5)c(-c5ccccc5)c5nc(c(-c6ccccc6)c6ccc3[nH]6)C=C5)C=C4)cc2)cc1
REMARK SMILES IDX 12 1 13 2 14 3 11 5 8 6 9 7 70 8 10 9 69 10 7 11 6 12 5 13
REMARK SMILES IDX 3 16 4 17 2 18 1 19 15 20 16 21 17 22 18 23 19 24 20 26
REMARK SMILES IDX 21 27 22 28 68 29 23 30 67 31 24 32 25 33 26 34 61 35 27 36
REMARK SMILES IDX 66 37 60 38 62 39 28 40 65 41 59 42 58 43 29 45 51 46 36 47
REMARK SMILES IDX 50 48 37 49 40 50 49 51 63 52 38 53 39 54 48 56 64 57 41 58
REMARK SMILES IDX 30 59 31 60 35 61 32 62 34 63 33 64 52 65 53 66 57 67 54 68
REMARK SMILES IDX 56 69 55 70 42 71 43 72 47 73 44 74 46 75 45 76
REMARK H PARENT 14 4 5 14 5 15 18 25 62 44 40 55
REMARK Flexibility Score: inf
ROOT
ATOM      1  C   UNL     1      -5.145   2.353   4.974  1.00  0.00     0.251 C 
ATOM      2  O   UNL     1      -5.745   3.408   5.171  1.00  0.00    -0.269 OA
ATOM      3  N   UNL     1      -5.869   1.239   4.629  1.00  0.00    -0.352 N 
ATOM      4  H   UNL     1      -6.845   1.353   4.684  1.00  0.00     0.163 HD
ENDROOT
BRANCH   1   5
ATOM      5  C   UNL     1      -3.664   2.333   5.061  1.00  0.00     0.039 A 
ATOM      6  C   UNL     1      -0.848   2.353   5.069  1.00  0.00    -0.042 A 
ATOM      7  C   UNL     1      -1.567   3.454   4.582  1.00  0.00     0.005 A 
ATOM      8  C   UNL     1      -1.555   1.294   5.650  1.00  0.00     0.005 A 
ATOM      9  C   UNL     1      -2.965   3.442   4.573  1.00  0.00     0.014 A 
ATOM     10  C   UNL     1      -2.951   1.288   5.649  1.00  0.00     0.014 A 
BRANCH   6  11
ATOM     11  C   UNL     1       0.662   2.334   4.961  1.00  0.00     0.097 C 
BRANCH  11  12
ATOM     12  C   UNL     1       1.291   0.975   4.579  1.00  0.00     0.265 C 
BRANCH  12  13
ATOM     13  N   UNL     1       0.682   0.242   3.461  1.00  0.00    -0.344 N 
ATOM     14  H   UNL     1       0.870  -0.751   3.596  1.00  0.00     0.346 HD
ATOM     15  H   UNL     1      -0.311   0.476   3.478  1.00  0.00     0.346 HD
BRANCH  13  16
ATOM     16  C   UNL     1       1.165   0.618   2.128  1.00  0.00     0.178 C 
ATOM     17  C   UNL     1       1.040  -0.640   1.260  1.00  0.00     0.075 C 
BRANCH  16  18
ATOM     18  C   UNL     1       0.438   1.848   1.536  1.00  0.00     0.061 C 
ATOM     19  C   UNL     1      -0.656   1.583   0.512  1.00  0.00     0.010 C 
ENDBRANCH  16  18
ENDBRANCH  13  16
ENDBRANCH  12  13
ENDBRANCH  11  12
ENDBRANCH   6  11
ENDBRANCH   1   5
BRANCH   3  20
ATOM     20  C   UNL     1      -5.440  -0.081   4.196  1.00  0.00     0.118 C 
BRANCH  20  21
ATOM     21  C   UNL     1      -5.602  -1.125   5.299  1.00  0.00     0.042 C 
BRANCH  21  22
ATOM     22  C   UNL     1      -7.051  -1.459   5.636  1.00  0.00     0.118 C 
BRANCH  22  23
ATOM     23  N   UNL     1      -7.698  -2.234   4.592  1.00  0.00    -0.352 N 
ATOM     24  C   UNL     1      -8.332  -3.449   4.651  1.00  0.00     0.251 C 
ATOM     25  H   UNL     1      -7.678  -1.822   3.698  1.00  0.00     0.163 HD
ATOM     26  O   UNL     1      -8.640  -4.010   3.603  1.00  0.00    -0.269 OA
BRANCH  24  27
ATOM     27  C   UNL     1      -8.646  -4.102   5.946  1.00  0.00     0.039 A 
ATOM     28  C   UNL     1      -8.582  -5.498   6.013  1.00  0.00     0.014 A 
ATOM     29  C   UNL     1      -9.080  -3.379   7.060  1.00  0.00     0.014 A 
ATOM     30  C   UNL     1      -8.929  -6.162   7.193  1.00  0.00     0.010 A 
ATOM     31  C   UNL     1      -9.355  -4.035   8.261  1.00  0.00     0.010 A 
ATOM     32  C   UNL     1      -9.309  -5.435   8.332  1.00  0.00    -0.014 A 
BRANCH  32  33
ATOM     33  C   UNL     1      -9.702  -6.136   9.581  1.00  0.00     0.031 A 
ATOM     34  C   UNL     1     -11.121  -6.062  10.080  1.00  0.00     0.074 A 
ATOM     35  C   UNL     1      -8.782  -6.829  10.280  1.00  0.00     0.049 A 
ATOM     36  N   UNL     1     -11.656  -6.620  11.138  1.00  0.00    -0.248 NA
ATOM     37  C   UNL     1     -12.058  -5.238   9.300  1.00  0.00     0.031 C 
ATOM     38  C   UNL     1      -7.366  -6.949   9.930  1.00  0.00     0.029 A 
ATOM     39  N   UNL     1      -8.905  -7.567  11.430  1.00  0.00    -0.354 N 
ATOM     40  C   UNL     1     -12.981  -6.200  11.159  1.00  0.00     0.074 A 
ATOM     41  C   UNL     1     -13.157  -5.304  10.037  1.00  0.00     0.031 C 
ATOM     42  C   UNL     1      -6.759  -7.744  10.826  1.00  0.00     0.029 A 
ATOM     43  C   UNL     1      -7.734  -8.166  11.826  1.00  0.00     0.049 A 
ATOM     44  H   UNL     1      -9.752  -7.660  11.924  1.00  0.00     0.167 HD
ATOM     45  C   UNL     1     -13.969  -6.543  12.020  1.00  0.00     0.031 A 
ATOM     46  C   UNL     1      -7.477  -8.973  12.872  1.00  0.00     0.031 A 
ATOM     47  C   UNL     1     -13.804  -7.445  13.128  1.00  0.00     0.049 A 
ATOM     48  C   UNL     1      -8.595  -9.357  13.801  1.00  0.00     0.074 A 
ATOM     49  C   UNL     1     -14.755  -7.890  14.029  1.00  0.00     0.029 A 
ATOM     50  N   UNL     1     -12.606  -8.044  13.482  1.00  0.00    -0.354 N 
ATOM     51  N   UNL     1      -9.855  -9.000  13.769  1.00  0.00    -0.248 NA
ATOM     52  C   UNL     1      -8.255 -10.276  14.896  1.00  0.00     0.031 C 
ATOM     53  C   UNL     1     -14.124  -8.732  14.953  1.00  0.00     0.029 A 
ATOM     54  C   UNL     1     -12.790  -8.848  14.595  1.00  0.00     0.049 A 
ATOM     55  H   UNL     1     -11.750  -7.918  13.012  1.00  0.00     0.167 HD
ATOM     56  C   UNL     1     -10.465  -9.673  14.819  1.00  0.00     0.074 A 
ATOM     57  C   UNL     1      -9.439 -10.471  15.458  1.00  0.00     0.031 C 
ATOM     58  C   UNL     1     -11.760  -9.636  15.218  1.00  0.00     0.031 A 
BRANCH  45  59
ATOM     59  C   UNL     1     -15.324  -5.930  11.792  1.00  0.00    -0.014 A 
ATOM     60  C   UNL     1     -16.119  -6.311  10.699  1.00  0.00     0.009 A 
ATOM     61  C   UNL     1     -15.821  -4.977  12.694  1.00  0.00     0.009 A 
ATOM     62  C   UNL     1     -17.368  -5.721  10.492  1.00  0.00     0.001 A 
ATOM     63  C   UNL     1     -17.082  -4.409  12.500  1.00  0.00     0.001 A 
ATOM     64  C   UNL     1     -17.850  -4.773  11.395  1.00  0.00     0.000 A 
ENDBRANCH  45  59
BRANCH  46  65
ATOM     65  C   UNL     1      -6.107  -9.511  13.076  1.00  0.00    -0.014 A 
ATOM     66  C   UNL     1      -5.831 -10.864  12.828  1.00  0.00     0.009 A 
ATOM     67  C   UNL     1      -5.072  -8.677  13.524  1.00  0.00     0.009 A 
ATOM     68  C   UNL     1      -4.552 -11.378  13.051  1.00  0.00     0.001 A 
ATOM     69  C   UNL     1      -3.787  -9.188  13.721  1.00  0.00     0.001 A 
ATOM     70  C   UNL     1      -3.530 -10.539  13.494  1.00  0.00     0.000 A 
ENDBRANCH  46  65
BRANCH  58  71
ATOM     71  C   UNL     1     -12.144 -10.517  16.373  1.00  0.00    -0.014 A 
ATOM     72  C   UNL     1     -11.743 -10.219  17.685  1.00  0.00     0.009 A 
ATOM     73  C   UNL     1     -12.933 -11.655  16.143  1.00  0.00     0.009 A 
ATOM     74  C   UNL     1     -12.090 -11.068  18.738  1.00  0.00     0.001 A 
ATOM     75  C   UNL     1     -13.302 -12.486  17.202  1.00  0.00     0.001 A 
ATOM     76  C   UNL     1     -12.870 -12.198  18.496  1.00  0.00     0.000 A 
ENDBRANCH  58  71
ENDBRANCH  32  33
ENDBRANCH  24  27
ENDBRANCH  22  23
ENDBRANCH  21  22
ENDBRANCH  20  21
ENDBRANCH   3  20
TORSDOF 15
