REMARK SMILES O=C(C[NH+]1CC[NH+](Cc2cc(Cl)ccc2[N+](=O)[O-])CC1)NCCCNC(=O)c1ccc(-c2c3nc(c(-c4ccccc4)c4ccc([nH]4)c(-c4ccccc4)c4nc(c(-c5ccccc5)c5ccc2[nH]5)C=C4)C=C3)cc1
REMARK SMILES IDX 22 1 21 2 1 3 2 4 3 6 4 7 5 8 20 9 6 11 19 12 7 13 8 15 9 16
REMARK SMILES IDX 10 17 15 18 11 19 14 20 12 21 13 22 16 23 17 24 18 25 23 26
REMARK SMILES IDX 24 27 25 28 26 29 27 31 28 32 29 33 75 34 30 35 74 36 31 37
REMARK SMILES IDX 32 38 33 39 68 40 34 41 73 42 67 43 69 44 35 45 72 46 66 47
REMARK SMILES IDX 65 48 36 50 58 51 43 52 57 53 44 54 47 55 56 56 70 57 45 58
REMARK SMILES IDX 46 59 55 61 71 62 48 63 37 64 38 65 42 66 39 67 41 68 40 69
REMARK SMILES IDX 59 70 60 71 64 72 61 73 63 74 62 75 49 76 50 77 54 78 51 79
REMARK SMILES IDX 53 80 52 81
REMARK H PARENT 21 5 4 10 7 14 25 30 69 49 47 60
REMARK Flexibility Score: inf
ROOT
ATOM      1  C   UNL     1       1.900   0.206  -2.500  1.00  0.00     0.118 C 
ENDROOT
BRANCH   1   2
ATOM      2  N   UNL     1       2.244  -0.146  -1.139  1.00  0.00    -0.351 N 
ATOM      3  O   UNL     1       0.229   0.400  -0.181  1.00  0.00    -0.269 OA
ATOM      4  C   UNL     1       1.368  -0.049  -0.075  1.00  0.00     0.275 C 
ATOM      5  H   UNL     1       3.154  -0.474  -0.960  1.00  0.00     0.163 HD
BRANCH   4   6
ATOM      6  C   UNL     1       1.909  -0.588   1.270  1.00  0.00     0.363 C 
BRANCH   6   7
ATOM      7  N   UNL     1       3.333  -0.982   1.150  1.00  0.00    -0.318 N 
ATOM      8  C   UNL     1       4.224   0.180   1.346  1.00  0.00     0.325 C 
ATOM      9  C   UNL     1       3.693  -2.085   2.065  1.00  0.00     0.325 C 
ATOM     10  H   UNL     1       3.464  -1.330   0.200  1.00  0.00     0.348 HD
ATOM     11  C   UNL     1       4.603   0.535   2.805  1.00  0.00     0.324 C 
ATOM     12  C   UNL     1       4.022  -1.693   3.524  1.00  0.00     0.324 C 
ATOM     13  N   UNL     1       4.972  -0.589   3.668  1.00  0.00    -0.322 N 
ATOM     14  H   UNL     1       4.864  -0.251   4.625  1.00  0.00     0.348 HD
BRANCH  13  15
ATOM     15  C   UNL     1       6.400  -0.927   3.777  1.00  0.00     0.306 C 
BRANCH  15  16
ATOM     16  C   UNL     1       7.061  -1.557   2.566  1.00  0.00     0.085 A 
ATOM     17  C   UNL     1       7.401  -0.688   1.504  1.00  0.00     0.037 A 
ATOM     18  C   UNL     1       7.334  -2.930   2.377  1.00  0.00     0.278 A 
ATOM     19  C   UNL     1       7.807  -1.170   0.259  1.00  0.00     0.042 A 
ATOM     20  C   UNL     1       7.765  -3.409   1.120  1.00  0.00     0.088 A 
ATOM     21  Cl  UNL     1       8.044  -0.069  -1.041  1.00  0.00    -0.084 Cl
ATOM     22  C   UNL     1       7.965  -2.532   0.054  1.00  0.00     0.027 A 
BRANCH  18  23
ATOM     23  N   UNL     1       7.252  -3.931   3.454  1.00  0.00     0.063 N 
ATOM     24  O   UNL     1       8.023  -4.900   3.379  1.00  0.00    -0.258 OA
ATOM     25  O   UNL     1       6.427  -3.773   4.357  1.00  0.00    -0.258 OA
ENDBRANCH  18  23
ENDBRANCH  15  16
ENDBRANCH  13  15
ENDBRANCH   6   7
ENDBRANCH   4   6
ENDBRANCH   1   2
BRANCH   1  26
ATOM     26  C   UNL     1       2.355   1.608  -2.903  1.00  0.00     0.042 C 
BRANCH  26  27
ATOM     27  C   UNL     1       3.866   1.773  -3.063  1.00  0.00     0.118 C 
BRANCH  27  28
ATOM     28  N   UNL     1       4.416   0.989  -4.164  1.00  0.00    -0.352 N 
ATOM     29  C   UNL     1       5.022   1.366  -5.335  1.00  0.00     0.251 C 
ATOM     30  H   UNL     1       4.339   0.015  -4.044  1.00  0.00     0.163 HD
ATOM     31  O   UNL     1       5.262   0.504  -6.187  1.00  0.00    -0.269 OA
BRANCH  29  32
ATOM     32  C   UNL     1       5.383   2.774  -5.617  1.00  0.00     0.039 A 
ATOM     33  C   UNL     1       5.207   3.265  -6.917  1.00  0.00     0.014 A 
ATOM     34  C   UNL     1       5.950   3.598  -4.644  1.00  0.00     0.014 A 
ATOM     35  C   UNL     1       5.530   4.593  -7.220  1.00  0.00     0.010 A 
ATOM     36  C   UNL     1       6.206   4.941  -4.927  1.00  0.00     0.010 A 
ATOM     37  C   UNL     1       5.997   5.456  -6.216  1.00  0.00    -0.014 A 
BRANCH  37  38
ATOM     38  C   UNL     1       6.265   6.894  -6.489  1.00  0.00     0.031 A 
ATOM     39  C   UNL     1       7.655   7.454  -6.342  1.00  0.00     0.074 A 
ATOM     40  C   UNL     1       5.245   7.720  -6.797  1.00  0.00     0.049 A 
ATOM     41  N   UNL     1       8.062   8.696  -6.434  1.00  0.00    -0.248 NA
ATOM     42  C   UNL     1       8.726   6.494  -6.030  1.00  0.00     0.031 C 
ATOM     43  C   UNL     1       3.846   7.320  -6.952  1.00  0.00     0.029 A 
ATOM     44  N   UNL     1       5.229   9.076  -7.022  1.00  0.00    -0.354 N 
ATOM     45  C   UNL     1       9.426   8.669  -6.169  1.00  0.00     0.074 A 
ATOM     46  C   UNL     1       9.769   7.295  -5.872  1.00  0.00     0.031 C 
ATOM     47  C   UNL     1       3.111   8.400  -7.263  1.00  0.00     0.029 A 
ATOM     48  C   UNL     1       3.975   9.576  -7.282  1.00  0.00     0.049 A 
ATOM     49  H   UNL     1       6.038   9.636  -6.999  1.00  0.00     0.167 HD
ATOM     50  C   UNL     1      10.317   9.690  -6.185  1.00  0.00     0.031 A 
ATOM     51  C   UNL     1       3.561  10.839  -7.495  1.00  0.00     0.031 A 
ATOM     52  C   UNL     1       9.982  11.057  -6.487  1.00  0.00     0.049 A 
ATOM     53  C   UNL     1       4.563  11.960  -7.474  1.00  0.00     0.074 A 
ATOM     54  C   UNL     1      10.825  12.152  -6.576  1.00  0.00     0.029 A 
ATOM     55  N   UNL     1       8.701  11.519  -6.747  1.00  0.00    -0.354 N 
ATOM     56  N   UNL     1       5.857  11.909  -7.274  1.00  0.00    -0.248 NA
ATOM     57  C   UNL     1       4.045  13.315  -7.716  1.00  0.00     0.031 C 
ATOM     58  C   UNL     1      10.047  13.285  -6.833  1.00  0.00     0.029 A 
ATOM     59  C   UNL     1       8.728  12.886  -6.969  1.00  0.00     0.049 A 
ATOM     60  H   UNL     1       7.892  10.958  -6.770  1.00  0.00     0.167 HD
ATOM     61  C   UNL     1       6.312  13.216  -7.400  1.00  0.00     0.074 A 
ATOM     62  C   UNL     1       5.158  14.035  -7.705  1.00  0.00     0.031 C 
ATOM     63  C   UNL     1       7.575  13.693  -7.275  1.00  0.00     0.031 A 
BRANCH  50  64
ATOM     64  C   UNL     1      11.748   9.368  -5.849  1.00  0.00    -0.014 A 
ATOM     65  C   UNL     1      12.550   8.613  -6.721  1.00  0.00     0.009 A 
ATOM     66  C   UNL     1      12.314   9.859  -4.662  1.00  0.00     0.009 A 
ATOM     67  C   UNL     1      13.875   8.322  -6.391  1.00  0.00     0.001 A 
ATOM     68  C   UNL     1      13.649   9.594  -4.350  1.00  0.00     0.001 A 
ATOM     69  C   UNL     1      14.425   8.817  -5.208  1.00  0.00     0.000 A 
ENDBRANCH  50  64
BRANCH  51  70
ATOM     70  C   UNL     1       2.123  11.120  -7.752  1.00  0.00    -0.014 A 
ATOM     71  C   UNL     1       1.696  11.539  -9.021  1.00  0.00     0.009 A 
ATOM     72  C   UNL     1       1.173  10.985  -6.728  1.00  0.00     0.009 A 
ATOM     73  C   UNL     1       0.352  11.845  -9.251  1.00  0.00     0.001 A 
ATOM     74  C   UNL     1      -0.175  11.261  -6.969  1.00  0.00     0.001 A 
ATOM     75  C   UNL     1      -0.582  11.701  -8.227  1.00  0.00     0.000 A 
ENDBRANCH  51  70
BRANCH  63  76
ATOM     76  C   UNL     1       7.785  15.163  -7.513  1.00  0.00    -0.014 A 
ATOM     77  C   UNL     1       7.337  16.126  -6.596  1.00  0.00     0.009 A 
ATOM     78  C   UNL     1       8.480  15.586  -8.658  1.00  0.00     0.009 A 
ATOM     79  C   UNL     1       7.551  17.485  -6.839  1.00  0.00     0.001 A 
ATOM     80  C   UNL     1       8.720  16.942  -8.882  1.00  0.00     0.001 A 
ATOM     81  C   UNL     1       8.247  17.891  -7.977  1.00  0.00     0.000 A 
ENDBRANCH  63  76
ENDBRANCH  37  38
ENDBRANCH  29  32
ENDBRANCH  27  28
ENDBRANCH  26  27
ENDBRANCH   1  26
TORSDOF 14
