REMARK SMILES C[N@H+]1CCO[C@H](c2noc(-c3ccccc3C(=O)NCCCNC(=O)c3ccc(-c4c5nc(c(-c6ccccc6)c6ccc([nH]6)c(-c6ccccc6)c6nc(c(-c7ccccc7)c7ccc4[nH]7)C=C6)C=C5)cc3)n2)C1
REMARK SMILES IDX 21 1 20 2 19 3 17 4 18 5 16 7 11 8 12 9 13 10 15 11 14 12
REMARK SMILES IDX 10 13 7 14 8 15 74 16 9 17 6 18 1 19 2 20 3 21 75 22 4 24
REMARK SMILES IDX 5 25 22 26 23 27 24 28 25 30 26 31 27 32 73 33 28 34 72 35
REMARK SMILES IDX 29 36 30 37 31 38 66 39 32 40 71 41 65 42 67 43 33 44 70 45
REMARK SMILES IDX 64 46 63 47 34 49 56 50 41 51 55 52 42 53 45 54 54 55 68 56
REMARK SMILES IDX 43 57 44 58 53 60 69 61 46 62 35 63 36 64 40 65 37 66 39 67
REMARK SMILES IDX 38 68 57 69 58 70 62 71 59 72 61 73 60 74 47 75 48 76 52 77
REMARK SMILES IDX 49 78 51 79 50 80
REMARK H PARENT 19 6 2 23 23 29 67 48 45 59
REMARK Flexibility Score: inf
ROOT
ATOM      1  C   UNL     1       0.917   6.858   0.254  1.00  0.00     0.042 C 
ENDROOT
BRANCH   1   2
ATOM      2  C   UNL     1       1.823   6.006  -0.627  1.00  0.00     0.118 C 
BRANCH   2   3
ATOM      3  N   UNL     1       1.746   6.269  -2.049  1.00  0.00    -0.352 N 
ATOM      4  C   UNL     1       2.734   6.410  -2.990  1.00  0.00     0.252 C 
ATOM      5  O   UNL     1       2.410   6.463  -4.177  1.00  0.00    -0.269 OA
ATOM      6  H   UNL     1       0.831   6.364  -2.400  1.00  0.00     0.163 HD
BRANCH   4   7
ATOM      7  C   UNL     1       4.156   6.660  -2.643  1.00  0.00     0.052 A 
ATOM      8  C   UNL     1       4.991   5.838  -1.868  1.00  0.00     0.053 A 
ATOM      9  C   UNL     1       6.328   6.255  -1.666  1.00  0.00     0.015 A 
ATOM     10  C   UNL     1       6.828   7.434  -2.225  1.00  0.00     0.001 A 
ATOM     11  C   UNL     1       4.681   7.837  -3.223  1.00  0.00     0.014 A 
ATOM     12  C   UNL     1       6.003   8.224  -3.011  1.00  0.00     0.001 A 
BRANCH   8  13
ATOM     13  C   UNL     1       4.567   4.596  -1.232  1.00  0.00     0.258 A 
ATOM     14  C   UNL     1       3.682   2.849  -0.459  1.00  0.00     0.206 A 
ATOM     15  N   UNL     1       4.518   3.230   0.518  1.00  0.00    -0.059 NA
ATOM     16  N   UNL     1       3.695   3.672  -1.571  1.00  0.00    -0.189 NA
ATOM     17  O   UNL     1       5.101   4.384   0.013  1.00  0.00    -0.334 OA
BRANCH  14  18
ATOM     18  C   UNL     1       2.831   1.619  -0.311  1.00  0.00     0.245 C 
ATOM     19  C   UNL     1       2.197  -1.302  -1.281  1.00  0.00     0.332 C 
ATOM     20  N   UNL     1       1.428  -0.097  -1.581  1.00  0.00    -0.333 N 
ATOM     21  C   UNL     1       0.389   0.154  -0.562  1.00  0.00     0.290 C 
ATOM     22  C   UNL     1       2.288   1.111  -1.671  1.00  0.00     0.303 C 
ATOM     23  H   UNL     1       0.992  -0.268  -2.487  1.00  0.00     0.348 HD
ATOM     24  C   UNL     1       0.964   0.638   0.776  1.00  0.00     0.222 C 
ATOM     25  O   UNL     1       1.739   1.836   0.619  1.00  0.00    -0.358 OA
ENDBRANCH  14  18
ENDBRANCH   8  13
ENDBRANCH   4   7
ENDBRANCH   2   3
ENDBRANCH   1   2
BRANCH   1  26
ATOM     26  C   UNL     1      -0.578   6.794  -0.039  1.00  0.00     0.118 C 
BRANCH  26  27
ATOM     27  N   UNL     1      -1.056   5.465  -0.357  1.00  0.00    -0.352 N 
ATOM     28  C   UNL     1      -1.288   4.376   0.435  1.00  0.00     0.251 C 
ATOM     29  H   UNL     1      -1.247   5.320  -1.312  1.00  0.00     0.163 HD
ATOM     30  O   UNL     1      -1.435   3.277  -0.093  1.00  0.00    -0.269 OA
BRANCH  28  31
ATOM     31  C   UNL     1      -1.409   4.473   1.905  1.00  0.00     0.039 A 
ATOM     32  C   UNL     1      -0.850   3.443   2.665  1.00  0.00     0.014 A 
ATOM     33  C   UNL     1      -2.257   5.394   2.518  1.00  0.00     0.014 A 
ATOM     34  C   UNL     1      -1.204   3.263   4.002  1.00  0.00     0.010 A 
ATOM     35  C   UNL     1      -2.552   5.262   3.879  1.00  0.00     0.010 A 
ATOM     36  C   UNL     1      -2.073   4.166   4.622  1.00  0.00    -0.014 A 
BRANCH  36  37
ATOM     37  C   UNL     1      -2.579   3.938   6.003  1.00  0.00     0.031 A 
ATOM     38  C   UNL     1      -4.064   3.822   6.230  1.00  0.00     0.074 A 
ATOM     39  C   UNL     1      -1.741   3.877   7.055  1.00  0.00     0.049 A 
ATOM     40  N   UNL     1      -4.749   3.967   7.334  1.00  0.00    -0.248 NA
ATOM     41  C   UNL     1      -4.888   3.539   5.043  1.00  0.00     0.031 C 
ATOM     42  C   UNL     1      -0.280   3.907   6.988  1.00  0.00     0.029 A 
ATOM     43  N   UNL     1      -2.011   3.799   8.399  1.00  0.00    -0.354 N 
ATOM     44  C   UNL     1      -6.086   3.899   6.958  1.00  0.00     0.074 A 
ATOM     45  C   UNL     1      -6.114   3.665   5.530  1.00  0.00     0.031 C 
ATOM     46  C   UNL     1       0.218   3.849   8.233  1.00  0.00     0.029 A 
ATOM     47  C   UNL     1      -0.887   3.862   9.185  1.00  0.00     0.049 A 
ATOM     48  H   UNL     1      -2.921   3.707   8.764  1.00  0.00     0.167 HD
ATOM     49  C   UNL     1      -7.187   4.047   7.734  1.00  0.00     0.031 A 
ATOM     50  C   UNL     1      -0.757   3.980  10.520  1.00  0.00     0.031 A 
ATOM     51  C   UNL     1      -7.146   4.200   9.165  1.00  0.00     0.049 A 
ATOM     52  C   UNL     1      -1.990   4.088  11.370  1.00  0.00     0.074 A 
ATOM     53  C   UNL     1      -8.199   4.331  10.053  1.00  0.00     0.029 A 
ATOM     54  N   UNL     1      -5.982   4.208   9.918  1.00  0.00    -0.354 N 
ATOM     55  N   UNL     1      -3.248   4.115  10.999  1.00  0.00    -0.248 NA
ATOM     56  C   UNL     1      -1.785   4.197  12.820  1.00  0.00     0.031 C 
ATOM     57  C   UNL     1      -7.670   4.439  11.345  1.00  0.00     0.029 A 
ATOM     58  C   UNL     1      -6.291   4.337  11.261  1.00  0.00     0.049 A 
ATOM     59  H   UNL     1      -5.072   4.132   9.553  1.00  0.00     0.167 HD
ATOM     60  C   UNL     1      -3.983   4.243  12.169  1.00  0.00     0.074 A 
ATOM     61  C   UNL     1      -3.033   4.258  13.262  1.00  0.00     0.031 C 
ATOM     62  C   UNL     1      -5.325   4.352  12.327  1.00  0.00     0.031 A 
BRANCH  49  63
ATOM     63  C   UNL     1      -8.522   4.111   7.047  1.00  0.00    -0.014 A 
ATOM     64  C   UNL     1      -9.136   2.974   6.503  1.00  0.00     0.009 A 
ATOM     65  C   UNL     1      -9.192   5.345   6.973  1.00  0.00     0.009 A 
ATOM     66  C   UNL     1     -10.378   3.078   5.869  1.00  0.00     0.001 A 
ATOM     67  C   UNL     1     -10.443   5.441   6.363  1.00  0.00     0.001 A 
ATOM     68  C   UNL     1     -11.032   4.309   5.803  1.00  0.00     0.000 A 
ENDBRANCH  49  63
BRANCH  50  69
ATOM     69  C   UNL     1       0.597   4.066  11.126  1.00  0.00    -0.014 A 
ATOM     70  C   UNL     1       1.118   2.994  11.863  1.00  0.00     0.009 A 
ATOM     71  C   UNL     1       1.381   5.218  10.953  1.00  0.00     0.009 A 
ATOM     72  C   UNL     1       2.393   3.079  12.427  1.00  0.00     0.001 A 
ATOM     73  C   UNL     1       2.666   5.289  11.494  1.00  0.00     0.001 A 
ATOM     74  C   UNL     1       3.168   4.222  12.236  1.00  0.00     0.000 A 
ENDBRANCH  50  69
BRANCH  62  75
ATOM     75  C   UNL     1      -5.829   4.470  13.734  1.00  0.00    -0.014 A 
ATOM     76  C   UNL     1      -5.716   5.675  14.444  1.00  0.00     0.009 A 
ATOM     77  C   UNL     1      -6.429   3.363  14.353  1.00  0.00     0.009 A 
ATOM     78  C   UNL     1      -6.163   5.758  15.763  1.00  0.00     0.001 A 
ATOM     79  C   UNL     1      -6.894   3.456  15.665  1.00  0.00     0.001 A 
ATOM     80  C   UNL     1      -6.752   4.650  16.371  1.00  0.00     0.000 A 
ENDBRANCH  62  75
ENDBRANCH  36  37
ENDBRANCH  28  31
ENDBRANCH  26  27
ENDBRANCH   1  26
TORSDOF 12
