REMARK SMILES NS(=O)(=O)c1ccc(-n2nc(NC(=O)NCCCC(=O)NCCCNC(=O)c3ccc(-c4c5nc(c(-c6ccccc6)c6ccc([nH]6)c(-c6ccccc6)c6nc(c(-c7ccccc7)c7ccc4[nH]7)C=C6)C=C5)cc3)cc2-c2ccccc2)cc1
REMARK SMILES IDX 19 1 20 2 21 3 18 5 17 6 16 7 15 8 12 9 13 10 14 12 11 14
REMARK SMILES IDX 9 15 10 16 77 17 76 18 8 19 5 20 6 21 85 22 7 23 84 24 2 25
REMARK SMILES IDX 3 26 4 27 1 28 78 31 79 32 83 33 80 34 82 35 81 36 22 37
REMARK SMILES IDX 23 38 24 39 25 40 26 41 27 43 28 44 29 45 75 46 30 47 74 48
REMARK SMILES IDX 31 49 32 50 33 51 68 52 34 53 73 54 67 55 69 56 35 57 72 58
REMARK SMILES IDX 66 59 65 60 36 62 58 63 43 64 57 65 44 66 47 67 56 68 70 69
REMARK SMILES IDX 45 70 46 71 55 73 71 74 48 75 37 76 38 77 42 78 39 79 41 80
REMARK SMILES IDX 40 81 59 82 60 83 64 84 61 85 63 86 62 87 49 88 50 89 54 90
REMARK SMILES IDX 51 91 53 92 52 93
REMARK H PARENT 21 4 12 11 15 13 1 29 1 30 25 42 69 61 47 72
REMARK Flexibility Score: inf
ROOT
ATOM      1  C   UNL     1      -2.800   6.368   2.620  1.00  0.00     0.220 C 
ATOM      2  O   UNL     1      -2.711   5.570   1.685  1.00  0.00    -0.275 OA
ATOM      3  N   UNL     1      -2.270   7.614   2.453  1.00  0.00    -0.356 N 
ATOM      4  H   UNL     1      -1.937   7.798   1.545  1.00  0.00     0.163 HD
ENDROOT
BRANCH   1   5
ATOM      5  C   UNL     1      -3.487   5.976   3.916  1.00  0.00     0.102 C 
BRANCH   5   6
ATOM      6  C   UNL     1      -2.674   5.002   4.771  1.00  0.00     0.031 C 
BRANCH   6   7
ATOM      7  C   UNL     1      -1.337   5.552   5.248  1.00  0.00     0.118 C 
BRANCH   7   8
ATOM      8  N   UNL     1      -1.440   6.711   6.119  1.00  0.00    -0.338 N 
ATOM      9  N   UNL     1       0.782   7.043   6.932  1.00  0.00    -0.291 N 
ATOM     10  C   UNL     1      -0.523   7.373   6.858  1.00  0.00     0.320 C 
ATOM     11  H   UNL     1       1.244   7.400   7.726  1.00  0.00     0.173 HD
ATOM     12  O   UNL     1      -0.940   8.287   7.578  1.00  0.00    -0.248 OA
ATOM     13  H   UNL     1      -2.349   7.084   6.183  1.00  0.00     0.165 HD
BRANCH   9  14
ATOM     14  C   UNL     1       1.584   6.301   6.103  1.00  0.00     0.157 A 
ATOM     15  N   UNL     1       2.134   5.081   4.467  1.00  0.00    -0.231 N 
ATOM     16  N   UNL     1       1.403   6.162   4.793  1.00  0.00    -0.149 NA
ATOM     17  C   UNL     1       3.126   4.851   5.412  1.00  0.00     0.076 A 
ATOM     18  C   UNL     1       2.768   5.640   6.495  1.00  0.00     0.078 A 
BRANCH  15  19
ATOM     19  C   UNL     1       1.732   4.291   3.357  1.00  0.00     0.065 A 
ATOM     20  C   UNL     1       0.869   2.746   1.204  1.00  0.00     0.082 A 
ATOM     21  C   UNL     1       1.389   2.120   2.339  1.00  0.00     0.024 A 
ATOM     22  C   UNL     1       0.747   4.138   1.149  1.00  0.00     0.024 A 
ATOM     23  C   UNL     1       1.830   2.894   3.413  1.00  0.00     0.030 A 
ATOM     24  C   UNL     1       1.156   4.911   2.238  1.00  0.00     0.030 A 
BRANCH  20  25
ATOM     25  S   UNL     1       0.405   1.798  -0.215  1.00  0.00     0.238 S 
ATOM     26  O   UNL     1       1.050   2.389  -1.381  1.00  0.00    -0.207 OA
ATOM     27  O   UNL     1      -0.992   1.512  -0.156  1.00  0.00    -0.207 OA
BRANCH  25  28
ATOM     28  N   UNL     1       1.192   0.324  -0.000  1.00  0.00    -0.225 NA
ATOM     29  H   UNL     1       0.978  -0.293  -0.783  1.00  0.00     0.137 HD
ATOM     30  H   UNL     1       0.876  -0.106   0.869  1.00  0.00     0.137 HD
ENDBRANCH  25  28
ENDBRANCH  20  25
ENDBRANCH  15  19
BRANCH  17  31
ATOM     31  C   UNL     1       4.243   3.933   5.220  1.00  0.00     0.000 A 
ATOM     32  C   UNL     1       5.006   3.995   4.044  1.00  0.00     0.010 A 
ATOM     33  C   UNL     1       4.517   2.935   6.160  1.00  0.00     0.010 A 
ATOM     34  C   UNL     1       5.995   3.046   3.790  1.00  0.00     0.001 A 
ATOM     35  C   UNL     1       5.509   1.986   5.904  1.00  0.00     0.001 A 
ATOM     36  C   UNL     1       6.239   2.036   4.717  1.00  0.00     0.000 A 
ENDBRANCH  17  31
ENDBRANCH   9  14
ENDBRANCH   7   8
ENDBRANCH   6   7
ENDBRANCH   5   6
ENDBRANCH   1   5
BRANCH   3  37
ATOM     37  C   UNL     1      -2.114   8.722   3.393  1.00  0.00     0.117 C 
BRANCH  37  38
ATOM     38  C   UNL     1      -0.677   8.862   3.907  1.00  0.00     0.042 C 
BRANCH  38  39
ATOM     39  C   UNL     1       0.290   9.490   2.931  1.00  0.00     0.118 C 
BRANCH  39  40
ATOM     40  N   UNL     1       0.210  10.954   2.881  1.00  0.00    -0.352 N 
ATOM     41  C   UNL     1       0.921  11.819   2.061  1.00  0.00     0.251 C 
ATOM     42  H   UNL     1      -0.424  11.374   3.506  1.00  0.00     0.163 HD
ATOM     43  O   UNL     1       1.055  13.002   2.348  1.00  0.00    -0.269 OA
BRANCH  41  44
ATOM     44  C   UNL     1       1.528  11.274   0.832  1.00  0.00     0.039 A 
ATOM     45  C   UNL     1       2.775  11.675   0.348  1.00  0.00     0.014 A 
ATOM     46  C   UNL     1       0.831  10.260   0.199  1.00  0.00     0.014 A 
ATOM     47  C   UNL     1       3.328  10.976  -0.728  1.00  0.00     0.010 A 
ATOM     48  C   UNL     1       1.504   9.398  -0.614  1.00  0.00     0.010 A 
ATOM     49  C   UNL     1       2.687   9.817  -1.195  1.00  0.00    -0.014 A 
BRANCH  49  50
ATOM     50  C   UNL     1       3.176   9.041  -2.325  1.00  0.00     0.031 A 
ATOM     51  C   UNL     1       4.610   8.680  -2.332  1.00  0.00     0.074 A 
ATOM     52  C   UNL     1       2.366   8.543  -3.287  1.00  0.00     0.049 A 
ATOM     53  N   UNL     1       5.535   9.213  -3.057  1.00  0.00    -0.248 NA
ATOM     54  C   UNL     1       5.090   7.663  -1.390  1.00  0.00     0.031 C 
ATOM     55  C   UNL     1       0.895   8.524  -3.366  1.00  0.00     0.029 A 
ATOM     56  N   UNL     1       2.727   7.847  -4.396  1.00  0.00    -0.354 N 
ATOM     57  C   UNL     1       6.694   8.494  -2.799  1.00  0.00     0.074 A 
ATOM     58  C   UNL     1       6.396   7.643  -1.671  1.00  0.00     0.031 C 
ATOM     59  C   UNL     1       0.499   7.656  -4.320  1.00  0.00     0.029 A 
ATOM     60  C   UNL     1       1.673   7.243  -5.059  1.00  0.00     0.049 A 
ATOM     61  H   UNL     1       3.659   7.778  -4.703  1.00  0.00     0.167 HD
ATOM     62  C   UNL     1       7.749   8.511  -3.660  1.00  0.00     0.031 A 
ATOM     63  C   UNL     1       1.747   6.476  -6.166  1.00  0.00     0.031 A 
ATOM     64  C   UNL     1       7.604   9.526  -4.674  1.00  0.00     0.049 A 
ATOM     65  C   UNL     1       3.001   6.837  -6.861  1.00  0.00     0.074 A 
ATOM     66  C   UNL     1       7.488  10.902  -4.672  1.00  0.00     0.029 A 
ATOM     67  N   UNL     1       7.156   9.118  -5.909  1.00  0.00    -0.354 N 
ATOM     68  N   UNL     1       3.203   8.005  -7.404  1.00  0.00    -0.248 NA
ATOM     69  C   UNL     1       4.200   6.065  -6.587  1.00  0.00     0.031 C 
ATOM     70  C   UNL     1       6.532  11.192  -5.692  1.00  0.00     0.029 A 
ATOM     71  C   UNL     1       6.160   9.983  -6.285  1.00  0.00     0.049 A 
ATOM     72  H   UNL     1       7.488   8.349  -6.427  1.00  0.00     0.167 HD
ATOM     73  C   UNL     1       4.533   8.296  -7.139  1.00  0.00     0.074 A 
ATOM     74  C   UNL     1       5.124   7.017  -6.750  1.00  0.00     0.031 C 
ATOM     75  C   UNL     1       4.961   9.586  -6.995  1.00  0.00     0.031 A 
BRANCH  62  76
ATOM     76  C   UNL     1       8.740   7.391  -3.811  1.00  0.00    -0.014 A 
ATOM     77  C   UNL     1       9.890   7.601  -4.592  1.00  0.00     0.009 A 
ATOM     78  C   UNL     1       8.457   6.066  -3.434  1.00  0.00     0.009 A 
ATOM     79  C   UNL     1      10.687   6.531  -5.015  1.00  0.00     0.001 A 
ATOM     80  C   UNL     1       9.274   5.000  -3.821  1.00  0.00     0.001 A 
ATOM     81  C   UNL     1      10.376   5.230  -4.633  1.00  0.00     0.000 A 
ENDBRANCH  62  76
BRANCH  63  82
ATOM     82  C   UNL     1       0.917   5.312  -6.513  1.00  0.00    -0.014 A 
ATOM     83  C   UNL     1       0.851   4.842  -7.831  1.00  0.00     0.009 A 
ATOM     84  C   UNL     1       0.395   4.497  -5.490  1.00  0.00     0.009 A 
ATOM     85  C   UNL     1       0.322   3.576  -8.110  1.00  0.00     0.001 A 
ATOM     86  C   UNL     1      -0.133   3.234  -5.769  1.00  0.00     0.001 A 
ATOM     87  C   UNL     1      -0.153   2.767  -7.079  1.00  0.00     0.000 A 
ENDBRANCH  63  82
BRANCH  75  88
ATOM     88  C   UNL     1       3.984  10.689  -7.337  1.00  0.00    -0.014 A 
ATOM     89  C   UNL     1       2.773  10.870  -6.644  1.00  0.00     0.009 A 
ATOM     90  C   UNL     1       4.355  11.657  -8.280  1.00  0.00     0.009 A 
ATOM     91  C   UNL     1       1.944  11.965  -6.910  1.00  0.00     0.001 A 
ATOM     92  C   UNL     1       3.536  12.762  -8.534  1.00  0.00     0.001 A 
ATOM     93  C   UNL     1       2.329  12.913  -7.854  1.00  0.00     0.000 A 
ENDBRANCH  75  88
ENDBRANCH  49  50
ENDBRANCH  41  44
ENDBRANCH  39  40
ENDBRANCH  38  39
ENDBRANCH  37  38
ENDBRANCH   3  37
TORSDOF 18
