REMARK SMILES CC[C@H](NC(=O)Cc1c(C)c2cc(Cl)c(OC)cc2oc1=O)C(=O)NCCCNC(=O)c1ccc(-c2c3nc(c(-c4ccccc4)c4ccc([nH]4)c(-c4ccccc4)c4nc(c(-c5ccccc5)c5ccc2[nH]5)C=C4)C=C3)cc1
REMARK SMILES IDX 26 1 25 2 23 3 24 4 3 6 2 7 1 8 4 9 5 10 6 12 7 13 8 14 9 15
REMARK SMILES IDX 21 16 10 17 11 18 20 19 22 20 12 21 19 22 13 23 18 24 14 25
REMARK SMILES IDX 15 26 16 27 17 28 27 29 28 30 29 31 30 32 31 34 32 35 33 36
REMARK SMILES IDX 79 37 34 38 78 39 35 40 36 41 37 42 72 43 38 44 77 45 71 46
REMARK SMILES IDX 73 47 39 48 76 49 70 50 69 51 40 53 62 54 47 55 61 56 48 57
REMARK SMILES IDX 51 58 60 59 74 60 49 61 50 62 59 64 75 65 52 66 41 67 42 68
REMARK SMILES IDX 46 69 43 70 45 71 44 72 63 73 64 74 68 75 65 76 67 77 66 78
REMARK SMILES IDX 53 79 54 80 58 81 55 82 57 83 56 84
REMARK H PARENT 25 5 4 11 29 33 73 52 51 63
REMARK Flexibility Score: inf
ROOT
ATOM      1  C   UNL     1      -2.021   3.003  -1.103  1.00  0.00     0.117 C 
ENDROOT
BRANCH   1   2
ATOM      2  N   UNL     1      -0.945   3.978  -1.031  1.00  0.00    -0.354 N 
ATOM      3  C   UNL     1       0.405   3.798  -0.941  1.00  0.00     0.242 C 
ATOM      4  O   UNL     1       1.122   4.801  -0.903  1.00  0.00    -0.273 OA
ATOM      5  H   UNL     1      -1.236   4.918  -1.050  1.00  0.00     0.163 HD
BRANCH   3   6
ATOM      6  C   UNL     1       1.025   2.389  -0.942  1.00  0.00     0.171 C 
BRANCH   6   7
ATOM      7  C   UNL     1       0.861   1.732  -2.326  1.00  0.00     0.031 C 
ATOM      8  C   UNL     1       1.069   0.226  -2.346  1.00  0.00     0.006 C 
ENDBRANCH   6   7
BRANCH   6   9
ATOM      9  N   UNL     1       0.484   1.612   0.168  1.00  0.00    -0.344 N 
ATOM     10  C   UNL     1       0.798   1.669   1.495  1.00  0.00     0.225 C 
ATOM     11  H   UNL     1      -0.205   0.953  -0.074  1.00  0.00     0.164 HD
ATOM     12  O   UNL     1       0.168   0.935   2.262  1.00  0.00    -0.275 OA
BRANCH  10  13
ATOM     13  C   UNL     1       1.787   2.706   2.040  1.00  0.00     0.143 C 
BRANCH  13  14
ATOM     14  C   UNL     1       3.231   2.690   1.585  1.00  0.00     0.051 A 
ATOM     15  C   UNL     1       4.032   3.780   1.655  1.00  0.00    -0.029 A 
ATOM     16  C   UNL     1       3.749   1.403   1.043  1.00  0.00     0.340 A 
ATOM     17  C   UNL     1       3.625   5.079   2.312  1.00  0.00     0.046 C 
ATOM     18  C   UNL     1       5.375   3.733   1.043  1.00  0.00     0.023 A 
ATOM     19  O   UNL     1       4.937   1.449   0.336  1.00  0.00    -0.422 OA
ATOM     20  O   UNL     1       3.143   0.347   1.163  1.00  0.00    -0.246 OA
ATOM     21  C   UNL     1       6.284   4.798   1.056  1.00  0.00     0.036 A 
ATOM     22  C   UNL     1       5.755   2.587   0.353  1.00  0.00     0.142 A 
ATOM     23  C   UNL     1       7.508   4.710   0.374  1.00  0.00     0.083 A 
ATOM     24  C   UNL     1       6.964   2.484  -0.343  1.00  0.00     0.095 A 
ATOM     25  Cl  UNL     1       8.567   6.078   0.440  1.00  0.00    -0.080 Cl
ATOM     26  C   UNL     1       7.852   3.558  -0.349  1.00  0.00     0.141 A 
BRANCH  26  27
ATOM     27  O   UNL     1       9.053   3.567  -1.006  1.00  0.00    -0.495 OA
ATOM     28  C   UNL     1       9.323   2.490  -1.895  1.00  0.00     0.278 C 
ENDBRANCH  26  27
ENDBRANCH  13  14
ENDBRANCH  10  13
ENDBRANCH   6   9
ENDBRANCH   3   6
ENDBRANCH   1   2
BRANCH   1  29
ATOM     29  C   UNL     1      -2.799   2.890   0.198  1.00  0.00     0.042 C 
BRANCH  29  30
ATOM     30  C   UNL     1      -3.484   4.181   0.621  1.00  0.00     0.118 C 
BRANCH  30  31
ATOM     31  N   UNL     1      -4.500   4.631  -0.324  1.00  0.00    -0.352 N 
ATOM     32  C   UNL     1      -5.859   4.777  -0.172  1.00  0.00     0.251 C 
ATOM     33  H   UNL     1      -4.158   4.868  -1.216  1.00  0.00     0.163 HD
ATOM     34  O   UNL     1      -6.559   5.026  -1.149  1.00  0.00    -0.269 OA
BRANCH  32  35
ATOM     35  C   UNL     1      -6.483   4.598   1.156  1.00  0.00     0.039 A 
ATOM     36  C   UNL     1      -5.884   5.122   2.300  1.00  0.00     0.014 A 
ATOM     37  C   UNL     1      -7.676   3.875   1.261  1.00  0.00     0.014 A 
ATOM     38  C   UNL     1      -6.348   4.741   3.553  1.00  0.00     0.010 A 
ATOM     39  C   UNL     1      -8.205   3.587   2.523  1.00  0.00     0.010 A 
ATOM     40  C   UNL     1      -7.509   3.961   3.682  1.00  0.00    -0.014 A 
BRANCH  40  41
ATOM     41  C   UNL     1      -7.951   3.546   5.039  1.00  0.00     0.031 A 
ATOM     42  C   UNL     1      -7.977   2.093   5.434  1.00  0.00     0.074 A 
ATOM     43  C   UNL     1      -8.242   4.495   5.952  1.00  0.00     0.049 A 
ATOM     44  N   UNL     1      -8.252   1.565   6.601  1.00  0.00    -0.248 NA
ATOM     45  C   UNL     1      -7.657   1.102   4.394  1.00  0.00     0.031 C 
ATOM     46  C   UNL     1      -8.234   5.938   5.696  1.00  0.00     0.029 A 
ATOM     47  N   UNL     1      -8.548   4.396   7.286  1.00  0.00    -0.354 N 
ATOM     48  C   UNL     1      -8.160   0.189   6.429  1.00  0.00     0.074 A 
ATOM     49  C   UNL     1      -7.831  -0.043   5.041  1.00  0.00     0.031 C 
ATOM     50  C   UNL     1      -8.434   6.588   6.851  1.00  0.00     0.029 A 
ATOM     51  C   UNL     1      -8.655   5.614   7.914  1.00  0.00     0.049 A 
ATOM     52  H   UNL     1      -8.677   3.537   7.748  1.00  0.00     0.167 HD
ATOM     53  C   UNL     1      -8.323  -0.792   7.348  1.00  0.00     0.031 A 
ATOM     54  C   UNL     1      -8.900   5.920   9.202  1.00  0.00     0.031 A 
ATOM     55  C   UNL     1      -8.626  -0.563   8.736  1.00  0.00     0.049 A 
ATOM     56  C   UNL     1      -9.101   4.811  10.194  1.00  0.00     0.074 A 
ATOM     57  C   UNL     1      -8.794  -1.498   9.743  1.00  0.00     0.029 A 
ATOM     58  N   UNL     1      -8.796   0.685   9.314  1.00  0.00    -0.354 N 
ATOM     59  N   UNL     1      -9.012   3.517  10.010  1.00  0.00    -0.248 NA
ATOM     60  C   UNL     1      -9.438   5.205  11.569  1.00  0.00     0.031 C 
ATOM     61  C   UNL     1      -9.117  -0.819  10.919  1.00  0.00     0.029 A 
ATOM     62  C   UNL     1      -9.087   0.542  10.660  1.00  0.00     0.049 A 
ATOM     63  H   UNL     1      -8.721   1.544   8.839  1.00  0.00     0.167 HD
ATOM     64  C   UNL     1      -9.265   2.941  11.248  1.00  0.00     0.074 A 
ATOM     65  C   UNL     1      -9.491   4.028  12.178  1.00  0.00     0.031 C 
ATOM     66  C   UNL     1      -9.309   1.629  11.578  1.00  0.00     0.031 A 
BRANCH  53  67
ATOM     67  C   UNL     1      -8.190  -2.220   6.893  1.00  0.00    -0.014 A 
ATOM     68  C   UNL     1      -9.325  -3.047   6.860  1.00  0.00     0.009 A 
ATOM     69  C   UNL     1      -6.936  -2.776   6.598  1.00  0.00     0.009 A 
ATOM     70  C   UNL     1      -9.206  -4.404   6.556  1.00  0.00     0.001 A 
ATOM     71  C   UNL     1      -6.823  -4.129   6.268  1.00  0.00     0.001 A 
ATOM     72  C   UNL     1      -7.956  -4.943   6.257  1.00  0.00     0.000 A 
ENDBRANCH  53  67
BRANCH  54  73
ATOM     73  C   UNL     1      -8.944   7.346   9.620  1.00  0.00    -0.014 A 
ATOM     74  C   UNL     1      -9.974   8.190   9.174  1.00  0.00     0.009 A 
ATOM     75  C   UNL     1      -7.930   7.882  10.427  1.00  0.00     0.009 A 
ATOM     76  C   UNL     1      -9.973   9.546   9.504  1.00  0.00     0.001 A 
ATOM     77  C   UNL     1      -7.949   9.233  10.782  1.00  0.00     0.001 A 
ATOM     78  C   UNL     1      -8.964  10.065  10.312  1.00  0.00     0.000 A 
ENDBRANCH  54  73
BRANCH  66  79
ATOM     79  C   UNL     1      -9.593   1.277  13.011  1.00  0.00    -0.014 A 
ATOM     80  C   UNL     1      -8.580   0.710  13.801  1.00  0.00     0.009 A 
ATOM     81  C   UNL     1     -10.880   1.418  13.550  1.00  0.00     0.009 A 
ATOM     82  C   UNL     1      -8.853   0.280  15.100  1.00  0.00     0.001 A 
ATOM     83  C   UNL     1     -11.143   1.013  14.861  1.00  0.00     0.001 A 
ATOM     84  C   UNL     1     -10.132   0.437  15.631  1.00  0.00     0.000 A 
ENDBRANCH  66  79
ENDBRANCH  40  41
ENDBRANCH  32  35
ENDBRANCH  30  31
ENDBRANCH  29  30
ENDBRANCH   1  29
TORSDOF 15
