REMARK SMILES O=C(NCCCNC(=O)[C@H]1CC=CC[C@@H]1C(=O)Nc1nn(Cc2ccccc2F)cc1Br)c1ccc(-c2c3nc(c(-c4ccccc4)c4ccc([nH]4)c(-c4ccccc4)c4nc(c(-c5ccccc5)c5ccc2[nH]5)C=C4)C=C3)cc1
REMARK SMILES IDX 6 1 5 2 4 3 3 4 1 5 2 6 33 8 34 9 80 10 35 11 79 12 36 13
REMARK SMILES IDX 37 14 38 15 73 16 39 17 78 18 72 19 74 20 40 21 77 22 71 23
REMARK SMILES IDX 70 24 41 26 63 27 48 28 62 29 49 30 52 31 61 32 75 33 50 34
REMARK SMILES IDX 51 35 60 37 76 38 53 39 42 40 43 41 47 42 44 43 46 44 45 45
REMARK SMILES IDX 64 46 65 47 69 48 66 49 68 50 67 51 54 52 55 53 59 54 56 55
REMARK SMILES IDX 58 56 57 57 7 58 8 59 9 61 10 62 11 63 15 64 12 65 14 66
REMARK SMILES IDX 13 67 16 68 17 69 18 70 19 72 20 73 31 74 21 75 30 76 32 77
REMARK SMILES IDX 22 78 23 79 24 80 28 81 25 82 27 83 29 84 26 85
REMARK H PARENT 3 7 74 25 52 36 7 60 18 71
REMARK Flexibility Score: inf
ROOT
ATOM      1  C   UNL     1       4.102   0.445  -3.456  1.00  0.00     0.117 C 
ENDROOT
BRANCH   1   2
ATOM      2  C   UNL     1       4.742  -0.105  -2.189  1.00  0.00     0.042 C 
BRANCH   2   3
ATOM      3  C   UNL     1       4.634   0.844  -0.994  1.00  0.00     0.118 C 
BRANCH   3   4
ATOM      4  N   UNL     1       3.277   1.208  -0.624  1.00  0.00    -0.352 N 
ATOM      5  O   UNL     1       1.220   1.233   0.194  1.00  0.00    -0.269 OA
ATOM      6  C   UNL     1       2.238   0.566  -0.011  1.00  0.00     0.251 C 
ATOM      7  H   UNL     1       3.053   2.135  -0.872  1.00  0.00     0.163 HD
BRANCH   6   8
ATOM      8  C   UNL     1       2.229  -0.874   0.358  1.00  0.00     0.039 A 
ATOM      9  C   UNL     1       3.356  -1.693   0.447  1.00  0.00     0.014 A 
ATOM     10  C   UNL     1       0.968  -1.433   0.628  1.00  0.00     0.014 A 
ATOM     11  C   UNL     1       3.224  -3.059   0.682  1.00  0.00     0.010 A 
ATOM     12  C   UNL     1       0.833  -2.786   0.908  1.00  0.00     0.010 A 
ATOM     13  C   UNL     1       1.960  -3.607   0.890  1.00  0.00    -0.014 A 
BRANCH  13  14
ATOM     14  C   UNL     1       1.860  -5.031   1.207  1.00  0.00     0.031 A 
ATOM     15  C   UNL     1       2.433  -5.459   2.522  1.00  0.00     0.074 A 
ATOM     16  C   UNL     1       1.104  -5.867   0.467  1.00  0.00     0.049 A 
ATOM     17  N   UNL     1       3.192  -6.476   2.789  1.00  0.00    -0.248 NA
ATOM     18  C   UNL     1       2.142  -4.611   3.691  1.00  0.00     0.031 C 
ATOM     19  C   UNL     1       0.235  -5.514  -0.661  1.00  0.00     0.029 A 
ATOM     20  N   UNL     1       0.828  -7.187   0.672  1.00  0.00    -0.354 N 
ATOM     21  C   UNL     1       3.353  -6.485   4.177  1.00  0.00     0.074 A 
ATOM     22  C   UNL     1       2.765  -5.266   4.669  1.00  0.00     0.031 C 
ATOM     23  C   UNL     1      -0.649  -6.514  -0.865  1.00  0.00     0.029 A 
ATOM     24  C   UNL     1      -0.325  -7.614   0.028  1.00  0.00     0.049 A 
ATOM     25  H   UNL     1       1.391  -7.778   1.222  1.00  0.00     0.167 HD
ATOM     26  C   UNL     1       3.794  -7.573   4.867  1.00  0.00     0.031 A 
ATOM     27  C   UNL     1      -1.027  -8.745   0.277  1.00  0.00     0.031 A 
ATOM     28  C   UNL     1       4.511  -8.501   4.042  1.00  0.00     0.049 A 
ATOM     29  C   UNL     1      -0.161  -9.669   1.039  1.00  0.00     0.074 A 
ATOM     30  C   UNL     1       5.667  -8.451   3.290  1.00  0.00     0.029 A 
ATOM     31  N   UNL     1       3.869  -9.651   3.657  1.00  0.00    -0.354 N 
ATOM     32  N   UNL     1       0.893 -10.250   0.545  1.00  0.00    -0.248 NA
ATOM     33  C   UNL     1      -0.240  -9.649   2.491  1.00  0.00     0.031 C 
ATOM     34  C   UNL     1       5.409  -9.287   2.165  1.00  0.00     0.029 A 
ATOM     35  C   UNL     1       4.125  -9.812   2.322  1.00  0.00     0.049 A 
ATOM     36  H   UNL     1       3.329 -10.243   4.229  1.00  0.00     0.167 HD
ATOM     37  C   UNL     1       1.799 -10.292   1.593  1.00  0.00     0.074 A 
ATOM     38  C   UNL     1       1.008 -10.018   2.789  1.00  0.00     0.031 C 
ATOM     39  C   UNL     1       3.146 -10.268   1.363  1.00  0.00     0.031 A 
BRANCH  26  40
ATOM     40  C   UNL     1       3.257  -7.962   6.224  1.00  0.00    -0.014 A 
ATOM     41  C   UNL     1       3.812  -9.071   6.890  1.00  0.00     0.009 A 
ATOM     42  C   UNL     1       2.041  -7.464   6.733  1.00  0.00     0.009 A 
ATOM     43  C   UNL     1       3.147  -9.690   7.957  1.00  0.00     0.001 A 
ATOM     44  C   UNL     1       1.397  -8.053   7.825  1.00  0.00     0.001 A 
ATOM     45  C   UNL     1       1.936  -9.185   8.418  1.00  0.00     0.000 A 
ENDBRANCH  26  40
BRANCH  27  46
ATOM     46  C   UNL     1      -2.487  -8.941   0.157  1.00  0.00    -0.014 A 
ATOM     47  C   UNL     1      -3.041 -10.226   0.064  1.00  0.00     0.009 A 
ATOM     48  C   UNL     1      -3.365  -7.862   0.375  1.00  0.00     0.009 A 
ATOM     49  C   UNL     1      -4.422 -10.423   0.202  1.00  0.00     0.001 A 
ATOM     50  C   UNL     1      -4.742  -8.057   0.507  1.00  0.00     0.001 A 
ATOM     51  C   UNL     1      -5.270  -9.341   0.432  1.00  0.00     0.000 A 
ENDBRANCH  27  46
BRANCH  39  52
ATOM     52  C   UNL     1       3.621 -10.407  -0.061  1.00  0.00    -0.014 A 
ATOM     53  C   UNL     1       3.291  -9.471  -1.058  1.00  0.00     0.009 A 
ATOM     54  C   UNL     1       4.559 -11.403  -0.367  1.00  0.00     0.009 A 
ATOM     55  C   UNL     1       3.860  -9.548  -2.332  1.00  0.00     0.001 A 
ATOM     56  C   UNL     1       5.143 -11.468  -1.635  1.00  0.00     0.001 A 
ATOM     57  C   UNL     1       4.790 -10.544  -2.618  1.00  0.00     0.000 A 
ENDBRANCH  39  52
ENDBRANCH  13  14
ENDBRANCH   6   8
ENDBRANCH   3   4
ENDBRANCH   2   3
ENDBRANCH   1   2
BRANCH   1  58
ATOM     58  N   UNL     1       4.841   1.568  -4.000  1.00  0.00    -0.356 N 
ATOM     59  C   UNL     1       5.532   1.833  -5.130  1.00  0.00     0.224 C 
ATOM     60  H   UNL     1       4.840   2.337  -3.385  1.00  0.00     0.163 HD
ATOM     61  O   UNL     1       5.825   3.033  -5.237  1.00  0.00    -0.275 OA
BRANCH  59  62
ATOM     62  C   UNL     1       6.010   0.825  -6.203  1.00  0.00     0.095 C 
ATOM     63  C   UNL     1       5.208  -0.469  -6.356  1.00  0.00     0.041 C 
ATOM     64  C   UNL     1       6.012   1.577  -7.566  1.00  0.00     0.095 C 
ATOM     65  C   UNL     1       3.825  -0.205  -6.884  1.00  0.00    -0.030 C 
ATOM     66  C   UNL     1       4.556   1.940  -7.962  1.00  0.00     0.041 C 
ATOM     67  C   UNL     1       3.529   0.900  -7.585  1.00  0.00    -0.030 C 
BRANCH  64  68
ATOM     68  C   UNL     1       6.640   0.780  -8.719  1.00  0.00     0.229 C 
ATOM     69  O   UNL     1       6.055  -0.175  -9.245  1.00  0.00    -0.274 OA
ATOM     70  N   UNL     1       7.798   1.161  -9.316  1.00  0.00    -0.308 N 
ATOM     71  H   UNL     1       7.966   0.742 -10.191  1.00  0.00     0.171 HD
BRANCH  70  72
ATOM     72  C   UNL     1       8.774   2.034  -8.905  1.00  0.00     0.168 A 
ATOM     73  N   UNL     1       8.976   2.417  -7.644  1.00  0.00    -0.153 NA
ATOM     74  C   UNL     1       9.758   2.588  -9.754  1.00  0.00     0.080 A 
ATOM     75  N   UNL     1      10.067   3.216  -7.697  1.00  0.00    -0.265 N 
ATOM     76  C   UNL     1      10.554   3.374  -8.967  1.00  0.00     0.127 A 
ATOM     77  Br  UNL     1       9.905   2.318 -11.600  1.00  0.00    -0.045 Br
BRANCH  75  78
ATOM     78  C   UNL     1      10.736   3.657  -6.474  1.00  0.00     0.182 C 
BRANCH  78  79
ATOM     79  C   UNL     1       9.862   4.475  -5.569  1.00  0.00     0.009 A 
ATOM     80  C   UNL     1       9.928   5.877  -5.553  1.00  0.00     0.008 A 
ATOM     81  C   UNL     1       8.968   3.840  -4.702  1.00  0.00     0.128 A 
ATOM     82  C   UNL     1       9.109   6.613  -4.691  1.00  0.00     0.001 A 
ATOM     83  C   UNL     1       8.141   4.570  -3.855  1.00  0.00     0.039 A 
ATOM     84  F   UNL     1       8.918   2.501  -4.654  1.00  0.00    -0.207 F 
ATOM     85  C   UNL     1       8.208   5.960  -3.849  1.00  0.00     0.003 A 
ENDBRANCH  78  79
ENDBRANCH  75  78
ENDBRANCH  70  72
ENDBRANCH  64  68
ENDBRANCH  59  62
ENDBRANCH   1  58
TORSDOF 14
