REMARK SMILES C[NH2+][C@]1(C(=O)NCCCNC(=O)c2ccc(-c3c4nc(c(-c5ccccc5)c5ccc([nH]5)c(-c5ccccc5)c5nc(c(-c6ccccc6)c6ccc3[nH]6)C=C5)C=C4)cc2)CCC[C@H]1CCOC1C[C@@H](C)C[C@H](C)C1
REMARK SMILES IDX 7 1 6 2 4 3 5 4 3 6 61 7 64 8 62 9 63 10 2 11 1 12 65 15
REMARK SMILES IDX 66 16 67 17 68 18 69 19 75 20 70 21 73 22 71 23 72 24 74 25
REMARK SMILES IDX 8 26 9 27 10 28 11 29 12 31 13 32 14 33 60 34 15 35 59 36
REMARK SMILES IDX 16 37 17 38 18 39 53 40 19 41 58 42 52 43 54 44 20 45 57 46
REMARK SMILES IDX 51 47 50 48 21 50 43 51 28 52 42 53 29 54 32 55 41 56 55 57
REMARK SMILES IDX 30 58 31 59 40 61 56 62 33 63 22 64 23 65 27 66 24 67 26 68
REMARK SMILES IDX 25 69 44 70 45 71 49 72 46 73 48 74 47 75 34 76 35 77 39 78
REMARK SMILES IDX 36 79 38 80 37 81
REMARK H PARENT 6 5 2 13 2 14 10 30 54 49 32 60
REMARK Flexibility Score: inf
ROOT
ATOM      1  C   UNL     1       0.537   0.686  -1.978  1.00  0.00     0.118 C 
ENDROOT
BRANCH   1   2
ATOM      2  N   UNL     1       0.712   1.431  -0.768  1.00  0.00    -0.351 N 
ATOM      3  C   UNL     1      -0.098   1.511   0.301  1.00  0.00     0.281 C 
ATOM      4  O   UNL     1       0.355   2.174   1.249  1.00  0.00    -0.268 OA
ATOM      5  H   UNL     1       1.541   1.959  -0.711  1.00  0.00     0.163 HD
BRANCH   3   6
ATOM      6  C   UNL     1      -1.568   0.963   0.346  1.00  0.00     0.178 C 
ATOM      7  C   UNL     1      -2.409   1.977  -0.471  1.00  0.00     0.079 C 
ATOM      8  C   UNL     1      -2.005  -0.474  -0.207  1.00  0.00     0.063 C 
ATOM      9  C   UNL     1      -3.657   1.232  -0.892  1.00  0.00     0.008 C 
ATOM     10  C   UNL     1      -3.132  -0.146  -1.233  1.00  0.00     0.011 C 
BRANCH   6  11
ATOM     11  N   UNL     1      -1.895   1.034   1.813  1.00  0.00    -0.336 N 
ATOM     12  C   UNL     1      -3.228   1.335   2.284  1.00  0.00     0.331 C 
ATOM     13  H   UNL     1      -1.653   0.123   2.205  1.00  0.00     0.346 HD
ATOM     14  H   UNL     1      -1.371   1.856   2.112  1.00  0.00     0.346 HD
ENDBRANCH   6  11
BRANCH   8  15
ATOM     15  C   UNL     1      -1.182  -1.685  -0.840  1.00  0.00     0.039 C 
BRANCH  15  16
ATOM     16  C   UNL     1       0.055  -2.457  -0.258  1.00  0.00     0.161 C 
BRANCH  16  17
ATOM     17  O   UNL     1      -0.159  -3.782   0.228  1.00  0.00    -0.378 OA
BRANCH  17  18
ATOM     18  C   UNL     1      -0.246  -4.200   1.595  1.00  0.00     0.118 C 
ATOM     19  C   UNL     1       0.368  -3.401   2.746  1.00  0.00     0.035 C 
ATOM     20  C   UNL     1      -1.703  -4.515   1.923  1.00  0.00     0.035 C 
ATOM     21  C   UNL     1      -0.389  -2.140   3.175  1.00  0.00    -0.011 C 
ATOM     22  C   UNL     1      -2.458  -3.201   1.936  1.00  0.00    -0.011 C 
ATOM     23  C   UNL     1       0.277  -0.924   2.541  1.00  0.00     0.008 C 
ATOM     24  C   UNL     1      -1.937  -2.259   3.038  1.00  0.00     0.006 C 
ATOM     25  C   UNL     1      -3.969  -3.396   1.883  1.00  0.00     0.008 C 
ENDBRANCH  17  18
ENDBRANCH  16  17
ENDBRANCH  15  16
ENDBRANCH   8  15
ENDBRANCH   3   6
ENDBRANCH   1   2
BRANCH   1  26
ATOM     26  C   UNL     1       1.486   1.136  -3.058  1.00  0.00     0.042 C 
BRANCH  26  27
ATOM     27  C   UNL     1       2.899   0.693  -2.698  1.00  0.00     0.118 C 
BRANCH  27  28
ATOM     28  N   UNL     1       3.155  -0.700  -3.056  1.00  0.00    -0.352 N 
ATOM     29  C   UNL     1       3.602  -1.248  -4.246  1.00  0.00     0.251 C 
ATOM     30  H   UNL     1       2.984  -1.352  -2.338  1.00  0.00     0.163 HD
ATOM     31  O   UNL     1       3.571  -2.441  -4.436  1.00  0.00    -0.269 OA
BRANCH  29  32
ATOM     32  C   UNL     1       4.066  -0.324  -5.305  1.00  0.00     0.039 A 
ATOM     33  C   UNL     1       3.623  -0.490  -6.617  1.00  0.00     0.014 A 
ATOM     34  C   UNL     1       4.864   0.762  -4.966  1.00  0.00     0.014 A 
ATOM     35  C   UNL     1       3.889   0.510  -7.556  1.00  0.00     0.010 A 
ATOM     36  C   UNL     1       4.956   1.831  -5.838  1.00  0.00     0.010 A 
ATOM     37  C   UNL     1       4.496   1.712  -7.155  1.00  0.00    -0.014 A 
BRANCH  37  38
ATOM     38  C   UNL     1       4.703   2.853  -8.084  1.00  0.00     0.031 A 
ATOM     39  C   UNL     1       6.085   3.438  -8.247  1.00  0.00     0.074 A 
ATOM     40  C   UNL     1       3.650   3.428  -8.699  1.00  0.00     0.049 A 
ATOM     41  N   UNL     1       6.459   4.510  -8.898  1.00  0.00    -0.248 NA
ATOM     42  C   UNL     1       7.185   2.762  -7.535  1.00  0.00     0.031 C 
ATOM     43  C   UNL     1       2.250   3.011  -8.574  1.00  0.00     0.029 A 
ATOM     44  N   UNL     1       3.596   4.498  -9.558  1.00  0.00    -0.354 N 
ATOM     45  C   UNL     1       7.815   4.656  -8.629  1.00  0.00     0.074 A 
ATOM     46  C   UNL     1       8.180   3.619  -7.694  1.00  0.00     0.031 C 
ATOM     47  C   UNL     1       1.487   3.777  -9.370  1.00  0.00     0.029 A 
ATOM     48  C   UNL     1       2.331   4.773 -10.020  1.00  0.00     0.049 A 
ATOM     49  H   UNL     1       4.389   5.020  -9.818  1.00  0.00     0.167 HD
ATOM     50  C   UNL     1       8.694   5.546  -9.144  1.00  0.00     0.031 A 
ATOM     51  C   UNL     1       1.902   5.720 -10.875  1.00  0.00     0.031 A 
ATOM     52  C   UNL     1       8.344   6.537 -10.122  1.00  0.00     0.049 A 
ATOM     53  C   UNL     1       2.902   6.676 -11.465  1.00  0.00     0.074 A 
ATOM     54  C   UNL     1       9.171   7.431 -10.777  1.00  0.00     0.029 A 
ATOM     55  N   UNL     1       7.059   6.753 -10.594  1.00  0.00    -0.354 N 
ATOM     56  N   UNL     1       4.195   6.752 -11.260  1.00  0.00    -0.248 NA
ATOM     57  C   UNL     1       2.383   7.670 -12.415  1.00  0.00     0.031 C 
ATOM     58  C   UNL     1       8.377   8.221 -11.614  1.00  0.00     0.029 A 
ATOM     59  C   UNL     1       7.066   7.778 -11.521  1.00  0.00     0.049 A 
ATOM     60  H   UNL     1       6.261   6.250 -10.312  1.00  0.00     0.167 HD
ATOM     61  C   UNL     1       4.649   7.777 -12.079  1.00  0.00     0.074 A 
ATOM     62  C   UNL     1       3.495   8.283 -12.795  1.00  0.00     0.031 C 
ATOM     63  C   UNL     1       5.907   8.258 -12.228  1.00  0.00     0.031 A 
BRANCH  50  64
ATOM     64  C   UNL     1      10.118   5.469  -8.665  1.00  0.00    -0.014 A 
ATOM     65  C   UNL     1      10.935   4.367  -8.972  1.00  0.00     0.009 A 
ATOM     66  C   UNL     1      10.655   6.516  -7.900  1.00  0.00     0.009 A 
ATOM     67  C   UNL     1      12.239   4.292  -8.480  1.00  0.00     0.001 A 
ATOM     68  C   UNL     1      11.972   6.455  -7.441  1.00  0.00     0.001 A 
ATOM     69  C   UNL     1      12.758   5.338  -7.719  1.00  0.00     0.000 A 
ENDBRANCH  50  64
BRANCH  51  70
ATOM     70  C   UNL     1       0.466   5.792 -11.257  1.00  0.00    -0.014 A 
ATOM     71  C   UNL     1       0.060   5.444 -12.556  1.00  0.00     0.009 A 
ATOM     72  C   UNL     1      -0.505   6.216 -10.337  1.00  0.00     0.009 A 
ATOM     73  C   UNL     1      -1.280   5.552 -12.934  1.00  0.00     0.001 A 
ATOM     74  C   UNL     1      -1.849   6.293 -10.709  1.00  0.00     0.001 A 
ATOM     75  C   UNL     1      -2.234   5.972 -12.009  1.00  0.00     0.000 A 
ENDBRANCH  51  70
BRANCH  63  76
ATOM     76  C   UNL     1       6.111   9.354 -13.234  1.00  0.00    -0.014 A 
ATOM     77  C   UNL     1       5.654  10.659 -12.996  1.00  0.00     0.009 A 
ATOM     78  C   UNL     1       6.819   9.083 -14.415  1.00  0.00     0.009 A 
ATOM     79  C   UNL     1       5.875  11.664 -13.939  1.00  0.00     0.001 A 
ATOM     80  C   UNL     1       7.066  10.097 -15.341  1.00  0.00     0.001 A 
ATOM     81  C   UNL     1       6.585  11.384 -15.106  1.00  0.00     0.000 A 
ENDBRANCH  63  76
ENDBRANCH  37  38
ENDBRANCH  29  32
ENDBRANCH  27  28
ENDBRANCH  26  27
ENDBRANCH   1  26
TORSDOF 15
