REMARK SMILES CC1=C(CC(=O)NCCCNC(=O)c2ccc(-c3c4nc(c(-c5ccccc5)c5ccc([nH]5)c(-c5ccccc5)c5nc(c(-c6ccccc6)c6ccc3[nH]6)C=C5)C=C4)cc2)c2cc(F)ccc2/C1=C\c1ccc([S@@+](C)[O-])cc1
REMARK SMILES IDX 8 1 7 2 5 3 6 4 4 6 3 7 1 8 2 9 69 10 62 11 68 12 70 13
REMARK SMILES IDX 63 14 67 15 64 16 66 17 65 18 71 19 72 20 79 21 73 22 78 23
REMARK SMILES IDX 74 24 75 25 76 26 77 27 9 28 10 29 11 30 12 31 13 33 14 34
REMARK SMILES IDX 15 35 61 36 16 37 60 38 17 39 18 40 19 41 54 42 20 43 59 44
REMARK SMILES IDX 53 45 55 46 21 47 58 48 52 49 51 50 22 52 44 53 29 54 43 55
REMARK SMILES IDX 30 56 33 57 42 58 56 59 31 60 32 61 41 63 57 64 34 65 23 66
REMARK SMILES IDX 24 67 28 68 25 69 27 70 26 71 45 72 46 73 50 74 47 75 49 76
REMARK SMILES IDX 48 77 35 78 36 79 40 80 37 81 39 82 38 83
REMARK H PARENT 7 5 11 32 55 51 33 62
REMARK Flexibility Score: inf
ROOT
ATOM      1  C   UNL     1       1.383  -0.330   3.467  1.00  0.00     0.117 C 
ENDROOT
BRANCH   1   2
ATOM      2  N   UNL     1       0.196   0.138   4.153  1.00  0.00    -0.356 N 
ATOM      3  C   UNL     1      -0.968   0.619   3.631  1.00  0.00     0.224 C 
ATOM      4  O   UNL     1      -1.838   1.003   4.414  1.00  0.00    -0.275 OA
ATOM      5  H   UNL     1       0.235   0.104   5.136  1.00  0.00     0.163 HD
BRANCH   3   6
ATOM      6  C   UNL     1      -1.189   0.643   2.120  1.00  0.00     0.136 C 
BRANCH   6   7
ATOM      7  C   UNL     1      -0.388   1.688   1.412  1.00  0.00    -0.027 C 
ATOM      8  C   UNL     1       0.973   0.289  -0.247  1.00  0.00     0.045 C 
ATOM      9  C   UNL     1       0.529   1.547   0.424  1.00  0.00    -0.039 C 
ATOM     10  C   UNL     1       1.067   2.869   0.054  1.00  0.00    -0.014 C 
ATOM     11  C   UNL     1      -0.544   3.130   1.677  1.00  0.00    -0.011 A 
ATOM     12  C   UNL     1       0.296   3.867   0.822  1.00  0.00    -0.010 A 
ATOM     13  C   UNL     1       2.107   3.062  -0.781  1.00  0.00     0.017 C 
ATOM     14  C   UNL     1      -1.381   3.780   2.576  1.00  0.00     0.048 A 
ATOM     15  C   UNL     1       0.252   5.256   0.816  1.00  0.00     0.012 A 
ATOM     16  C   UNL     1      -1.372   5.171   2.602  1.00  0.00     0.123 A 
ATOM     17  C   UNL     1      -0.576   5.911   1.728  1.00  0.00     0.040 A 
ATOM     18  F   UNL     1      -2.156   5.819   3.474  1.00  0.00    -0.207 F 
BRANCH  13  19
ATOM     19  C   UNL     1       2.691   4.363  -1.119  1.00  0.00    -0.025 A 
ATOM     20  C   UNL     1       3.400   5.103  -0.166  1.00  0.00     0.013 A 
ATOM     21  C   UNL     1       2.432   4.923  -2.371  1.00  0.00     0.013 A 
ATOM     22  C   UNL     1       3.727   6.441  -0.414  1.00  0.00     0.061 A 
ATOM     23  C   UNL     1       2.780   6.252  -2.627  1.00  0.00     0.061 A 
ATOM     24  C   UNL     1       3.391   7.034  -1.637  1.00  0.00     0.152 A 
BRANCH  24  25
ATOM     25  S   UNL     1       3.543   8.821  -1.890  1.00  0.00    -0.018 S 
ATOM     26  C   UNL     1       5.251   9.072  -1.375  1.00  0.00     0.346 C 
ATOM     27  O   UNL     1       3.462   9.070  -3.439  1.00  0.00    -0.612 OA
ENDBRANCH  24  25
ENDBRANCH  13  19
ENDBRANCH   6   7
ENDBRANCH   3   6
ENDBRANCH   1   2
BRANCH   1  28
ATOM     28  C   UNL     1       2.468   0.740   3.398  1.00  0.00     0.042 C 
BRANCH  28  29
ATOM     29  C   UNL     1       3.062   1.107   4.753  1.00  0.00     0.118 C 
BRANCH  29  30
ATOM     30  N   UNL     1       3.825   0.020   5.354  1.00  0.00    -0.352 N 
ATOM     31  C   UNL     1       5.138  -0.028   5.754  1.00  0.00     0.251 C 
ATOM     32  H   UNL     1       3.318  -0.812   5.496  1.00  0.00     0.163 HD
ATOM     33  O   UNL     1       5.631  -1.101   6.093  1.00  0.00    -0.269 OA
BRANCH  31  34
ATOM     34  C   UNL     1       5.973   1.193   5.743  1.00  0.00     0.039 A 
ATOM     35  C   UNL     1       5.473   2.413   6.200  1.00  0.00     0.014 A 
ATOM     36  C   UNL     1       7.284   1.112   5.263  1.00  0.00     0.014 A 
ATOM     37  C   UNL     1       6.211   3.577   6.009  1.00  0.00     0.010 A 
ATOM     38  C   UNL     1       8.057   2.271   5.152  1.00  0.00     0.010 A 
ATOM     39  C   UNL     1       7.506   3.521   5.470  1.00  0.00    -0.014 A 
BRANCH  39  40
ATOM     40  C   UNL     1       8.253   4.781   5.223  1.00  0.00     0.031 A 
ATOM     41  C   UNL     1       8.594   5.205   3.819  1.00  0.00     0.074 A 
ATOM     42  C   UNL     1       8.574   5.578   6.261  1.00  0.00     0.049 A 
ATOM     43  N   UNL     1       9.207   6.289   3.412  1.00  0.00    -0.248 NA
ATOM     44  C   UNL     1       8.195   4.300   2.727  1.00  0.00     0.031 C 
ATOM     45  C   UNL     1       8.274   5.292   7.665  1.00  0.00     0.029 A 
ATOM     46  N   UNL     1       9.195   6.801   6.296  1.00  0.00    -0.354 N 
ATOM     47  C   UNL     1       9.286   6.185   2.029  1.00  0.00     0.074 A 
ATOM     48  C   UNL     1       8.682   4.924   1.663  1.00  0.00     0.031 C 
ATOM     49  C   UNL     1       8.657   6.335   8.416  1.00  0.00     0.029 A 
ATOM     50  C   UNL     1       9.290   7.333   7.559  1.00  0.00     0.049 A 
ATOM     51  H   UNL     1       9.540   7.255   5.492  1.00  0.00     0.167 HD
ATOM     52  C   UNL     1       9.805   7.068   1.143  1.00  0.00     0.031 A 
ATOM     53  C   UNL     1       9.832   8.489   7.987  1.00  0.00     0.031 A 
ATOM     54  C   UNL     1      10.397   8.328   1.508  1.00  0.00     0.049 A 
ATOM     55  C   UNL     1      10.452   9.425   6.990  1.00  0.00     0.074 A 
ATOM     56  C   UNL     1      10.929   9.297   0.674  1.00  0.00     0.029 A 
ATOM     57  N   UNL     1      10.539   8.792   2.806  1.00  0.00    -0.354 N 
ATOM     58  N   UNL     1      10.504   9.318   5.684  1.00  0.00    -0.248 NA
ATOM     59  C   UNL     1      11.091  10.637   7.521  1.00  0.00     0.031 C 
ATOM     60  C   UNL     1      11.446  10.321   1.471  1.00  0.00     0.029 A 
ATOM     61  C   UNL     1      11.174  10.022   2.797  1.00  0.00     0.049 A 
ATOM     62  H   UNL     1      10.234   8.318   3.613  1.00  0.00     0.167 HD
ATOM     63  C   UNL     1      11.166  10.453   5.237  1.00  0.00     0.074 A 
ATOM     64  C   UNL     1      11.481  11.245   6.408  1.00  0.00     0.031 C 
ATOM     65  C   UNL     1      11.485  10.802   3.967  1.00  0.00     0.031 A 
BRANCH  52  66
ATOM     66  C   UNL     1       9.772   6.709  -0.317  1.00  0.00    -0.014 A 
ATOM     67  C   UNL     1      10.973   6.444  -0.996  1.00  0.00     0.009 A 
ATOM     68  C   UNL     1       8.572   6.726  -1.043  1.00  0.00     0.009 A 
ATOM     69  C   UNL     1      10.975   6.222  -2.374  1.00  0.00     0.001 A 
ATOM     70  C   UNL     1       8.573   6.478  -2.418  1.00  0.00     0.001 A 
ATOM     71  C   UNL     1       9.775   6.237  -3.083  1.00  0.00     0.000 A 
ENDBRANCH  52  66
BRANCH  53  72
ATOM     72  C   UNL     1       9.797   8.818   9.437  1.00  0.00    -0.014 A 
ATOM     73  C   UNL     1      10.546   8.067  10.358  1.00  0.00     0.009 A 
ATOM     74  C   UNL     1       8.975   9.849   9.914  1.00  0.00     0.009 A 
ATOM     75  C   UNL     1      10.449   8.320  11.727  1.00  0.00     0.001 A 
ATOM     76  C   UNL     1       8.904  10.121  11.283  1.00  0.00     0.001 A 
ATOM     77  C   UNL     1       9.632   9.350  12.188  1.00  0.00     0.000 A 
ENDBRANCH  53  72
BRANCH  65  78
ATOM     78  C   UNL     1      12.200  12.107   3.754  1.00  0.00    -0.014 A 
ATOM     79  C   UNL     1      11.535  13.169   3.120  1.00  0.00     0.009 A 
ATOM     80  C   UNL     1      13.558  12.248   4.075  1.00  0.00     0.009 A 
ATOM     81  C   UNL     1      12.220  14.340   2.793  1.00  0.00     0.001 A 
ATOM     82  C   UNL     1      14.234  13.432   3.773  1.00  0.00     0.001 A 
ATOM     83  C   UNL     1      13.568  14.471   3.123  1.00  0.00     0.000 A 
ENDBRANCH  65  78
ENDBRANCH  39  40
ENDBRANCH  31  34
ENDBRANCH  29  30
ENDBRANCH  28  29
ENDBRANCH   1  28
TORSDOF 13
