REMARK SMILES CCc1cc2c(=O)c(-c3nc(C)cs3)coc2cc1O[C@H](C)C(=O)NCCCNC(=O)c1ccc(-c2c3nc(c(-c4ccccc4)c4ccc([nH]4)c(-c4ccccc4)c4nc(c(-c5ccccc5)c5ccc2[nH]5)C=C4)C=C3)cc1
REMARK SMILES IDX 26 1 25 2 23 3 24 4 21 6 22 7 20 8 19 9 3 10 4 11 5 12 18 13
REMARK SMILES IDX 6 14 17 15 7 16 8 17 16 18 15 19 2 20 1 21 9 22 10 23 14 24
REMARK SMILES IDX 11 25 13 26 12 27 27 28 28 29 29 30 30 31 31 33 32 34 33 35
REMARK SMILES IDX 79 36 34 37 78 38 35 39 36 40 37 41 72 42 38 43 77 44 71 45
REMARK SMILES IDX 73 46 39 47 76 48 70 49 69 50 40 52 62 53 47 54 61 55 48 56
REMARK SMILES IDX 51 57 60 58 74 59 49 60 50 61 59 63 75 64 52 65 41 66 42 67
REMARK SMILES IDX 46 68 43 69 45 70 44 71 63 72 64 73 68 74 65 75 67 76 66 77
REMARK SMILES IDX 53 78 54 79 58 80 55 81 57 82 56 83
REMARK H PARENT 25 5 29 32 73 51 51 62
REMARK Flexibility Score: inf
ROOT
ATOM      1  C   UNL     1       0.246  -2.092  -0.233  1.00  0.00     0.118 C 
ENDROOT
BRANCH   1   2
ATOM      2  N   UNL     1      -0.284  -0.852   0.291  1.00  0.00    -0.353 N 
ATOM      3  C   UNL     1       0.376   0.230   0.788  1.00  0.00     0.260 C 
ATOM      4  O   UNL     1      -0.313   1.182   1.170  1.00  0.00    -0.271 OA
ATOM      5  H   UNL     1      -1.266  -0.780   0.287  1.00  0.00     0.163 HD
BRANCH   3   6
ATOM      6  C   UNL     1       1.908   0.264   0.926  1.00  0.00     0.258 C 
ATOM      7  C   UNL     1       2.372  -0.664   2.045  1.00  0.00     0.064 C 
BRANCH   6   8
ATOM      8  O   UNL     1       2.564  -0.067  -0.302  1.00  0.00    -0.480 OA
BRANCH   8   9
ATOM      9  C   UNL     1       3.683   0.620  -0.695  1.00  0.00     0.127 A 
ATOM     10  C   UNL     1       4.201   0.356  -1.983  1.00  0.00    -0.005 A 
ATOM     11  C   UNL     1       5.318   1.101  -2.427  1.00  0.00     0.023 A 
ATOM     12  C   UNL     1       5.918   2.064  -1.619  1.00  0.00     0.066 A 
ATOM     13  C   UNL     1       4.332   1.564   0.120  1.00  0.00     0.094 A 
ATOM     14  C   UNL     1       7.075   2.836  -2.099  1.00  0.00     0.202 A 
ATOM     15  C   UNL     1       5.431   2.287  -0.343  1.00  0.00     0.141 A 
ATOM     16  O   UNL     1       7.531   2.639  -3.222  1.00  0.00    -0.288 OA
ATOM     17  C   UNL     1       7.643   3.815  -1.145  1.00  0.00     0.094 A 
ATOM     18  O   UNL     1       5.985   3.204   0.514  1.00  0.00    -0.463 OA
ATOM     19  C   UNL     1       7.077   3.909   0.067  1.00  0.00     0.211 A 
BRANCH  10  20
ATOM     20  C   UNL     1       3.699  -0.651  -3.000  1.00  0.00     0.036 C 
ATOM     21  C   UNL     1       2.580  -1.607  -2.648  1.00  0.00     0.009 C 
ENDBRANCH  10  20
BRANCH  17  22
ATOM     22  C   UNL     1       8.800   4.581  -1.443  1.00  0.00     0.130 A 
ATOM     23  N   UNL     1       9.861   4.697  -0.661  1.00  0.00    -0.241 NA
ATOM     24  S   UNL     1       8.886   5.541  -2.883  1.00  0.00    -0.122 S 
ATOM     25  C   UNL     1      10.829   5.490  -1.250  1.00  0.00     0.049 A 
ATOM     26  C   UNL     1      10.463   6.045  -2.458  1.00  0.00     0.090 A 
ATOM     27  C   UNL     1      12.126   5.653  -0.548  1.00  0.00     0.067 C 
ENDBRANCH  17  22
ENDBRANCH   8   9
ENDBRANCH   6   8
ENDBRANCH   3   6
ENDBRANCH   1   2
BRANCH   1  28
ATOM     28  C   UNL     1      -0.231  -3.307   0.544  1.00  0.00     0.042 C 
BRANCH  28  29
ATOM     29  C   UNL     1      -1.734  -3.534   0.480  1.00  0.00     0.118 C 
BRANCH  29  30
ATOM     30  N   UNL     1      -2.212  -3.795  -0.869  1.00  0.00    -0.352 N 
ATOM     31  C   UNL     1      -2.965  -4.833  -1.353  1.00  0.00     0.251 C 
ATOM     32  H   UNL     1      -1.954  -3.121  -1.538  1.00  0.00     0.163 HD
ATOM     33  O   UNL     1      -3.130  -4.943  -2.567  1.00  0.00    -0.269 OA
BRANCH  31  34
ATOM     34  C   UNL     1      -3.570  -5.827  -0.440  1.00  0.00     0.039 A 
ATOM     35  C   UNL     1      -3.622  -7.164  -0.847  1.00  0.00     0.014 A 
ATOM     36  C   UNL     1      -4.130  -5.451   0.784  1.00  0.00     0.014 A 
ATOM     37  C   UNL     1      -4.205  -8.123  -0.016  1.00  0.00     0.010 A 
ATOM     38  C   UNL     1      -4.631  -6.419   1.649  1.00  0.00     0.010 A 
ATOM     39  C   UNL     1      -4.701  -7.760   1.245  1.00  0.00    -0.014 A 
BRANCH  39  40
ATOM     40  C   UNL     1      -5.362  -8.755   2.124  1.00  0.00     0.031 A 
ATOM     41  C   UNL     1      -6.827  -8.616   2.442  1.00  0.00     0.074 A 
ATOM     42  C   UNL     1      -4.645  -9.757   2.667  1.00  0.00     0.049 A 
ATOM     43  N   UNL     1      -7.579  -9.360   3.213  1.00  0.00    -0.248 NA
ATOM     44  C   UNL     1      -7.533  -7.474   1.837  1.00  0.00     0.031 C 
ATOM     45  C   UNL     1      -3.211  -9.979   2.473  1.00  0.00     0.029 A 
ATOM     46  N   UNL     1      -5.032 -10.780   3.494  1.00  0.00    -0.354 N 
ATOM     47  C   UNL     1      -8.832  -8.760   3.207  1.00  0.00     0.074 A 
ATOM     48  C   UNL     1      -8.729  -7.567   2.396  1.00  0.00     0.031 C 
ATOM     49  C   UNL     1      -2.846 -11.088   3.137  1.00  0.00     0.029 A 
ATOM     50  C   UNL     1      -4.011 -11.639   3.821  1.00  0.00     0.049 A 
ATOM     51  H   UNL     1      -5.954 -10.888   3.823  1.00  0.00     0.167 HD
ATOM     52  C   UNL     1      -9.976  -9.174   3.802  1.00  0.00     0.031 A 
ATOM     53  C   UNL     1      -4.019 -12.751   4.579  1.00  0.00     0.031 A 
ATOM     54  C   UNL     1     -10.092 -10.377   4.579  1.00  0.00     0.049 A 
ATOM     55  C   UNL     1      -5.309 -13.215   5.192  1.00  0.00     0.074 A 
ATOM     56  C   UNL     1     -11.218 -10.911   5.181  1.00  0.00     0.029 A 
ATOM     57  N   UNL     1      -9.043 -11.240   4.850  1.00  0.00    -0.354 N 
ATOM     58  N   UNL     1      -6.498 -12.666   5.132  1.00  0.00    -0.248 NA
ATOM     59  C   UNL     1      -5.261 -14.467   5.961  1.00  0.00     0.031 C 
ATOM     60  C   UNL     1     -10.843 -12.088   5.839  1.00  0.00     0.029 A 
ATOM     61  C   UNL     1      -9.493 -12.303   5.612  1.00  0.00     0.049 A 
ATOM     62  H   UNL     1      -8.115 -11.115   4.545  1.00  0.00     0.167 HD
ATOM     63  C   UNL     1      -7.345 -13.521   5.824  1.00  0.00     0.074 A 
ATOM     64  C   UNL     1      -6.535 -14.630   6.288  1.00  0.00     0.031 C 
ATOM     65  C   UNL     1      -8.675 -13.402   6.053  1.00  0.00     0.031 A 
BRANCH  52  66
ATOM     66  C   UNL     1     -11.193  -8.310   3.627  1.00  0.00    -0.014 A 
ATOM     67  C   UNL     1     -11.855  -8.230   2.390  1.00  0.00     0.009 A 
ATOM     68  C   UNL     1     -11.691  -7.575   4.713  1.00  0.00     0.009 A 
ATOM     69  C   UNL     1     -12.967  -7.401   2.236  1.00  0.00     0.001 A 
ATOM     70  C   UNL     1     -12.820  -6.768   4.563  1.00  0.00     0.001 A 
ATOM     71  C   UNL     1     -13.450  -6.673   3.323  1.00  0.00     0.000 A 
ENDBRANCH  52  66
BRANCH  53  72
ATOM     72  C   UNL     1      -2.770 -13.533   4.760  1.00  0.00    -0.014 A 
ATOM     73  C   UNL     1      -2.601 -14.759   4.099  1.00  0.00     0.009 A 
ATOM     74  C   UNL     1      -1.745 -13.062   5.594  1.00  0.00     0.009 A 
ATOM     75  C   UNL     1      -1.440 -15.511   4.290  1.00  0.00     0.001 A 
ATOM     76  C   UNL     1      -0.575 -13.806   5.764  1.00  0.00     0.001 A 
ATOM     77  C   UNL     1      -0.428 -15.033   5.120  1.00  0.00     0.000 A 
ENDBRANCH  53  72
BRANCH  65  78
ATOM     78  C   UNL     1      -9.345 -14.521   6.795  1.00  0.00    -0.014 A 
ATOM     79  C   UNL     1      -9.174 -14.685   8.177  1.00  0.00     0.009 A 
ATOM     80  C   UNL     1     -10.187 -15.404   6.100  1.00  0.00     0.009 A 
ATOM     81  C   UNL     1      -9.808 -15.734   8.845  1.00  0.00     0.001 A 
ATOM     82  C   UNL     1     -10.838 -16.437   6.775  1.00  0.00     0.001 A 
ATOM     83  C   UNL     1     -10.641 -16.607   8.144  1.00  0.00     0.000 A 
ENDBRANCH  65  78
ENDBRANCH  39  40
ENDBRANCH  31  34
ENDBRANCH  29  30
ENDBRANCH  28  29
ENDBRANCH   1  28
TORSDOF 14
