REMARK SMILES Cc1cc(F)cc(N[C@@](C)(C(=O)NCCCNC(=O)c2ccc(-c3c4nc(c(-c5ccccc5)c5ccc([nH]5)c(-c5ccccc5)c5nc(c(-c6ccccc6)c6ccc3[nH]6)C=C5)C=C4)cc2)c2ccc(O)cc2)c1
REMARK SMILES IDX 15 1 14 2 13 3 11 4 12 5 9 7 10 8 8 9 7 11 1 12 2 13 3 14
REMARK SMILES IDX 75 15 4 16 5 17 6 18 68 19 69 20 74 21 70 22 73 23 71 24
REMARK SMILES IDX 72 25 16 27 17 28 18 29 19 31 20 32 21 33 67 34 22 35 66 36
REMARK SMILES IDX 23 37 24 38 25 39 60 40 26 41 65 42 59 43 61 44 27 45 64 46
REMARK SMILES IDX 58 47 57 48 28 50 50 51 35 52 49 53 36 54 39 55 48 56 62 57
REMARK SMILES IDX 37 58 38 59 47 61 63 62 40 63 29 64 30 65 34 66 31 67 33 68
REMARK SMILES IDX 32 69 51 70 52 71 56 72 53 73 55 74 54 75 41 76 42 77 46 78
REMARK SMILES IDX 43 79 45 80 44 81
REMARK H PARENT 13 6 8 10 72 26 17 30 61 49 39 60
REMARK Flexibility Score: inf
ROOT
ATOM      1  C   UNL     1       2.635  -5.745   1.065  1.00  0.00     0.042 C 
ENDROOT
BRANCH   1   2
ATOM      2  C   UNL     1       1.318  -6.011   0.352  1.00  0.00     0.117 C 
BRANCH   2   3
ATOM      3  N   UNL     1       0.172  -5.735   1.197  1.00  0.00    -0.354 N 
ATOM      4  C   UNL     1      -0.838  -4.813   1.132  1.00  0.00     0.250 C 
ATOM      5  O   UNL     1      -1.515  -4.751   2.167  1.00  0.00    -0.272 OA
ATOM      6  H   UNL     1       0.107  -6.333   1.976  1.00  0.00     0.163 HD
BRANCH   4   7
ATOM      7  C   UNL     1      -1.083  -3.890  -0.138  1.00  0.00     0.139 C 
ATOM      8  C   UNL     1      -1.126  -4.736  -1.435  1.00  0.00     0.051 C 
BRANCH   7   9
ATOM      9  N   UNL     1       0.080  -2.954  -0.217  1.00  0.00    -0.368 N 
ATOM     10  H   UNL     1       0.847  -3.308  -0.723  1.00  0.00     0.161 HD
BRANCH   9  11
ATOM     11  C   UNL     1       0.275  -1.681   0.293  1.00  0.00     0.038 A 
ATOM     12  C   UNL     1       2.873   1.097  -0.254  1.00  0.00     0.044 C 
ATOM     13  C   UNL     1       1.618   0.387   0.155  1.00  0.00    -0.046 A 
ATOM     14  C   UNL     1       0.571   1.103   0.730  1.00  0.00     0.042 A 
ATOM     15  C   UNL     1       1.444  -0.989  -0.087  1.00  0.00     0.029 A 
ATOM     16  C   UNL     1      -0.547   0.421   1.181  1.00  0.00     0.125 A 
ATOM     17  F   UNL     1      -1.552   1.110   1.741  1.00  0.00    -0.207 F 
ATOM     18  C   UNL     1      -0.665  -0.960   1.028  1.00  0.00     0.065 A 
ENDBRANCH   9  11
ENDBRANCH   7   9
BRANCH   7  19
ATOM     19  C   UNL     1      -2.474  -3.192  -0.160  1.00  0.00    -0.013 A 
ATOM     20  C   UNL     1      -2.690  -2.025  -0.924  1.00  0.00     0.010 A 
ATOM     21  C   UNL     1      -3.587  -3.720   0.522  1.00  0.00     0.010 A 
ATOM     22  C   UNL     1      -3.888  -1.312  -0.836  1.00  0.00     0.046 A 
ATOM     23  C   UNL     1      -4.797  -3.024   0.593  1.00  0.00     0.046 A 
ATOM     24  C   UNL     1      -4.920  -1.802  -0.052  1.00  0.00     0.115 A 
BRANCH  24  25
ATOM     25  O   UNL     1      -6.050  -1.051   0.068  1.00  0.00    -0.508 OA
ATOM     26  H   UNL     1      -6.115  -0.228  -0.376  1.00  0.00     0.293 HD
ENDBRANCH  24  25
ENDBRANCH   7  19
ENDBRANCH   4   7
ENDBRANCH   2   3
ENDBRANCH   1   2
BRANCH   1  27
ATOM     27  C   UNL     1       2.896  -6.651   2.260  1.00  0.00     0.118 C 
BRANCH  27  28
ATOM     28  N   UNL     1       3.026  -8.054   1.890  1.00  0.00    -0.352 N 
ATOM     29  C   UNL     1       4.103  -8.904   1.980  1.00  0.00     0.251 C 
ATOM     30  H   UNL     1       2.212  -8.459   1.514  1.00  0.00     0.163 HD
ATOM     31  O   UNL     1       4.053 -10.004   1.442  1.00  0.00    -0.269 OA
BRANCH  29  32
ATOM     32  C   UNL     1       5.328  -8.492   2.701  1.00  0.00     0.039 A 
ATOM     33  C   UNL     1       6.574  -8.839   2.169  1.00  0.00     0.014 A 
ATOM     34  C   UNL     1       5.258  -7.785   3.902  1.00  0.00     0.014 A 
ATOM     35  C   UNL     1       7.742  -8.415   2.806  1.00  0.00     0.010 A 
ATOM     36  C   UNL     1       6.417  -7.274   4.476  1.00  0.00     0.010 A 
ATOM     37  C   UNL     1       7.673  -7.595   3.943  1.00  0.00    -0.014 A 
BRANCH  37  38
ATOM     38  C   UNL     1       8.899  -7.075   4.598  1.00  0.00     0.031 A 
ATOM     39  C   UNL     1       9.209  -7.436   6.025  1.00  0.00     0.074 A 
ATOM     40  C   UNL     1       9.699  -6.218   3.935  1.00  0.00     0.049 A 
ATOM     41  N   UNL     1      10.201  -7.039   6.782  1.00  0.00    -0.248 NA
ATOM     42  C   UNL     1       8.260  -8.335   6.702  1.00  0.00     0.031 C 
ATOM     43  C   UNL     1       9.483  -5.744   2.566  1.00  0.00     0.029 A 
ATOM     44  N   UNL     1      10.851  -5.585   4.329  1.00  0.00    -0.354 N 
ATOM     45  C   UNL     1       9.982  -7.621   8.025  1.00  0.00     0.074 A 
ATOM     46  C   UNL     1       8.733  -8.343   7.938  1.00  0.00     0.031 C 
ATOM     47  C   UNL     1      10.486  -4.919   2.225  1.00  0.00     0.029 A 
ATOM     48  C   UNL     1      11.388  -4.771   3.362  1.00  0.00     0.049 A 
ATOM     49  H   UNL     1      11.254  -5.704   5.219  1.00  0.00     0.167 HD
ATOM     50  C   UNL     1      10.759  -7.578   9.134  1.00  0.00     0.031 A 
ATOM     51  C   UNL     1      12.480  -3.985   3.388  1.00  0.00     0.031 A 
ATOM     52  C   UNL     1      12.001  -6.856   9.220  1.00  0.00     0.049 A 
ATOM     53  C   UNL     1      13.328  -3.943   4.627  1.00  0.00     0.074 A 
ATOM     54  C   UNL     1      12.895  -6.800  10.274  1.00  0.00     0.029 A 
ATOM     55  N   UNL     1      12.519  -6.054   8.213  1.00  0.00    -0.354 N 
ATOM     56  N   UNL     1      13.153  -4.566   5.768  1.00  0.00    -0.248 NA
ATOM     57  C   UNL     1      14.532  -3.104   4.576  1.00  0.00     0.031 C 
ATOM     58  C   UNL     1      13.921  -5.912   9.929  1.00  0.00     0.029 A 
ATOM     59  C   UNL     1      13.703  -5.472   8.633  1.00  0.00     0.049 A 
ATOM     60  H   UNL     1      12.105  -5.919   7.330  1.00  0.00     0.167 HD
ATOM     61  C   UNL     1      14.236  -4.213   6.563  1.00  0.00     0.074 A 
ATOM     62  C   UNL     1      15.070  -3.336   5.766  1.00  0.00     0.031 C 
ATOM     63  C   UNL     1      14.517  -4.588   7.836  1.00  0.00     0.031 A 
BRANCH  50  64
ATOM     64  C   UNL     1      10.262  -8.318  10.348  1.00  0.00    -0.014 A 
ATOM     65  C   UNL     1      10.157  -9.719  10.361  1.00  0.00     0.009 A 
ATOM     66  C   UNL     1       9.884  -7.602  11.494  1.00  0.00     0.009 A 
ATOM     67  C   UNL     1       9.627 -10.381  11.471  1.00  0.00     0.001 A 
ATOM     68  C   UNL     1       9.390  -8.269  12.617  1.00  0.00     0.001 A 
ATOM     69  C   UNL     1       9.245  -9.655  12.598  1.00  0.00     0.000 A 
ENDBRANCH  50  64
BRANCH  51  70
ATOM     70  C   UNL     1      12.837  -3.190   2.184  1.00  0.00    -0.014 A 
ATOM     71  C   UNL     1      13.939  -3.548   1.392  1.00  0.00     0.009 A 
ATOM     72  C   UNL     1      12.053  -2.091   1.798  1.00  0.00     0.009 A 
ATOM     73  C   UNL     1      14.255  -2.813   0.247  1.00  0.00     0.001 A 
ATOM     74  C   UNL     1      12.354  -1.377   0.637  1.00  0.00     0.001 A 
ATOM     75  C   UNL     1      13.458  -1.734  -0.134  1.00  0.00     0.000 A 
ENDBRANCH  51  70
BRANCH  63  76
ATOM     76  C   UNL     1      15.795  -4.073   8.439  1.00  0.00    -0.014 A 
ATOM     77  C   UNL     1      15.951  -2.722   8.787  1.00  0.00     0.009 A 
ATOM     78  C   UNL     1      16.847  -4.966   8.699  1.00  0.00     0.009 A 
ATOM     79  C   UNL     1      17.147  -2.271   9.350  1.00  0.00     0.001 A 
ATOM     80  C   UNL     1      18.029  -4.519   9.291  1.00  0.00     0.001 A 
ATOM     81  C   UNL     1      18.182  -3.170   9.606  1.00  0.00     0.000 A 
ENDBRANCH  63  76
ENDBRANCH  37  38
ENDBRANCH  29  32
ENDBRANCH  27  28
ENDBRANCH   1  27
TORSDOF 14
