REMARK SMILES O=C(CC[P@TB4](=O)(O)C[NH+]1CCCCC1)NCCCNC(=O)c1ccc(-c2c3nc(c(-c4ccccc4)c4ccc([nH]4)c(-c4ccccc4)c4nc(c(-c5ccccc5)c5ccc2[nH]5)C=C4)C=C3)cc1
REMARK SMILES IDX 16 1 15 2 1 3 2 4 3 6 4 7 5 8 6 9 7 10 8 12 9 13 10 14 14 15
REMARK SMILES IDX 11 17 13 18 12 19 17 20 18 21 19 22 20 23 21 25 22 26 23 27
REMARK SMILES IDX 69 28 24 29 68 30 25 31 26 32 27 33 62 34 28 35 67 36 61 37
REMARK SMILES IDX 63 38 29 39 66 40 60 41 59 42 30 44 52 45 37 46 51 47 38 48
REMARK SMILES IDX 41 49 50 50 64 51 39 52 40 53 49 55 65 56 42 57 31 58 32 59
REMARK SMILES IDX 36 60 33 61 35 62 34 63 53 64 54 65 58 66 55 67 57 68 56 69
REMARK SMILES IDX 43 70 44 71 48 72 45 73 47 74 46 75
REMARK H PARENT 15 5 7 11 9 16 19 24 63 43 41 54
REMARK Flexibility Score: inf
ROOT
ATOM      1  C   UNL     1       1.286   0.933  -2.037  1.00  0.00       nan C 
ENDROOT
BRANCH   1   2
ATOM      2  N   UNL     1       2.052   0.716  -0.815  1.00  0.00       nan N 
ATOM      3  O   UNL     1       0.532  -0.658   0.225  1.00  0.00       nan OA
ATOM      4  C   UNL     1       1.665  -0.184   0.169  1.00  0.00       nan C 
ATOM      5  H   UNL     1       2.880   1.230  -0.682  1.00  0.00       nan HD
BRANCH   4   6
ATOM      6  C   UNL     1       2.728  -0.523   1.248  1.00  0.00       nan C 
BRANCH   6   7
ATOM      7  C   UNL     1       3.845  -1.568   0.934  1.00  0.00       nan C 
BRANCH   7   8
ATOM      8  P   UNL     1       5.035  -1.099  -0.375  1.00  0.00       nan P 
ATOM      9  O   UNL     1       3.929  -0.648  -1.316  1.00  0.00       nan OA
BRANCH   8  10
ATOM     10  O   UNL     1       5.450   0.140   0.629  1.00  0.00       nan OA
ATOM     11  H   UNL     1       4.916   0.092   1.438  1.00  0.00       nan HD
ENDBRANCH   8  10
BRANCH   8  12
ATOM     12  C   UNL     1       6.224  -0.630  -1.685  1.00  0.00       nan C 
BRANCH  12  13
ATOM     13  N   UNL     1       6.955   0.632  -1.425  1.00  0.00       nan N 
ATOM     14  C   UNL     1       8.216   0.661  -2.196  1.00  0.00       nan C 
ATOM     15  C   UNL     1       6.167   1.814  -1.780  1.00  0.00       nan C 
ATOM     16  H   UNL     1       7.146   0.658  -0.423  1.00  0.00       nan HD
ATOM     17  C   UNL     1       9.043   1.912  -1.872  1.00  0.00       nan C 
ATOM     18  C   UNL     1       6.901   3.059  -1.282  1.00  0.00       nan C 
ATOM     19  C   UNL     1       8.232   3.198  -2.007  1.00  0.00       nan C 
ENDBRANCH  12  13
ENDBRANCH   8  12
ENDBRANCH   7   8
ENDBRANCH   6   7
ENDBRANCH   4   6
ENDBRANCH   1   2
BRANCH   1  20
ATOM     20  C   UNL     1       1.449   2.314  -2.687  1.00  0.00       nan C 
BRANCH  20  21
ATOM     21  C   UNL     1       2.844   2.769  -3.134  1.00  0.00       nan C 
BRANCH  21  22
ATOM     22  N   UNL     1       3.468   1.976  -4.184  1.00  0.00       nan N 
ATOM     23  C   UNL     1       4.337   2.338  -5.196  1.00  0.00       nan C 
ATOM     24  H   UNL     1       3.230   1.021  -4.171  1.00  0.00       nan HD
ATOM     25  O   UNL     1       4.695   1.484  -6.003  1.00  0.00       nan OA
BRANCH  23  26
ATOM     26  C   UNL     1       4.864   3.727  -5.355  1.00  0.00       nan A 
ATOM     27  C   UNL     1       5.084   4.225  -6.649  1.00  0.00       nan A 
ATOM     28  C   UNL     1       5.214   4.527  -4.267  1.00  0.00       nan A 
ATOM     29  C   UNL     1       5.564   5.531  -6.843  1.00  0.00       inf A 
ATOM     30  C   UNL     1       5.685   5.831  -4.454  1.00  0.00       inf A 
ATOM     31  C   UNL     1       5.836   6.357  -5.743  1.00  0.00    -0.014 A 
BRANCH  31  32
ATOM     32  C   UNL     1       6.129   7.805  -5.902  1.00  0.00     0.031 A 
ATOM     33  C   UNL     1       7.498   8.372  -5.658  1.00  0.00     0.074 A 
ATOM     34  C   UNL     1       5.099   8.637  -6.151  1.00  0.00     0.049 A 
ATOM     35  N   UNL     1       7.888   9.623  -5.694  1.00  0.00    -0.248 NA
ATOM     36  C   UNL     1       8.561   7.418  -5.315  1.00  0.00     0.031 C 
ATOM     37  C   UNL     1       3.709   8.220  -6.349  1.00  0.00     0.029 A 
ATOM     38  N   UNL     1       5.054  10.005  -6.246  1.00  0.00    -0.354 N 
ATOM     39  C   UNL     1       9.241   9.610  -5.383  1.00  0.00     0.074 A 
ATOM     40  C   UNL     1       9.596   8.229  -5.127  1.00  0.00     0.031 C 
ATOM     41  C   UNL     1       2.947   9.309  -6.535  1.00  0.00     0.029 A 
ATOM     42  C   UNL     1       3.788  10.498  -6.448  1.00  0.00     0.049 A 
ATOM     43  H   UNL     1       5.851  10.578  -6.177  1.00  0.00     0.167 HD
ATOM     44  C   UNL     1      10.108  10.652  -5.326  1.00  0.00     0.031 A 
ATOM     45  C   UNL     1       3.345  11.765  -6.543  1.00  0.00     0.031 A 
ATOM     46  C   UNL     1       9.752  12.029  -5.559  1.00  0.00     0.049 A 
ATOM     47  C   UNL     1       4.320  12.902  -6.451  1.00  0.00     0.074 A 
ATOM     48  C   UNL     1      10.579  13.141  -5.592  1.00  0.00     0.029 A 
ATOM     49  N   UNL     1       8.463  12.488  -5.779  1.00  0.00    -0.354 N 
ATOM     50  N   UNL     1       5.615  12.862  -6.258  1.00  0.00    -0.248 NA
ATOM     51  C   UNL     1       3.773  14.257  -6.608  1.00  0.00     0.031 C 
ATOM     52  C   UNL     1       9.784  14.277  -5.782  1.00  0.00     0.029 A 
ATOM     53  C   UNL     1       8.468  13.867  -5.917  1.00  0.00     0.049 A 
ATOM     54  H   UNL     1       7.662  11.918  -5.831  1.00  0.00     0.167 HD
ATOM     55  C   UNL     1       6.042  14.182  -6.297  1.00  0.00     0.074 A 
ATOM     56  C   UNL     1       4.870  14.997  -6.543  1.00  0.00     0.031 C 
ATOM     57  C   UNL     1       7.297  14.672  -6.149  1.00  0.00     0.031 A 
BRANCH  44  58
ATOM     58  C   UNL     1      11.543  10.345  -4.992  1.00  0.00    -0.014 A 
ATOM     59  C   UNL     1      12.382   9.713  -5.923  1.00  0.00     0.009 A 
ATOM     60  C   UNL     1      12.080  10.751  -3.760  1.00  0.00     0.009 A 
ATOM     61  C   UNL     1      13.722   9.467  -5.616  1.00  0.00     0.001 A 
ATOM     62  C   UNL     1      13.426  10.524  -3.465  1.00  0.00     0.001 A 
ATOM     63  C   UNL     1      14.244   9.876  -4.389  1.00  0.00     0.000 A 
ENDBRANCH  44  58
BRANCH  45  64
ATOM     64  C   UNL     1       1.900  12.023  -6.763  1.00  0.00    -0.014 A 
ATOM     65  C   UNL     1       1.439  12.437  -8.021  1.00  0.00     0.009 A 
ATOM     66  C   UNL     1       0.976  11.844  -5.722  1.00  0.00     0.009 A 
ATOM     67  C   UNL     1       0.081  12.685  -8.229  1.00  0.00     0.001 A 
ATOM     68  C   UNL     1      -0.385  12.070  -5.940  1.00  0.00     0.001 A 
ATOM     69  C   UNL     1      -0.830  12.498  -7.190  1.00  0.00     0.000 A 
ENDBRANCH  45  64
BRANCH  57  70
ATOM     70  C   UNL     1       7.468  16.160  -6.274  1.00  0.00    -0.014 A 
ATOM     71  C   UNL     1       7.044  17.028  -5.255  1.00  0.00     0.009 A 
ATOM     72  C   UNL     1       8.079  16.697  -7.417  1.00  0.00     0.009 A 
ATOM     73  C   UNL     1       7.201  18.409  -5.396  1.00  0.00     0.001 A 
ATOM     74  C   UNL     1       8.256  18.076  -7.543  1.00  0.00     0.001 A 
ATOM     75  C   UNL     1       7.809  18.931  -6.537  1.00  0.00     0.000 A 
ENDBRANCH  57  70
ENDBRANCH  31  32
ENDBRANCH  23  26
ENDBRANCH  21  22
ENDBRANCH  20  21
ENDBRANCH   1  20
TORSDOF 15
