REMARK SMILES O=C(NCCCNC(=O)c1cc(-c2ccoc2)nc2c(F)cccc12)c1ccc(-c2c3nc(c(-c4ccccc4)c4ccc([nH]4)c(-c4ccccc4)c4nc(c(-c5ccccc5)c5ccc2[nH]5)C=C4)C=C3)cc1
REMARK SMILES IDX 4 1 3 2 1 3 2 4 26 6 27 7 73 8 28 9 72 10 29 11 30 12 31 13
REMARK SMILES IDX 66 14 32 15 71 16 65 17 67 18 33 19 70 20 64 21 63 22 34 24
REMARK SMILES IDX 56 25 41 26 55 27 42 28 45 29 54 30 68 31 43 32 44 33 53 35
REMARK SMILES IDX 69 36 46 37 35 38 36 39 40 40 37 41 39 42 38 43 57 44 58 45
REMARK SMILES IDX 62 46 59 47 61 48 60 49 47 50 48 51 52 52 49 53 51 54 50 55
REMARK SMILES IDX 5 56 6 57 7 58 8 59 9 61 10 62 11 63 25 64 12 65 19 66 24 67
REMARK SMILES IDX 18 68 20 69 23 70 21 71 22 72 13 73 14 74 17 75 15 76 16 77
REMARK H PARENT 3 5 67 23 45 34 7 60
REMARK Flexibility Score: inf
ROOT
ATOM      1  C   UNL     1       4.576   0.017  -1.279  1.00  0.00     0.118 C 
ENDROOT
BRANCH   1   2
ATOM      2  N   UNL     1       3.132   0.092  -1.090  1.00  0.00    -0.352 N 
ATOM      3  O   UNL     1       1.160   0.036  -0.005  1.00  0.00    -0.269 OA
ATOM      4  C   UNL     1       2.381   0.143   0.061  1.00  0.00     0.251 C 
ATOM      5  H   UNL     1       2.608   0.109  -1.923  1.00  0.00     0.163 HD
BRANCH   4   6
ATOM      6  C   UNL     1       3.036   0.298   1.378  1.00  0.00     0.039 A 
ATOM      7  C   UNL     1       4.112   1.168   1.542  1.00  0.00     0.014 A 
ATOM      8  C   UNL     1       2.555  -0.427   2.473  1.00  0.00     0.014 A 
ATOM      9  C   UNL     1       4.827   1.166   2.731  1.00  0.00     0.010 A 
ATOM     10  C   UNL     1       3.203  -0.335   3.709  1.00  0.00     0.010 A 
ATOM     11  C   UNL     1       4.370   0.432   3.837  1.00  0.00    -0.014 A 
BRANCH  11  12
ATOM     12  C   UNL     1       5.101   0.548   5.124  1.00  0.00     0.031 A 
ATOM     13  C   UNL     1       5.769  -0.640   5.758  1.00  0.00     0.074 A 
ATOM     14  C   UNL     1       5.198   1.764   5.697  1.00  0.00     0.049 A 
ATOM     15  N   UNL     1       6.482  -0.690   6.856  1.00  0.00    -0.248 NA
ATOM     16  C   UNL     1       5.615  -1.939   5.085  1.00  0.00     0.031 C 
ATOM     17  C   UNL     1       4.585   2.992   5.181  1.00  0.00     0.029 A 
ATOM     18  N   UNL     1       5.872   2.177   6.817  1.00  0.00    -0.354 N 
ATOM     19  C   UNL     1       6.836  -2.022   7.021  1.00  0.00     0.074 A 
ATOM     20  C   UNL     1       6.248  -2.754   5.919  1.00  0.00     0.031 C 
ATOM     21  C   UNL     1       4.965   4.027   5.941  1.00  0.00     0.029 A 
ATOM     22  C   UNL     1       5.786   3.530   7.037  1.00  0.00     0.049 A 
ATOM     23  H   UNL     1       6.370   1.565   7.405  1.00  0.00     0.167 HD
ATOM     24  C   UNL     1       7.584  -2.584   8.001  1.00  0.00     0.031 A 
ATOM     25  C   UNL     1       6.297   4.292   8.021  1.00  0.00     0.031 A 
ATOM     26  C   UNL     1       8.178  -1.853   9.090  1.00  0.00     0.049 A 
ATOM     27  C   UNL     1       7.113   3.642   9.095  1.00  0.00     0.074 A 
ATOM     28  C   UNL     1       8.981  -2.330  10.112  1.00  0.00     0.029 A 
ATOM     29  N   UNL     1       8.034  -0.490   9.299  1.00  0.00    -0.354 N 
ATOM     30  N   UNL     1       7.456   2.384   9.220  1.00  0.00    -0.248 NA
ATOM     31  C   UNL     1       7.607   4.516  10.166  1.00  0.00     0.031 C 
ATOM     32  C   UNL     1       9.285  -1.264  10.965  1.00  0.00     0.029 A 
ATOM     33  C   UNL     1       8.713  -0.114  10.446  1.00  0.00     0.049 A 
ATOM     34  H   UNL     1       7.525   0.120   8.717  1.00  0.00     0.167 HD
ATOM     35  C   UNL     1       8.212   2.314  10.380  1.00  0.00     0.074 A 
ATOM     36  C   UNL     1       8.300   3.661  10.906  1.00  0.00     0.031 C 
ATOM     37  C   UNL     1       8.778   1.229  10.961  1.00  0.00     0.031 A 
BRANCH  24  38
ATOM     38  C   UNL     1       7.780  -4.074   7.960  1.00  0.00    -0.014 A 
ATOM     39  C   UNL     1       8.641  -4.674   7.028  1.00  0.00     0.009 A 
ATOM     40  C   UNL     1       7.134  -4.885   8.907  1.00  0.00     0.009 A 
ATOM     41  C   UNL     1       8.829  -6.058   7.029  1.00  0.00     0.001 A 
ATOM     42  C   UNL     1       7.341  -6.265   8.920  1.00  0.00     0.001 A 
ATOM     43  C   UNL     1       8.183  -6.852   7.977  1.00  0.00     0.000 A 
ENDBRANCH  24  38
BRANCH  25  44
ATOM     44  C   UNL     1       6.026   5.752   8.033  1.00  0.00    -0.014 A 
ATOM     45  C   UNL     1       7.046   6.671   7.750  1.00  0.00     0.009 A 
ATOM     46  C   UNL     1       4.732   6.229   8.299  1.00  0.00     0.009 A 
ATOM     47  C   UNL     1       6.777   8.042   7.747  1.00  0.00     0.001 A 
ATOM     48  C   UNL     1       4.461   7.597   8.266  1.00  0.00     0.001 A 
ATOM     49  C   UNL     1       5.485   8.503   7.998  1.00  0.00     0.000 A 
ENDBRANCH  25  44
BRANCH  37  50
ATOM     50  C   UNL     1       9.553   1.465  12.224  1.00  0.00    -0.014 A 
ATOM     51  C   UNL     1       8.898   1.732  13.436  1.00  0.00     0.009 A 
ATOM     52  C   UNL     1      10.955   1.400  12.204  1.00  0.00     0.009 A 
ATOM     53  C   UNL     1       9.635   1.963  14.599  1.00  0.00     0.001 A 
ATOM     54  C   UNL     1      11.687   1.606  13.373  1.00  0.00     0.001 A 
ATOM     55  C   UNL     1      11.028   1.896  14.567  1.00  0.00     0.000 A 
ENDBRANCH  37  50
ENDBRANCH  11  12
ENDBRANCH   4   6
ENDBRANCH   1   2
BRANCH   1  56
ATOM     56  C   UNL     1       5.044  -1.339  -1.780  1.00  0.00     0.042 C 
BRANCH  56  57
ATOM     57  C   UNL     1       4.542  -1.690  -3.167  1.00  0.00     0.118 C 
BRANCH  57  58
ATOM     58  N   UNL     1       4.969  -0.741  -4.187  1.00  0.00    -0.352 N 
ATOM     59  C   UNL     1       5.604  -0.972  -5.382  1.00  0.00     0.252 C 
ATOM     60  H   UNL     1       4.774   0.204  -3.991  1.00  0.00     0.163 HD
ATOM     61  O   UNL     1       5.947  -0.033  -6.092  1.00  0.00    -0.269 OA
BRANCH  59  62
ATOM     62  C   UNL     1       5.928  -2.352  -5.787  1.00  0.00     0.051 A 
ATOM     63  C   UNL     1       7.279  -2.618  -6.000  1.00  0.00     0.043 A 
ATOM     64  C   UNL     1       4.947  -3.361  -5.912  1.00  0.00     0.016 A 
ATOM     65  C   UNL     1       7.629  -3.917  -6.289  1.00  0.00     0.075 A 
ATOM     66  C   UNL     1       5.422  -4.668  -6.122  1.00  0.00     0.107 A 
ATOM     67  C   UNL     1       3.547  -3.135  -5.811  1.00  0.00     0.011 A 
ATOM     68  N   UNL     1       6.733  -4.928  -6.326  1.00  0.00    -0.245 NA
ATOM     69  C   UNL     1       4.486  -5.703  -6.093  1.00  0.00     0.149 A 
ATOM     70  C   UNL     1       2.642  -4.191  -5.791  1.00  0.00     0.004 A 
ATOM     71  F   UNL     1       4.898  -6.975  -6.223  1.00  0.00    -0.205 F 
ATOM     72  C   UNL     1       3.119  -5.486  -5.910  1.00  0.00     0.041 A 
BRANCH  65  73
ATOM     73  C   UNL     1       8.992  -4.277  -6.609  1.00  0.00     0.038 A 
ATOM     74  C   UNL     1       9.487  -5.046  -7.697  1.00  0.00     0.052 A 
ATOM     75  C   UNL     1      10.098  -3.918  -5.869  1.00  0.00     0.205 A 
ATOM     76  C   UNL     1      10.855  -5.077  -7.557  1.00  0.00     0.195 A 
ATOM     77  O   UNL     1      11.234  -4.396  -6.444  1.00  0.00    -0.472 OA
ENDBRANCH  65  73
ENDBRANCH  59  62
ENDBRANCH  57  58
ENDBRANCH  56  57
ENDBRANCH   1  56
TORSDOF 11
