REMARK SMILES O=C(NCCCNC(=O)c1ccc(-c2c3nc(c(-c4ccccc4)c4ccc([nH]4)c(-c4ccccc4)c4nc(c(-c5ccccc5)c5ccc2[nH]5)C=C4)C=C3)cc1)c1ccc(-c2ccc(S(=O)(=O)[O-])cc2)cc1
REMARK SMILES IDX 5 1 4 2 3 3 1 4 2 5 58 7 59 8 73 9 60 10 72 11 61 12 62 13
REMARK SMILES IDX 63 14 71 15 64 16 70 17 65 18 66 19 67 20 68 21 69 22 6 23
REMARK SMILES IDX 7 24 8 25 9 27 10 28 11 29 57 30 12 31 56 32 13 33 14 34
REMARK SMILES IDX 15 35 50 36 16 37 55 38 49 39 51 40 17 41 54 42 48 43 47 44
REMARK SMILES IDX 18 46 40 47 25 48 39 49 26 50 29 51 38 52 52 53 27 54 28 55
REMARK SMILES IDX 37 57 53 58 30 59 19 60 20 61 24 62 21 63 23 64 22 65 41 66
REMARK SMILES IDX 42 67 46 68 43 69 45 70 44 71 31 72 32 73 36 74 33 75 35 76
REMARK SMILES IDX 34 77
REMARK H PARENT 3 6 7 26 51 45 29 56
REMARK Flexibility Score: inf
ROOT
ATOM      1  C   UNL     1       5.060   0.337   2.241  1.00  0.00     0.042 C 
ENDROOT
BRANCH   1   2
ATOM      2  C   UNL     1       4.611  -0.575   1.108  1.00  0.00     0.118 C 
BRANCH   2   3
ATOM      3  N   UNL     1       3.166  -0.575   0.935  1.00  0.00    -0.352 N 
ATOM      4  O   UNL     1       1.188   0.058   0.061  1.00  0.00    -0.269 OA
ATOM      5  C   UNL     1       2.406  -0.021  -0.064  1.00  0.00     0.251 C 
ATOM      6  H   UNL     1       2.659  -1.043   1.637  1.00  0.00     0.163 HD
BRANCH   5   7
ATOM      7  C   UNL     1       3.055   0.500  -1.284  1.00  0.00     0.039 A 
ATOM      8  C   UNL     1       3.967  -0.279  -1.998  1.00  0.00     0.014 A 
ATOM      9  C   UNL     1       2.720   1.777  -1.736  1.00  0.00     0.014 A 
ATOM     10  C   UNL     1       4.615   0.258  -3.111  1.00  0.00     0.009 A 
ATOM     11  C   UNL     1       3.356   2.301  -2.865  1.00  0.00     0.009 A 
ATOM     12  C   UNL     1       4.328   1.558  -3.560  1.00  0.00    -0.018 A 
BRANCH  12  13
ATOM     13  C   UNL     1       5.022   2.115  -4.733  1.00  0.00    -0.018 A 
ATOM     14  C   UNL     1       5.122   1.375  -5.925  1.00  0.00     0.010 A 
ATOM     15  C   UNL     1       5.615   3.390  -4.690  1.00  0.00     0.010 A 
ATOM     16  C   UNL     1       5.789   1.887  -7.039  1.00  0.00     0.020 A 
ATOM     17  C   UNL     1       6.285   3.914  -5.801  1.00  0.00     0.020 A 
ATOM     18  C   UNL     1       6.366   3.156  -6.969  1.00  0.00     0.054 A 
BRANCH  18  19
ATOM     19  S   UNL     1       7.191   3.780  -8.401  1.00  0.00     0.124 S 
ATOM     20  O   UNL     1       8.401   3.010  -8.584  1.00  0.00    -0.237 OA
ATOM     21  O   UNL     1       6.210   3.916  -9.454  1.00  0.00    -0.237 OA
ATOM     22  O   UNL     1       7.648   5.283  -8.032  1.00  0.00    -0.744 OA
ENDBRANCH  18  19
ENDBRANCH  12  13
ENDBRANCH   5   7
ENDBRANCH   2   3
ENDBRANCH   1   2
BRANCH   1  23
ATOM     23  C   UNL     1       4.549  -0.066   3.618  1.00  0.00     0.118 C 
BRANCH  23  24
ATOM     24  N   UNL     1       4.971  -1.402   4.011  1.00  0.00    -0.352 N 
ATOM     25  C   UNL     1       5.689  -1.838   5.095  1.00  0.00     0.251 C 
ATOM     26  H   UNL     1       4.694  -2.115   3.392  1.00  0.00     0.163 HD
ATOM     27  O   UNL     1       6.069  -3.006   5.126  1.00  0.00    -0.269 OA
BRANCH  25  28
ATOM     28  C   UNL     1       6.024  -0.931   6.216  1.00  0.00     0.039 A 
ATOM     29  C   UNL     1       7.253  -1.102   6.864  1.00  0.00     0.014 A 
ATOM     30  C   UNL     1       5.130   0.035   6.681  1.00  0.00     0.014 A 
ATOM     31  C   UNL     1       7.596  -0.284   7.942  1.00  0.00     0.010 A 
ATOM     32  C   UNL     1       5.509   0.910   7.697  1.00  0.00     0.010 A 
ATOM     33  C   UNL     1       6.735   0.745   8.355  1.00  0.00    -0.014 A 
BRANCH  33  34
ATOM     34  C   UNL     1       7.091   1.623   9.498  1.00  0.00     0.031 A 
ATOM     35  C   UNL     1       6.259   1.612  10.753  1.00  0.00     0.074 A 
ATOM     36  C   UNL     1       8.142   2.459   9.397  1.00  0.00     0.049 A 
ATOM     37  N   UNL     1       6.413   2.307  11.853  1.00  0.00    -0.248 NA
ATOM     38  C   UNL     1       5.084   0.726  10.766  1.00  0.00     0.031 C 
ATOM     39  C   UNL     1       8.999   2.608   8.219  1.00  0.00     0.029 A 
ATOM     40  N   UNL     1       8.669   3.342  10.306  1.00  0.00    -0.354 N 
ATOM     41  C   UNL     1       5.347   1.959  12.673  1.00  0.00     0.074 A 
ATOM     42  C   UNL     1       4.525   1.032  11.927  1.00  0.00     0.031 C 
ATOM     43  C   UNL     1       9.966   3.499   8.490  1.00  0.00     0.029 A 
ATOM     44  C   UNL     1       9.781   4.004   9.847  1.00  0.00     0.049 A 
ATOM     45  H   UNL     1       8.287   3.486  11.202  1.00  0.00     0.167 HD
ATOM     46  C   UNL     1       5.085   2.353  13.942  1.00  0.00     0.031 A 
ATOM     47  C   UNL     1      10.570   4.910  10.453  1.00  0.00     0.031 A 
ATOM     48  C   UNL     1       5.911   3.257  14.696  1.00  0.00     0.049 A 
ATOM     49  C   UNL     1      10.278   5.309  11.872  1.00  0.00     0.074 A 
ATOM     50  C   UNL     1       5.763   3.672  16.009  1.00  0.00     0.029 A 
ATOM     51  N   UNL     1       7.043   3.886  14.203  1.00  0.00    -0.354 N 
ATOM     52  N   UNL     1       9.307   4.914  12.659  1.00  0.00    -0.248 NA
ATOM     53  C   UNL     1      11.207   6.263  12.492  1.00  0.00     0.031 C 
ATOM     54  C   UNL     1       6.786   4.583  16.297  1.00  0.00     0.029 A 
ATOM     55  C   UNL     1       7.598   4.696  15.180  1.00  0.00     0.049 A 
ATOM     56  H   UNL     1       7.401   3.773  13.293  1.00  0.00     0.167 HD
ATOM     57  C   UNL     1       9.524   5.548  13.875  1.00  0.00     0.074 A 
ATOM     58  C   UNL     1      10.728   6.340  13.726  1.00  0.00     0.031 C 
ATOM     59  C   UNL     1       8.793   5.480  15.015  1.00  0.00     0.031 A 
BRANCH  46  60
ATOM     60  C   UNL     1       3.843   1.805  14.590  1.00  0.00    -0.014 A 
ATOM     61  C   UNL     1       3.750   0.453  14.958  1.00  0.00     0.009 A 
ATOM     62  C   UNL     1       2.757   2.655  14.851  1.00  0.00     0.009 A 
ATOM     63  C   UNL     1       2.579  -0.045  15.534  1.00  0.00     0.001 A 
ATOM     64  C   UNL     1       1.599   2.161  15.454  1.00  0.00     0.001 A 
ATOM     65  C   UNL     1       1.506   0.809  15.784  1.00  0.00     0.000 A 
ENDBRANCH  46  60
BRANCH  47  66
ATOM     66  C   UNL     1      11.741   5.473   9.734  1.00  0.00    -0.014 A 
ATOM     67  C   UNL     1      13.044   5.090  10.088  1.00  0.00     0.009 A 
ATOM     68  C   UNL     1      11.563   6.395   8.691  1.00  0.00     0.009 A 
ATOM     69  C   UNL     1      14.146   5.638   9.430  1.00  0.00     0.001 A 
ATOM     70  C   UNL     1      12.667   6.921   8.017  1.00  0.00     0.001 A 
ATOM     71  C   UNL     1      13.957   6.550   8.393  1.00  0.00     0.000 A 
ENDBRANCH  47  66
BRANCH  59  72
ATOM     72  C   UNL     1       9.300   6.256  16.197  1.00  0.00    -0.014 A 
ATOM     73  C   UNL     1       9.228   7.658  16.237  1.00  0.00     0.009 A 
ATOM     74  C   UNL     1       9.844   5.571  17.295  1.00  0.00     0.009 A 
ATOM     75  C   UNL     1       9.730   8.359  17.335  1.00  0.00     0.001 A 
ATOM     76  C   UNL     1      10.319   6.273  18.403  1.00  0.00     0.001 A 
ATOM     77  C   UNL     1      10.272   7.666  18.417  1.00  0.00     0.000 A 
ENDBRANCH  59  72
ENDBRANCH  33  34
ENDBRANCH  25  28
ENDBRANCH  23  24
ENDBRANCH   1  23
TORSDOF 12
