REMARK SMILES CC(C)[C@H](/N=C1\C(=O)C(=O)[C@H]1[NH+]1CCCC1)C(=O)NCCCNC(=O)c1ccc(-c2c3nc(c(-c4ccccc4)c4ccc([nH]4)c(-c4ccccc4)c4nc(c(-c5ccccc5)c5ccc2[nH]5)C=C4)C=C3)cc1
REMARK SMILES IDX 21 1 20 2 19 3 17 4 18 5 4 7 2 8 1 9 3 10 5 11 6 12 7 13
REMARK SMILES IDX 11 14 8 15 9 16 10 17 12 18 13 19 16 20 14 22 15 23 22 24
REMARK SMILES IDX 23 25 24 26 25 28 26 29 27 30 73 31 28 32 72 33 29 34 30 35
REMARK SMILES IDX 31 36 66 37 32 38 71 39 65 40 67 41 33 42 70 43 64 44 63 45
REMARK SMILES IDX 34 47 56 48 41 49 55 50 42 51 45 52 54 53 68 54 43 55 44 56
REMARK SMILES IDX 53 58 69 59 46 60 35 61 36 62 40 63 37 64 39 65 38 66 57 67
REMARK SMILES IDX 58 68 62 69 59 70 61 71 60 72 47 73 48 74 52 75 49 76 51 77
REMARK SMILES IDX 50 78
REMARK H PARENT 19 6 12 21 23 27 67 46 45 57
REMARK Flexibility Score: inf
ROOT
ATOM      1  C   UNL     1       0.409   2.102   4.592  1.00  0.00     0.042 C 
ENDROOT
BRANCH   1   2
ATOM      2  C   UNL     1      -0.821   1.627   3.832  1.00  0.00     0.117 C 
BRANCH   2   3
ATOM      3  N   UNL     1      -1.302   2.573   2.842  1.00  0.00    -0.354 N 
ATOM      4  C   UNL     1      -1.432   2.503   1.492  1.00  0.00     0.245 C 
ATOM      5  O   UNL     1      -1.893   3.508   0.939  1.00  0.00    -0.273 OA
ATOM      6  H   UNL     1      -1.590   3.434   3.223  1.00  0.00     0.163 HD
BRANCH   4   7
ATOM      7  C   UNL     1      -0.969   1.301   0.644  1.00  0.00     0.197 C 
BRANCH   7   8
ATOM      8  C   UNL     1      -1.468  -0.102   1.074  1.00  0.00     0.017 C 
ATOM      9  C   UNL     1      -2.913  -0.092   1.592  1.00  0.00     0.010 C 
ATOM     10  C   UNL     1      -1.387  -1.091  -0.099  1.00  0.00     0.010 C 
ENDBRANCH   7   8
BRANCH   7  11
ATOM     11  N   UNL     1       0.519   1.335   0.597  1.00  0.00    -0.266 NA
ATOM     12  C   UNL     1       1.061   1.986  -0.372  1.00  0.00     0.153 C 
ATOM     13  C   UNL     1       0.545   2.645  -1.605  1.00  0.00     0.255 C 
ATOM     14  C   UNL     1       2.528   2.165  -0.806  1.00  0.00     0.314 C 
ATOM     15  O   UNL     1      -0.522   2.954  -2.011  1.00  0.00    -0.283 OA
ATOM     16  C   UNL     1       1.940   2.680  -2.176  1.00  0.00     0.268 C 
ATOM     17  O   UNL     1       2.281   3.029  -3.272  1.00  0.00    -0.283 OA
BRANCH  14  18
ATOM     18  N   UNL     1       3.425   3.148  -0.144  1.00  0.00    -0.321 N 
ATOM     19  C   UNL     1       3.844   2.708   1.187  1.00  0.00     0.263 C 
ATOM     20  C   UNL     1       2.911   4.516   0.000  1.00  0.00     0.263 C 
ATOM     21  H   UNL     1       4.204   3.184  -0.802  1.00  0.00     0.349 HD
ATOM     22  C   UNL     1       2.884   3.396   2.130  1.00  0.00     0.067 C 
ATOM     23  C   UNL     1       2.589   4.727   1.473  1.00  0.00     0.067 C 
ENDBRANCH  14  18
ENDBRANCH   7  11
ENDBRANCH   4   7
ENDBRANCH   2   3
ENDBRANCH   1   2
BRANCH   1  24
ATOM     24  C   UNL     1       0.280   3.486   5.209  1.00  0.00     0.118 C 
BRANCH  24  25
ATOM     25  N   UNL     1      -0.359   3.430   6.512  1.00  0.00    -0.352 N 
ATOM     26  C   UNL     1       0.188   3.669   7.749  1.00  0.00     0.251 C 
ATOM     27  H   UNL     1      -1.313   3.187   6.508  1.00  0.00     0.163 HD
ATOM     28  O   UNL     1      -0.407   3.312   8.761  1.00  0.00    -0.269 OA
BRANCH  26  29
ATOM     29  C   UNL     1       1.500   4.348   7.867  1.00  0.00     0.039 A 
ATOM     30  C   UNL     1       2.415   3.889   8.818  1.00  0.00     0.014 A 
ATOM     31  C   UNL     1       1.812   5.462   7.081  1.00  0.00     0.014 A 
ATOM     32  C   UNL     1       3.652   4.525   8.957  1.00  0.00     0.010 A 
ATOM     33  C   UNL     1       3.074   6.045   7.165  1.00  0.00     0.010 A 
ATOM     34  C   UNL     1       3.999   5.598   8.120  1.00  0.00    -0.014 A 
BRANCH  34  35
ATOM     35  C   UNL     1       5.304   6.294   8.265  1.00  0.00     0.031 A 
ATOM     36  C   UNL     1       5.346   7.735   8.701  1.00  0.00     0.074 A 
ATOM     37  C   UNL     1       6.450   5.649   7.974  1.00  0.00     0.049 A 
ATOM     38  N   UNL     1       6.381   8.523   8.855  1.00  0.00    -0.248 NA
ATOM     39  C   UNL     1       4.053   8.382   8.982  1.00  0.00     0.031 C 
ATOM     40  C   UNL     1       6.551   4.262   7.518  1.00  0.00     0.029 A 
ATOM     41  N   UNL     1       7.752   6.080   8.022  1.00  0.00    -0.354 N 
ATOM     42  C   UNL     1       5.864   9.756   9.232  1.00  0.00     0.074 A 
ATOM     43  C   UNL     1       4.423   9.628   9.233  1.00  0.00     0.031 C 
ATOM     44  C   UNL     1       7.847   3.946   7.363  1.00  0.00     0.029 A 
ATOM     45  C   UNL     1       8.664   5.116   7.669  1.00  0.00     0.049 A 
ATOM     46  H   UNL     1       8.008   6.994   8.284  1.00  0.00     0.167 HD
ATOM     47  C   UNL     1       6.524  10.889   9.571  1.00  0.00     0.031 A 
ATOM     48  C   UNL     1      10.008   5.167   7.602  1.00  0.00     0.031 A 
ATOM     49  C   UNL     1       7.956  11.020   9.586  1.00  0.00     0.049 A 
ATOM     50  C   UNL     1      10.718   6.444   7.957  1.00  0.00     0.074 A 
ATOM     51  C   UNL     1       8.720  12.112   9.960  1.00  0.00     0.029 A 
ATOM     52  N   UNL     1       8.841  10.022   9.209  1.00  0.00    -0.354 N 
ATOM     53  N   UNL     1      10.216   7.584   8.364  1.00  0.00    -0.248 NA
ATOM     54  C   UNL     1      12.184   6.434   7.852  1.00  0.00     0.031 C 
ATOM     55  C   UNL     1      10.067  11.790   9.766  1.00  0.00     0.029 A 
ATOM     56  C   UNL     1      10.143  10.481   9.320  1.00  0.00     0.049 A 
ATOM     57  H   UNL     1       8.583   9.122   8.907  1.00  0.00     0.167 HD
ATOM     58  C   UNL     1      11.303   8.417   8.591  1.00  0.00     0.074 A 
ATOM     59  C   UNL     1      12.493   7.647   8.288  1.00  0.00     0.031 C 
ATOM     60  C   UNL     1      11.316   9.704   9.015  1.00  0.00     0.031 A 
BRANCH  47  61
ATOM     61  C   UNL     1       5.692  12.083   9.950  1.00  0.00    -0.014 A 
ATOM     62  C   UNL     1       4.972  12.114  11.155  1.00  0.00     0.009 A 
ATOM     63  C   UNL     1       5.644  13.200   9.102  1.00  0.00     0.009 A 
ATOM     64  C   UNL     1       4.186  13.221  11.482  1.00  0.00     0.001 A 
ATOM     65  C   UNL     1       4.881  14.318   9.445  1.00  0.00     0.001 A 
ATOM     66  C   UNL     1       4.145  14.323  10.629  1.00  0.00     0.000 A 
ENDBRANCH  47  61
BRANCH  48  67
ATOM     67  C   UNL     1      10.778   3.962   7.203  1.00  0.00    -0.014 A 
ATOM     68  C   UNL     1      11.539   3.261   8.151  1.00  0.00     0.009 A 
ATOM     69  C   UNL     1      10.764   3.509   5.875  1.00  0.00     0.009 A 
ATOM     70  C   UNL     1      12.289   2.145   7.773  1.00  0.00     0.001 A 
ATOM     71  C   UNL     1      11.494   2.377   5.505  1.00  0.00     0.001 A 
ATOM     72  C   UNL     1      12.262   1.702   6.452  1.00  0.00     0.000 A 
ENDBRANCH  48  67
BRANCH  60  73
ATOM     73  C   UNL     1      12.659  10.350   9.210  1.00  0.00    -0.014 A 
ATOM     74  C   UNL     1      13.448  10.735   8.115  1.00  0.00     0.009 A 
ATOM     75  C   UNL     1      13.122  10.609  10.509  1.00  0.00     0.009 A 
ATOM     76  C   UNL     1      14.690  11.338   8.320  1.00  0.00     0.001 A 
ATOM     77  C   UNL     1      14.352  11.236  10.710  1.00  0.00     0.001 A 
ATOM     78  C   UNL     1      15.139  11.593   9.616  1.00  0.00     0.000 A 
ENDBRANCH  60  73
ENDBRANCH  34  35
ENDBRANCH  26  29
ENDBRANCH  24  25
ENDBRANCH   1  24
TORSDOF 13
