REMARK SMILES COc1ccc([C@H](C)[N@H+]2CC[C@H](C(=O)NCCCNC(=O)c3ccc(-c4c5nc(c(-c6ccccc6)c6ccc([nH]6)c(-c6ccccc6)c6nc(c(-c7ccccc7)c7ccc4[nH]7)C=C6)C=C5)cc3)[C@@H]2C)cc1
REMARK SMILES IDX 16 1 15 2 13 3 14 4 12 6 9 7 10 8 70 9 11 11 71 12 7 13 8 14
REMARK SMILES IDX 6 15 3 16 4 17 73 18 5 19 72 20 2 21 1 22 17 23 18 24 19 25
REMARK SMILES IDX 20 26 21 28 22 29 23 30 69 31 24 32 68 33 25 34 26 35 27 36
REMARK SMILES IDX 62 37 28 38 67 39 61 40 63 41 29 42 66 43 60 44 59 45 30 47
REMARK SMILES IDX 52 48 37 49 51 50 38 51 41 52 50 53 64 54 39 55 40 56 49 58
REMARK SMILES IDX 65 59 42 60 31 61 32 62 36 63 33 64 35 65 34 66 53 67 54 68
REMARK SMILES IDX 58 69 55 70 57 71 56 72 43 73 44 74 48 75 45 76 47 77 46 78
REMARK H PARENT 15 5 9 10 19 27 63 46 41 57
REMARK Flexibility Score: inf
ROOT
ATOM      1  C   UNL     1      -0.771   3.281  -3.103  1.00  0.00     0.117 C 
ENDROOT
BRANCH   1   2
ATOM      2  N   UNL     1      -1.214   3.366  -4.481  1.00  0.00    -0.356 N 
ATOM      3  C   UNL     1      -0.833   2.647  -5.570  1.00  0.00     0.229 C 
ATOM      4  O   UNL     1      -1.352   2.939  -6.647  1.00  0.00    -0.275 OA
ATOM      5  H   UNL     1      -1.898   4.052  -4.656  1.00  0.00     0.163 HD
BRANCH   3   6
ATOM      6  C   UNL     1       0.083   1.456  -5.385  1.00  0.00     0.142 C 
ATOM      7  N   UNL     1       1.183  -0.053  -6.895  1.00  0.00    -0.326 N 
ATOM      8  C   UNL     1      -0.234  -0.427  -6.823  1.00  0.00     0.264 C 
ATOM      9  C   UNL     1       1.266   1.320  -6.361  1.00  0.00     0.194 C 
ATOM     10  H   UNL     1       1.499  -0.081  -7.865  1.00  0.00     0.348 HD
ATOM     11  C   UNL     1      -0.761   0.194  -5.552  1.00  0.00     0.081 C 
ATOM     12  C   UNL     1       1.342   2.321  -7.514  1.00  0.00     0.076 C 
BRANCH   7  13
ATOM     13  C   UNL     1       2.140  -1.020  -6.308  1.00  0.00     0.212 C 
ATOM     14  C   UNL     1       2.208  -1.071  -4.769  1.00  0.00     0.081 C 
BRANCH  13  15
ATOM     15  C   UNL     1       1.989  -2.401  -6.959  1.00  0.00     0.009 A 
ATOM     16  C   UNL     1       1.585  -4.871  -8.270  1.00  0.00     0.118 A 
ATOM     17  C   UNL     1       1.977  -3.746  -8.992  1.00  0.00     0.047 A 
ATOM     18  C   UNL     1       1.424  -4.774  -6.890  1.00  0.00     0.047 A 
ATOM     19  C   UNL     1       2.171  -2.522  -8.347  1.00  0.00     0.013 A 
ATOM     20  C   UNL     1       1.621  -3.550  -6.242  1.00  0.00     0.013 A 
BRANCH  16  21
ATOM     21  O   UNL     1       1.420  -6.015  -9.002  1.00  0.00    -0.497 OA
ATOM     22  C   UNL     1       0.491  -6.953  -8.470  1.00  0.00     0.278 C 
ENDBRANCH  16  21
ENDBRANCH  13  15
ENDBRANCH   7  13
ENDBRANCH   3   6
ENDBRANCH   1   2
BRANCH   1  23
ATOM     23  C   UNL     1      -0.541   4.662  -2.514  1.00  0.00     0.042 C 
BRANCH  23  24
ATOM     24  C   UNL     1      -1.791   5.525  -2.463  1.00  0.00     0.118 C 
BRANCH  24  25
ATOM     25  N   UNL     1      -2.827   4.970  -1.604  1.00  0.00    -0.352 N 
ATOM     26  C   UNL     1      -3.468   5.552  -0.539  1.00  0.00     0.251 C 
ATOM     27  H   UNL     1      -3.106   4.050  -1.816  1.00  0.00     0.163 HD
ATOM     28  O   UNL     1      -4.193   4.883   0.190  1.00  0.00    -0.269 OA
BRANCH  26  29
ATOM     29  C   UNL     1      -3.252   6.986  -0.261  1.00  0.00     0.039 A 
ATOM     30  C   UNL     1      -2.995   7.390   1.050  1.00  0.00     0.014 A 
ATOM     31  C   UNL     1      -3.269   7.920  -1.300  1.00  0.00     0.014 A 
ATOM     32  C   UNL     1      -2.687   8.726   1.308  1.00  0.00     0.010 A 
ATOM     33  C   UNL     1      -2.867   9.227  -1.056  1.00  0.00     0.010 A 
ATOM     34  C   UNL     1      -2.581   9.646   0.251  1.00  0.00    -0.014 A 
BRANCH  34  35
ATOM     35  C   UNL     1      -2.178  11.052   0.491  1.00  0.00     0.031 A 
ATOM     36  C   UNL     1      -3.122  12.174   0.158  1.00  0.00     0.074 A 
ATOM     37  C   UNL     1      -0.938  11.324   0.941  1.00  0.00     0.049 A 
ATOM     38  N   UNL     1      -2.932  13.466   0.247  1.00  0.00    -0.248 NA
ATOM     39  C   UNL     1      -4.441  11.795  -0.372  1.00  0.00     0.031 C 
ATOM     40  C   UNL     1       0.089  10.327   1.254  1.00  0.00     0.029 A 
ATOM     41  N   UNL     1      -0.329  12.524   1.208  1.00  0.00    -0.354 N 
ATOM     42  C   UNL     1      -4.098  14.050  -0.233  1.00  0.00     0.074 A 
ATOM     43  C   UNL     1      -4.962  12.975  -0.668  1.00  0.00     0.031 C 
ATOM     44  C   UNL     1       1.189  10.955   1.699  1.00  0.00     0.029 A 
ATOM     45  C   UNL     1       0.961  12.396   1.662  1.00  0.00     0.049 A 
ATOM     46  H   UNL     1      -0.774  13.393   1.086  1.00  0.00     0.167 HD
ATOM     47  C   UNL     1      -4.430  15.361  -0.287  1.00  0.00     0.031 A 
ATOM     48  C   UNL     1       1.864  13.334   2.004  1.00  0.00     0.031 A 
ATOM     49  C   UNL     1      -3.570  16.429   0.148  1.00  0.00     0.049 A 
ATOM     50  C   UNL     1       1.480  14.785   1.924  1.00  0.00     0.074 A 
ATOM     51  C   UNL     1      -3.833  17.786   0.190  1.00  0.00     0.029 A 
ATOM     52  N   UNL     1      -2.272  16.258   0.608  1.00  0.00    -0.354 N 
ATOM     53  N   UNL     1       0.346  15.319   1.541  1.00  0.00    -0.248 NA
ATOM     54  C   UNL     1       2.499  15.761   2.336  1.00  0.00     0.031 C 
ATOM     55  C   UNL     1      -2.675  18.442   0.620  1.00  0.00     0.029 A 
ATOM     56  C   UNL     1      -1.712  17.488   0.907  1.00  0.00     0.049 A 
ATOM     57  H   UNL     1      -1.818  15.390   0.706  1.00  0.00     0.167 HD
ATOM     58  C   UNL     1       0.504  16.691   1.688  1.00  0.00     0.074 A 
ATOM     59  C   UNL     1       1.838  16.904   2.212  1.00  0.00     0.031 C 
ATOM     60  C   UNL     1      -0.378  17.684   1.417  1.00  0.00     0.031 A 
BRANCH  47  61
ATOM     61  C   UNL     1      -5.781  15.704  -0.854  1.00  0.00    -0.014 A 
ATOM     62  C   UNL     1      -6.966  15.357  -0.183  1.00  0.00     0.009 A 
ATOM     63  C   UNL     1      -5.872  16.389  -2.076  1.00  0.00     0.009 A 
ATOM     64  C   UNL     1      -8.210  15.642  -0.749  1.00  0.00     0.001 A 
ATOM     65  C   UNL     1      -7.117  16.703  -2.622  1.00  0.00     0.001 A 
ATOM     66  C   UNL     1      -8.285  16.317  -1.966  1.00  0.00     0.000 A 
ENDBRANCH  47  61
BRANCH  48  67
ATOM     67  C   UNL     1       3.212  12.922   2.473  1.00  0.00    -0.014 A 
ATOM     68  C   UNL     1       3.573  13.066   3.822  1.00  0.00     0.009 A 
ATOM     69  C   UNL     1       4.139  12.363   1.579  1.00  0.00     0.009 A 
ATOM     70  C   UNL     1       4.840  12.675   4.261  1.00  0.00     0.001 A 
ATOM     71  C   UNL     1       5.394  11.946   2.027  1.00  0.00     0.001 A 
ATOM     72  C   UNL     1       5.746  12.109   3.365  1.00  0.00     0.000 A 
ENDBRANCH  48  67
BRANCH  60  73
ATOM     73  C   UNL     1       0.061  19.092   1.709  1.00  0.00    -0.014 A 
ATOM     74  C   UNL     1       1.028  19.735   0.920  1.00  0.00     0.009 A 
ATOM     75  C   UNL     1      -0.535  19.800   2.765  1.00  0.00     0.009 A 
ATOM     76  C   UNL     1       1.413  21.047   1.206  1.00  0.00     0.001 A 
ATOM     77  C   UNL     1      -0.172  21.121   3.027  1.00  0.00     0.001 A 
ATOM     78  C   UNL     1       0.809  21.740   2.254  1.00  0.00     0.000 A 
ENDBRANCH  60  73
ENDBRANCH  34  35
ENDBRANCH  26  29
ENDBRANCH  24  25
ENDBRANCH  23  24
ENDBRANCH   1  23
TORSDOF 13
