REMARK SMILES CC(C)CSc1cc2c(cc1Cl)C=C(C(=O)NCCCNC(=O)c1ccc(-c3c4nc(c(-c5ccccc5)c5ccc([nH]5)c(-c5ccccc5)c5nc(c(-c6ccccc6)c6ccc3[nH]6)C=C5)C=C4)cc1)[C@@H](C(F)(F)F)O2
REMARK SMILES IDX 18 1 17 2 15 3 16 4 14 6 6 7 7 8 11 9 8 10 10 11 12 12 9 13
REMARK SMILES IDX 77 14 13 15 72 16 5 17 4 18 2 19 1 20 3 21 73 22 74 23 75 24
REMARK SMILES IDX 76 25 19 26 20 27 21 28 22 29 23 31 24 32 25 33 71 34 26 35
REMARK SMILES IDX 70 36 27 37 28 38 29 39 64 40 30 41 69 42 63 43 65 44 31 45
REMARK SMILES IDX 68 46 62 47 61 48 32 50 54 51 39 52 53 53 40 54 43 55 52 56
REMARK SMILES IDX 66 57 41 58 42 59 51 61 67 62 44 63 33 64 34 65 38 66 35 67
REMARK SMILES IDX 37 68 36 69 55 70 56 71 60 72 57 73 59 74 58 75 45 76 46 77
REMARK SMILES IDX 50 78 47 79 49 80 48 81
REMARK H PARENT 17 5 21 30 65 49 43 60
REMARK Flexibility Score: inf
ROOT
ATOM      1  C   UNL     1       1.962   3.360   8.146  1.00  0.00     0.118 C 
ENDROOT
BRANCH   1   2
ATOM      2  N   UNL     1       1.643   1.940   8.178  1.00  0.00    -0.352 N 
ATOM      3  C   UNL     1       1.100   1.023   7.345  1.00  0.00     0.251 C 
ATOM      4  O   UNL     1       0.996  -0.113   7.818  1.00  0.00    -0.270 OA
ATOM      5  H   UNL     1       1.889   1.538   9.042  1.00  0.00     0.163 HD
BRANCH   3   6
ATOM      6  C   UNL     1       0.637   1.289   5.952  1.00  0.00     0.067 C 
ATOM      7  C   UNL     1      -1.379   0.822   1.337  1.00  0.00     0.030 A 
ATOM      8  C   UNL     1      -0.871   1.892   2.092  1.00  0.00     0.063 A 
ATOM      9  C   UNL     1      -1.499  -0.431   1.960  1.00  0.00     0.055 A 
ATOM     10  C   UNL     1      -0.420   1.698   3.396  1.00  0.00     0.129 A 
ATOM     11  C   UNL     1      -1.030  -0.623   3.269  1.00  0.00     0.033 A 
ATOM     12  Cl  UNL     1      -2.269  -1.788   1.216  1.00  0.00    -0.083 Cl
ATOM     13  C   UNL     1      -0.478   0.440   3.986  1.00  0.00     0.019 A 
ATOM     14  O   UNL     1       0.030   2.804   4.056  1.00  0.00    -0.475 OA
ATOM     15  C   UNL     1      -0.011   0.272   5.355  1.00  0.00     0.025 C 
ATOM     16  C   UNL     1       0.883   2.574   5.211  1.00  0.00     0.314 C 
BRANCH   7  17
ATOM     17  S   UNL     1      -1.849   1.238  -0.339  1.00  0.00    -0.124 SA
BRANCH  17  18
ATOM     18  C   UNL     1      -0.925   0.034  -1.368  1.00  0.00     0.078 C 
BRANCH  18  19
ATOM     19  C   UNL     1       0.602   0.203  -1.475  1.00  0.00    -0.007 C 
ATOM     20  C   UNL     1       1.361  -0.082  -0.178  1.00  0.00     0.008 C 
ATOM     21  C   UNL     1       1.118  -0.752  -2.561  1.00  0.00     0.008 C 
ENDBRANCH  18  19
ENDBRANCH  17  18
ENDBRANCH   7  17
BRANCH  16  22
ATOM     22  C   UNL     1       2.351   2.749   4.778  1.00  0.00     0.429 C 
ATOM     23  F   UNL     1       2.603   4.050   4.486  1.00  0.00    -0.167 F 
ATOM     24  F   UNL     1       3.229   2.398   5.747  1.00  0.00    -0.167 F 
ATOM     25  F   UNL     1       2.661   2.018   3.684  1.00  0.00    -0.167 F 
ENDBRANCH  16  22
ENDBRANCH   3   6
ENDBRANCH   1   2
BRANCH   1  26
ATOM     26  C   UNL     1       0.969   4.184   8.950  1.00  0.00     0.042 C 
BRANCH  26  27
ATOM     27  C   UNL     1       1.188   4.056  10.453  1.00  0.00     0.118 C 
BRANCH  27  28
ATOM     28  N   UNL     1       2.456   4.645  10.878  1.00  0.00    -0.352 N 
ATOM     29  C   UNL     1       2.720   5.797  11.578  1.00  0.00     0.251 C 
ATOM     30  H   UNL     1       3.254   4.130  10.620  1.00  0.00     0.163 HD
ATOM     31  O   UNL     1       3.869   6.231  11.625  1.00  0.00    -0.269 OA
BRANCH  29  32
ATOM     32  C   UNL     1       1.631   6.526  12.260  1.00  0.00     0.039 A 
ATOM     33  C   UNL     1       0.624   5.829  12.924  1.00  0.00     0.014 A 
ATOM     34  C   UNL     1       1.625   7.924  12.255  1.00  0.00     0.014 A 
ATOM     35  C   UNL     1      -0.486   6.511  13.402  1.00  0.00     0.010 A 
ATOM     36  C   UNL     1       0.561   8.617  12.842  1.00  0.00     0.010 A 
ATOM     37  C   UNL     1      -0.528   7.915  13.377  1.00  0.00    -0.014 A 
BRANCH  37  38
ATOM     38  C   UNL     1      -1.720   8.607  13.934  1.00  0.00     0.031 A 
ATOM     39  C   UNL     1      -2.606   9.447  13.056  1.00  0.00     0.074 A 
ATOM     40  C   UNL     1      -2.046   8.400  15.227  1.00  0.00     0.049 A 
ATOM     41  N   UNL     1      -3.713  10.073  13.370  1.00  0.00    -0.248 NA
ATOM     42  C   UNL     1      -2.209   9.612  11.647  1.00  0.00     0.031 C 
ATOM     43  C   UNL     1      -1.276   7.583  16.169  1.00  0.00     0.029 A 
ATOM     44  N   UNL     1      -3.130   8.814  15.959  1.00  0.00    -0.354 N 
ATOM     45  C   UNL     1      -4.129  10.718  12.211  1.00  0.00     0.074 A 
ATOM     46  C   UNL     1      -3.148  10.430  11.190  1.00  0.00     0.031 C 
ATOM     47  C   UNL     1      -1.953   7.485  17.322  1.00  0.00     0.029 A 
ATOM     48  C   UNL     1      -3.159   8.299  17.233  1.00  0.00     0.049 A 
ATOM     49  H   UNL     1      -3.819   9.422  15.607  1.00  0.00     0.167 HD
ATOM     50  C   UNL     1      -5.236  11.472  12.018  1.00  0.00     0.031 A 
ATOM     51  C   UNL     1      -4.051   8.465  18.228  1.00  0.00     0.031 A 
ATOM     52  C   UNL     1      -6.223  11.736  13.031  1.00  0.00     0.049 A 
ATOM     53  C   UNL     1      -5.242   9.349  17.995  1.00  0.00     0.074 A 
ATOM     54  C   UNL     1      -7.386  12.479  12.919  1.00  0.00     0.029 A 
ATOM     55  N   UNL     1      -6.171  11.263  14.331  1.00  0.00    -0.354 N 
ATOM     56  N   UNL     1      -5.615   9.952  16.893  1.00  0.00    -0.248 NA
ATOM     57  C   UNL     1      -6.129   9.584  19.143  1.00  0.00     0.031 C 
ATOM     58  C   UNL     1      -8.009  12.502  14.168  1.00  0.00     0.029 A 
ATOM     59  C   UNL     1      -7.269  11.720  15.040  1.00  0.00     0.049 A 
ATOM     60  H   UNL     1      -5.461  10.688  14.697  1.00  0.00     0.167 HD
ATOM     61  C   UNL     1      -6.785  10.629  17.211  1.00  0.00     0.074 A 
ATOM     62  C   UNL     1      -7.073  10.341  18.601  1.00  0.00     0.031 C 
ATOM     63  C   UNL     1      -7.545  11.424  16.421  1.00  0.00     0.031 A 
BRANCH  50  64
ATOM     64  C   UNL     1      -5.457  12.086  10.663  1.00  0.00    -0.014 A 
ATOM     65  C   UNL     1      -5.351  13.477  10.506  1.00  0.00     0.009 A 
ATOM     66  C   UNL     1      -5.894  11.311   9.579  1.00  0.00     0.009 A 
ATOM     67  C   UNL     1      -5.701  14.084   9.299  1.00  0.00     0.001 A 
ATOM     68  C   UNL     1      -6.220  11.918   8.364  1.00  0.00     0.001 A 
ATOM     69  C   UNL     1      -6.135  13.304   8.229  1.00  0.00     0.000 A 
ENDBRANCH  50  64
BRANCH  51  70
ATOM     70  C   UNL     1      -3.842   7.782  19.532  1.00  0.00    -0.014 A 
ATOM     71  C   UNL     1      -2.753   8.122  20.352  1.00  0.00     0.009 A 
ATOM     72  C   UNL     1      -4.710   6.763  19.952  1.00  0.00     0.009 A 
ATOM     73  C   UNL     1      -2.522   7.442  21.549  1.00  0.00     0.001 A 
ATOM     74  C   UNL     1      -4.498   6.108  21.168  1.00  0.00     0.001 A 
ATOM     75  C   UNL     1      -3.399   6.440  21.959  1.00  0.00     0.000 A 
ENDBRANCH  51  70
BRANCH  63  76
ATOM     76  C   UNL     1      -8.775  12.036  17.025  1.00  0.00    -0.014 A 
ATOM     77  C   UNL     1     -10.045  11.611  16.602  1.00  0.00     0.009 A 
ATOM     78  C   UNL     1      -8.680  13.100  17.935  1.00  0.00     0.009 A 
ATOM     79  C   UNL     1     -11.195  12.248  17.068  1.00  0.00     0.001 A 
ATOM     80  C   UNL     1      -9.834  13.716  18.421  1.00  0.00     0.001 A 
ATOM     81  C   UNL     1     -11.089  13.297  17.980  1.00  0.00     0.000 A 
ENDBRANCH  63  76
ENDBRANCH  37  38
ENDBRANCH  29  32
ENDBRANCH  27  28
ENDBRANCH  26  27
ENDBRANCH   1  26
TORSDOF 14
