REMARK SMILES Cc1cc(C(=O)NCCCNC(=O)c2ccc(-c3c4nc(c(-c5ccccc5)c5ccc([nH]5)c(-c5ccccc5)c5nc(c(-c6ccccc6)c6ccc3[nH]6)C=C5)C=C4)cc2)ccc1NC(=O)c1ccc(=O)n(CCOc2ccccc2)n1
REMARK SMILES IDX 5 1 6 2 7 3 4 5 1 6 2 7 3 8 64 9 63 10 62 11 65 12 66 13
REMARK SMILES IDX 67 15 68 16 69 17 83 18 70 19 73 20 71 21 72 22 74 23 75 24
REMARK SMILES IDX 76 25 77 26 78 27 82 28 79 29 81 30 80 31 8 32 9 33 10 34
REMARK SMILES IDX 11 35 12 36 13 38 14 39 15 40 61 41 16 42 60 43 17 44 18 45
REMARK SMILES IDX 19 46 54 47 20 48 59 49 53 50 55 51 21 52 58 53 52 54 51 55
REMARK SMILES IDX 22 57 44 58 29 59 43 60 30 61 33 62 42 63 56 64 31 65 32 66
REMARK SMILES IDX 41 68 57 69 34 70 23 71 24 72 28 73 25 74 27 75 26 76 45 77
REMARK SMILES IDX 46 78 50 79 47 80 49 81 48 82 35 83 36 84 40 85 37 86 39 87
REMARK SMILES IDX 38 88
REMARK H PARENT 7 4 65 14 11 37 55 56 33 67
REMARK Flexibility Score: inf
ROOT
ATOM      1  C   UNL     1      -1.680  -2.631  -0.109  1.00  0.00     0.251 C 
ATOM      2  O   UNL     1      -1.118  -3.725  -0.148  1.00  0.00    -0.269 OA
ATOM      3  N   UNL     1      -3.053  -2.587   0.030  1.00  0.00    -0.352 N 
ATOM      4  H   UNL     1      -3.502  -3.458  -0.070  1.00  0.00     0.163 HD
ENDROOT
BRANCH   1   5
ATOM      5  C   UNL     1      -0.848  -1.399  -0.179  1.00  0.00     0.040 A 
ATOM      6  C   UNL     1       2.679  -0.371   0.795  1.00  0.00     0.046 C 
ATOM      7  C   UNL     1       1.244  -0.221   0.369  1.00  0.00    -0.027 A 
ATOM      8  C   UNL     1       0.450  -1.400   0.349  1.00  0.00     0.019 A 
ATOM      9  C   UNL     1       0.681   0.985  -0.078  1.00  0.00     0.044 A 
ATOM     10  C   UNL     1      -0.499   0.896  -0.815  1.00  0.00     0.027 A 
ATOM     11  C   UNL     1      -1.261  -0.270  -0.863  1.00  0.00     0.016 A 
BRANCH   9  12
ATOM     12  N   UNL     1       1.284   2.222   0.214  1.00  0.00    -0.320 N 
ATOM     13  C   UNL     1       0.713   3.497   0.341  1.00  0.00     0.276 C 
ATOM     14  H   UNL     1       2.258   2.187   0.352  1.00  0.00     0.170 HD
ATOM     15  O   UNL     1       1.381   4.480   0.598  1.00  0.00    -0.267 OA
BRANCH  13  16
ATOM     16  C   UNL     1      -0.780   3.659   0.153  1.00  0.00     0.149 A 
ATOM     17  C   UNL     1      -1.184   4.198  -1.163  1.00  0.00     0.042 A 
ATOM     18  N   UNL     1      -1.604   3.284   1.087  1.00  0.00    -0.164 NA
ATOM     19  C   UNL     1      -2.418   3.873  -1.552  1.00  0.00     0.076 A 
ATOM     20  N   UNL     1      -2.938   3.167   0.701  1.00  0.00    -0.226 N 
ATOM     21  C   UNL     1      -3.288   3.095  -0.641  1.00  0.00     0.266 A 
ATOM     22  O   UNL     1      -4.236   2.474  -1.105  1.00  0.00    -0.268 OA
BRANCH  20  23
ATOM     23  C   UNL     1      -3.915   2.836   1.743  1.00  0.00     0.190 C 
BRANCH  23  24
ATOM     24  C   UNL     1      -4.715   4.068   2.208  1.00  0.00     0.253 C 
BRANCH  24  25
ATOM     25  O   UNL     1      -5.940   4.219   1.462  1.00  0.00    -0.492 OA
BRANCH  25  26
ATOM     26  C   UNL     1      -5.898   5.280   0.602  1.00  0.00     0.119 A 
ATOM     27  C   UNL     1      -5.992   6.595   1.045  1.00  0.00     0.046 A 
ATOM     28  C   UNL     1      -5.821   5.014  -0.761  1.00  0.00     0.046 A 
ATOM     29  C   UNL     1      -5.886   7.640   0.123  1.00  0.00     0.004 A 
ATOM     30  C   UNL     1      -5.646   6.049  -1.675  1.00  0.00     0.004 A 
ATOM     31  C   UNL     1      -5.670   7.367  -1.230  1.00  0.00     0.000 A 
ENDBRANCH  25  26
ENDBRANCH  24  25
ENDBRANCH  23  24
ENDBRANCH  20  23
ENDBRANCH  13  16
ENDBRANCH   9  12
ENDBRANCH   1   5
BRANCH   3  32
ATOM     32  C   UNL     1      -3.952  -1.468   0.299  1.00  0.00     0.118 C 
BRANCH  32  33
ATOM     33  C   UNL     1      -4.594  -0.917  -0.973  1.00  0.00     0.042 C 
BRANCH  33  34
ATOM     34  C   UNL     1      -5.982  -1.453  -1.284  1.00  0.00     0.118 C 
BRANCH  34  35
ATOM     35  N   UNL     1      -7.062  -0.475  -1.106  1.00  0.00    -0.352 N 
ATOM     36  C   UNL     1      -8.398  -0.624  -1.447  1.00  0.00     0.251 C 
ATOM     37  H   UNL     1      -6.809   0.385  -0.699  1.00  0.00     0.163 HD
ATOM     38  O   UNL     1      -9.245   0.209  -1.154  1.00  0.00    -0.269 OA
BRANCH  36  39
ATOM     39  C   UNL     1      -8.789  -1.894  -2.094  1.00  0.00     0.039 A 
ATOM     40  C   UNL     1      -9.536  -2.794  -1.334  1.00  0.00     0.014 A 
ATOM     41  C   UNL     1      -8.091  -2.305  -3.228  1.00  0.00     0.014 A 
ATOM     42  C   UNL     1      -9.343  -4.155  -1.538  1.00  0.00     0.010 A 
ATOM     43  C   UNL     1      -7.827  -3.655  -3.369  1.00  0.00     0.010 A 
ATOM     44  C   UNL     1      -8.380  -4.567  -2.464  1.00  0.00    -0.014 A 
BRANCH  44  45
ATOM     45  C   UNL     1      -7.791  -5.902  -2.415  1.00  0.00     0.031 A 
ATOM     46  C   UNL     1      -8.198  -6.932  -3.383  1.00  0.00     0.074 A 
ATOM     47  C   UNL     1      -6.916  -6.254  -1.444  1.00  0.00     0.049 A 
ATOM     48  N   UNL     1      -8.348  -8.181  -3.081  1.00  0.00    -0.248 NA
ATOM     49  C   UNL     1      -8.506  -6.619  -4.770  1.00  0.00     0.031 C 
ATOM     50  C   UNL     1      -6.168  -7.507  -1.356  1.00  0.00     0.029 A 
ATOM     51  N   UNL     1      -6.717  -5.657  -0.200  1.00  0.00    -0.354 N 
ATOM     52  C   UNL     1      -8.449  -8.864  -4.267  1.00  0.00     0.074 A 
ATOM     53  C   UNL     1      -8.652  -7.846  -5.277  1.00  0.00     0.031 C 
ATOM     54  C   UNL     1      -5.896  -7.748  -0.065  1.00  0.00     0.029 A 
ATOM     55  C   UNL     1      -6.524  -6.702   0.721  1.00  0.00     0.049 A 
ATOM     56  H   UNL     1      -6.713  -4.692  -0.004  1.00  0.00     0.167 HD
ATOM     57  C   UNL     1      -8.183 -10.199  -4.318  1.00  0.00     0.031 A 
ATOM     58  C   UNL     1      -7.277  -6.873   1.843  1.00  0.00     0.031 A 
ATOM     59  C   UNL     1      -7.820 -10.765  -3.019  1.00  0.00     0.049 A 
ATOM     60  C   UNL     1      -7.980  -8.215   1.911  1.00  0.00     0.074 A 
ATOM     61  C   UNL     1      -6.626 -11.197  -2.460  1.00  0.00     0.029 A 
ATOM     62  N   UNL     1      -8.732 -10.721  -1.974  1.00  0.00    -0.354 N 
ATOM     63  N   UNL     1      -7.875  -9.154   1.014  1.00  0.00    -0.248 NA
ATOM     64  C   UNL     1      -8.972  -8.542   2.936  1.00  0.00     0.031 C 
ATOM     65  C   UNL     1      -6.838 -11.442  -1.076  1.00  0.00     0.029 A 
ATOM     66  C   UNL     1      -8.158 -11.154  -0.792  1.00  0.00     0.049 A 
ATOM     67  H   UNL     1      -9.665 -10.420  -2.063  1.00  0.00     0.167 HD
ATOM     68  C   UNL     1      -8.796 -10.142   1.267  1.00  0.00     0.074 A 
ATOM     69  C   UNL     1      -9.456  -9.712   2.485  1.00  0.00     0.031 C 
ATOM     70  C   UNL     1      -8.971 -11.198   0.416  1.00  0.00     0.031 A 
BRANCH  57  71
ATOM     71  C   UNL     1      -7.965 -10.911  -5.631  1.00  0.00    -0.014 A 
ATOM     72  C   UNL     1      -7.036 -11.963  -5.718  1.00  0.00     0.009 A 
ATOM     73  C   UNL     1      -8.609 -10.556  -6.829  1.00  0.00     0.009 A 
ATOM     74  C   UNL     1      -6.673 -12.532  -6.945  1.00  0.00     0.001 A 
ATOM     75  C   UNL     1      -8.216 -11.084  -8.066  1.00  0.00     0.001 A 
ATOM     76  C   UNL     1      -7.234 -12.063  -8.125  1.00  0.00     0.000 A 
ENDBRANCH  57  71
BRANCH  58  77
ATOM     77  C   UNL     1      -7.819  -5.604   2.395  1.00  0.00    -0.014 A 
ATOM     78  C   UNL     1      -6.901  -4.679   2.933  1.00  0.00     0.009 A 
ATOM     79  C   UNL     1      -9.102  -5.159   2.050  1.00  0.00     0.009 A 
ATOM     80  C   UNL     1      -7.216  -3.320   2.999  1.00  0.00     0.001 A 
ATOM     81  C   UNL     1      -9.416  -3.799   2.133  1.00  0.00     0.001 A 
ATOM     82  C   UNL     1      -8.462  -2.877   2.566  1.00  0.00     0.000 A 
ENDBRANCH  58  77
BRANCH  70  83
ATOM     83  C   UNL     1      -9.933 -12.357   0.590  1.00  0.00    -0.014 A 
ATOM     84  C   UNL     1     -10.500 -12.752   1.808  1.00  0.00     0.009 A 
ATOM     85  C   UNL     1     -10.234 -13.175  -0.525  1.00  0.00     0.009 A 
ATOM     86  C   UNL     1     -11.382 -13.842   1.891  1.00  0.00     0.001 A 
ATOM     87  C   UNL     1     -11.093 -14.275  -0.446  1.00  0.00     0.001 A 
ATOM     88  C   UNL     1     -11.683 -14.599   0.764  1.00  0.00     0.000 A 
ENDBRANCH  70  83
ENDBRANCH  44  45
ENDBRANCH  36  39
ENDBRANCH  34  35
ENDBRANCH  33  34
ENDBRANCH  32  33
ENDBRANCH   3  32
TORSDOF 16
