REMARK SMILES CCOc1cc(/C=C(/F)C(=O)NCCCNC(=O)c2ccc(-c3c4nc(c(-c5ccccc5)c5ccc([nH]5)c(-c5ccccc5)c5nc(c(-c6ccccc6)c6ccc3[nH]6)C=C5)C=C4)cc2)ccc1O
REMARK SMILES IDX 13 1 12 2 10 3 11 4 8 6 7 7 9 8 6 9 4 10 5 11 69 12 68 13
REMARK SMILES IDX 67 14 3 15 2 16 1 17 70 18 14 20 15 21 16 22 17 23 18 25
REMARK SMILES IDX 19 26 20 27 66 28 21 29 65 30 22 31 23 32 24 33 59 34 25 35
REMARK SMILES IDX 64 36 58 37 60 38 26 39 63 40 57 41 56 42 27 44 49 45 34 46
REMARK SMILES IDX 48 47 35 48 38 49 47 50 61 51 36 52 37 53 46 55 62 56 39 57
REMARK SMILES IDX 28 58 29 59 33 60 30 61 32 62 31 63 50 64 51 65 55 66 52 67
REMARK SMILES IDX 54 68 53 69 40 70 41 71 45 72 42 73 44 74 43 75
REMARK H PARENT 12 5 70 19 16 24 60 43 38 54
REMARK Flexibility Score: inf
ROOT
ATOM      1  C   UNL     1       2.677   6.335  -5.776  1.00  0.00     0.118 C 
ENDROOT
BRANCH   1   2
ATOM      2  N   UNL     1       2.057   5.311  -4.953  1.00  0.00    -0.350 N 
ATOM      3  C   UNL     1       1.415   5.339  -3.751  1.00  0.00     0.280 C 
ATOM      4  O   UNL     1       0.883   4.287  -3.398  1.00  0.00    -0.267 OA
ATOM      5  H   UNL     1       2.114   4.410  -5.344  1.00  0.00     0.163 HD
BRANCH   3   6
ATOM      6  C   UNL     1       1.362   6.582  -2.924  1.00  0.00     0.188 C 
ATOM      7  C   UNL     1       0.990   6.722  -1.640  1.00  0.00     0.053 C 
ATOM      8  F   UNL     1       1.695   7.722  -3.569  1.00  0.00    -0.201 F 
BRANCH   7   9
ATOM      9  C   UNL     1       0.560   5.755  -0.614  1.00  0.00    -0.019 A 
ATOM     10  C   UNL     1       0.620   3.569   0.495  1.00  0.00     0.161 A 
ATOM     11  C   UNL     1       1.059   4.450  -0.507  1.00  0.00     0.058 A 
ATOM     12  C   UNL     1      -0.281   4.034   1.452  1.00  0.00     0.157 A 
ATOM     13  C   UNL     1      -0.754   5.343   1.394  1.00  0.00     0.051 A 
ATOM     14  C   UNL     1      -0.332   6.199   0.373  1.00  0.00     0.012 A 
BRANCH  10  15
ATOM     15  O   UNL     1       1.217   2.338   0.460  1.00  0.00    -0.490 OA
BRANCH  15  16
ATOM     16  C   UNL     1       0.417   1.197   0.770  1.00  0.00     0.226 C 
ATOM     17  C   UNL     1       0.892   0.030  -0.080  1.00  0.00     0.049 C 
ENDBRANCH  15  16
ENDBRANCH  10  15
BRANCH  12  18
ATOM     18  O   UNL     1      -0.707   3.299   2.520  1.00  0.00    -0.504 OA
ATOM     19  H   UNL     1      -0.426   2.410   2.619  1.00  0.00     0.293 HD
ENDBRANCH  12  18
ENDBRANCH   7   9
ENDBRANCH   3   6
ENDBRANCH   1   2
BRANCH   1  20
ATOM     20  C   UNL     1       4.199   6.247  -5.805  1.00  0.00     0.042 C 
BRANCH  20  21
ATOM     21  C   UNL     1       4.757   4.882  -6.204  1.00  0.00     0.118 C 
BRANCH  21  22
ATOM     22  N   UNL     1       4.267   4.409  -7.492  1.00  0.00    -0.352 N 
ATOM     23  C   UNL     1       4.935   4.106  -8.653  1.00  0.00     0.251 C 
ATOM     24  H   UNL     1       3.291   4.286  -7.537  1.00  0.00     0.163 HD
ATOM     25  O   UNL     1       4.299   3.861  -9.671  1.00  0.00    -0.269 OA
BRANCH  23  26
ATOM     26  C   UNL     1       6.413   4.101  -8.695  1.00  0.00     0.039 A 
ATOM     27  C   UNL     1       7.053   4.681  -9.794  1.00  0.00     0.014 A 
ATOM     28  C   UNL     1       7.168   3.513  -7.679  1.00  0.00     0.014 A 
ATOM     29  C   UNL     1       8.448   4.741  -9.835  1.00  0.00     0.010 A 
ATOM     30  C   UNL     1       8.555   3.644  -7.680  1.00  0.00     0.010 A 
ATOM     31  C   UNL     1       9.210   4.263  -8.757  1.00  0.00    -0.014 A 
BRANCH  31  32
ATOM     32  C   UNL     1      10.687   4.419  -8.730  1.00  0.00     0.031 A 
ATOM     33  C   UNL     1      11.583   3.212  -8.707  1.00  0.00     0.074 A 
ATOM     34  C   UNL     1      11.222   5.654  -8.659  1.00  0.00     0.049 A 
ATOM     35  N   UNL     1      12.889   3.156  -8.627  1.00  0.00    -0.248 NA
ATOM     36  C   UNL     1      10.928   1.895  -8.757  1.00  0.00     0.031 C 
ATOM     37  C   UNL     1      10.463   6.907  -8.632  1.00  0.00     0.029 A 
ATOM     38  N   UNL     1      12.532   6.060  -8.589  1.00  0.00    -0.354 N 
ATOM     39  C   UNL     1      13.209   1.804  -8.597  1.00  0.00     0.074 A 
ATOM     40  C   UNL     1      11.960   1.075  -8.620  1.00  0.00     0.031 C 
ATOM     41  C   UNL     1      11.319   7.939  -8.581  1.00  0.00     0.029 A 
ATOM     42  C   UNL     1      12.683   7.424  -8.524  1.00  0.00     0.049 A 
ATOM     43  H   UNL     1      13.290   5.432  -8.587  1.00  0.00     0.167 HD
ATOM     44  C   UNL     1      14.431   1.222  -8.567  1.00  0.00     0.031 A 
ATOM     45  C   UNL     1      13.793   8.179  -8.419  1.00  0.00     0.031 A 
ATOM     46  C   UNL     1      15.674   1.948  -8.552  1.00  0.00     0.049 A 
ATOM     47  C   UNL     1      15.138   7.508  -8.374  1.00  0.00     0.074 A 
ATOM     48  C   UNL     1      16.963   1.446  -8.587  1.00  0.00     0.029 A 
ATOM     49  N   UNL     1      15.783   3.328  -8.490  1.00  0.00    -0.354 N 
ATOM     50  N   UNL     1      15.424   6.230  -8.419  1.00  0.00    -0.248 NA
ATOM     51  C   UNL     1      16.312   8.386  -8.277  1.00  0.00     0.031 C 
ATOM     52  C   UNL     1      17.853   2.519  -8.482  1.00  0.00     0.029 A 
ATOM     53  C   UNL     1      17.119   3.694  -8.453  1.00  0.00     0.049 A 
ATOM     54  H   UNL     1      15.025   3.955  -8.475  1.00  0.00     0.167 HD
ATOM     55  C   UNL     1      16.811   6.151  -8.383  1.00  0.00     0.074 A 
ATOM     56  C   UNL     1      17.306   7.511  -8.331  1.00  0.00     0.031 C 
ATOM     57  C   UNL     1      17.601   5.050  -8.395  1.00  0.00     0.031 A 
BRANCH  44  58
ATOM     58  C   UNL     1      14.487  -0.281  -8.534  1.00  0.00    -0.014 A 
ATOM     59  C   UNL     1      14.114  -1.052  -9.647  1.00  0.00     0.009 A 
ATOM     60  C   UNL     1      14.968  -0.934  -7.388  1.00  0.00     0.009 A 
ATOM     61  C   UNL     1      14.188  -2.446  -9.600  1.00  0.00     0.001 A 
ATOM     62  C   UNL     1      15.072  -2.326  -7.356  1.00  0.00     0.001 A 
ATOM     63  C   UNL     1      14.673  -3.081  -8.458  1.00  0.00     0.000 A 
ENDBRANCH  44  58
BRANCH  45  64
ATOM     64  C   UNL     1      13.680   9.660  -8.357  1.00  0.00    -0.014 A 
ATOM     65  C   UNL     1      14.110  10.455  -9.431  1.00  0.00     0.009 A 
ATOM     66  C   UNL     1      13.136  10.288  -7.225  1.00  0.00     0.009 A 
ATOM     67  C   UNL     1      14.020  11.847  -9.363  1.00  0.00     0.001 A 
ATOM     68  C   UNL     1      13.019  11.678  -7.172  1.00  0.00     0.001 A 
ATOM     69  C   UNL     1      13.469  12.457  -8.236  1.00  0.00     0.000 A 
ENDBRANCH  45  64
BRANCH  57  70
ATOM     70  C   UNL     1      19.089   5.268  -8.385  1.00  0.00    -0.014 A 
ATOM     71  C   UNL     1      19.753   5.739  -7.242  1.00  0.00     0.009 A 
ATOM     72  C   UNL     1      19.843   4.951  -9.526  1.00  0.00     0.009 A 
ATOM     73  C   UNL     1      21.138   5.922  -7.255  1.00  0.00     0.001 A 
ATOM     74  C   UNL     1      21.230   5.103  -9.526  1.00  0.00     0.001 A 
ATOM     75  C   UNL     1      21.875   5.598  -8.394  1.00  0.00     0.000 A 
ENDBRANCH  57  70
ENDBRANCH  31  32
ENDBRANCH  23  26
ENDBRANCH  21  22
ENDBRANCH  20  21
ENDBRANCH   1  20
TORSDOF 14
