REMARK SMILES CCc1c(C)nc(Nc2ccc(Cl)cc2Cl)nc1OCC(=O)NCCCNC(=O)c1ccc(-c2c3nc(c(-c4ccccc4)c4ccc([nH]4)c(-c4ccccc4)c4nc(c(-c5ccccc5)c5ccc2[nH]5)C=C4)C=C3)cc1
REMARK SMILES IDX 24 1 23 2 21 3 22 4 20 6 19 7 18 8 3 9 4 10 5 11 6 12 17 13
REMARK SMILES IDX 7 14 2 15 1 16 8 17 9 19 10 20 15 21 11 22 14 23 16 24 12 25
REMARK SMILES IDX 13 26 25 27 26 28 27 29 28 30 29 32 30 33 31 34 77 35 32 36
REMARK SMILES IDX 76 37 33 38 34 39 35 40 70 41 36 42 75 43 69 44 71 45 37 46
REMARK SMILES IDX 74 47 68 48 67 49 38 51 60 52 45 53 59 54 46 55 49 56 58 57
REMARK SMILES IDX 72 58 47 59 48 60 57 62 73 63 50 64 39 65 40 66 44 67 41 68
REMARK SMILES IDX 43 69 42 70 61 71 62 72 66 73 63 74 65 75 64 76 51 77 52 78
REMARK SMILES IDX 56 79 53 80 55 81 54 82
REMARK H PARENT 23 5 8 18 27 31 71 50 49 61
REMARK Flexibility Score: inf
ROOT
ATOM      1  C   UNL     1      -2.874  -4.455  -0.409  1.00  0.00     0.117 C 
ENDROOT
BRANCH   1   2
ATOM      2  N   UNL     1      -2.519  -3.158  -0.956  1.00  0.00    -0.353 N 
ATOM      3  C   UNL     1      -1.321  -2.774  -1.491  1.00  0.00     0.258 C 
ATOM      4  O   UNL     1      -1.279  -1.736  -2.155  1.00  0.00    -0.271 OA
ATOM      5  H   UNL     1      -3.225  -2.473  -0.940  1.00  0.00     0.163 HD
BRANCH   3   6
ATOM      6  C   UNL     1      -0.075  -3.631  -1.258  1.00  0.00     0.331 C 
BRANCH   6   7
ATOM      7  O   UNL     1       0.119  -3.986   0.092  1.00  0.00    -0.467 OA
BRANCH   7   8
ATOM      8  C   UNL     1       0.877  -3.313   0.993  1.00  0.00     0.222 A 
ATOM      9  C   UNL     1       1.194  -1.944   1.049  1.00  0.00     0.035 A 
ATOM     10  C   UNL     1       1.861  -1.575   2.217  1.00  0.00     0.050 A 
ATOM     11  C   UNL     1       2.298  -0.197   2.604  1.00  0.00     0.067 C 
ATOM     12  N   UNL     1       2.124  -2.450   3.204  1.00  0.00    -0.218 NA
ATOM     13  N   UNL     1       1.204  -4.191   1.970  1.00  0.00    -0.177 NA
ATOM     14  C   UNL     1       1.794  -3.729   3.062  1.00  0.00     0.230 A 
BRANCH   9  15
ATOM     15  C   UNL     1       0.745  -0.972  -0.011  1.00  0.00     0.040 C 
ATOM     16  C   UNL     1       1.186   0.483  -0.079  1.00  0.00     0.009 C 
ENDBRANCH   9  15
BRANCH  14  17
ATOM     17  N   UNL     1       2.103  -4.618   4.087  1.00  0.00    -0.323 N 
ATOM     18  H   UNL     1       1.964  -5.575   3.901  1.00  0.00     0.170 HD
BRANCH  17  19
ATOM     19  C   UNL     1       2.593  -4.287   5.361  1.00  0.00     0.060 A 
ATOM     20  C   UNL     1       1.986  -3.256   6.101  1.00  0.00     0.029 A 
ATOM     21  C   UNL     1       3.772  -4.857   5.870  1.00  0.00     0.066 A 
ATOM     22  C   UNL     1       2.537  -2.802   7.300  1.00  0.00     0.023 A 
ATOM     23  C   UNL     1       4.338  -4.395   7.063  1.00  0.00     0.043 A 
ATOM     24  Cl  UNL     1       4.592  -6.111   5.006  1.00  0.00    -0.082 Cl
ATOM     25  C   UNL     1       3.719  -3.365   7.767  1.00  0.00     0.042 A 
ATOM     26  Cl  UNL     1       4.429  -2.768   9.216  1.00  0.00    -0.084 Cl
ENDBRANCH  17  19
ENDBRANCH  14  17
ENDBRANCH   7   8
ENDBRANCH   6   7
ENDBRANCH   3   6
ENDBRANCH   1   2
BRANCH   1  27
ATOM     27  C   UNL     1      -3.029  -4.476   1.107  1.00  0.00     0.042 C 
BRANCH  27  28
ATOM     28  C   UNL     1      -4.070  -3.512   1.668  1.00  0.00     0.118 C 
BRANCH  28  29
ATOM     29  N   UNL     1      -5.398  -3.701   1.099  1.00  0.00    -0.352 N 
ATOM     30  C   UNL     1      -6.577  -4.125   1.660  1.00  0.00     0.251 C 
ATOM     31  H   UNL     1      -5.461  -3.485   0.141  1.00  0.00     0.163 HD
ATOM     32  O   UNL     1      -7.534  -4.362   0.929  1.00  0.00    -0.269 OA
BRANCH  30  33
ATOM     33  C   UNL     1      -6.710  -4.323   3.120  1.00  0.00     0.039 A 
ATOM     34  C   UNL     1      -7.450  -5.417   3.582  1.00  0.00     0.014 A 
ATOM     35  C   UNL     1      -6.163  -3.423   4.037  1.00  0.00     0.014 A 
ATOM     36  C   UNL     1      -7.577  -5.648   4.954  1.00  0.00     0.010 A 
ATOM     37  C   UNL     1      -6.220  -3.699   5.403  1.00  0.00     0.010 A 
ATOM     38  C   UNL     1      -6.927  -4.813   5.877  1.00  0.00    -0.014 A 
BRANCH  38  39
ATOM     39  C   UNL     1      -6.967  -5.100   7.335  1.00  0.00     0.031 A 
ATOM     40  C   UNL     1      -7.605  -4.128   8.290  1.00  0.00     0.074 A 
ATOM     41  C   UNL     1      -6.373  -6.213   7.809  1.00  0.00     0.049 A 
ATOM     42  N   UNL     1      -7.688  -4.187   9.596  1.00  0.00    -0.248 NA
ATOM     43  C   UNL     1      -8.210  -2.921   7.705  1.00  0.00     0.031 C 
ATOM     44  C   UNL     1      -5.687  -7.221   6.997  1.00  0.00     0.029 A 
ATOM     45  N   UNL     1      -6.248  -6.682   9.094  1.00  0.00    -0.354 N 
ATOM     46  C   UNL     1      -8.337  -3.022   9.987  1.00  0.00     0.074 A 
ATOM     47  C   UNL     1      -8.580  -2.252   8.787  1.00  0.00     0.031 C 
ATOM     48  C   UNL     1      -5.242  -8.202   7.798  1.00  0.00     0.029 A 
ATOM     49  C   UNL     1      -5.568  -7.873   9.181  1.00  0.00     0.049 A 
ATOM     50  H   UNL     1      -6.610  -6.210   9.878  1.00  0.00     0.167 HD
ATOM     51  C   UNL     1      -8.715  -2.635  11.229  1.00  0.00     0.031 A 
ATOM     52  C   UNL     1      -5.236  -8.615  10.254  1.00  0.00     0.031 A 
ATOM     53  C   UNL     1      -8.476  -3.401  12.425  1.00  0.00     0.049 A 
ATOM     54  C   UNL     1      -5.643  -8.150  11.624  1.00  0.00     0.074 A 
ATOM     55  C   UNL     1      -8.865  -3.116  13.723  1.00  0.00     0.029 A 
ATOM     56  N   UNL     1      -7.781  -4.599  12.470  1.00  0.00    -0.354 N 
ATOM     57  N   UNL     1      -6.316  -7.079  11.969  1.00  0.00    -0.248 NA
ATOM     58  C   UNL     1      -5.252  -9.006  12.754  1.00  0.00     0.031 C 
ATOM     59  C   UNL     1      -8.355  -4.113  14.561  1.00  0.00     0.029 A 
ATOM     60  C   UNL     1      -7.705  -5.053  13.777  1.00  0.00     0.049 A 
ATOM     61  H   UNL     1      -7.397  -5.059  11.689  1.00  0.00     0.167 HD
ATOM     62  C   UNL     1      -6.454  -7.147  13.349  1.00  0.00     0.074 A 
ATOM     63  C   UNL     1      -5.812  -8.374  13.775  1.00  0.00     0.031 C 
ATOM     64  C   UNL     1      -7.060  -6.272  14.189  1.00  0.00     0.031 A 
BRANCH  51  65
ATOM     65  C   UNL     1      -9.420  -1.312  11.358  1.00  0.00    -0.014 A 
ATOM     66  C   UNL     1     -10.720  -1.127  10.858  1.00  0.00     0.009 A 
ATOM     67  C   UNL     1      -8.791  -0.245  12.018  1.00  0.00     0.009 A 
ATOM     68  C   UNL     1     -11.357   0.110  10.982  1.00  0.00     0.001 A 
ATOM     69  C   UNL     1      -9.443   0.981  12.169  1.00  0.00     0.001 A 
ATOM     70  C   UNL     1     -10.721   1.160  11.640  1.00  0.00     0.000 A 
ENDBRANCH  51  65
BRANCH  52  71
ATOM     71  C   UNL     1      -4.487  -9.888  10.079  1.00  0.00    -0.014 A 
ATOM     72  C   UNL     1      -5.108 -11.121  10.332  1.00  0.00     0.009 A 
ATOM     73  C   UNL     1      -3.144  -9.877   9.670  1.00  0.00     0.009 A 
ATOM     74  C   UNL     1      -4.392 -12.313  10.208  1.00  0.00     0.001 A 
ATOM     75  C   UNL     1      -2.440 -11.073   9.516  1.00  0.00     0.001 A 
ATOM     76  C   UNL     1      -3.060 -12.289   9.796  1.00  0.00     0.000 A 
ENDBRANCH  52  71
BRANCH  64  77
ATOM     77  C   UNL     1      -7.090  -6.631  15.649  1.00  0.00    -0.014 A 
ATOM     78  C   UNL     1      -5.927  -6.601  16.435  1.00  0.00     0.009 A 
ATOM     79  C   UNL     1      -8.309  -6.977  16.253  1.00  0.00     0.009 A 
ATOM     80  C   UNL     1      -5.978  -6.949  17.786  1.00  0.00     0.001 A 
ATOM     81  C   UNL     1      -8.363  -7.293  17.612  1.00  0.00     0.001 A 
ATOM     82  C   UNL     1      -7.196  -7.290  18.374  1.00  0.00     0.000 A 
ENDBRANCH  64  77
ENDBRANCH  38  39
ENDBRANCH  30  33
ENDBRANCH  28  29
ENDBRANCH  27  28
ENDBRANCH   1  27
TORSDOF 15
