REMARK SMILES Cc1c(CC(=O)NCCCNC(=O)c2ccc(-c3c4nc(c(-c5ccccc5)c5ccc([nH]5)c(-c5ccccc5)c5nc(c(-c6ccccc6)c6ccc3[nH]6)C=C5)C=C4)cc2)cc(-c2ccccc2)cc1-c1ccccc1
REMARK SMILES IDX 9 1 8 2 7 3 5 4 6 5 4 7 3 8 1 9 2 10 71 11 62 12 70 13 63 14
REMARK SMILES IDX 72 15 73 16 77 17 74 18 76 19 75 20 64 21 65 22 69 23 66 24
REMARK SMILES IDX 68 25 67 26 10 27 11 28 12 29 13 31 14 32 15 33 61 34 16 35
REMARK SMILES IDX 60 36 17 37 18 38 19 39 54 40 20 41 59 42 53 43 55 44 21 45
REMARK SMILES IDX 58 46 52 47 51 48 22 50 44 51 29 52 43 53 30 54 33 55 42 56
REMARK SMILES IDX 56 57 31 58 32 59 41 61 57 62 34 63 23 64 24 65 28 66 25 67
REMARK SMILES IDX 27 68 26 69 45 70 46 71 50 72 47 73 49 74 48 75 35 76 36 77
REMARK SMILES IDX 40 78 37 79 39 80 38 81
REMARK H PARENT 7 6 11 30 55 49 33 60
REMARK Flexibility Score: inf
ROOT
ATOM      1  C   UNL     1       1.348  -0.539   2.929  1.00  0.00     0.042 C 
ENDROOT
BRANCH   1   2
ATOM      2  C   UNL     1       2.060  -1.874   2.725  1.00  0.00     0.117 C 
BRANCH   2   3
ATOM      3  N   UNL     1       1.146  -2.951   2.379  1.00  0.00    -0.356 N 
ATOM      4  C   UNL     1       0.655  -3.311   1.153  1.00  0.00     0.224 C 
ATOM      5  O   UNL     1      -0.113  -4.275   1.096  1.00  0.00    -0.275 OA
ATOM      6  H   UNL     1       0.835  -3.500   3.135  1.00  0.00     0.163 HD
BRANCH   4   7
ATOM      7  C   UNL     1       1.053  -2.546  -0.108  1.00  0.00     0.135 C 
BRANCH   7   8
ATOM      8  C   UNL     1       0.369  -1.196  -0.237  1.00  0.00    -0.035 A 
ATOM      9  C   UNL     1       2.569   0.072  -0.488  1.00  0.00     0.045 C 
ATOM     10  C   UNL     1       1.066   0.037  -0.334  1.00  0.00    -0.040 A 
ATOM     11  C   UNL     1       0.327   1.253  -0.314  1.00  0.00    -0.015 A 
ATOM     12  C   UNL     1      -1.043  -1.192  -0.207  1.00  0.00     0.013 A 
ATOM     13  C   UNL     1      -1.082   1.201  -0.255  1.00  0.00     0.017 A 
ATOM     14  C   UNL     1      -1.786  -0.008  -0.219  1.00  0.00    -0.017 A 
BRANCH  11  15
ATOM     15  C   UNL     1       0.967   2.583  -0.292  1.00  0.00    -0.018 A 
ATOM     16  C   UNL     1       0.840   3.414   0.836  1.00  0.00     0.009 A 
ATOM     17  C   UNL     1       1.717   3.056  -1.380  1.00  0.00     0.009 A 
ATOM     18  C   UNL     1       1.455   4.667   0.881  1.00  0.00     0.001 A 
ATOM     19  C   UNL     1       2.343   4.304  -1.331  1.00  0.00     0.001 A 
ATOM     20  C   UNL     1       2.211   5.109  -0.201  1.00  0.00     0.000 A 
ENDBRANCH  11  15
BRANCH  14  21
ATOM     21  C   UNL     1      -3.258  -0.032  -0.196  1.00  0.00    -0.018 A 
ATOM     22  C   UNL     1      -3.962  -0.715   0.810  1.00  0.00     0.009 A 
ATOM     23  C   UNL     1      -4.001   0.617  -1.196  1.00  0.00     0.009 A 
ATOM     24  C   UNL     1      -5.359  -0.751   0.812  1.00  0.00     0.001 A 
ATOM     25  C   UNL     1      -5.397   0.578  -1.197  1.00  0.00     0.001 A 
ATOM     26  C   UNL     1      -6.076  -0.107  -0.193  1.00  0.00     0.000 A 
ENDBRANCH  14  21
ENDBRANCH   7   8
ENDBRANCH   4   7
ENDBRANCH   2   3
ENDBRANCH   1   2
BRANCH   1  27
ATOM     27  C   UNL     1       0.852  -0.312   4.346  1.00  0.00     0.118 C 
BRANCH  27  28
ATOM     28  N   UNL     1       1.730   0.516   5.165  1.00  0.00    -0.352 N 
ATOM     29  C   UNL     1       1.636   0.816   6.515  1.00  0.00     0.251 C 
ATOM     30  H   UNL     1       2.495   0.917   4.694  1.00  0.00     0.163 HD
ATOM     31  O   UNL     1       2.450   1.554   7.042  1.00  0.00    -0.269 OA
BRANCH  29  32
ATOM     32  C   UNL     1       0.615   0.119   7.337  1.00  0.00     0.039 A 
ATOM     33  C   UNL     1       1.044  -0.494   8.518  1.00  0.00     0.014 A 
ATOM     34  C   UNL     1      -0.663  -0.124   6.842  1.00  0.00     0.014 A 
ATOM     35  C   UNL     1       0.299  -1.544   9.046  1.00  0.00     0.010 A 
ATOM     36  C   UNL     1      -1.350  -1.230   7.299  1.00  0.00     0.010 A 
ATOM     37  C   UNL     1      -0.829  -1.984   8.354  1.00  0.00    -0.014 A 
BRANCH  37  38
ATOM     38  C   UNL     1      -1.426  -3.296   8.564  1.00  0.00     0.031 A 
ATOM     39  C   UNL     1      -2.732  -3.438   9.235  1.00  0.00     0.074 A 
ATOM     40  C   UNL     1      -0.790  -4.399   8.111  1.00  0.00     0.049 A 
ATOM     41  N   UNL     1      -3.107  -4.498   9.870  1.00  0.00    -0.248 NA
ATOM     42  C   UNL     1      -3.711  -2.358   9.286  1.00  0.00     0.031 C 
ATOM     43  C   UNL     1      -1.328  -5.751   7.984  1.00  0.00     0.029 A 
ATOM     44  N   UNL     1       0.557  -4.562   7.842  1.00  0.00    -0.354 N 
ATOM     45  C   UNL     1      -4.447  -4.361  10.143  1.00  0.00     0.074 A 
ATOM     46  C   UNL     1      -4.754  -2.982   9.842  1.00  0.00     0.031 C 
ATOM     47  C   UNL     1      -0.306  -6.620   7.904  1.00  0.00     0.029 A 
ATOM     48  C   UNL     1       0.922  -5.877   8.127  1.00  0.00     0.049 A 
ATOM     49  H   UNL     1       1.161  -3.862   7.503  1.00  0.00     0.167 HD
ATOM     50  C   UNL     1      -5.189  -5.461  10.452  1.00  0.00     0.031 A 
ATOM     51  C   UNL     1       1.837  -6.168   9.100  1.00  0.00     0.031 A 
ATOM     52  C   UNL     1      -4.375  -6.673  10.519  1.00  0.00     0.049 A 
ATOM     53  C   UNL     1       1.270  -6.980  10.249  1.00  0.00     0.074 A 
ATOM     54  C   UNL     1      -4.157  -7.712   9.629  1.00  0.00     0.029 A 
ATOM     55  N   UNL     1      -3.405  -6.791  11.507  1.00  0.00    -0.354 N 
ATOM     56  N   UNL     1      -0.005  -7.128  10.479  1.00  0.00    -0.248 NA
ATOM     57  C   UNL     1       2.094  -7.647  11.256  1.00  0.00     0.031 C 
ATOM     58  C   UNL     1      -3.003  -8.420  10.054  1.00  0.00     0.029 A 
ATOM     59  C   UNL     1      -2.541  -7.828  11.216  1.00  0.00     0.049 A 
ATOM     60  H   UNL     1      -3.343  -6.215  12.304  1.00  0.00     0.167 HD
ATOM     61  C   UNL     1      -0.187  -7.863  11.620  1.00  0.00     0.074 A 
ATOM     62  C   UNL     1       1.158  -8.181  12.062  1.00  0.00     0.031 C 
ATOM     63  C   UNL     1      -1.433  -8.132  12.110  1.00  0.00     0.031 A 
BRANCH  50  64
ATOM     64  C   UNL     1      -6.697  -5.476  10.388  1.00  0.00    -0.014 A 
ATOM     65  C   UNL     1      -7.369  -6.665  10.045  1.00  0.00     0.009 A 
ATOM     66  C   UNL     1      -7.510  -4.349  10.596  1.00  0.00     0.009 A 
ATOM     67  C   UNL     1      -8.750  -6.699   9.813  1.00  0.00     0.001 A 
ATOM     68  C   UNL     1      -8.886  -4.364  10.325  1.00  0.00     0.001 A 
ATOM     69  C   UNL     1      -9.504  -5.538   9.920  1.00  0.00     0.000 A 
ENDBRANCH  50  64
BRANCH  51  70
ATOM     70  C   UNL     1       2.909  -5.145   9.245  1.00  0.00    -0.014 A 
ATOM     71  C   UNL     1       3.844  -5.006   8.200  1.00  0.00     0.009 A 
ATOM     72  C   UNL     1       2.798  -4.111  10.186  1.00  0.00     0.009 A 
ATOM     73  C   UNL     1       4.564  -3.819   8.036  1.00  0.00     0.001 A 
ATOM     74  C   UNL     1       3.528  -2.927  10.022  1.00  0.00     0.001 A 
ATOM     75  C   UNL     1       4.382  -2.768   8.930  1.00  0.00     0.000 A 
ENDBRANCH  51  70
BRANCH  63  76
ATOM     76  C   UNL     1      -1.753  -8.754  13.447  1.00  0.00    -0.014 A 
ATOM     77  C   UNL     1      -0.904  -8.721  14.560  1.00  0.00     0.009 A 
ATOM     78  C   UNL     1      -3.045  -9.291  13.652  1.00  0.00     0.009 A 
ATOM     79  C   UNL     1      -1.311  -9.231  15.802  1.00  0.00     0.001 A 
ATOM     80  C   UNL     1      -3.470  -9.759  14.898  1.00  0.00     0.001 A 
ATOM     81  C   UNL     1      -2.595  -9.739  15.973  1.00  0.00     0.000 A 
ENDBRANCH  63  76
ENDBRANCH  37  38
ENDBRANCH  29  32
ENDBRANCH  27  28
ENDBRANCH   1  27
TORSDOF 13
