REMARK SMILES Cc1cccc(OC2(C(=O)NCCCNC(=O)c3ccc(-c4c5nc(c(-c6ccccc6)c6ccc([nH]6)c(-c6ccccc6)c6nc(c(-c7ccccc7)c7ccc4[nH]7)C=C6)C=C5)cc3)CCN(C(=O)c3cnc[nH]c3=O)CC2)c1
REMARK SMILES IDX 13 1 12 2 11 3 9 4 10 5 8 7 66 8 79 9 67 10 78 11 68 12
REMARK SMILES IDX 69 13 70 14 7 15 6 16 1 17 2 18 3 19 80 20 4 21 5 22 71 23
REMARK SMILES IDX 72 24 76 25 73 26 75 27 77 28 74 29 14 31 15 32 16 33 17 35
REMARK SMILES IDX 18 36 19 37 65 38 20 39 64 40 21 41 22 42 23 43 58 44 24 45
REMARK SMILES IDX 63 46 57 47 59 48 25 49 62 50 56 51 55 52 26 54 48 55 33 56
REMARK SMILES IDX 47 57 34 58 37 59 46 60 60 61 35 62 36 63 45 65 61 66 38 67
REMARK SMILES IDX 27 68 28 69 32 70 29 71 31 72 30 73 49 74 50 75 54 76 51 77
REMARK SMILES IDX 53 78 52 79 39 80 40 81 44 82 41 83 43 84 42 85
REMARK H PARENT 11 6 75 30 15 34 59 53 37 64
REMARK Flexibility Score: inf
ROOT
ATOM      1  C   UNL     1       1.065   6.557  -1.644  1.00  0.00     0.042 C 
ENDROOT
BRANCH   1   2
ATOM      2  C   UNL     1      -0.423   6.631  -1.288  1.00  0.00     0.118 C 
BRANCH   2   3
ATOM      3  N   UNL     1      -1.185   5.461  -1.727  1.00  0.00    -0.353 N 
ATOM      4  C   UNL     1      -1.438   4.221  -1.202  1.00  0.00     0.264 C 
ATOM      5  O   UNL     1      -2.262   3.560  -1.850  1.00  0.00    -0.270 OA
ATOM      6  H   UNL     1      -1.616   5.596  -2.602  1.00  0.00     0.163 HD
BRANCH   4   7
ATOM      7  C   UNL     1      -0.801   3.650   0.116  1.00  0.00     0.190 C 
ATOM      8  C   UNL     1       0.702   3.927   0.165  1.00  0.00     0.080 C 
ATOM      9  C   UNL     1      -1.498   4.318   1.336  1.00  0.00     0.080 C 
ATOM     10  C   UNL     1       1.352   3.646   1.503  1.00  0.00     0.124 C 
ATOM     11  C   UNL     1      -0.774   3.985   2.651  1.00  0.00     0.124 C 
ATOM     12  N   UNL     1       0.627   4.370   2.524  1.00  0.00    -0.338 N 
ATOM     13  C   UNL     1       1.110   5.595   2.950  1.00  0.00     0.261 C 
ATOM     14  O   UNL     1       1.822   6.318   2.258  1.00  0.00    -0.269 OA
BRANCH   7  15
ATOM     15  O   UNL     1      -1.237   2.277   0.212  1.00  0.00    -0.477 OA
BRANCH  15  16
ATOM     16  C   UNL     1      -0.608   1.093   0.034  1.00  0.00     0.121 A 
ATOM     17  C   UNL     1       2.727  -0.736  -0.135  1.00  0.00     0.044 C 
ATOM     18  C   UNL     1       1.247  -0.486  -0.102  1.00  0.00    -0.047 A 
ATOM     19  C   UNL     1       0.358  -1.559  -0.024  1.00  0.00     0.003 A 
ATOM     20  C   UNL     1       0.747   0.829  -0.117  1.00  0.00     0.049 A 
ATOM     21  C   UNL     1      -1.009  -1.317   0.056  1.00  0.00     0.004 A 
ATOM     22  C   UNL     1      -1.480  -0.002   0.098  1.00  0.00     0.046 A 
ENDBRANCH  15  16
ENDBRANCH   7  15
BRANCH  13  23
ATOM     23  C   UNL     1       0.752   5.976   4.326  1.00  0.00     0.123 A 
ATOM     24  C   UNL     1       0.182   7.163   4.573  1.00  0.00     0.132 A 
ATOM     25  C   UNL     1       1.066   5.118   5.483  1.00  0.00     0.263 A 
ATOM     26  N   UNL     1      -0.181   7.618   5.819  1.00  0.00    -0.246 NA
ATOM     27  N   UNL     1       0.699   5.630   6.695  1.00  0.00    -0.312 N 
ATOM     28  O   UNL     1       1.628   4.033   5.391  1.00  0.00    -0.269 OA
ATOM     29  C   UNL     1       0.096   6.846   6.816  1.00  0.00     0.199 A 
ATOM     30  H   UNL     1       0.875   5.103   7.508  1.00  0.00     0.171 HD
ENDBRANCH  13  23
ENDBRANCH   4   7
ENDBRANCH   2   3
ENDBRANCH   1   2
BRANCH   1  31
ATOM     31  C   UNL     1       1.522   7.504  -2.740  1.00  0.00     0.118 C 
BRANCH  31  32
ATOM     32  N   UNL     1       2.215   8.684  -2.218  1.00  0.00    -0.352 N 
ATOM     33  C   UNL     1       3.255   9.391  -2.802  1.00  0.00     0.251 C 
ATOM     34  H   UNL     1       1.904   9.016  -1.345  1.00  0.00     0.163 HD
ATOM     35  O   UNL     1       3.649  10.455  -2.359  1.00  0.00    -0.269 OA
BRANCH  33  36
ATOM     36  C   UNL     1       3.818   8.834  -4.047  1.00  0.00     0.039 A 
ATOM     37  C   UNL     1       3.374   9.393  -5.246  1.00  0.00     0.014 A 
ATOM     38  C   UNL     1       4.406   7.568  -3.997  1.00  0.00     0.014 A 
ATOM     39  C   UNL     1       3.279   8.575  -6.364  1.00  0.00     0.010 A 
ATOM     40  C   UNL     1       4.264   6.742  -5.101  1.00  0.00     0.010 A 
ATOM     41  C   UNL     1       3.610   7.221  -6.244  1.00  0.00    -0.014 A 
BRANCH  41  42
ATOM     42  C   UNL     1       3.097   6.232  -7.190  1.00  0.00     0.031 A 
ATOM     43  C   UNL     1       3.967   5.652  -8.226  1.00  0.00     0.074 A 
ATOM     44  C   UNL     1       1.789   5.883  -7.183  1.00  0.00     0.049 A 
ATOM     45  N   UNL     1       3.549   5.332  -9.406  1.00  0.00    -0.248 NA
ATOM     46  C   UNL     1       5.393   5.428  -8.027  1.00  0.00     0.031 C 
ATOM     47  C   UNL     1       1.154   4.818  -7.956  1.00  0.00     0.029 A 
ATOM     48  N   UNL     1       0.721   6.600  -6.637  1.00  0.00    -0.354 N 
ATOM     49  C   UNL     1       4.551   4.620 -10.011  1.00  0.00     0.074 A 
ATOM     50  C   UNL     1       5.706   4.775  -9.151  1.00  0.00     0.031 C 
ATOM     51  C   UNL     1      -0.154   5.091  -8.073  1.00  0.00     0.029 A 
ATOM     52  C   UNL     1      -0.391   6.394  -7.478  1.00  0.00     0.049 A 
ATOM     53  H   UNL     1       0.742   7.146  -5.819  1.00  0.00     0.167 HD
ATOM     54  C   UNL     1       4.286   3.854 -11.104  1.00  0.00     0.031 A 
ATOM     55  C   UNL     1      -1.031   7.437  -8.079  1.00  0.00     0.031 A 
ATOM     56  C   UNL     1       2.886   3.898 -11.514  1.00  0.00     0.049 A 
ATOM     57  C   UNL     1      -1.001   7.409  -9.595  1.00  0.00     0.074 A 
ATOM     58  C   UNL     1       1.818   3.022 -11.399  1.00  0.00     0.029 A 
ATOM     59  N   UNL     1       2.345   5.104 -11.924  1.00  0.00    -0.354 N 
ATOM     60  N   UNL     1      -0.425   6.485 -10.312  1.00  0.00    -0.248 NA
ATOM     61  C   UNL     1      -1.519   8.505 -10.418  1.00  0.00     0.031 C 
ATOM     62  C   UNL     1       0.632   3.710 -11.780  1.00  0.00     0.029 A 
ATOM     63  C   UNL     1       0.983   4.999 -12.129  1.00  0.00     0.049 A 
ATOM     64  H   UNL     1       2.864   5.931 -12.052  1.00  0.00     0.167 HD
ATOM     65  C   UNL     1      -0.403   6.877 -11.627  1.00  0.00     0.074 A 
ATOM     66  C   UNL     1      -1.114   8.141 -11.646  1.00  0.00     0.031 C 
ATOM     67  C   UNL     1       0.255   6.168 -12.590  1.00  0.00     0.031 A 
BRANCH  54  68
ATOM     68  C   UNL     1       5.285   2.866 -11.637  1.00  0.00    -0.014 A 
ATOM     69  C   UNL     1       4.852   1.627 -12.137  1.00  0.00     0.009 A 
ATOM     70  C   UNL     1       6.672   3.094 -11.638  1.00  0.00     0.009 A 
ATOM     71  C   UNL     1       5.756   0.627 -12.514  1.00  0.00     0.001 A 
ATOM     72  C   UNL     1       7.583   2.084 -11.972  1.00  0.00     0.001 A 
ATOM     73  C   UNL     1       7.123   0.844 -12.398  1.00  0.00     0.000 A 
ENDBRANCH  54  68
BRANCH  55  74
ATOM     74  C   UNL     1      -1.044   8.678  -7.260  1.00  0.00    -0.014 A 
ATOM     75  C   UNL     1      -1.806   8.696  -6.076  1.00  0.00     0.009 A 
ATOM     76  C   UNL     1      -0.091   9.686  -7.461  1.00  0.00     0.009 A 
ATOM     77  C   UNL     1      -1.551   9.638  -5.076  1.00  0.00     0.001 A 
ATOM     78  C   UNL     1       0.154  10.633  -6.461  1.00  0.00     0.001 A 
ATOM     79  C   UNL     1      -0.551  10.589  -5.258  1.00  0.00     0.000 A 
ENDBRANCH  55  74
BRANCH  67  80
ATOM     80  C   UNL     1       0.323   6.540 -14.051  1.00  0.00    -0.014 A 
ATOM     81  C   UNL     1      -0.719   7.173 -14.740  1.00  0.00     0.009 A 
ATOM     82  C   UNL     1       1.439   6.143 -14.822  1.00  0.00     0.009 A 
ATOM     83  C   UNL     1      -0.616   7.466 -16.108  1.00  0.00     0.001 A 
ATOM     84  C   UNL     1       1.537   6.410 -16.189  1.00  0.00     0.001 A 
ATOM     85  C   UNL     1       0.512   7.088 -16.831  1.00  0.00     0.000 A 
ENDBRANCH  67  80
ENDBRANCH  41  42
ENDBRANCH  33  36
ENDBRANCH  31  32
ENDBRANCH   1  31
TORSDOF 13
