REMARK SMILES Cn1cc([C@@H]2CC(NCCCNC(=O)c3ccc(-c4c5nc(c(-c6ccccc6)c6ccc([nH]6)c(-c6ccccc6)c6nc(c(-c7ccccc7)c7ccc4[nH]7)C=C6)C=C5)cc3)=[NH+]c3c2sc(C(=O)[O-])c3-c2ccc(Cl)cc2)cn1
REMARK SMILES IDX 11 1 10 2 9 3 8 4 5 5 6 6 65 7 7 8 64 9 66 10 63 11 71 12
REMARK SMILES IDX 67 13 4 16 1 17 2 18 3 19 80 20 79 21 72 22 73 23 78 24
REMARK SMILES IDX 74 25 77 26 75 27 76 28 68 29 69 30 70 31 12 32 13 33 14 35
REMARK SMILES IDX 15 36 16 37 62 38 17 39 61 40 18 41 19 42 20 43 55 44 21 45
REMARK SMILES IDX 60 46 54 47 56 48 22 49 59 50 53 51 52 52 23 54 45 55 30 56
REMARK SMILES IDX 44 57 31 58 34 59 43 60 57 61 32 62 33 63 42 65 58 66 35 67
REMARK SMILES IDX 24 68 25 69 29 70 26 71 28 72 27 73 46 74 47 75 51 76 48 77
REMARK SMILES IDX 50 78 49 79 36 80 37 81 41 82 38 83 40 84 39 85
REMARK H PARENT 8 14 63 15 12 34 56 53 34 64
REMARK Flexibility Score: inf
ROOT
ATOM      1  C   UNL     1       2.708  -7.175  -3.392  1.00  0.00     0.120 C 
ENDROOT
BRANCH   1   2
ATOM      2  C   UNL     1       2.793  -7.073  -1.880  1.00  0.00     0.067 C 
BRANCH   2   3
ATOM      3  C   UNL     1       3.864  -6.083  -1.420  1.00  0.00     0.235 C 
BRANCH   3   4
ATOM      4  N   UNL     1       3.466  -4.694  -1.641  1.00  0.00    -0.278 N 
ATOM      5  C   UNL     1       2.645  -1.383   0.176  1.00  0.00     0.079 C 
ATOM      6  C   UNL     1       2.961  -2.355  -0.977  1.00  0.00     0.142 C 
ATOM      7  C   UNL     1       2.635  -2.101   1.483  1.00  0.00     0.061 A 
ATOM      8  C   UNL     1       3.137  -3.834  -0.609  1.00  0.00     0.248 C 
ATOM      9  C   UNL     1       2.799  -3.444   1.637  1.00  0.00     0.147 A 
ATOM     10  S   UNL     1       2.438  -1.333   2.987  1.00  0.00    -0.133 S 
ATOM     11  N   UNL     1       3.027  -4.326   0.589  1.00  0.00    -0.243 N 
ATOM     12  C   UNL     1       2.757  -3.892   2.993  1.00  0.00     0.049 A 
ATOM     13  C   UNL     1       2.547  -2.825   3.861  1.00  0.00     0.062 A 
ATOM     14  H   UNL     1       3.431  -4.356  -2.565  1.00  0.00     0.304 HD
ATOM     15  H   UNL     1       3.103  -5.295   0.749  1.00  0.00     0.312 HD
BRANCH   5  16
ATOM     16  C   UNL     1       1.363  -0.625  -0.042  1.00  0.00    -0.001 A 
ATOM     17  C   UNL     1      -2.186  -0.003  -0.136  1.00  0.00     0.173 C 
ATOM     18  N   UNL     1      -0.745  -0.017  -0.180  1.00  0.00    -0.276 N 
ATOM     19  C   UNL     1       0.068  -1.107  -0.084  1.00  0.00     0.112 A 
ATOM     20  N   UNL     1      -0.073   1.142  -0.286  1.00  0.00    -0.182 NA
ATOM     21  C   UNL     1       1.205   0.777  -0.171  1.00  0.00     0.139 A 
ENDBRANCH   5  16
BRANCH  12  22
ATOM     22  C   UNL     1       2.968  -5.275   3.413  1.00  0.00    -0.012 A 
ATOM     23  C   UNL     1       1.954  -6.008   4.039  1.00  0.00     0.010 A 
ATOM     24  C   UNL     1       4.199  -5.894   3.142  1.00  0.00     0.010 A 
ATOM     25  C   UNL     1       2.189  -7.326   4.444  1.00  0.00     0.021 A 
ATOM     26  C   UNL     1       4.429  -7.214   3.532  1.00  0.00     0.021 A 
ATOM     27  C   UNL     1       3.427  -7.919   4.195  1.00  0.00     0.041 A 
ATOM     28  Cl  UNL     1       3.721  -9.534   4.710  1.00  0.00    -0.084 Cl
ENDBRANCH  12  22
BRANCH  13  29
ATOM     29  C   UNL     1       2.432  -2.728   5.306  1.00  0.00     0.082 C 
ATOM     30  O   UNL     1       2.116  -1.766   5.976  1.00  0.00    -0.544 OA
ATOM     31  O   UNL     1       2.732  -3.888   5.935  1.00  0.00    -0.544 OA
ENDBRANCH  13  29
ENDBRANCH   3   4
ENDBRANCH   2   3
ENDBRANCH   1   2
BRANCH   1  32
ATOM     32  N   UNL     1       3.904  -7.763  -4.013  1.00  0.00    -0.352 N 
ATOM     33  C   UNL     1       4.158  -7.974  -5.358  1.00  0.00     0.251 C 
ATOM     34  H   UNL     1       4.616  -8.043  -3.393  1.00  0.00     0.163 HD
ATOM     35  O   UNL     1       5.033  -8.746  -5.729  1.00  0.00    -0.269 OA
BRANCH  33  36
ATOM     36  C   UNL     1       3.351  -7.235  -6.342  1.00  0.00     0.039 A 
ATOM     37  C   UNL     1       2.855  -7.826  -7.508  1.00  0.00     0.014 A 
ATOM     38  C   UNL     1       3.041  -5.919  -6.025  1.00  0.00     0.014 A 
ATOM     39  C   UNL     1       1.971  -7.095  -8.301  1.00  0.00     0.010 A 
ATOM     40  C   UNL     1       2.006  -5.302  -6.664  1.00  0.00     0.010 A 
ATOM     41  C   UNL     1       1.538  -5.836  -7.855  1.00  0.00    -0.014 A 
BRANCH  41  42
ATOM     42  C   UNL     1       0.527  -5.064  -8.563  1.00  0.00     0.031 A 
ATOM     43  C   UNL     1      -0.770  -5.762  -8.726  1.00  0.00     0.074 A 
ATOM     44  C   UNL     1       0.672  -3.741  -8.807  1.00  0.00     0.049 A 
ATOM     45  N   UNL     1      -1.279  -6.227  -9.816  1.00  0.00    -0.248 NA
ATOM     46  C   UNL     1      -1.530  -6.116  -7.514  1.00  0.00     0.031 C 
ATOM     47  C   UNL     1       1.765  -2.857  -8.365  1.00  0.00     0.029 A 
ATOM     48  N   UNL     1      -0.191  -2.868  -9.393  1.00  0.00    -0.354 N 
ATOM     49  C   UNL     1      -2.531  -6.726  -9.466  1.00  0.00     0.074 A 
ATOM     50  C   UNL     1      -2.539  -6.822  -8.030  1.00  0.00     0.031 C 
ATOM     51  C   UNL     1       1.384  -1.566  -8.478  1.00  0.00     0.029 A 
ATOM     52  C   UNL     1       0.120  -1.528  -9.186  1.00  0.00     0.049 A 
ATOM     53  H   UNL     1      -0.970  -3.160  -9.920  1.00  0.00     0.167 HD
ATOM     54  C   UNL     1      -3.557  -6.718 -10.363  1.00  0.00     0.031 A 
ATOM     55  C   UNL     1      -0.604  -0.455  -9.579  1.00  0.00     0.031 A 
ATOM     56  C   UNL     1      -3.082  -6.382 -11.681  1.00  0.00     0.049 A 
ATOM     57  C   UNL     1      -1.489  -0.902 -10.672  1.00  0.00     0.074 A 
ATOM     58  C   UNL     1      -2.363  -7.001 -12.678  1.00  0.00     0.029 A 
ATOM     59  N   UNL     1      -3.031  -5.030 -11.914  1.00  0.00    -0.354 N 
ATOM     60  N   UNL     1      -1.042  -1.307 -11.826  1.00  0.00    -0.248 NA
ATOM     61  C   UNL     1      -2.870  -1.259 -10.376  1.00  0.00     0.031 C 
ATOM     62  C   UNL     1      -1.685  -5.955 -13.374  1.00  0.00     0.029 A 
ATOM     63  C   UNL     1      -2.052  -4.728 -12.821  1.00  0.00     0.049 A 
ATOM     64  H   UNL     1      -3.620  -4.367 -11.486  1.00  0.00     0.167 HD
ATOM     65  C   UNL     1      -1.905  -2.324 -12.189  1.00  0.00     0.074 A 
ATOM     66  C   UNL     1      -3.095  -2.122 -11.371  1.00  0.00     0.031 C 
ATOM     67  C   UNL     1      -1.454  -3.410 -12.881  1.00  0.00     0.031 A 
BRANCH  54  68
ATOM     68  C   UNL     1      -5.008  -6.487  -9.998  1.00  0.00    -0.014 A 
ATOM     69  C   UNL     1      -5.965  -6.494 -11.032  1.00  0.00     0.009 A 
ATOM     70  C   UNL     1      -5.432  -5.978  -8.756  1.00  0.00     0.009 A 
ATOM     71  C   UNL     1      -7.247  -5.961 -10.849  1.00  0.00     0.001 A 
ATOM     72  C   UNL     1      -6.723  -5.477  -8.559  1.00  0.00     0.001 A 
ATOM     73  C   UNL     1      -7.623  -5.446  -9.613  1.00  0.00     0.000 A 
ENDBRANCH  54  68
BRANCH  55  74
ATOM     74  C   UNL     1      -0.731   0.879  -8.963  1.00  0.00    -0.014 A 
ATOM     75  C   UNL     1      -1.113   1.993  -9.725  1.00  0.00     0.009 A 
ATOM     76  C   UNL     1      -0.762   0.995  -7.561  1.00  0.00     0.009 A 
ATOM     77  C   UNL     1      -1.562   3.167  -9.105  1.00  0.00     0.001 A 
ATOM     78  C   UNL     1      -1.215   2.166  -6.943  1.00  0.00     0.001 A 
ATOM     79  C   UNL     1      -1.631   3.246  -7.716  1.00  0.00     0.000 A 
ENDBRANCH  55  74
BRANCH  67  80
ATOM     80  C   UNL     1      -0.145  -3.272 -13.610  1.00  0.00    -0.014 A 
ATOM     81  C   UNL     1       1.093  -3.086 -12.971  1.00  0.00     0.009 A 
ATOM     82  C   UNL     1      -0.161  -3.420 -15.004  1.00  0.00     0.009 A 
ATOM     83  C   UNL     1       2.277  -3.025 -13.715  1.00  0.00     0.001 A 
ATOM     84  C   UNL     1       1.021  -3.381 -15.744  1.00  0.00     0.001 A 
ATOM     85  C   UNL     1       2.239  -3.177 -15.100  1.00  0.00     0.000 A 
ENDBRANCH  67  80
ENDBRANCH  41  42
ENDBRANCH  33  36
ENDBRANCH   1  32
TORSDOF 12
