REMARK SMILES Cc1nc(NC2CCCCCC2)sc1C(=O)NCCCNC(=O)c1ccc(-c2c3nc(c(-c4ccccc4)c4ccc([nH]4)c(-c4ccccc4)c4nc(c(-c5ccccc5)c5ccc2[nH]5)C=C4)C=C3)cc1
REMARK SMILES IDX 15 1 16 2 17 3 14 5 1 6 2 7 3 8 4 9 13 10 5 11 6 13 7 14
REMARK SMILES IDX 8 15 12 17 11 18 10 19 9 20 18 22 19 23 20 24 21 25 22 26
REMARK SMILES IDX 23 28 24 29 25 30 71 31 26 32 70 33 27 34 28 35 29 36 64 37
REMARK SMILES IDX 30 38 69 39 63 40 65 41 31 42 68 43 62 44 61 45 32 47 54 48
REMARK SMILES IDX 39 49 53 50 40 51 43 52 52 53 66 54 41 55 42 56 51 58 67 59
REMARK SMILES IDX 44 60 33 61 34 62 38 63 35 64 37 65 36 66 55 67 56 68 60 69
REMARK SMILES IDX 57 70 59 71 58 72 45 73 46 74 50 75 47 76 49 77 48 78
REMARK H PARENT 17 4 5 12 21 27 65 46 43 57
REMARK Flexibility Score: 80.00
ROOT
ATOM      1  C   UNL     1      -0.246  -2.278  -0.112  1.00  0.00     0.263 C 
ATOM      2  O   UNL     1       0.751  -2.874  -0.537  1.00  0.00    -0.268 OA
ATOM      3  N   UNL     1      -1.303  -3.116   0.140  1.00  0.00    -0.351 N 
ATOM      4  H   UNL     1      -1.113  -4.058  -0.077  1.00  0.00     0.163 HD
ENDROOT
BRANCH   1   5
ATOM      5  C   UNL     1      -0.257  -0.840   0.119  1.00  0.00     0.117 A 
ATOM      6  C   UNL     1      -2.637   0.267  -0.173  1.00  0.00     0.068 C 
ATOM      7  C   UNL     1      -1.191   0.189   0.128  1.00  0.00     0.063 A 
ATOM      8  N   UNL     1      -0.668   1.439   0.383  1.00  0.00    -0.225 NA
ATOM      9  C   UNL     1       0.631   1.447   0.344  1.00  0.00     0.183 A 
ATOM     10  S   UNL     1       1.323  -0.112   0.349  1.00  0.00    -0.092 S 
BRANCH   9  11
ATOM     11  N   UNL     1       1.368   2.572   0.254  1.00  0.00    -0.359 N 
ATOM     12  H   UNL     1       2.332   2.531   0.452  1.00  0.00     0.163 HD
BRANCH  11  13
ATOM     13  C   UNL     1       0.771   3.859  -0.130  1.00  0.00     0.081 C 
BRANCH  13  14
ATOM     14  C   UNL     1       0.189   3.816  -1.560  1.00  0.00     0.025 C 
BRANCH  14  15
ATOM     15  C   UNL     1      -1.325   3.661  -1.717  1.00  0.00     0.002 CG0
ATOM     16  G   UNL     1      -2.119   4.945  -1.516  1.00  0.00     0.000 G0
ENDBRANCH  14  15
ENDBRANCH  13  14
BRANCH  13  17
ATOM     17  C   UNL     1      -0.124   4.414   0.986  1.00  0.00     0.025 C 
BRANCH  17  18
ATOM     18  C   UNL     1      -0.892   5.682   0.616  1.00  0.00     0.002 C 
BRANCH  18  19
ATOM     19  C   UNL     1      -2.228   5.398  -0.066  1.00  0.00     0.000 C 
BRANCH  19  20
ATOM     20  C   UNL     1      -2.119   4.945  -1.516  1.00  0.00     0.000 CG0
ATOM     21  G   UNL     1      -1.325   3.661  -1.717  1.00  0.00     0.000 G0
ENDBRANCH  19  20
ENDBRANCH  18  19
ENDBRANCH  17  18
ENDBRANCH  13  17
ENDBRANCH  11  13
ENDBRANCH   9  11
ENDBRANCH   1   5
BRANCH   3  22
ATOM     22  C   UNL     1      -2.638  -2.908   0.657  1.00  0.00     0.118 C 
BRANCH  22  23
ATOM     23  C   UNL     1      -3.658  -2.907  -0.484  1.00  0.00     0.042 C 
BRANCH  23  24
ATOM     24  C   UNL     1      -4.181  -4.282  -0.860  1.00  0.00     0.118 C 
BRANCH  24  25
ATOM     25  N   UNL     1      -5.170  -4.746   0.098  1.00  0.00    -0.352 N 
ATOM     26  C   UNL     1      -6.515  -4.972  -0.064  1.00  0.00     0.251 C 
ATOM     27  H   UNL     1      -4.823  -4.927   1.002  1.00  0.00     0.163 HD
ATOM     28  O   UNL     1      -7.227  -5.084   0.929  1.00  0.00    -0.269 OA
BRANCH  26  29
ATOM     29  C   UNL     1      -7.118  -5.078  -1.415  1.00  0.00     0.039 A 
ATOM     30  C   UNL     1      -8.419  -4.603  -1.611  1.00  0.00     0.014 A 
ATOM     31  C   UNL     1      -6.444  -5.700  -2.469  1.00  0.00     0.014 A 
ATOM     32  C   UNL     1      -9.025  -4.716  -2.866  1.00  0.00     0.010 A 
ATOM     33  C   UNL     1      -7.014  -5.736  -3.740  1.00  0.00     0.010 A 
ATOM     34  C   UNL     1      -8.317  -5.262  -3.947  1.00  0.00    -0.014 A 
BRANCH  34  35
ATOM     35  C   UNL     1      -8.926  -5.378  -5.296  1.00  0.00     0.031 A 
ATOM     36  C   UNL     1      -9.155  -6.735  -5.905  1.00  0.00     0.074 A 
ATOM     37  C   UNL     1      -9.209  -4.265  -6.000  1.00  0.00     0.049 A 
ATOM     38  N   UNL     1      -9.588  -7.041  -7.102  1.00  0.00    -0.248 NA
ATOM     39  C   UNL     1      -8.828  -7.902  -5.069  1.00  0.00     0.031 C 
ATOM     40  C   UNL     1      -9.003  -2.892  -5.536  1.00  0.00     0.029 A 
ATOM     41  N   UNL     1      -9.723  -4.116  -7.263  1.00  0.00    -0.354 N 
ATOM     42  C   UNL     1      -9.561  -8.429  -7.169  1.00  0.00     0.074 A 
ATOM     43  C   UNL     1      -9.028  -8.904  -5.911  1.00  0.00     0.031 C 
ATOM     44  C   UNL     1      -9.404  -2.041  -6.494  1.00  0.00     0.029 A 
ATOM     45  C   UNL     1      -9.857  -2.805  -7.651  1.00  0.00     0.049 A 
ATOM     46  H   UNL     1      -9.971  -4.876  -7.838  1.00  0.00     0.167 HD
ATOM     47  C   UNL     1      -9.960  -9.238  -8.180  1.00  0.00     0.031 A 
ATOM     48  C   UNL     1     -10.287  -2.277  -8.812  1.00  0.00     0.031 A 
ATOM     49  C   UNL     1     -10.507  -8.767  -9.423  1.00  0.00     0.049 A 
ATOM     50  C   UNL     1     -10.723  -3.195  -9.919  1.00  0.00     0.074 A 
ATOM     51  C   UNL     1     -10.992  -9.507 -10.488  1.00  0.00     0.029 A 
ATOM     52  N   UNL     1     -10.644  -7.431  -9.767  1.00  0.00    -0.354 N 
ATOM     53  N   UNL     1     -10.743  -4.505  -9.945  1.00  0.00    -0.248 NA
ATOM     54  C   UNL     1     -11.205  -2.559 -11.153  1.00  0.00     0.031 C 
ATOM     55  C   UNL     1     -11.383  -8.617 -11.495  1.00  0.00     0.029 A 
ATOM     56  C   UNL     1     -11.188  -7.324 -11.036  1.00  0.00     0.049 A 
ATOM     57  H   UNL     1     -10.391  -6.671  -9.195  1.00  0.00     0.167 HD
ATOM     58  C   UNL     1     -11.262  -4.851 -11.186  1.00  0.00     0.074 A 
ATOM     59  C   UNL     1     -11.557  -3.612 -11.877  1.00  0.00     0.031 C 
ATOM     60  C   UNL     1     -11.475  -6.084 -11.707  1.00  0.00     0.031 A 
BRANCH  47  61
ATOM     61  C   UNL     1      -9.813 -10.721  -7.979  1.00  0.00    -0.014 A 
ATOM     62  C   UNL     1     -10.631 -11.417  -7.074  1.00  0.00     0.009 A 
ATOM     63  C   UNL     1      -8.865 -11.437  -8.725  1.00  0.00     0.009 A 
ATOM     64  C   UNL     1     -10.476 -12.793  -6.895  1.00  0.00     0.001 A 
ATOM     65  C   UNL     1      -8.731 -12.817  -8.564  1.00  0.00     0.001 A 
ATOM     66  C   UNL     1      -9.530 -13.492  -7.642  1.00  0.00     0.000 A 
ENDBRANCH  47  61
BRANCH  48  67
ATOM     67  C   UNL     1     -10.339  -0.802  -8.982  1.00  0.00    -0.014 A 
ATOM     68  C   UNL     1     -11.572  -0.134  -9.010  1.00  0.00     0.009 A 
ATOM     69  C   UNL     1      -9.158  -0.055  -9.111  1.00  0.00     0.009 A 
ATOM     70  C   UNL     1     -11.622   1.251  -9.188  1.00  0.00     0.001 A 
ATOM     71  C   UNL     1      -9.210   1.332  -9.261  1.00  0.00     0.001 A 
ATOM     72  C   UNL     1     -10.442   1.983  -9.308  1.00  0.00     0.000 A 
ENDBRANCH  48  67
BRANCH  60  73
ATOM     73  C   UNL     1     -12.086  -6.153 -13.076  1.00  0.00    -0.014 A 
ATOM     74  C   UNL     1     -11.341  -5.838 -14.223  1.00  0.00     0.009 A 
ATOM     75  C   UNL     1     -13.415  -6.582 -13.222  1.00  0.00     0.009 A 
ATOM     76  C   UNL     1     -11.925  -5.924 -15.488  1.00  0.00     0.001 A 
ATOM     77  C   UNL     1     -13.987  -6.692 -14.490  1.00  0.00     0.001 A 
ATOM     78  C   UNL     1     -13.245  -6.356 -15.620  1.00  0.00     0.000 A 
ENDBRANCH  60  73
ENDBRANCH  34  35
ENDBRANCH  26  29
ENDBRANCH  24  25
ENDBRANCH  23  24
ENDBRANCH  22  23
ENDBRANCH   3  22
TORSDOF 12
