REMARK SMILES CC(=O)NS(=O)(=O)c1cc(-c2ccn(C(F)F)c(=O)c2)ccc1C(=O)NCCCNC(=O)c1ccc(-c2c3nc(c(-c4ccccc4)c4ccc([nH]4)c(-c4ccccc4)c4nc(c(-c5ccccc5)c5ccc2[nH]5)C=C4)C=C3)cc1
REMARK SMILES IDX 28 1 27 2 26 3 24 4 25 5 23 7 8 8 9 9 10 10 22 11 21 12 5 13
REMARK SMILES IDX 6 14 7 15 4 16 1 17 2 18 3 19 11 21 12 22 20 23 13 24 18 25
REMARK SMILES IDX 14 26 19 27 15 28 16 29 17 30 29 31 30 32 31 33 32 35 33 36
REMARK SMILES IDX 34 37 80 38 35 39 79 40 36 41 37 42 38 43 73 44 39 45 78 46
REMARK SMILES IDX 72 47 74 48 40 49 77 50 71 51 70 52 41 54 63 55 48 56 62 57
REMARK SMILES IDX 49 58 52 59 61 60 75 61 50 62 51 63 60 65 76 66 53 67 42 68
REMARK SMILES IDX 43 69 47 70 44 71 46 72 45 73 64 74 65 75 69 76 66 77 68 78
REMARK SMILES IDX 67 79 54 80 55 81 59 82 56 83 58 84 57 85
REMARK H PARENT 26 6 4 20 30 34 74 53 52 64
REMARK Flexibility Score: inf
ROOT
ATOM      1  C   UNL     1       2.321   3.797  -4.157  1.00  0.00     0.042 C 
ENDROOT
BRANCH   1   2
ATOM      2  C   UNL     1       2.796   4.061  -2.724  1.00  0.00     0.118 C 
BRANCH   2   3
ATOM      3  N   UNL     1       1.705   4.399  -1.831  1.00  0.00    -0.352 N 
ATOM      4  C   UNL     1       1.382   3.956  -0.583  1.00  0.00     0.252 C 
ATOM      5  O   UNL     1       0.496   4.526   0.051  1.00  0.00    -0.269 OA
ATOM      6  H   UNL     1       1.084   5.072  -2.192  1.00  0.00     0.163 HD
BRANCH   4   7
ATOM      7  C   UNL     1       2.082   2.843   0.085  1.00  0.00     0.060 A 
ATOM      8  C   UNL     1       1.957   1.501  -0.284  1.00  0.00     0.101 A 
ATOM      9  C   UNL     1       2.393   0.493   0.591  1.00  0.00     0.031 A 
ATOM     10  C   UNL     1       2.887   0.813   1.863  1.00  0.00    -0.017 A 
ATOM     11  C   UNL     1       2.672   3.161   1.322  1.00  0.00     0.016 A 
ATOM     12  C   UNL     1       3.067   2.154   2.208  1.00  0.00     0.009 A 
BRANCH   8  13
ATOM     13  S   UNL     1       1.126   1.025  -1.768  1.00  0.00     0.264 S 
ATOM     14  O   UNL     1       2.157   0.876  -2.771  1.00  0.00    -0.201 OA
ATOM     15  O   UNL     1      -0.031   1.861  -1.975  1.00  0.00    -0.201 OA
BRANCH  13  16
ATOM     16  N   UNL     1       0.576  -0.515  -1.480  1.00  0.00    -0.249 N 
ATOM     17  C   UNL     1      -1.150  -0.059   0.276  1.00  0.00     0.115 C 
ATOM     18  C   UNL     1      -0.620  -0.895  -0.854  1.00  0.00     0.230 C 
ATOM     19  O   UNL     1      -1.105  -1.982  -1.137  1.00  0.00    -0.274 OA
ATOM     20  H   UNL     1       1.158  -1.248  -1.784  1.00  0.00     0.183 HD
ENDBRANCH  13  16
ENDBRANCH   8  13
BRANCH  10  21
ATOM     21  C   UNL     1       2.961  -0.252   2.883  1.00  0.00    -0.011 A 
ATOM     22  C   UNL     1       1.976  -0.324   3.950  1.00  0.00     0.027 A 
ATOM     23  C   UNL     1       3.852  -1.248   2.750  1.00  0.00     0.080 A 
ATOM     24  C   UNL     1       1.902  -1.401   4.739  1.00  0.00     0.095 A 
ATOM     25  C   UNL     1       3.805  -2.439   3.650  1.00  0.00     0.255 A 
ATOM     26  N   UNL     1       2.781  -2.454   4.585  1.00  0.00    -0.258 N 
ATOM     27  O   UNL     1       4.634  -3.327   3.483  1.00  0.00    -0.269 OA
BRANCH  26  28
ATOM     28  C   UNL     1       2.645  -3.639   5.394  1.00  0.00     0.451 C 
ATOM     29  F   UNL     1       2.422  -4.729   4.619  1.00  0.00    -0.185 F 
ATOM     30  F   UNL     1       3.761  -3.864   6.127  1.00  0.00    -0.185 F 
ENDBRANCH  26  28
ENDBRANCH  10  21
ENDBRANCH   4   7
ENDBRANCH   2   3
ENDBRANCH   1   2
BRANCH   1  31
ATOM     31  C   UNL     1       1.575   4.978  -4.789  1.00  0.00     0.118 C 
BRANCH  31  32
ATOM     32  N   UNL     1       2.045   5.233  -6.140  1.00  0.00    -0.352 N 
ATOM     33  C   UNL     1       1.473   5.039  -7.368  1.00  0.00     0.251 C 
ATOM     34  H   UNL     1       2.949   5.621  -6.180  1.00  0.00     0.163 HD
ATOM     35  O   UNL     1       2.187   5.142  -8.365  1.00  0.00    -0.269 OA
BRANCH  33  36
ATOM     36  C   UNL     1       0.035   4.729  -7.553  1.00  0.00     0.039 A 
ATOM     37  C   UNL     1      -0.311   3.869  -8.606  1.00  0.00     0.014 A 
ATOM     38  C   UNL     1      -0.976   5.386  -6.847  1.00  0.00     0.014 A 
ATOM     39  C   UNL     1      -1.651   3.671  -8.954  1.00  0.00     0.010 A 
ATOM     40  C   UNL     1      -2.321   5.165  -7.176  1.00  0.00     0.010 A 
ATOM     41  C   UNL     1      -2.668   4.327  -8.248  1.00  0.00    -0.014 A 
BRANCH  41  42
ATOM     42  C   UNL     1      -4.082   4.212  -8.687  1.00  0.00     0.031 A 
ATOM     43  C   UNL     1      -4.746   5.360  -9.399  1.00  0.00     0.074 A 
ATOM     44  C   UNL     1      -4.782   3.085  -8.461  1.00  0.00     0.049 A 
ATOM     45  N   UNL     1      -5.992   5.485  -9.784  1.00  0.00    -0.248 NA
ATOM     46  C   UNL     1      -3.900   6.523  -9.710  1.00  0.00     0.031 C 
ATOM     47  C   UNL     1      -4.272   1.887  -7.795  1.00  0.00     0.029 A 
ATOM     48  N   UNL     1      -6.081   2.769  -8.775  1.00  0.00    -0.354 N 
ATOM     49  C   UNL     1      -6.091   6.754 -10.337  1.00  0.00     0.074 A 
ATOM     50  C   UNL     1      -4.776   7.355 -10.257  1.00  0.00     0.031 C 
ATOM     51  C   UNL     1      -5.245   0.959  -7.763  1.00  0.00     0.029 A 
ATOM     52  C   UNL     1      -6.448   1.506  -8.387  1.00  0.00     0.049 A 
ATOM     53  H   UNL     1      -6.690   3.391  -9.235  1.00  0.00     0.167 HD
ATOM     54  C   UNL     1      -7.178   7.372 -10.859  1.00  0.00     0.031 A 
ATOM     55  C   UNL     1      -7.622   0.861  -8.512  1.00  0.00     0.031 A 
ATOM     56  C   UNL     1      -8.479   6.780 -10.993  1.00  0.00     0.049 A 
ATOM     57  C   UNL     1      -8.794   1.542  -9.155  1.00  0.00     0.074 A 
ATOM     58  C   UNL     1      -9.635   7.341 -11.512  1.00  0.00     0.029 A 
ATOM     59  N   UNL     1      -8.793   5.484 -10.626  1.00  0.00    -0.354 N 
ATOM     60  N   UNL     1      -8.879   2.756  -9.637  1.00  0.00    -0.248 NA
ATOM     61  C   UNL     1     -10.036   0.760  -9.264  1.00  0.00     0.031 C 
ATOM     62  C   UNL     1     -10.650   6.377 -11.462  1.00  0.00     0.029 A 
ATOM     63  C   UNL     1     -10.121   5.220 -10.916  1.00  0.00     0.049 A 
ATOM     64  H   UNL     1      -8.165   4.844 -10.218  1.00  0.00     0.167 HD
ATOM     65  C   UNL     1     -10.179   2.886 -10.104  1.00  0.00     0.074 A 
ATOM     66  C   UNL     1     -10.847   1.624  -9.860  1.00  0.00     0.031 C 
ATOM     67  C   UNL     1     -10.769   3.961 -10.678  1.00  0.00     0.031 A 
BRANCH  54  68
ATOM     68  C   UNL     1      -7.000   8.791 -11.303  1.00  0.00    -0.014 A 
ATOM     69  C   UNL     1      -6.531   9.090 -12.590  1.00  0.00     0.009 A 
ATOM     70  C   UNL     1      -7.324   9.838 -10.427  1.00  0.00     0.009 A 
ATOM     71  C   UNL     1      -6.373  10.420 -12.986  1.00  0.00     0.001 A 
ATOM     72  C   UNL     1      -7.172  11.165 -10.829  1.00  0.00     0.001 A 
ATOM     73  C   UNL     1      -6.693  11.455 -12.106  1.00  0.00     0.000 A 
ENDBRANCH  54  68
BRANCH  55  74
ATOM     74  C   UNL     1      -7.755  -0.526  -8.010  1.00  0.00    -0.014 A 
ATOM     75  C   UNL     1      -7.590  -1.611  -8.882  1.00  0.00     0.009 A 
ATOM     76  C   UNL     1      -8.057  -0.765  -6.662  1.00  0.00     0.009 A 
ATOM     77  C   UNL     1      -7.738  -2.917  -8.413  1.00  0.00     0.001 A 
ATOM     78  C   UNL     1      -8.196  -2.073  -6.196  1.00  0.00     0.001 A 
ATOM     79  C   UNL     1      -8.040  -3.147  -7.072  1.00  0.00     0.000 A 
ENDBRANCH  55  74
BRANCH  67  80
ATOM     80  C   UNL     1     -12.201   3.813 -11.087  1.00  0.00    -0.014 A 
ATOM     81  C   UNL     1     -13.232   4.070 -10.171  1.00  0.00     0.009 A 
ATOM     82  C   UNL     1     -12.524   3.442 -12.400  1.00  0.00     0.009 A 
ATOM     83  C   UNL     1     -14.566   3.942 -10.561  1.00  0.00     0.001 A 
ATOM     84  C   UNL     1     -13.859   3.318 -12.787  1.00  0.00     0.001 A 
ATOM     85  C   UNL     1     -14.878   3.566 -11.868  1.00  0.00     0.000 A 
ENDBRANCH  67  80
ENDBRANCH  41  42
ENDBRANCH  33  36
ENDBRANCH  31  32
ENDBRANCH   1  31
TORSDOF 14
