REMARK SMILES O=C(Cn1c(=O)[nH]c2ccccc2c1=O)NC[C@H]1CC[C@@H](C(=O)N2CCC(C(=O)NCCCNC(=O)c3ccc(-c4c5nc(c(-c6ccccc6)c6ccc([nH]6)c(-c6ccccc6)c6nc(c(-c7ccccc7)c7ccc4[nH]7)C=C6)C=C5)cc3)CC2)CC1
REMARK SMILES IDX 28 1 29 2 30 3 27 5 22 6 23 7 24 8 25 9 86 10 26 11 85 12
REMARK SMILES IDX 21 13 18 14 19 15 88 16 20 17 87 18 17 19 16 20 1 21 2 22
REMARK SMILES IDX 3 24 4 25 5 26 14 27 6 28 7 29 13 30 15 31 8 32 12 34 9 35
REMARK SMILES IDX 11 36 10 37 31 38 32 39 33 40 34 41 35 42 36 44 37 45 38 46
REMARK SMILES IDX 84 47 39 48 83 49 40 50 41 51 42 52 77 53 43 54 82 55 76 56
REMARK SMILES IDX 78 57 44 58 81 59 75 60 74 61 45 63 67 64 52 65 66 66 53 67
REMARK SMILES IDX 56 68 65 69 79 70 54 71 55 72 64 74 80 75 57 76 46 77 47 78
REMARK SMILES IDX 51 79 48 80 50 81 49 82 68 83 69 84 73 85 70 86 72 87 71 88
REMARK SMILES IDX 58 89 59 90 63 91 60 92 62 93 61 94
REMARK H PARENT 30 4 16 23 7 33 34 43 78 62 56 73
REMARK Flexibility Score: inf
ROOT
ATOM      1  C   UNL     1       5.532   2.658   2.680  1.00  0.00     0.223 C 
ATOM      2  O   UNL     1       5.312   2.135   3.772  1.00  0.00    -0.275 OA
ATOM      3  N   UNL     1       6.702   3.331   2.514  1.00  0.00    -0.356 N 
ATOM      4  H   UNL     1       7.418   3.086   3.145  1.00  0.00     0.163 HD
ENDROOT
BRANCH   1   5
ATOM      5  C   UNL     1       4.540   2.574   1.538  1.00  0.00     0.082 C 
ATOM      6  C   UNL     1       3.691   4.321  -2.205  1.00  0.00     0.225 C 
ATOM      7  O   UNL     1       3.597   5.550  -2.108  1.00  0.00    -0.275 OA
ATOM      8  N   UNL     1       3.783   3.545  -1.070  1.00  0.00    -0.342 N 
ATOM      9  C   UNL     1       2.954   3.882   0.078  1.00  0.00     0.120 C 
ATOM     10  C   UNL     1       4.479   2.292  -1.004  1.00  0.00     0.120 C 
ATOM     11  C   UNL     1       3.752   3.873   1.365  1.00  0.00     0.035 C 
ATOM     12  C   UNL     1       5.237   2.058   0.274  1.00  0.00     0.035 C 
BRANCH   6  13
ATOM     13  C   UNL     1       3.432   3.658  -3.578  1.00  0.00     0.078 C 
ATOM     14  C   UNL     1       2.446   0.792  -3.692  1.00  0.00     0.008 C 
ATOM     15  C   UNL     1       1.637   1.929  -3.060  1.00  0.00     0.006 C 
ATOM     16  C   UNL     1       3.945   1.090  -3.859  1.00  0.00     0.006 C 
ATOM     17  C   UNL     1       1.952   3.284  -3.683  1.00  0.00     0.014 C 
ATOM     18  C   UNL     1       4.330   2.553  -4.143  1.00  0.00     0.014 C 
BRANCH  14  19
ATOM     19  C   UNL     1       2.184  -0.580  -3.009  1.00  0.00     0.119 C 
BRANCH  19  20
ATOM     20  N   UNL     1       2.698  -0.761  -1.649  1.00  0.00    -0.354 N 
ATOM     21  O   UNL     1       0.771  -0.115  -0.617  1.00  0.00    -0.273 OA
ATOM     22  C   UNL     1       1.894  -0.614  -0.533  1.00  0.00     0.240 C 
ATOM     23  H   UNL     1       3.647  -0.994  -1.526  1.00  0.00     0.163 HD
BRANCH  22  24
ATOM     24  C   UNL     1       2.537  -0.857   0.847  1.00  0.00     0.230 C 
BRANCH  24  25
ATOM     25  N   UNL     1       3.535  -1.918   0.963  1.00  0.00    -0.250 N 
ATOM     26  C   UNL     1       3.064  -3.218   0.945  1.00  0.00     0.329 A 
ATOM     27  C   UNL     1       4.800  -1.604   1.445  1.00  0.00     0.264 A 
ATOM     28  O   UNL     1       1.884  -3.511   0.773  1.00  0.00    -0.248 OA
ATOM     29  N   UNL     1       3.982  -4.211   1.148  1.00  0.00    -0.307 N 
ATOM     30  C   UNL     1       5.799  -2.682   1.469  1.00  0.00     0.064 A 
ATOM     31  O   UNL     1       5.123  -0.513   1.898  1.00  0.00    -0.268 OA
ATOM     32  C   UNL     1       5.342  -3.985   1.349  1.00  0.00     0.055 A 
ATOM     33  H   UNL     1       3.663  -5.143   1.152  1.00  0.00     0.171 HD
ATOM     34  C   UNL     1       7.162  -2.414   1.645  1.00  0.00     0.016 A 
ATOM     35  C   UNL     1       6.239  -5.047   1.432  1.00  0.00     0.027 A 
ATOM     36  C   UNL     1       8.067  -3.473   1.694  1.00  0.00     0.001 A 
ATOM     37  C   UNL     1       7.604  -4.787   1.596  1.00  0.00     0.002 A 
ENDBRANCH  24  25
ENDBRANCH  22  24
ENDBRANCH  19  20
ENDBRANCH  14  19
ENDBRANCH   6  13
ENDBRANCH   1   5
BRANCH   3  38
ATOM     38  C   UNL     1       7.057   4.358   1.545  1.00  0.00     0.117 C 
BRANCH  38  39
ATOM     39  C   UNL     1       6.871   5.739   2.138  1.00  0.00     0.042 C 
BRANCH  39  40
ATOM     40  C   UNL     1       7.665   5.912   3.414  1.00  0.00     0.118 C 
BRANCH  40  41
ATOM     41  N   UNL     1       9.100   5.870   3.167  1.00  0.00    -0.352 N 
ATOM     42  C   UNL     1       9.995   6.913   3.085  1.00  0.00     0.251 C 
ATOM     43  H   UNL     1       9.483   4.972   3.042  1.00  0.00     0.163 HD
ATOM     44  O   UNL     1      11.105   6.747   2.612  1.00  0.00    -0.269 OA
BRANCH  42  45
ATOM     45  C   UNL     1       9.565   8.243   3.561  1.00  0.00     0.039 A 
ATOM     46  C   UNL     1       8.819   8.342   4.734  1.00  0.00     0.014 A 
ATOM     47  C   UNL     1       9.859   9.382   2.812  1.00  0.00     0.014 A 
ATOM     48  C   UNL     1       8.174   9.528   5.031  1.00  0.00     0.010 A 
ATOM     49  C   UNL     1       9.339  10.617   3.210  1.00  0.00     0.010 A 
ATOM     50  C   UNL     1       8.457  10.691   4.299  1.00  0.00    -0.014 A 
BRANCH  50  51
ATOM     51  C   UNL     1       7.859  11.970   4.755  1.00  0.00     0.031 A 
ATOM     52  C   UNL     1       6.946  12.768   3.869  1.00  0.00     0.074 A 
ATOM     53  C   UNL     1       8.099  12.365   6.022  1.00  0.00     0.049 A 
ATOM     54  N   UNL     1       6.326  13.890   4.137  1.00  0.00    -0.248 NA
ATOM     55  C   UNL     1       6.697  12.258   2.511  1.00  0.00     0.031 C 
ATOM     56  C   UNL     1       8.958  11.655   6.976  1.00  0.00     0.029 A 
ATOM     57  N   UNL     1       7.609  13.420   6.745  1.00  0.00    -0.354 N 
ATOM     58  C   UNL     1       5.640  14.233   2.979  1.00  0.00     0.074 A 
ATOM     59  C   UNL     1       5.935  13.214   1.995  1.00  0.00     0.031 C 
ATOM     60  C   UNL     1       8.854  12.233   8.179  1.00  0.00     0.029 A 
ATOM     61  C   UNL     1       8.011  13.414   8.060  1.00  0.00     0.049 A 
ATOM     62  H   UNL     1       7.026  14.115   6.362  1.00  0.00     0.167 HD
ATOM     63  C   UNL     1       4.835  15.300   2.764  1.00  0.00     0.031 A 
ATOM     64  C   UNL     1       7.750  14.271   9.062  1.00  0.00     0.031 A 
ATOM     65  C   UNL     1       4.532  16.295   3.759  1.00  0.00     0.049 A 
ATOM     66  C   UNL     1       6.888  15.464   8.781  1.00  0.00     0.074 A 
ATOM     67  C   UNL     1       3.713  17.404   3.641  1.00  0.00     0.029 A 
ATOM     68  N   UNL     1       5.029  16.300   5.054  1.00  0.00    -0.354 N 
ATOM     69  N   UNL     1       6.260  15.779   7.675  1.00  0.00    -0.248 NA
ATOM     70  C   UNL     1       6.712  16.425   9.876  1.00  0.00     0.031 C 
ATOM     71  C   UNL     1       3.760  18.112   4.844  1.00  0.00     0.029 A 
ATOM     72  C   UNL     1       4.556  17.409   5.735  1.00  0.00     0.049 A 
ATOM     73  H   UNL     1       5.628  15.616   5.432  1.00  0.00     0.167 HD
ATOM     74  C   UNL     1       5.614  16.978   7.937  1.00  0.00     0.074 A 
ATOM     75  C   UNL     1       5.899  17.314   9.318  1.00  0.00     0.031 C 
ATOM     76  C   UNL     1       4.863  17.736   7.104  1.00  0.00     0.031 A 
BRANCH  63  77
ATOM     77  C   UNL     1       4.228  15.470   1.398  1.00  0.00    -0.014 A 
ATOM     78  C   UNL     1       4.640  16.538   0.584  1.00  0.00     0.009 A 
ATOM     79  C   UNL     1       3.182  14.645   0.956  1.00  0.00     0.009 A 
ATOM     80  C   UNL     1       4.008  16.788  -0.636  1.00  0.00     0.001 A 
ATOM     81  C   UNL     1       2.570  14.881  -0.277  1.00  0.00     0.001 A 
ATOM     82  C   UNL     1       2.975  15.957  -1.067  1.00  0.00     0.000 A 
ENDBRANCH  63  77
BRANCH  64  83
ATOM     83  C   UNL     1       8.333  14.024  10.407  1.00  0.00    -0.014 A 
ATOM     84  C   UNL     1       9.724  14.080  10.603  1.00  0.00     0.009 A 
ATOM     85  C   UNL     1       7.513  13.663  11.485  1.00  0.00     0.009 A 
ATOM     86  C   UNL     1      10.283  13.746  11.837  1.00  0.00     0.001 A 
ATOM     87  C   UNL     1       8.073  13.364  12.729  1.00  0.00     0.001 A 
ATOM     88  C   UNL     1       9.456  13.393  12.901  1.00  0.00     0.000 A 
ENDBRANCH  64  83
BRANCH  76  89
ATOM     89  C   UNL     1       4.298  19.013   7.656  1.00  0.00    -0.014 A 
ATOM     90  C   UNL     1       2.915  19.134   7.863  1.00  0.00     0.009 A 
ATOM     91  C   UNL     1       5.124  20.122   7.892  1.00  0.00     0.009 A 
ATOM     92  C   UNL     1       2.368  20.346   8.285  1.00  0.00     0.001 A 
ATOM     93  C   UNL     1       4.577  21.324   8.343  1.00  0.00     0.001 A 
ATOM     94  C   UNL     1       3.200  21.438   8.530  1.00  0.00     0.000 A 
ENDBRANCH  76  89
ENDBRANCH  50  51
ENDBRANCH  42  45
ENDBRANCH  40  41
ENDBRANCH  39  40
ENDBRANCH  38  39
ENDBRANCH   3  38
TORSDOF 15
