REMARK SMILES O=C(NCCCNC(=O)C(Cl)(c1ccccc1)c1ccccc1)c1ccc(-c2c3nc(c(-c4ccccc4)c4ccc([nH]4)c(-c4ccccc4)c4nc(c(-c5ccccc5)c5ccc2[nH]5)C=C4)C=C3)cc1
REMARK SMILES IDX 4 1 3 2 1 3 2 4 24 6 25 7 71 8 26 9 70 10 27 11 28 12 29 13
REMARK SMILES IDX 64 14 30 15 69 16 63 17 65 18 31 19 68 20 62 21 61 22 32 24
REMARK SMILES IDX 54 25 39 26 53 27 40 28 43 29 52 30 66 31 41 32 42 33 51 35
REMARK SMILES IDX 67 36 44 37 33 38 34 39 38 40 35 41 37 42 36 43 55 44 56 45
REMARK SMILES IDX 60 46 57 47 59 48 58 49 45 50 46 51 50 52 47 53 49 54 48 55
REMARK SMILES IDX 5 56 6 57 7 58 8 59 9 61 10 62 11 63 12 64 13 65 17 66 14 67
REMARK SMILES IDX 16 68 15 69 18 70 19 71 23 72 20 73 22 74 21 75
REMARK H PARENT 3 5 65 23 43 34 7 60
REMARK Flexibility Score: inf
ROOT
ATOM      1  C   UNL     1       4.582  -1.113  -0.555  1.00  0.00     0.118 C 
ENDROOT
BRANCH   1   2
ATOM      2  N   UNL     1       3.141  -0.902  -0.634  1.00  0.00    -0.352 N 
ATOM      3  O   UNL     1       1.139   0.024  -0.185  1.00  0.00    -0.269 OA
ATOM      4  C   UNL     1       2.356   0.138  -0.188  1.00  0.00     0.251 C 
ATOM      5  H   UNL     1       2.645  -1.625  -1.082  1.00  0.00     0.163 HD
BRANCH   4   6
ATOM      6  C   UNL     1       2.982   1.381   0.311  1.00  0.00     0.039 A 
ATOM      7  C   UNL     1       4.079   1.938  -0.343  1.00  0.00     0.014 A 
ATOM      8  C   UNL     1       2.455   2.006   1.445  1.00  0.00     0.014 A 
ATOM      9  C   UNL     1       4.771   2.988   0.244  1.00  0.00     0.010 A 
ATOM     10  C   UNL     1       3.085   3.139   1.970  1.00  0.00     0.010 A 
ATOM     11  C   UNL     1       4.279   3.609   1.403  1.00  0.00    -0.014 A 
BRANCH  11  12
ATOM     12  C   UNL     1       5.026   4.758   1.975  1.00  0.00     0.031 A 
ATOM     13  C   UNL     1       5.631   4.687   3.350  1.00  0.00     0.074 A 
ATOM     14  C   UNL     1       5.213   5.853   1.212  1.00  0.00     0.049 A 
ATOM     15  N   UNL     1       6.366   5.577   3.972  1.00  0.00    -0.248 NA
ATOM     16  C   UNL     1       5.375   3.470   4.136  1.00  0.00     0.031 C 
ATOM     17  C   UNL     1       4.679   6.041  -0.140  1.00  0.00     0.029 A 
ATOM     18  N   UNL     1       5.936   6.995   1.444  1.00  0.00    -0.354 N 
ATOM     19  C   UNL     1       6.628   5.044   5.228  1.00  0.00     0.074 A 
ATOM     20  C   UNL     1       5.961   3.762   5.289  1.00  0.00     0.031 C 
ATOM     21  C   UNL     1       5.160   7.184  -0.647  1.00  0.00     0.029 A 
ATOM     22  C   UNL     1       5.973   7.845   0.367  1.00  0.00     0.049 A 
ATOM     23  H   UNL     1       6.386   7.186   2.299  1.00  0.00     0.167 HD
ATOM     24  C   UNL     1       7.358   5.574   6.239  1.00  0.00     0.031 A 
ATOM     25  C   UNL     1       6.587   9.031   0.207  1.00  0.00     0.031 A 
ATOM     26  C   UNL     1       8.037   6.842   6.172  1.00  0.00     0.049 A 
ATOM     27  C   UNL     1       7.381   9.599   1.345  1.00  0.00     0.074 A 
ATOM     28  C   UNL     1       8.829   7.450   7.132  1.00  0.00     0.029 A 
ATOM     29  N   UNL     1       8.004   7.698   5.082  1.00  0.00    -0.354 N 
ATOM     30  N   UNL     1       7.630   9.074   2.519  1.00  0.00    -0.248 NA
ATOM     31  C   UNL     1       7.974  10.925   1.134  1.00  0.00     0.031 C 
ATOM     32  C   UNL     1       9.238   8.694   6.638  1.00  0.00     0.029 A 
ATOM     33  C   UNL     1       8.744   8.838   5.352  1.00  0.00     0.049 A 
ATOM     34  H   UNL     1       7.526   7.521   4.239  1.00  0.00     0.167 HD
ATOM     35  C   UNL     1       8.421   9.998   3.185  1.00  0.00     0.074 A 
ATOM     36  C   UNL     1       8.626  11.108   2.274  1.00  0.00     0.031 C 
ATOM     37  C   UNL     1       8.931   9.934   4.438  1.00  0.00     0.031 A 
BRANCH  24  38
ATOM     38  C   UNL     1       7.427   4.796   7.525  1.00  0.00    -0.014 A 
ATOM     39  C   UNL     1       8.178   3.615   7.631  1.00  0.00     0.009 A 
ATOM     40  C   UNL     1       6.744   5.270   8.657  1.00  0.00     0.009 A 
ATOM     41  C   UNL     1       8.213   2.905   8.834  1.00  0.00     0.001 A 
ATOM     42  C   UNL     1       6.802   4.572   9.865  1.00  0.00     0.001 A 
ATOM     43  C   UNL     1       7.528   3.385   9.950  1.00  0.00     0.000 A 
ENDBRANCH  24  38
BRANCH  25  44
ATOM     44  C   UNL     1       6.472   9.750  -1.086  1.00  0.00    -0.014 A 
ATOM     45  C   UNL     1       7.575   9.846  -1.947  1.00  0.00     0.009 A 
ATOM     46  C   UNL     1       5.249  10.315  -1.481  1.00  0.00     0.009 A 
ATOM     47  C   UNL     1       7.458  10.503  -3.174  1.00  0.00     0.001 A 
ATOM     48  C   UNL     1       5.127  10.946  -2.720  1.00  0.00     0.001 A 
ATOM     49  C   UNL     1       6.233  11.045  -3.562  1.00  0.00     0.000 A 
ENDBRANCH  25  44
BRANCH  37  50
ATOM     50  C   UNL     1       9.784  11.087   4.881  1.00  0.00    -0.014 A 
ATOM     51  C   UNL     1       9.218  12.328   5.208  1.00  0.00     0.009 A 
ATOM     52  C   UNL     1      11.174  10.921   4.987  1.00  0.00     0.009 A 
ATOM     53  C   UNL     1      10.032  13.393   5.599  1.00  0.00     0.001 A 
ATOM     54  C   UNL     1      11.982  11.979   5.403  1.00  0.00     0.001 A 
ATOM     55  C   UNL     1      11.412  13.216   5.699  1.00  0.00     0.000 A 
ENDBRANCH  37  50
ENDBRANCH  11  12
ENDBRANCH   4   6
ENDBRANCH   1   2
BRANCH   1  56
ATOM     56  C   UNL     1       4.976  -2.160   0.481  1.00  0.00     0.042 C 
BRANCH  56  57
ATOM     57  C   UNL     1       4.441  -3.549   0.171  1.00  0.00     0.117 C 
BRANCH  57  58
ATOM     58  N   UNL     1       4.965  -4.063  -1.086  1.00  0.00    -0.354 N 
ATOM     59  C   UNL     1       5.534  -5.260  -1.425  1.00  0.00     0.250 C 
ATOM     60  H   UNL     1       4.898  -3.428  -1.835  1.00  0.00     0.163 HD
ATOM     61  O   UNL     1       5.692  -5.406  -2.646  1.00  0.00    -0.272 OA
BRANCH  59  62
ATOM     62  C   UNL     1       5.911  -6.385  -0.391  1.00  0.00     0.173 C 
ATOM     63  Cl  UNL     1       6.875  -5.565   0.964  1.00  0.00    -0.098 Cl
BRANCH  62  64
ATOM     64  C   UNL     1       4.688  -7.038   0.305  1.00  0.00    -0.013 A 
ATOM     65  C   UNL     1       3.360  -6.632   0.070  1.00  0.00     0.006 A 
ATOM     66  C   UNL     1       4.882  -8.076   1.244  1.00  0.00     0.006 A 
ATOM     67  C   UNL     1       2.292  -7.180   0.787  1.00  0.00     0.000 A 
ATOM     68  C   UNL     1       3.809  -8.659   1.921  1.00  0.00     0.000 A 
ATOM     69  C   UNL     1       2.515  -8.196   1.709  1.00  0.00     0.000 A 
ENDBRANCH  62  64
BRANCH  62  70
ATOM     70  C   UNL     1       6.880  -7.396  -1.074  1.00  0.00    -0.013 A 
ATOM     71  C   UNL     1       6.450  -8.662  -1.515  1.00  0.00     0.006 A 
ATOM     72  C   UNL     1       8.224  -7.046  -1.338  1.00  0.00     0.006 A 
ATOM     73  C   UNL     1       7.344  -9.569  -2.095  1.00  0.00     0.000 A 
ATOM     74  C   UNL     1       9.114  -7.950  -1.922  1.00  0.00     0.000 A 
ATOM     75  C   UNL     1       8.677  -9.218  -2.285  1.00  0.00     0.000 A 
ENDBRANCH  62  70
ENDBRANCH  59  62
ENDBRANCH  57  58
ENDBRANCH  56  57
ENDBRANCH   1  56
TORSDOF 12
