REMARK SMILES C[C@@H](CC(=O)NCCCNC(=O)c1ccc(-c2c3nc(c(-c4ccccc4)c4ccc([nH]4)c(-c4ccccc4)c4nc(c(-c5ccccc5)c5ccc2[nH]5)C=C4)C=C3)cc1)NC(=O)CN(C)c1ncccn1
REMARK SMILES IDX 4 1 5 2 6 3 3 5 2 6 1 7 61 8 62 9 63 11 64 12 65 13 66 14
REMARK SMILES IDX 67 15 68 16 72 17 69 18 71 19 70 20 7 21 8 22 9 23 10 24
REMARK SMILES IDX 11 25 12 27 13 28 14 29 60 30 15 31 59 32 16 33 17 34 18 35
REMARK SMILES IDX 53 36 19 37 58 38 52 39 54 40 20 41 57 42 51 43 50 44 21 46
REMARK SMILES IDX 43 47 28 48 42 49 29 50 32 51 41 52 55 53 30 54 31 55 40 57
REMARK SMILES IDX 56 58 33 59 22 60 23 61 27 62 24 63 26 64 25 65 44 66 45 67
REMARK SMILES IDX 49 68 46 69 48 70 47 71 34 72 35 73 39 74 36 75 38 76 37 77
REMARK H PARENT 6 4 61 10 10 26 54 45 32 56
REMARK Flexibility Score: inf
ROOT
ATOM      1  C   UNL     1       0.365  -2.001   1.955  1.00  0.00     0.222 C 
ATOM      2  O   UNL     1      -0.664  -2.564   2.335  1.00  0.00    -0.275 OA
ATOM      3  N   UNL     1       0.860  -1.003   2.734  1.00  0.00    -0.356 N 
ATOM      4  H   UNL     1       0.390  -0.887   3.591  1.00  0.00     0.163 HD
ENDROOT
BRANCH   1   5
ATOM      5  C   UNL     1       1.042  -2.422   0.667  1.00  0.00     0.124 C 
BRANCH   5   6
ATOM      6  C   UNL     1       0.450  -1.788  -0.603  1.00  0.00     0.088 C 
ATOM      7  C   UNL     1       0.756  -0.298  -0.668  1.00  0.00     0.031 C 
BRANCH   6   8
ATOM      8  N   UNL     1      -0.986  -2.017  -0.716  1.00  0.00    -0.352 N 
ATOM      9  C   UNL     1      -1.781  -2.071  -1.829  1.00  0.00     0.239 C 
ATOM     10  H   UNL     1      -1.456  -2.152   0.139  1.00  0.00     0.163 HD
ATOM     11  O   UNL     1      -2.998  -2.193  -1.655  1.00  0.00    -0.273 OA
BRANCH   9  12
ATOM     12  C   UNL     1      -1.166  -2.154  -3.232  1.00  0.00     0.219 C 
BRANCH  12  13
ATOM     13  N   UNL     1      -0.314  -1.035  -3.629  1.00  0.00    -0.335 N 
ATOM     14  C   UNL     1       0.970  -1.284  -4.246  1.00  0.00     0.147 C 
BRANCH  13  15
ATOM     15  C   UNL     1      -0.888   0.207  -3.818  1.00  0.00     0.225 A 
ATOM     16  N   UNL     1      -0.268   1.093  -4.619  1.00  0.00    -0.221 NA
ATOM     17  N   UNL     1      -2.005   0.513  -3.145  1.00  0.00    -0.221 NA
ATOM     18  C   UNL     1      -0.818   2.315  -4.749  1.00  0.00     0.117 A 
ATOM     19  C   UNL     1      -2.504   1.756  -3.276  1.00  0.00     0.117 A 
ATOM     20  C   UNL     1      -1.946   2.713  -4.082  1.00  0.00     0.040 A 
ENDBRANCH  13  15
ENDBRANCH  12  13
ENDBRANCH   9  12
ENDBRANCH   6   8
ENDBRANCH   5   6
ENDBRANCH   1   5
BRANCH   3  21
ATOM     21  C   UNL     1       1.961  -0.076   2.526  1.00  0.00     0.117 C 
BRANCH  21  22
ATOM     22  C   UNL     1       1.465   1.348   2.277  1.00  0.00     0.042 C 
BRANCH  22  23
ATOM     23  C   UNL     1       0.801   1.999   3.483  1.00  0.00     0.118 C 
BRANCH  23  24
ATOM     24  N   UNL     1       1.777   2.544   4.410  1.00  0.00    -0.352 N 
ATOM     25  C   UNL     1       2.048   3.851   4.727  1.00  0.00     0.251 C 
ATOM     26  H   UNL     1       2.326   1.876   4.881  1.00  0.00     0.163 HD
ATOM     27  O   UNL     1       3.074   4.117   5.356  1.00  0.00    -0.269 OA
BRANCH  25  28
ATOM     28  C   UNL     1       1.141   4.948   4.314  1.00  0.00     0.039 A 
ATOM     29  C   UNL     1       1.700   6.161   3.900  1.00  0.00     0.014 A 
ATOM     30  C   UNL     1      -0.249   4.817   4.380  1.00  0.00     0.014 A 
ATOM     31  C   UNL     1       0.872   7.218   3.510  1.00  0.00     0.010 A 
ATOM     32  C   UNL     1      -1.073   5.841   3.913  1.00  0.00     0.010 A 
ATOM     33  C   UNL     1      -0.523   7.059   3.487  1.00  0.00    -0.014 A 
BRANCH  33  34
ATOM     34  C   UNL     1      -1.415   8.161   3.041  1.00  0.00     0.031 A 
ATOM     35  C   UNL     1      -2.389   8.789   4.002  1.00  0.00     0.074 A 
ATOM     36  C   UNL     1      -1.385   8.569   1.757  1.00  0.00     0.049 A 
ATOM     37  N   UNL     1      -3.273   9.731   3.785  1.00  0.00    -0.248 NA
ATOM     38  C   UNL     1      -2.387   8.276   5.382  1.00  0.00     0.031 C 
ATOM     39  C   UNL     1      -0.517   8.023   0.712  1.00  0.00     0.029 A 
ATOM     40  N   UNL     1      -2.109   9.541   1.112  1.00  0.00    -0.354 N 
ATOM     41  C   UNL     1      -3.942   9.908   4.990  1.00  0.00     0.074 A 
ATOM     42  C   UNL     1      -3.395   8.945   5.922  1.00  0.00     0.031 C 
ATOM     43  C   UNL     1      -0.737   8.687  -0.434  1.00  0.00     0.029 A 
ATOM     44  C   UNL     1      -1.787   9.677  -0.217  1.00  0.00     0.049 A 
ATOM     45  H   UNL     1      -2.795  10.088   1.559  1.00  0.00     0.167 HD
ATOM     46  C   UNL     1      -4.910  10.802   5.303  1.00  0.00     0.031 A 
ATOM     47  C   UNL     1      -2.282  10.503  -1.157  1.00  0.00     0.031 A 
ATOM     48  C   UNL     1      -5.445  11.773   4.387  1.00  0.00     0.049 A 
ATOM     49  C   UNL     1      -3.362  11.480  -0.788  1.00  0.00     0.074 A 
ATOM     50  C   UNL     1      -6.382  12.763   4.630  1.00  0.00     0.029 A 
ATOM     51  N   UNL     1      -5.091  11.876   3.052  1.00  0.00    -0.354 N 
ATOM     52  N   UNL     1      -3.936  11.677   0.373  1.00  0.00    -0.248 NA
ATOM     53  C   UNL     1      -3.857  12.355  -1.862  1.00  0.00     0.031 C 
ATOM     54  C   UNL     1      -6.630  13.434   3.428  1.00  0.00     0.029 A 
ATOM     55  C   UNL     1      -5.810  12.895   2.450  1.00  0.00     0.049 A 
ATOM     56  H   UNL     1      -4.427  11.308   2.598  1.00  0.00     0.167 HD
ATOM     57  C   UNL     1      -4.843  12.710   0.177  1.00  0.00     0.074 A 
ATOM     58  C   UNL     1      -4.731  13.110  -1.210  1.00  0.00     0.031 C 
ATOM     59  C   UNL     1      -5.694  13.276   1.067  1.00  0.00     0.031 A 
BRANCH  46  60
ATOM     60  C   UNL     1      -5.459  10.765   6.702  1.00  0.00    -0.014 A 
ATOM     61  C   UNL     1      -4.693  11.197   7.797  1.00  0.00     0.009 A 
ATOM     62  C   UNL     1      -6.773  10.325   6.926  1.00  0.00     0.009 A 
ATOM     63  C   UNL     1      -5.218  11.152   9.090  1.00  0.00     0.001 A 
ATOM     64  C   UNL     1      -7.305  10.307   8.217  1.00  0.00     0.001 A 
ATOM     65  C   UNL     1      -6.524  10.712   9.298  1.00  0.00     0.000 A 
ENDBRANCH  46  60
BRANCH  47  66
ATOM     66  C   UNL     1      -1.751  10.452  -2.544  1.00  0.00    -0.014 A 
ATOM     67  C   UNL     1      -0.946  11.491  -3.035  1.00  0.00     0.009 A 
ATOM     68  C   UNL     1      -2.048   9.368  -3.384  1.00  0.00     0.009 A 
ATOM     69  C   UNL     1      -0.468  11.456  -4.347  1.00  0.00     0.001 A 
ATOM     70  C   UNL     1      -1.547   9.323  -4.686  1.00  0.00     0.001 A 
ATOM     71  C   UNL     1      -0.765  10.370  -5.170  1.00  0.00     0.000 A 
ENDBRANCH  47  66
BRANCH  59  72
ATOM     72  C   UNL     1      -6.555  14.402   0.571  1.00  0.00    -0.014 A 
ATOM     73  C   UNL     1      -7.648  14.161  -0.275  1.00  0.00     0.009 A 
ATOM     74  C   UNL     1      -6.290  15.716   0.986  1.00  0.00     0.009 A 
ATOM     75  C   UNL     1      -8.441  15.220  -0.721  1.00  0.00     0.001 A 
ATOM     76  C   UNL     1      -7.101  16.770   0.560  1.00  0.00     0.001 A 
ATOM     77  C   UNL     1      -8.170  16.522  -0.300  1.00  0.00     0.000 A 
ENDBRANCH  59  72
ENDBRANCH  33  34
ENDBRANCH  25  28
ENDBRANCH  23  24
ENDBRANCH  22  23
ENDBRANCH  21  22
ENDBRANCH   3  21
TORSDOF 15
