REMARK SMILES CC(=O)Oc1ccc2oc(N)c([C@@H]3[NH2+][C@@H](C(=O)NCCCNC(=O)c4ccc(-c5c6nc(c(-c7ccccc7)c7ccc([nH]7)c(-c7ccccc7)c7nc(c(-c8ccccc8)c8ccc5[nH]8)C=C7)C=C6)cc4)C(C)(C)S3)c(=O)c2c1
REMARK SMILES IDX 19 1 18 2 16 3 17 4 15 6 13 7 14 8 76 9 73 12 74 13 75 14
REMARK SMILES IDX 12 15 5 16 6 17 80 18 7 19 79 20 8 21 77 22 9 23 78 24 10 25
REMARK SMILES IDX 4 26 2 27 1 28 3 29 11 30 20 33 21 34 22 35 23 36 24 38
REMARK SMILES IDX 25 39 26 40 72 41 27 42 71 43 28 44 29 45 30 46 65 47 31 48
REMARK SMILES IDX 70 49 64 50 66 51 32 52 69 53 63 54 62 55 33 57 55 58 40 59
REMARK SMILES IDX 54 60 41 61 44 62 53 63 67 64 42 65 43 66 52 68 68 69 45 70
REMARK SMILES IDX 34 71 35 72 39 73 36 74 38 75 37 76 56 77 57 78 61 79 58 80
REMARK SMILES IDX 60 81 59 82 46 83 47 84 51 85 48 86 50 87 49 88
REMARK H PARENT 18 5 14 10 14 11 11 31 11 32 22 37 66 56 44 67
REMARK Flexibility Score: inf
ROOT
ATOM      1  C   UNL     1      -0.570   9.559   7.014  1.00  0.00     0.118 C 
ENDROOT
BRANCH   1   2
ATOM      2  N   UNL     1       0.611  10.346   7.334  1.00  0.00    -0.351 N 
ATOM      3  C   UNL     1       1.839  10.072   7.845  1.00  0.00     0.279 C 
ATOM      4  O   UNL     1       2.515  11.061   8.158  1.00  0.00    -0.268 OA
ATOM      5  H   UNL     1       0.492  11.302   7.133  1.00  0.00     0.163 HD
BRANCH   3   6
ATOM      6  C   UNL     1       2.401   8.661   8.080  1.00  0.00     0.289 C 
ATOM      7  C   UNL     1       2.539   6.395   7.311  1.00  0.00     0.284 C 
ATOM      8  N   UNL     1       2.199   7.767   6.920  1.00  0.00    -0.320 N 
ATOM      9  S   UNL     1       2.387   6.234   9.124  1.00  0.00    -0.081 SA
ATOM     10  H   UNL     1       1.224   7.806   6.623  1.00  0.00     0.348 HD
ATOM     11  H   UNL     1       2.796   8.063   6.147  1.00  0.00     0.348 HD
ATOM     12  C   UNL     1       2.015   8.001   9.419  1.00  0.00     0.077 C 
ATOM     13  C   UNL     1       0.554   8.073   9.842  1.00  0.00     0.030 C 
ATOM     14  C   UNL     1       2.870   8.528  10.581  1.00  0.00     0.030 C 
BRANCH   7  15
ATOM     15  C   UNL     1       3.885   5.949   6.794  1.00  0.00     0.128 A 
ATOM     16  C   UNL     1       6.360   2.805   3.927  1.00  0.00     0.131 A 
ATOM     17  C   UNL     1       7.546   3.264   4.505  1.00  0.00     0.051 A 
ATOM     18  C   UNL     1       5.130   3.383   4.245  1.00  0.00     0.063 A 
ATOM     19  C   UNL     1       7.496   4.288   5.443  1.00  0.00     0.052 A 
ATOM     20  C   UNL     1       5.094   4.407   5.195  1.00  0.00     0.069 A 
ATOM     21  C   UNL     1       6.269   4.850   5.786  1.00  0.00     0.140 A 
ATOM     22  C   UNL     1       3.831   5.034   5.615  1.00  0.00     0.205 A 
ATOM     23  O   UNL     1       6.294   5.842   6.717  1.00  0.00    -0.440 OA
ATOM     24  O   UNL     1       2.785   4.761   5.036  1.00  0.00    -0.288 OA
ATOM     25  C   UNL     1       5.107   6.260   7.282  1.00  0.00     0.205 A 
BRANCH  16  26
ATOM     26  O   UNL     1       6.372   1.814   2.934  1.00  0.00    -0.427 OA
BRANCH  26  27
ATOM     27  C   UNL     1       7.083   0.648   3.210  1.00  0.00     0.308 C 
ATOM     28  C   UNL     1       7.117  -0.198   1.974  1.00  0.00     0.139 C 
ATOM     29  O   UNL     1       7.608   0.340   4.271  1.00  0.00    -0.252 OA
ENDBRANCH  26  27
ENDBRANCH  16  26
BRANCH  25  30
ATOM     30  N   UNL     1       5.339   7.001   8.402  1.00  0.00    -0.369 N 
ATOM     31  H   UNL     1       6.263   7.181   8.690  1.00  0.00     0.159 HD
ATOM     32  H   UNL     1       4.582   7.355   8.923  1.00  0.00     0.159 HD
ENDBRANCH  25  30
ENDBRANCH   7  15
ENDBRANCH   3   6
ENDBRANCH   1   2
BRANCH   1  33
ATOM     33  C   UNL     1      -1.718   9.830   7.979  1.00  0.00     0.042 C 
BRANCH  33  34
ATOM     34  C   UNL     1      -2.159  11.281   8.010  1.00  0.00     0.118 C 
BRANCH  34  35
ATOM     35  N   UNL     1      -3.093  11.587   6.942  1.00  0.00    -0.352 N 
ATOM     36  C   UNL     1      -4.463  11.717   6.995  1.00  0.00     0.251 C 
ATOM     37  H   UNL     1      -2.690  11.720   6.053  1.00  0.00     0.163 HD
ATOM     38  O   UNL     1      -5.119  11.720   5.962  1.00  0.00    -0.269 OA
BRANCH  36  39
ATOM     39  C   UNL     1      -5.141  11.815   8.308  1.00  0.00     0.039 A 
ATOM     40  C   UNL     1      -4.595  12.582   9.337  1.00  0.00     0.014 A 
ATOM     41  C   UNL     1      -6.337  11.124   8.518  1.00  0.00     0.014 A 
ATOM     42  C   UNL     1      -5.116  12.489  10.620  1.00  0.00     0.010 A 
ATOM     43  C   UNL     1      -6.936  11.142   9.781  1.00  0.00     0.010 A 
ATOM     44  C   UNL     1      -6.305  11.784  10.859  1.00  0.00    -0.014 A 
BRANCH  44  45
ATOM     45  C   UNL     1      -6.880  11.761  12.231  1.00  0.00     0.031 A 
ATOM     46  C   UNL     1      -7.088  10.462  12.964  1.00  0.00     0.074 A 
ATOM     47  C   UNL     1      -7.186  12.930  12.831  1.00  0.00     0.049 A 
ATOM     48  N   UNL     1      -7.583  10.266  14.161  1.00  0.00    -0.248 NA
ATOM     49  C   UNL     1      -6.698   9.223  12.271  1.00  0.00     0.031 C 
ATOM     50  C   UNL     1      -7.013  14.256  12.232  1.00  0.00     0.029 A 
ATOM     51  N   UNL     1      -7.681  13.198  14.083  1.00  0.00    -0.354 N 
ATOM     52  C   UNL     1      -7.594   8.888  14.348  1.00  0.00     0.074 A 
ATOM     53  C   UNL     1      -7.081   8.293  13.136  1.00  0.00     0.031 C 
ATOM     54  C   UNL     1      -7.329  15.193  13.135  1.00  0.00     0.029 A 
ATOM     55  C   UNL     1      -7.820  14.541  14.343  1.00  0.00     0.049 A 
ATOM     56  H   UNL     1      -7.914  12.496  14.733  1.00  0.00     0.167 HD
ATOM     57  C   UNL     1      -7.990   8.188  15.438  1.00  0.00     0.031 A 
ATOM     58  C   UNL     1      -8.310  15.186  15.419  1.00  0.00     0.031 A 
ATOM     59  C   UNL     1      -8.477   8.792  16.651  1.00  0.00     0.049 A 
ATOM     60  C   UNL     1      -8.794  14.380  16.590  1.00  0.00     0.074 A 
ATOM     61  C   UNL     1      -8.854   8.165  17.826  1.00  0.00     0.029 A 
ATOM     62  N   UNL     1      -8.657  10.152  16.847  1.00  0.00    -0.354 N 
ATOM     63  N   UNL     1      -8.760  13.081  16.764  1.00  0.00    -0.248 NA
ATOM     64  C   UNL     1      -9.384  15.123  17.711  1.00  0.00     0.031 C 
ATOM     65  C   UNL     1      -9.343   9.136  18.700  1.00  0.00     0.029 A 
ATOM     66  C   UNL     1      -9.185  10.379  18.108  1.00  0.00     0.049 A 
ATOM     67  H   UNL     1      -8.443  10.852  16.189  1.00  0.00     0.167 HD
ATOM     68  C   UNL     1      -9.302  12.853  18.021  1.00  0.00     0.074 A 
ATOM     69  C   UNL     1      -9.636  14.149  18.575  1.00  0.00     0.031 C 
ATOM     70  C   UNL     1      -9.508  11.673  18.654  1.00  0.00     0.031 A 
BRANCH  57  71
ATOM     71  C   UNL     1      -7.939   6.683  15.383  1.00  0.00    -0.014 A 
ATOM     72  C   UNL     1      -9.136   5.949  15.452  1.00  0.00     0.009 A 
ATOM     73  C   UNL     1      -6.721   5.987  15.380  1.00  0.00     0.009 A 
ATOM     74  C   UNL     1      -9.114   4.556  15.539  1.00  0.00     0.001 A 
ATOM     75  C   UNL     1      -6.703   4.590  15.433  1.00  0.00     0.001 A 
ATOM     76  C   UNL     1      -7.898   3.877  15.525  1.00  0.00     0.000 A 
ENDBRANCH  57  71
BRANCH  58  77
ATOM     77  C   UNL     1      -8.366  16.674  15.422  1.00  0.00    -0.014 A 
ATOM     78  C   UNL     1      -9.177  17.363  14.504  1.00  0.00     0.009 A 
ATOM     79  C   UNL     1      -7.575  17.418  16.311  1.00  0.00     0.009 A 
ATOM     80  C   UNL     1      -9.170  18.759  14.452  1.00  0.00     0.001 A 
ATOM     81  C   UNL     1      -7.601  18.815  16.284  1.00  0.00     0.001 A 
ATOM     82  C   UNL     1      -8.388  19.483  15.347  1.00  0.00     0.000 A 
ENDBRANCH  58  77
BRANCH  70  83
ATOM     83  C   UNL     1     -10.104  11.706  20.035  1.00  0.00    -0.014 A 
ATOM     84  C   UNL     1      -9.339  11.278  21.133  1.00  0.00     0.009 A 
ATOM     85  C   UNL     1     -11.451  12.045  20.238  1.00  0.00     0.009 A 
ATOM     86  C   UNL     1      -9.916  11.162  22.398  1.00  0.00     0.001 A 
ATOM     87  C   UNL     1     -12.015  11.964  21.512  1.00  0.00     0.001 A 
ATOM     88  C   UNL     1     -11.252  11.509  22.588  1.00  0.00     0.000 A 
ENDBRANCH  70  83
ENDBRANCH  44  45
ENDBRANCH  36  39
ENDBRANCH  34  35
ENDBRANCH  33  34
ENDBRANCH   1  33
TORSDOF 14
