REMARK SMILES O=C(NCCCNC(=O)[C@H]1C[C@H]2CCCC[C@@H]2[N@@H+]1CC[C@@H]1CCCO1)c1ccc(-c2c3nc(c(-c4ccccc4)c4ccc([nH]4)c(-c4ccccc4)c4nc(c(-c5ccccc5)c5ccc2[nH]5)C=C4)C=C3)cc1
REMARK SMILES IDX 5 1 4 2 3 3 1 4 2 5 26 7 27 8 73 9 28 10 72 11 29 12 30 13
REMARK SMILES IDX 31 14 66 15 32 16 71 17 65 18 67 19 33 20 70 21 64 22 63 23
REMARK SMILES IDX 34 25 56 26 41 27 55 28 42 29 45 30 54 31 68 32 43 33 44 34
REMARK SMILES IDX 53 36 69 37 46 38 35 39 36 40 40 41 37 42 39 43 38 44 57 45
REMARK SMILES IDX 58 46 62 47 59 48 61 49 60 50 47 51 48 52 52 53 49 54 51 55
REMARK SMILES IDX 50 56 6 57 7 58 8 59 9 61 10 62 11 63 18 64 12 65 17 66
REMARK SMILES IDX 13 68 16 69 14 70 15 71 19 72 20 73 21 74 22 75 25 76 23 77
REMARK SMILES IDX 24 78
REMARK H PARENT 3 6 67 24 45 35 7 60 18 67
REMARK Flexibility Score: inf
ROOT
ATOM      1  C   UNL     1       4.516  -3.264   1.541  1.00  0.00     0.042 C 
ENDROOT
BRANCH   1   2
ATOM      2  C   UNL     1       5.044  -2.487   2.748  1.00  0.00     0.118 C 
BRANCH   2   3
ATOM      3  N   UNL     1       5.256  -1.072   2.465  1.00  0.00    -0.352 N 
ATOM      4  O   UNL     1       4.895   1.148   2.546  1.00  0.00    -0.269 OA
ATOM      5  C   UNL     1       4.713   0.043   3.053  1.00  0.00     0.251 C 
ATOM      6  H   UNL     1       5.891  -0.887   1.736  1.00  0.00     0.163 HD
BRANCH   5   7
ATOM      7  C   UNL     1       3.895  -0.074   4.279  1.00  0.00     0.039 A 
ATOM      8  C   UNL     1       4.284  -0.911   5.326  1.00  0.00     0.014 A 
ATOM      9  C   UNL     1       2.733   0.696   4.395  1.00  0.00     0.014 A 
ATOM     10  C   UNL     1       3.439  -1.093   6.416  1.00  0.00     0.010 A 
ATOM     11  C   UNL     1       1.928   0.576   5.531  1.00  0.00     0.010 A 
ATOM     12  C   UNL     1       2.254  -0.349   6.534  1.00  0.00    -0.014 A 
BRANCH  12  13
ATOM     13  C   UNL     1       1.390  -0.534   7.728  1.00  0.00     0.031 A 
ATOM     14  C   UNL     1      -0.000  -1.093   7.600  1.00  0.00     0.074 A 
ATOM     15  C   UNL     1       1.878  -0.219   8.943  1.00  0.00     0.049 A 
ATOM     16  N   UNL     1      -0.871  -1.361   8.542  1.00  0.00    -0.248 NA
ATOM     17  C   UNL     1      -0.480  -1.384   6.241  1.00  0.00     0.031 C 
ATOM     18  C   UNL     1       3.211   0.331   9.200  1.00  0.00     0.029 A 
ATOM     19  N   UNL     1       1.321  -0.337  10.191  1.00  0.00    -0.354 N 
ATOM     20  C   UNL     1      -2.006  -1.827   7.890  1.00  0.00     0.074 A 
ATOM     21  C   UNL     1      -1.724  -1.778   6.471  1.00  0.00     0.031 C 
ATOM     22  C   UNL     1       3.389   0.449  10.524  1.00  0.00     0.029 A 
ATOM     23  C   UNL     1       2.164   0.044  11.205  1.00  0.00     0.049 A 
ATOM     24  H   UNL     1       0.405  -0.663  10.344  1.00  0.00     0.167 HD
ATOM     25  C   UNL     1      -3.175  -2.261   8.424  1.00  0.00     0.031 A 
ATOM     26  C   UNL     1       1.975   0.073  12.536  1.00  0.00     0.031 A 
ATOM     27  C   UNL     1      -3.455  -2.305   9.836  1.00  0.00     0.049 A 
ATOM     28  C   UNL     1       0.658  -0.373  13.099  1.00  0.00     0.074 A 
ATOM     29  C   UNL     1      -4.594  -2.763  10.476  1.00  0.00     0.029 A 
ATOM     30  N   UNL     1      -2.591  -1.863  10.828  1.00  0.00    -0.354 N 
ATOM     31  N   UNL     1      -0.389  -0.852  12.472  1.00  0.00    -0.248 NA
ATOM     32  C   UNL     1       0.500  -0.280  14.556  1.00  0.00     0.031 C 
ATOM     33  C   UNL     1      -4.444  -2.541  11.850  1.00  0.00     0.029 A 
ATOM     34  C   UNL     1      -3.184  -2.009  12.072  1.00  0.00     0.049 A 
ATOM     35  H   UNL     1      -1.690  -1.499  10.671  1.00  0.00     0.167 HD
ATOM     36  C   UNL     1      -1.319  -1.146  13.459  1.00  0.00     0.074 A 
ATOM     37  C   UNL     1      -0.706  -0.803  14.727  1.00  0.00     0.031 C 
ATOM     38  C   UNL     1      -2.567  -1.659  13.326  1.00  0.00     0.031 A 
BRANCH  25  39
ATOM     39  C   UNL     1      -4.257  -2.685   7.466  1.00  0.00    -0.014 A 
ATOM     40  C   UNL     1      -4.141  -3.850   6.691  1.00  0.00     0.009 A 
ATOM     41  C   UNL     1      -5.424  -1.913   7.354  1.00  0.00     0.009 A 
ATOM     42  C   UNL     1      -5.149  -4.206   5.790  1.00  0.00     0.001 A 
ATOM     43  C   UNL     1      -6.444  -2.288   6.477  1.00  0.00     0.001 A 
ATOM     44  C   UNL     1      -6.300  -3.426   5.686  1.00  0.00     0.000 A 
ENDBRANCH  25  39
BRANCH  26  45
ATOM     45  C   UNL     1       3.072   0.535  13.427  1.00  0.00    -0.014 A 
ATOM     46  C   UNL     1       3.739  -0.373  14.263  1.00  0.00     0.009 A 
ATOM     47  C   UNL     1       3.470   1.881  13.430  1.00  0.00     0.009 A 
ATOM     48  C   UNL     1       4.770   0.062  15.098  1.00  0.00     0.001 A 
ATOM     49  C   UNL     1       4.521   2.307  14.243  1.00  0.00     0.001 A 
ATOM     50  C   UNL     1       5.165   1.399  15.082  1.00  0.00     0.000 A 
ENDBRANCH  26  45
BRANCH  38  51
ATOM     51  C   UNL     1      -3.335  -1.924  14.592  1.00  0.00    -0.014 A 
ATOM     52  C   UNL     1      -3.839  -0.878  15.380  1.00  0.00     0.009 A 
ATOM     53  C   UNL     1      -3.577  -3.250  14.988  1.00  0.00     0.009 A 
ATOM     54  C   UNL     1      -4.534  -1.154  16.560  1.00  0.00     0.001 A 
ATOM     55  C   UNL     1      -4.299  -3.523  16.149  1.00  0.00     0.001 A 
ATOM     56  C   UNL     1      -4.767  -2.476  16.941  1.00  0.00     0.000 A 
ENDBRANCH  38  51
ENDBRANCH  12  13
ENDBRANCH   5   7
ENDBRANCH   2   3
ENDBRANCH   1   2
BRANCH   1  57
ATOM     57  C   UNL     1       5.488  -3.317   0.366  1.00  0.00     0.118 C 
BRANCH  57  58
ATOM     58  N   UNL     1       6.696  -4.031   0.712  1.00  0.00    -0.351 N 
ATOM     59  C   UNL     1       7.069  -5.310   0.422  1.00  0.00     0.278 C 
ATOM     60  H   UNL     1       7.350  -3.515   1.237  1.00  0.00     0.163 HD
ATOM     61  O   UNL     1       8.091  -5.714   0.984  1.00  0.00    -0.268 OA
BRANCH  59  62
ATOM     62  C   UNL     1       6.268  -6.165  -0.604  1.00  0.00     0.274 C 
ATOM     63  C   UNL     1       7.082  -7.438  -0.953  1.00  0.00     0.085 C 
ATOM     64  N   UNL     1       5.005  -6.646   0.011  1.00  0.00    -0.322 N 
ATOM     65  C   UNL     1       6.237  -8.595  -0.451  1.00  0.00     0.054 C 
ATOM     66  C   UNL     1       5.309  -7.966   0.574  1.00  0.00     0.188 C 
ATOM     67  H   UNL     1       4.714  -6.028   0.769  1.00  0.00     0.349 HD
ATOM     68  C   UNL     1       6.915  -9.834   0.104  1.00  0.00     0.010 C 
ATOM     69  C   UNL     1       4.200  -8.928   0.996  1.00  0.00     0.065 C 
ATOM     70  C   UNL     1       5.821 -10.860   0.427  1.00  0.00     0.001 C 
ATOM     71  C   UNL     1       4.747 -10.311   1.377  1.00  0.00     0.006 C 
BRANCH  64  72
ATOM     72  C   UNL     1       3.746  -6.428  -0.716  1.00  0.00     0.265 C 
BRANCH  72  73
ATOM     73  C   UNL     1       3.535  -6.695  -2.232  1.00  0.00     0.093 C 
BRANCH  73  74
ATOM     74  C   UNL     1       3.509  -8.153  -2.654  1.00  0.00     0.123 C 
ATOM     75  C   UNL     1       3.083  -8.504  -4.064  1.00  0.00     0.034 C 
ATOM     76  O   UNL     1       2.603  -8.923  -1.863  1.00  0.00    -0.378 OA
ATOM     77  C   UNL     1       2.890 -10.012  -3.934  1.00  0.00     0.031 C 
ATOM     78  C   UNL     1       2.569 -10.224  -2.462  1.00  0.00     0.160 C 
ENDBRANCH  73  74
ENDBRANCH  72  73
ENDBRANCH  64  72
ENDBRANCH  59  62
ENDBRANCH  57  58
ENDBRANCH   1  57
TORSDOF 13
