REMARK SMILES O=C(NCCCNC(=O)c1nn(-c2ccc([N+](=O)[O-])cc2)cc1CCO)c1ccc(-c2c3nc(c(-c4ccccc4)c4ccc([nH]4)c(-c4ccccc4)c4nc(c(-c5ccccc5)c5ccc2[nH]5)C=C4)C=C3)cc1
REMARK SMILES IDX 5 1 4 2 3 3 1 4 2 5 27 7 28 8 74 9 29 10 73 11 30 12 31 13
REMARK SMILES IDX 32 14 67 15 33 16 72 17 66 18 68 19 34 20 71 21 65 22 64 23
REMARK SMILES IDX 35 25 57 26 42 27 56 28 43 29 46 30 55 31 69 32 44 33 45 34
REMARK SMILES IDX 54 36 70 37 47 38 36 39 37 40 41 41 38 42 40 43 39 44 58 45
REMARK SMILES IDX 59 46 63 47 60 48 62 49 61 50 48 51 49 52 53 53 50 54 52 55
REMARK SMILES IDX 51 56 6 57 7 58 8 59 9 61 10 62 11 63 23 64 12 65 22 66
REMARK SMILES IDX 24 67 25 68 26 69 13 71 14 72 21 73 15 74 20 75 16 76 17 77
REMARK SMILES IDX 18 78 19 79
REMARK H PARENT 3 6 68 24 46 35 7 60 26 70
REMARK Flexibility Score: inf
ROOT
ATOM      1  C   UNL     1       4.949   2.255   0.699  1.00  0.00     0.042 C 
ENDROOT
BRANCH   1   2
ATOM      2  C   UNL     1       4.684   0.774   0.956  1.00  0.00     0.118 C 
BRANCH   2   3
ATOM      3  N   UNL     1       3.284   0.405   1.030  1.00  0.00    -0.352 N 
ATOM      4  O   UNL     1       1.235  -0.284   0.583  1.00  0.00    -0.269 OA
ATOM      5  C   UNL     1       2.302   0.129   0.121  1.00  0.00     0.251 C 
ATOM      6  H   UNL     1       2.963   0.338   1.958  1.00  0.00     0.163 HD
BRANCH   5   7
ATOM      7  C   UNL     1       2.400   0.345  -1.347  1.00  0.00     0.039 A 
ATOM      8  C   UNL     1       3.580   0.485  -2.079  1.00  0.00     0.014 A 
ATOM      9  C   UNL     1       1.172   0.393  -2.037  1.00  0.00     0.014 A 
ATOM     10  C   UNL     1       3.531   0.737  -3.451  1.00  0.00     0.010 A 
ATOM     11  C   UNL     1       1.118   0.631  -3.405  1.00  0.00     0.010 A 
ATOM     12  C   UNL     1       2.300   0.829  -4.111  1.00  0.00    -0.014 A 
BRANCH  12  13
ATOM     13  C   UNL     1       2.293   0.961  -5.568  1.00  0.00     0.031 A 
ATOM     14  C   UNL     1       2.841  -0.211  -6.314  1.00  0.00     0.074 A 
ATOM     15  C   UNL     1       1.677   1.960  -6.234  1.00  0.00     0.049 A 
ATOM     16  N   UNL     1       3.807  -0.237  -7.175  1.00  0.00    -0.248 NA
ATOM     17  C   UNL     1       2.274  -1.536  -6.009  1.00  0.00     0.031 C 
ATOM     18  C   UNL     1       0.819   3.012  -5.684  1.00  0.00     0.029 A 
ATOM     19  N   UNL     1       1.597   2.169  -7.581  1.00  0.00    -0.354 N 
ATOM     20  C   UNL     1       3.877  -1.551  -7.637  1.00  0.00     0.074 A 
ATOM     21  C   UNL     1       2.988  -2.327  -6.810  1.00  0.00     0.031 C 
ATOM     22  C   UNL     1       0.132   3.598  -6.692  1.00  0.00     0.029 A 
ATOM     23  C   UNL     1       0.597   3.057  -7.958  1.00  0.00     0.049 A 
ATOM     24  H   UNL     1       2.195   1.729  -8.228  1.00  0.00     0.167 HD
ATOM     25  C   UNL     1       4.516  -1.889  -8.791  1.00  0.00     0.031 A 
ATOM     26  C   UNL     1       0.141   3.288  -9.215  1.00  0.00     0.031 A 
ATOM     27  C   UNL     1       5.430  -0.874  -9.230  1.00  0.00     0.049 A 
ATOM     28  C   UNL     1       1.156   2.792 -10.169  1.00  0.00     0.074 A 
ATOM     29  C   UNL     1       6.559  -0.282  -8.699  1.00  0.00     0.029 A 
ATOM     30  N   UNL     1       5.032  -0.057 -10.260  1.00  0.00    -0.354 N 
ATOM     31  N   UNL     1       2.320   3.346 -10.339  1.00  0.00    -0.248 NA
ATOM     32  C   UNL     1       1.034   1.430 -10.661  1.00  0.00     0.031 C 
ATOM     33  C   UNL     1       6.476   1.084  -9.096  1.00  0.00     0.029 A 
ATOM     34  C   UNL     1       5.335   1.226  -9.887  1.00  0.00     0.049 A 
ATOM     35  H   UNL     1       4.611  -0.340 -11.104  1.00  0.00     0.167 HD
ATOM     36  C   UNL     1       3.187   2.285 -10.544  1.00  0.00     0.074 A 
ATOM     37  C   UNL     1       2.325   1.144 -10.844  1.00  0.00     0.031 C 
ATOM     38  C   UNL     1       4.500   2.369 -10.178  1.00  0.00     0.031 A 
BRANCH  25  39
ATOM     39  C   UNL     1       4.039  -2.987  -9.709  1.00  0.00    -0.014 A 
ATOM     40  C   UNL     1       4.820  -3.341 -10.824  1.00  0.00     0.009 A 
ATOM     41  C   UNL     1       2.723  -3.486  -9.674  1.00  0.00     0.009 A 
ATOM     42  C   UNL     1       4.290  -4.105 -11.872  1.00  0.00     0.001 A 
ATOM     43  C   UNL     1       2.204  -4.284 -10.698  1.00  0.00     0.001 A 
ATOM     44  C   UNL     1       2.981  -4.571 -11.810  1.00  0.00     0.000 A 
ENDBRANCH  25  39
BRANCH  26  45
ATOM     45  C   UNL     1      -1.217   3.667  -9.660  1.00  0.00    -0.014 A 
ATOM     46  C   UNL     1      -1.435   4.199 -10.941  1.00  0.00     0.009 A 
ATOM     47  C   UNL     1      -2.341   3.245  -8.927  1.00  0.00     0.009 A 
ATOM     48  C   UNL     1      -2.727   4.271 -11.481  1.00  0.00     0.001 A 
ATOM     49  C   UNL     1      -3.630   3.319  -9.464  1.00  0.00     0.001 A 
ATOM     50  C   UNL     1      -3.821   3.818 -10.748  1.00  0.00     0.000 A 
ENDBRANCH  26  45
BRANCH  38  51
ATOM     51  C   UNL     1       5.036   3.720  -9.772  1.00  0.00    -0.014 A 
ATOM     52  C   UNL     1       4.509   4.463  -8.699  1.00  0.00     0.009 A 
ATOM     53  C   UNL     1       6.198   4.194 -10.398  1.00  0.00     0.009 A 
ATOM     54  C   UNL     1       5.106   5.661  -8.293  1.00  0.00     0.001 A 
ATOM     55  C   UNL     1       6.808   5.378  -9.976  1.00  0.00     0.001 A 
ATOM     56  C   UNL     1       6.258   6.114  -8.930  1.00  0.00     0.000 A 
ENDBRANCH  38  51
ENDBRANCH  12  13
ENDBRANCH   5   7
ENDBRANCH   2   3
ENDBRANCH   1   2
BRANCH   1  57
ATOM     57  C   UNL     1       4.346   3.206   1.738  1.00  0.00     0.118 C 
BRANCH  57  58
ATOM     58  N   UNL     1       4.809   2.939   3.094  1.00  0.00    -0.351 N 
ATOM     59  C   UNL     1       5.598   3.707   3.911  1.00  0.00     0.272 C 
ATOM     60  H   UNL     1       4.511   2.084   3.480  1.00  0.00     0.163 HD
ATOM     61  O   UNL     1       5.963   3.243   5.006  1.00  0.00    -0.267 OA
BRANCH  59  62
ATOM     62  C   UNL     1       6.044   5.022   3.460  1.00  0.00     0.153 A 
ATOM     63  N   UNL     1       5.164   5.972   3.095  1.00  0.00    -0.162 NA
ATOM     64  C   UNL     1       7.381   5.514   3.398  1.00  0.00     0.006 A 
ATOM     65  N   UNL     1       5.918   6.971   2.599  1.00  0.00    -0.240 N 
ATOM     66  C   UNL     1       7.261   6.723   2.738  1.00  0.00     0.119 A 
BRANCH  64  67
ATOM     67  C   UNL     1       8.642   4.857   3.874  1.00  0.00     0.068 C 
BRANCH  67  68
ATOM     68  C   UNL     1       8.847   4.962   5.390  1.00  0.00     0.161 C 
BRANCH  68  69
ATOM     69  O   UNL     1       8.343   3.825   6.081  1.00  0.00    -0.396 OA
ATOM     70  H   UNL     1       7.388   3.751   5.927  1.00  0.00     0.210 HD
ENDBRANCH  68  69
ENDBRANCH  67  68
ENDBRANCH  64  67
BRANCH  65  71
ATOM     71  C   UNL     1       5.302   8.088   1.993  1.00  0.00     0.065 A 
ATOM     72  C   UNL     1       4.129   8.606   2.562  1.00  0.00     0.035 A 
ATOM     73  C   UNL     1       5.834   8.639   0.820  1.00  0.00     0.035 A 
ATOM     74  C   UNL     1       3.497   9.703   1.974  1.00  0.00     0.088 A 
ATOM     75  C   UNL     1       5.167   9.699   0.197  1.00  0.00     0.088 A 
ATOM     76  C   UNL     1       4.009  10.235   0.784  1.00  0.00     0.269 A 
BRANCH  76  77
ATOM     77  N   UNL     1       3.320  11.359   0.139  1.00  0.00     0.062 N 
ATOM     78  O   UNL     1       2.405  11.910   0.766  1.00  0.00    -0.258 OA
ATOM     79  O   UNL     1       3.697  11.691  -0.994  1.00  0.00    -0.258 OA
ENDBRANCH  76  77
ENDBRANCH  65  71
ENDBRANCH  59  62
ENDBRANCH  57  58
ENDBRANCH   1  57
TORSDOF 15
