REMARK SMILES O=C(NCCCNC(=O)c1ccc(-c2c3nc(c(-c4ccccc4)c4ccc([nH]4)c(-c4ccccc4)c4nc(c(-c5ccccc5)c5ccc2[nH]5)C=C4)C=C3)cc1)C1=Cc2ccc(Cl)c(Cl)c2O[C@@H]1C(F)(F)F
REMARK SMILES IDX 5 1 4 2 3 3 1 4 2 5 58 7 59 8 69 9 60 10 68 11 61 12 67 13
REMARK SMILES IDX 62 14 65 15 63 16 66 17 64 18 70 19 71 20 72 21 73 22 6 23
REMARK SMILES IDX 7 24 8 25 9 27 10 28 11 29 57 30 12 31 56 32 13 33 14 34
REMARK SMILES IDX 15 35 50 36 16 37 55 38 49 39 51 40 17 41 54 42 48 43 47 44
REMARK SMILES IDX 18 46 40 47 25 48 39 49 26 50 29 51 38 52 52 53 27 54 28 55
REMARK SMILES IDX 37 57 53 58 30 59 19 60 20 61 24 62 21 63 23 64 22 65 41 66
REMARK SMILES IDX 42 67 46 68 43 69 45 70 44 71 31 72 32 73 36 74 33 75 35 76
REMARK SMILES IDX 34 77
REMARK H PARENT 3 6 7 26 51 45 29 56
REMARK Flexibility Score: inf
ROOT
ATOM      1  C   UNL     1       4.220   0.762   2.682  1.00  0.00     0.042 C 
ENDROOT
BRANCH   1   2
ATOM      2  C   UNL     1       3.396  -0.089   1.724  1.00  0.00     0.118 C 
BRANCH   2   3
ATOM      3  N   UNL     1       2.412   0.686   0.968  1.00  0.00    -0.352 N 
ATOM      4  O   UNL     1       1.265   1.379  -0.861  1.00  0.00    -0.270 OA
ATOM      5  C   UNL     1       2.265   0.858  -0.388  1.00  0.00     0.251 C 
ATOM      6  H   UNL     1       1.748   1.160   1.518  1.00  0.00     0.163 HD
BRANCH   5   7
ATOM      7  C   UNL     1       3.336   0.329  -1.249  1.00  0.00     0.067 C 
ATOM      8  C   UNL     1       4.523   0.945  -1.201  1.00  0.00     0.025 C 
ATOM      9  C   UNL     1       3.160  -1.053  -1.789  1.00  0.00     0.314 C 
ATOM     10  C   UNL     1       5.641   0.014  -1.003  1.00  0.00     0.019 A 
ATOM     11  O   UNL     1       4.219  -1.943  -1.365  1.00  0.00    -0.474 OA
ATOM     12  C   UNL     1       6.811   0.544  -0.452  1.00  0.00     0.013 A 
ATOM     13  C   UNL     1       5.401  -1.376  -0.938  1.00  0.00     0.148 A 
ATOM     14  C   UNL     1       7.678  -0.282   0.263  1.00  0.00     0.023 A 
ATOM     15  C   UNL     1       6.287  -2.209  -0.231  1.00  0.00     0.102 A 
ATOM     16  C   UNL     1       7.405  -1.647   0.397  1.00  0.00     0.063 A 
ATOM     17  Cl  UNL     1       5.878  -3.881  -0.001  1.00  0.00    -0.079 Cl
ATOM     18  Cl  UNL     1       8.443  -2.557   1.438  1.00  0.00    -0.083 Cl
BRANCH   9  19
ATOM     19  C   UNL     1       3.038  -1.036  -3.321  1.00  0.00     0.429 C 
ATOM     20  F   UNL     1       2.727  -2.264  -3.800  1.00  0.00    -0.167 F 
ATOM     21  F   UNL     1       2.066  -0.193  -3.740  1.00  0.00    -0.167 F 
ATOM     22  F   UNL     1       4.191  -0.652  -3.920  1.00  0.00    -0.167 F 
ENDBRANCH   9  19
ENDBRANCH   5   7
ENDBRANCH   2   3
ENDBRANCH   1   2
BRANCH   1  23
ATOM     23  C   UNL     1       4.141   0.262   4.118  1.00  0.00     0.118 C 
BRANCH  23  24
ATOM     24  N   UNL     1       4.737  -1.052   4.330  1.00  0.00    -0.352 N 
ATOM     25  C   UNL     1       5.546  -1.503   5.349  1.00  0.00     0.251 C 
ATOM     26  H   UNL     1       4.528  -1.721   3.638  1.00  0.00     0.163 HD
ATOM     27  O   UNL     1       5.982  -2.652   5.316  1.00  0.00    -0.269 OA
BRANCH  25  28
ATOM     28  C   UNL     1       5.931  -0.607   6.464  1.00  0.00     0.039 A 
ATOM     29  C   UNL     1       7.228  -0.682   6.983  1.00  0.00     0.014 A 
ATOM     30  C   UNL     1       5.029   0.313   6.995  1.00  0.00     0.014 A 
ATOM     31  C   UNL     1       7.630   0.208   7.983  1.00  0.00     0.010 A 
ATOM     32  C   UNL     1       5.469   1.284   7.883  1.00  0.00     0.010 A 
ATOM     33  C   UNL     1       6.763   1.223   8.417  1.00  0.00    -0.014 A 
BRANCH  33  34
ATOM     34  C   UNL     1       7.149   2.188   9.477  1.00  0.00     0.031 A 
ATOM     35  C   UNL     1       6.329   2.270  10.741  1.00  0.00     0.074 A 
ATOM     36  C   UNL     1       8.178   3.035   9.281  1.00  0.00     0.049 A 
ATOM     37  N   UNL     1       6.440   3.098  11.749  1.00  0.00    -0.248 NA
ATOM     38  C   UNL     1       5.201   1.330  10.865  1.00  0.00     0.031 C 
ATOM     39  C   UNL     1       9.008   3.105   8.076  1.00  0.00     0.029 A 
ATOM     40  N   UNL     1       8.700   4.003  10.100  1.00  0.00    -0.354 N 
ATOM     41  C   UNL     1       5.374   2.806  12.592  1.00  0.00     0.074 A 
ATOM     42  C   UNL     1       4.588   1.781  11.947  1.00  0.00     0.031 C 
ATOM     43  C   UNL     1       9.964   4.032   8.254  1.00  0.00     0.029 A 
ATOM     44  C   UNL     1       9.793   4.644   9.568  1.00  0.00     0.049 A 
ATOM     45  H   UNL     1       8.328   4.219  10.986  1.00  0.00     0.167 HD
ATOM     46  C   UNL     1       5.090   3.315  13.814  1.00  0.00     0.031 A 
ATOM     47  C   UNL     1      10.576   5.607  10.088  1.00  0.00     0.031 A 
ATOM     48  C   UNL     1       5.906   4.292  14.480  1.00  0.00     0.049 A 
ATOM     49  C   UNL     1      10.284   6.110  11.475  1.00  0.00     0.074 A 
ATOM     50  C   UNL     1       5.760   4.821  15.750  1.00  0.00     0.029 A 
ATOM     51  N   UNL     1       7.037   4.874  13.928  1.00  0.00    -0.354 N 
ATOM     52  N   UNL     1       9.312   5.776  12.289  1.00  0.00    -0.248 NA
ATOM     53  C   UNL     1      11.215   7.106  12.022  1.00  0.00     0.031 C 
ATOM     54  C   UNL     1       6.785   5.751  15.953  1.00  0.00     0.029 A 
ATOM     55  C   UNL     1       7.597   5.762  14.829  1.00  0.00     0.049 A 
ATOM     56  H   UNL     1       7.388   4.683  13.029  1.00  0.00     0.167 HD
ATOM     57  C   UNL     1       9.530   6.497  13.455  1.00  0.00     0.074 A 
ATOM     58  C   UNL     1      10.738   7.270  13.248  1.00  0.00     0.031 C 
ATOM     59  C   UNL     1       8.799   6.519  14.597  1.00  0.00     0.031 A 
BRANCH  46  60
ATOM     60  C   UNL     1       3.850   2.808  14.501  1.00  0.00    -0.014 A 
ATOM     61  C   UNL     1       3.756   1.480  14.953  1.00  0.00     0.009 A 
ATOM     62  C   UNL     1       2.758   3.667  14.696  1.00  0.00     0.009 A 
ATOM     63  C   UNL     1       2.576   1.010  15.533  1.00  0.00     0.001 A 
ATOM     64  C   UNL     1       1.592   3.203  15.309  1.00  0.00     0.001 A 
ATOM     65  C   UNL     1       1.496   1.872  15.713  1.00  0.00     0.000 A 
ENDBRANCH  46  60
BRANCH  47  66
ATOM     66  C   UNL     1      11.743   6.115   9.321  1.00  0.00    -0.014 A 
ATOM     67  C   UNL     1      13.049   5.777   9.711  1.00  0.00     0.009 A 
ATOM     68  C   UNL     1      11.562   6.935   8.197  1.00  0.00     0.009 A 
ATOM     69  C   UNL     1      14.150   6.273   9.008  1.00  0.00     0.001 A 
ATOM     70  C   UNL     1      12.665   7.407   7.480  1.00  0.00     0.001 A 
ATOM     71  C   UNL     1      13.957   7.083   7.891  1.00  0.00     0.000 A 
ENDBRANCH  47  66
BRANCH  59  72
ATOM     72  C   UNL     1       9.314   7.378  15.717  1.00  0.00    -0.014 A 
ATOM     73  C   UNL     1       9.257   8.778  15.649  1.00  0.00     0.009 A 
ATOM     74  C   UNL     1       9.844   6.771  16.866  1.00  0.00     0.009 A 
ATOM     75  C   UNL     1       9.764   9.554  16.692  1.00  0.00     0.001 A 
ATOM     76  C   UNL     1      10.321   7.549  17.920  1.00  0.00     0.001 A 
ATOM     77  C   UNL     1      10.292   8.939  17.827  1.00  0.00     0.000 A 
ENDBRANCH  59  72
ENDBRANCH  33  34
ENDBRANCH  25  28
ENDBRANCH  23  24
ENDBRANCH   1  23
TORSDOF 11
