REMARK SMILES O=C(NCCCNC(=O)c1ccc(-c2c3nc(c(-c4ccccc4)c4ccc([nH]4)c(-c4ccccc4)c4nc(c(-c5ccccc5)c5ccc2[nH]5)C=C4)C=C3)cc1)C1=Cc2c(Cl)ccc(Cl)c2O[C@@H]1C(F)(F)F
REMARK SMILES IDX 5 1 4 2 3 3 1 4 2 5 58 7 59 8 69 9 60 10 68 11 61 12 67 13
REMARK SMILES IDX 62 14 63 15 65 16 64 17 66 18 70 19 71 20 72 21 73 22 6 23
REMARK SMILES IDX 7 24 8 25 9 27 10 28 11 29 57 30 12 31 56 32 13 33 14 34
REMARK SMILES IDX 15 35 50 36 16 37 55 38 49 39 51 40 17 41 54 42 48 43 47 44
REMARK SMILES IDX 18 46 40 47 25 48 39 49 26 50 29 51 38 52 52 53 27 54 28 55
REMARK SMILES IDX 37 57 53 58 30 59 19 60 20 61 24 62 21 63 23 64 22 65 41 66
REMARK SMILES IDX 42 67 46 68 43 69 45 70 44 71 31 72 32 73 36 74 33 75 35 76
REMARK SMILES IDX 34 77
REMARK H PARENT 3 6 7 26 51 45 29 56
REMARK Flexibility Score: inf
ROOT
ATOM      1  C   UNL     1       4.081   0.738   2.678  1.00  0.00     0.042 C 
ENDROOT
BRANCH   1   2
ATOM      2  C   UNL     1       3.300  -0.113   1.685  1.00  0.00     0.118 C 
BRANCH   2   3
ATOM      3  N   UNL     1       2.304   0.650   0.937  1.00  0.00    -0.352 N 
ATOM      4  O   UNL     1       1.095   1.301  -0.854  1.00  0.00    -0.270 OA
ATOM      5  C   UNL     1       2.139   0.839  -0.414  1.00  0.00     0.251 C 
ATOM      6  H   UNL     1       1.635   1.107   1.497  1.00  0.00     0.163 HD
BRANCH   5   7
ATOM      7  C   UNL     1       3.201   0.336  -1.310  1.00  0.00     0.067 C 
ATOM      8  C   UNL     1       4.401   0.926  -1.400  1.00  0.00     0.027 C 
ATOM      9  C   UNL     1       3.006  -1.034  -1.868  1.00  0.00     0.314 C 
ATOM     10  C   UNL     1       5.497  -0.001  -1.024  1.00  0.00     0.037 A 
ATOM     11  O   UNL     1       4.045  -1.939  -1.440  1.00  0.00    -0.474 OA
ATOM     12  C   UNL     1       6.674   0.470  -0.400  1.00  0.00     0.052 A 
ATOM     13  C   UNL     1       5.223  -1.390  -0.976  1.00  0.00     0.148 A 
ATOM     14  Cl  UNL     1       7.074   2.154  -0.321  1.00  0.00    -0.084 Cl
ATOM     15  C   UNL     1       7.516  -0.407   0.296  1.00  0.00     0.023 A 
ATOM     16  C   UNL     1       6.078  -2.258  -0.276  1.00  0.00     0.083 A 
ATOM     17  C   UNL     1       7.208  -1.765   0.374  1.00  0.00     0.026 A 
ATOM     18  Cl  UNL     1       5.680  -3.927  -0.066  1.00  0.00    -0.080 Cl
BRANCH   9  19
ATOM     19  C   UNL     1       2.921  -0.972  -3.406  1.00  0.00     0.429 C 
ATOM     20  F   UNL     1       2.613  -2.183  -3.929  1.00  0.00    -0.167 F 
ATOM     21  F   UNL     1       1.969  -0.108  -3.828  1.00  0.00    -0.167 F 
ATOM     22  F   UNL     1       4.091  -0.581  -3.968  1.00  0.00    -0.167 F 
ENDBRANCH   9  19
ENDBRANCH   5   7
ENDBRANCH   2   3
ENDBRANCH   1   2
BRANCH   1  23
ATOM     23  C   UNL     1       4.056   0.156   4.083  1.00  0.00     0.118 C 
BRANCH  23  24
ATOM     24  N   UNL     1       4.708  -1.142   4.208  1.00  0.00    -0.352 N 
ATOM     25  C   UNL     1       5.554  -1.629   5.188  1.00  0.00     0.251 C 
ATOM     26  H   UNL     1       4.516  -1.773   3.477  1.00  0.00     0.163 HD
ATOM     27  O   UNL     1       6.048  -2.730   5.064  1.00  0.00    -0.269 OA
BRANCH  25  28
ATOM     28  C   UNL     1       5.896  -0.787   6.364  1.00  0.00     0.039 A 
ATOM     29  C   UNL     1       7.191  -0.855   6.889  1.00  0.00     0.014 A 
ATOM     30  C   UNL     1       4.968   0.080   6.934  1.00  0.00     0.014 A 
ATOM     31  C   UNL     1       7.564   0.003   7.929  1.00  0.00     0.010 A 
ATOM     32  C   UNL     1       5.381   1.032   7.855  1.00  0.00     0.010 A 
ATOM     33  C   UNL     1       6.673   0.985   8.391  1.00  0.00    -0.014 A 
BRANCH  33  34
ATOM     34  C   UNL     1       7.042   1.936   9.470  1.00  0.00     0.031 A 
ATOM     35  C   UNL     1       6.215   1.995  10.730  1.00  0.00     0.074 A 
ATOM     36  C   UNL     1       8.066   2.794   9.291  1.00  0.00     0.049 A 
ATOM     37  N   UNL     1       6.328   2.798  11.758  1.00  0.00    -0.248 NA
ATOM     38  C   UNL     1       5.078   1.063  10.828  1.00  0.00     0.031 C 
ATOM     39  C   UNL     1       8.896   2.894   8.088  1.00  0.00     0.029 A 
ATOM     40  N   UNL     1       8.584   3.748  10.130  1.00  0.00    -0.354 N 
ATOM     41  C   UNL     1       5.257   2.494  12.591  1.00  0.00     0.074 A 
ATOM     42  C   UNL     1       4.465   1.493  11.917  1.00  0.00     0.031 C 
ATOM     43  C   UNL     1       9.851   3.817   8.287  1.00  0.00     0.029 A 
ATOM     44  C   UNL     1       9.679   4.398   9.613  1.00  0.00     0.049 A 
ATOM     45  H   UNL     1       8.208   3.947  11.017  1.00  0.00     0.167 HD
ATOM     46  C   UNL     1       4.975   2.973  13.825  1.00  0.00     0.031 A 
ATOM     47  C   UNL     1      10.463   5.347  10.157  1.00  0.00     0.031 A 
ATOM     48  C   UNL     1       5.795   3.929  14.516  1.00  0.00     0.049 A 
ATOM     49  C   UNL     1      10.172   5.818  11.554  1.00  0.00     0.074 A 
ATOM     50  C   UNL     1       5.651   4.425  15.799  1.00  0.00     0.029 A 
ATOM     51  N   UNL     1       6.925   4.524  13.978  1.00  0.00    -0.354 N 
ATOM     52  N   UNL     1       9.200   5.464  12.360  1.00  0.00    -0.248 NA
ATOM     53  C   UNL     1      11.102   6.802  12.124  1.00  0.00     0.031 C 
ATOM     54  C   UNL     1       6.675   5.351  16.023  1.00  0.00     0.029 A 
ATOM     55  C   UNL     1       7.486   5.391  14.899  1.00  0.00     0.049 A 
ATOM     56  H   UNL     1       7.277   4.356  13.074  1.00  0.00     0.167 HD
ATOM     57  C   UNL     1       9.418   6.159  13.543  1.00  0.00     0.074 A 
ATOM     58  C   UNL     1      10.626   6.937  13.353  1.00  0.00     0.031 C 
ATOM     59  C   UNL     1       8.687   6.155  14.685  1.00  0.00     0.031 A 
BRANCH  46  60
ATOM     60  C   UNL     1       3.734   2.452  14.500  1.00  0.00    -0.014 A 
ATOM     61  C   UNL     1       3.633   1.112  14.912  1.00  0.00     0.009 A 
ATOM     62  C   UNL     1       2.647   3.311  14.723  1.00  0.00     0.009 A 
ATOM     63  C   UNL     1       2.453   0.632  15.483  1.00  0.00     0.001 A 
ATOM     64  C   UNL     1       1.481   2.836  15.327  1.00  0.00     0.001 A 
ATOM     65  C   UNL     1       1.379   1.495  15.693  1.00  0.00     0.000 A 
ENDBRANCH  46  60
BRANCH  47  66
ATOM     66  C   UNL     1      11.632   5.871   9.402  1.00  0.00    -0.014 A 
ATOM     67  C   UNL     1      12.938   5.529   9.789  1.00  0.00     0.009 A 
ATOM     68  C   UNL     1      11.454   6.710   8.292  1.00  0.00     0.009 A 
ATOM     69  C   UNL     1      14.040   6.039   9.099  1.00  0.00     0.001 A 
ATOM     70  C   UNL     1      12.557   7.195   7.586  1.00  0.00     0.001 A 
ATOM     71  C   UNL     1      13.848   6.868   7.996  1.00  0.00     0.000 A 
ENDBRANCH  47  66
BRANCH  59  72
ATOM     72  C   UNL     1       9.201   6.988  15.824  1.00  0.00    -0.014 A 
ATOM     73  C   UNL     1       9.154   8.390  15.784  1.00  0.00     0.009 A 
ATOM     74  C   UNL     1       9.723   6.355  16.963  1.00  0.00     0.009 A 
ATOM     75  C   UNL     1       9.663   9.142  16.844  1.00  0.00     0.001 A 
ATOM     76  C   UNL     1      10.201   7.109  18.034  1.00  0.00     0.001 A 
ATOM     77  C   UNL     1      10.184   8.501  17.968  1.00  0.00     0.000 A 
ENDBRANCH  59  72
ENDBRANCH  33  34
ENDBRANCH  25  28
ENDBRANCH  23  24
ENDBRANCH   1  23
TORSDOF 11
