REMARK SMILES CC(C)c1cc(OCC(=O)NCCCNC(=O)c2ccc(-c3c4nc(c(-c5ccccc5)c5ccc([nH]5)c(-c5ccccc5)c5nc(c(-c6ccccc6)c6ccc3[nH]6)C=C5)C=C4)cc2)nc(Nc2ccc(F)cc2F)n1
REMARK SMILES IDX 12 1 11 2 9 3 10 4 8 6 7 7 6 8 4 9 5 10 77 11 67 12 66 13
REMARK SMILES IDX 2 14 1 15 3 16 68 17 69 19 70 20 75 21 71 22 74 23 76 24
REMARK SMILES IDX 72 25 73 26 13 27 14 28 15 29 16 30 17 32 18 33 19 34 65 35
REMARK SMILES IDX 20 36 64 37 21 38 22 39 23 40 58 41 24 42 63 43 57 44 59 45
REMARK SMILES IDX 25 46 62 47 56 48 55 49 26 51 48 52 33 53 47 54 34 55 37 56
REMARK SMILES IDX 46 57 60 58 35 59 36 60 45 62 61 63 38 64 27 65 28 66 32 67
REMARK SMILES IDX 29 68 31 69 30 70 49 71 50 72 54 73 51 74 53 75 52 76 39 77
REMARK SMILES IDX 40 78 44 79 41 80 43 81 42 82
REMARK H PARENT 11 5 68 18 15 31 59 50 37 61
REMARK Flexibility Score: inf
ROOT
ATOM      1  C   UNL     1      -4.429  -2.245  -3.182  1.00  0.00     0.117 C 
ENDROOT
BRANCH   1   2
ATOM      2  N   UNL     1      -3.034  -2.523  -2.898  1.00  0.00    -0.353 N 
ATOM      3  C   UNL     1      -2.394  -2.512  -1.695  1.00  0.00     0.258 C 
ATOM      4  O   UNL     1      -1.200  -2.819  -1.658  1.00  0.00    -0.271 OA
ATOM      5  H   UNL     1      -2.477  -2.751  -3.677  1.00  0.00     0.163 HD
BRANCH   3   6
ATOM      6  C   UNL     1      -3.159  -2.133  -0.422  1.00  0.00     0.331 C 
BRANCH   6   7
ATOM      7  O   UNL     1      -3.727  -0.836  -0.393  1.00  0.00    -0.467 OA
BRANCH   7   8
ATOM      8  C   UNL     1      -2.886   0.241  -0.355  1.00  0.00     0.218 A 
ATOM      9  C   UNL     1      -0.831   1.372  -0.365  1.00  0.00     0.052 A 
ATOM     10  C   UNL     1      -1.511   0.175  -0.321  1.00  0.00     0.092 A 
ATOM     11  N   UNL     1      -1.490   2.543  -0.404  1.00  0.00    -0.217 NA
ATOM     12  C   UNL     1      -2.830   2.530  -0.406  1.00  0.00     0.230 A 
ATOM     13  N   UNL     1      -3.555   1.406  -0.375  1.00  0.00    -0.177 NA
BRANCH   9  14
ATOM     14  C   UNL     1       0.680   1.472  -0.422  1.00  0.00     0.032 C 
ATOM     15  C   UNL     1       1.436   0.252   0.113  1.00  0.00     0.014 C 
ATOM     16  C   UNL     1       1.117   1.775  -1.858  1.00  0.00     0.014 C 
ENDBRANCH   9  14
BRANCH  12  17
ATOM     17  N   UNL     1      -3.530   3.731  -0.343  1.00  0.00    -0.322 N 
ATOM     18  H   UNL     1      -4.498   3.655  -0.183  1.00  0.00     0.170 HD
BRANCH  17  19
ATOM     19  C   UNL     1      -3.033   5.031  -0.477  1.00  0.00     0.077 A 
ATOM     20  C   UNL     1      -3.374   5.998   0.480  1.00  0.00     0.032 A 
ATOM     21  C   UNL     1      -2.113   5.391  -1.480  1.00  0.00     0.149 A 
ATOM     22  C   UNL     1      -2.802   7.273   0.439  1.00  0.00     0.041 A 
ATOM     23  C   UNL     1      -1.552   6.662  -1.538  1.00  0.00     0.080 A 
ATOM     24  F   UNL     1      -1.795   4.519  -2.450  1.00  0.00    -0.205 F 
ATOM     25  C   UNL     1      -1.897   7.590  -0.569  1.00  0.00     0.126 A 
ATOM     26  F   UNL     1      -1.349   8.812  -0.600  1.00  0.00    -0.207 F 
ENDBRANCH  17  19
ENDBRANCH  12  17
ENDBRANCH   7   8
ENDBRANCH   6   7
ENDBRANCH   3   6
ENDBRANCH   1   2
BRANCH   1  27
ATOM     27  C   UNL     1      -4.637  -0.896  -3.864  1.00  0.00     0.042 C 
BRANCH  27  28
ATOM     28  C   UNL     1      -3.925  -0.739  -5.207  1.00  0.00     0.118 C 
BRANCH  28  29
ATOM     29  N   UNL     1      -4.334  -1.730  -6.194  1.00  0.00    -0.352 N 
ATOM     30  C   UNL     1      -4.953  -1.589  -7.410  1.00  0.00     0.251 C 
ATOM     31  H   UNL     1      -4.130  -2.661  -5.946  1.00  0.00     0.163 HD
ATOM     32  O   UNL     1      -5.344  -2.591  -8.007  1.00  0.00    -0.269 OA
BRANCH  30  33
ATOM     33  C   UNL     1      -5.184  -0.254  -8.005  1.00  0.00     0.039 A 
ATOM     34  C   UNL     1      -6.417   0.002  -8.615  1.00  0.00     0.014 A 
ATOM     35  C   UNL     1      -4.196   0.732  -7.997  1.00  0.00     0.014 A 
ATOM     36  C   UNL     1      -6.690   1.270  -9.134  1.00  0.00     0.010 A 
ATOM     37  C   UNL     1      -4.490   2.016  -8.457  1.00  0.00     0.010 A 
ATOM     38  C   UNL     1      -5.746   2.301  -9.015  1.00  0.00    -0.014 A 
BRANCH  38  39
ATOM     39  C   UNL     1      -6.072   3.695  -9.414  1.00  0.00     0.031 A 
ATOM     40  C   UNL     1      -5.335   4.367 -10.537  1.00  0.00     0.074 A 
ATOM     41  C   UNL     1      -6.984   4.385  -8.702  1.00  0.00     0.049 A 
ATOM     42  N   UNL     1      -5.427   5.604 -10.960  1.00  0.00    -0.248 NA
ATOM     43  C   UNL     1      -4.356   3.551 -11.271  1.00  0.00     0.031 C 
ATOM     44  C   UNL     1      -7.748   3.861  -7.567  1.00  0.00     0.029 A 
ATOM     45  N   UNL     1      -7.413   5.684  -8.818  1.00  0.00    -0.354 N 
ATOM     46  C   UNL     1      -4.508   5.719 -11.995  1.00  0.00     0.074 A 
ATOM     47  C   UNL     1      -3.844   4.438 -12.113  1.00  0.00     0.031 C 
ATOM     48  C   UNL     1      -8.562   4.822  -7.103  1.00  0.00     0.029 A 
ATOM     49  C   UNL     1      -8.346   6.041  -7.874  1.00  0.00     0.049 A 
ATOM     50  H   UNL     1      -7.084   6.301  -9.511  1.00  0.00     0.167 HD
ATOM     51  C   UNL     1      -4.248   6.790 -12.782  1.00  0.00     0.031 A 
ATOM     52  C   UNL     1      -8.947   7.222  -7.640  1.00  0.00     0.031 A 
ATOM     53  C   UNL     1      -4.907   8.065 -12.666  1.00  0.00     0.049 A 
ATOM     54  C   UNL     1      -8.614   8.405  -8.504  1.00  0.00     0.074 A 
ATOM     55  C   UNL     1      -4.750   9.191 -13.457  1.00  0.00     0.029 A 
ATOM     56  N   UNL     1      -5.839   8.388 -11.693  1.00  0.00    -0.354 N 
ATOM     57  N   UNL     1      -7.789   8.478  -9.520  1.00  0.00    -0.248 NA
ATOM     58  C   UNL     1      -9.298   9.667  -8.188  1.00  0.00     0.031 C 
ATOM     59  C   UNL     1      -5.550  10.211 -12.930  1.00  0.00     0.029 A 
ATOM     60  C   UNL     1      -6.243   9.704 -11.844  1.00  0.00     0.049 A 
ATOM     61  H   UNL     1      -6.166   7.772 -10.997  1.00  0.00     0.167 HD
ATOM     62  C   UNL     1      -7.868   9.787  -9.977  1.00  0.00     0.074 A 
ATOM     63  C   UNL     1      -8.836  10.466  -9.140  1.00  0.00     0.031 C 
ATOM     64  C   UNL     1      -7.198  10.373 -10.998  1.00  0.00     0.031 A 
BRANCH  51  65
ATOM     65  C   UNL     1      -3.190   6.633 -13.838  1.00  0.00    -0.014 A 
ATOM     66  C   UNL     1      -3.414   5.846 -14.980  1.00  0.00     0.009 A 
ATOM     67  C   UNL     1      -1.970   7.316 -13.713  1.00  0.00     0.009 A 
ATOM     68  C   UNL     1      -2.424   5.720 -15.957  1.00  0.00     0.001 A 
ATOM     69  C   UNL     1      -0.993   7.209 -14.704  1.00  0.00     0.001 A 
ATOM     70  C   UNL     1      -1.216   6.405 -15.820  1.00  0.00     0.000 A 
ENDBRANCH  51  65
BRANCH  52  71
ATOM     71  C   UNL     1      -9.928   7.349  -6.531  1.00  0.00    -0.014 A 
ATOM     72  C   UNL     1     -11.295   7.501  -6.806  1.00  0.00     0.009 A 
ATOM     73  C   UNL     1      -9.501   7.321  -5.194  1.00  0.00     0.009 A 
ATOM     74  C   UNL     1     -12.213   7.646  -5.763  1.00  0.00     0.001 A 
ATOM     75  C   UNL     1     -10.425   7.439  -4.154  1.00  0.00     0.001 A 
ATOM     76  C   UNL     1     -11.779   7.610  -4.439  1.00  0.00     0.000 A 
ENDBRANCH  52  71
BRANCH  64  77
ATOM     77  C   UNL     1      -7.504  11.816 -11.278  1.00  0.00    -0.014 A 
ATOM     78  C   UNL     1      -7.050  12.834 -10.424  1.00  0.00     0.009 A 
ATOM     79  C   UNL     1      -8.231  12.165 -12.427  1.00  0.00     0.009 A 
ATOM     80  C   UNL     1      -7.346  14.170 -10.700  1.00  0.00     0.001 A 
ATOM     81  C   UNL     1      -8.502  13.504 -12.714  1.00  0.00     0.001 A 
ATOM     82  C   UNL     1      -8.067  14.504 -11.846  1.00  0.00     0.000 A 
ENDBRANCH  64  77
ENDBRANCH  38  39
ENDBRANCH  30  33
ENDBRANCH  28  29
ENDBRANCH  27  28
ENDBRANCH   1  27
TORSDOF 15
