REMARK SMILES CCn1c(N2CCC(C(=O)NCCCNC(=O)c3ccc(-c4c5nc(c(-c6ccccc6)c6ccc([nH]6)c(-c6ccccc6)c6nc(c(-c7ccccc7)c7ccc4[nH]7)C=C6)C=C5)cc3)CC2)nc2cc(C)ccc21
REMARK SMILES IDX 13 1 12 2 11 3 9 4 10 5 8 7 5 8 6 9 67 10 7 11 66 12 4 13
REMARK SMILES IDX 3 14 75 15 68 16 69 17 74 18 70 19 73 20 71 21 72 22 2 23
REMARK SMILES IDX 1 24 14 25 15 26 16 27 17 29 18 30 19 31 65 32 20 33 64 34
REMARK SMILES IDX 21 35 22 36 23 37 58 38 24 39 63 40 57 41 59 42 25 43 62 44
REMARK SMILES IDX 56 45 55 46 26 48 48 49 33 50 47 51 34 52 37 53 46 54 60 55
REMARK SMILES IDX 35 56 36 57 45 59 61 60 38 61 27 62 28 63 32 64 29 65 31 66
REMARK SMILES IDX 30 67 49 68 50 69 54 70 51 71 53 72 52 73 39 74 40 75 44 76
REMARK SMILES IDX 41 77 43 78 42 79
REMARK H PARENT 11 6 15 28 59 47 37 58
REMARK Flexibility Score: inf
ROOT
ATOM      1  C   UNL     1      -1.767   7.618   1.687  1.00  0.00     0.042 C 
ENDROOT
BRANCH   1   2
ATOM      2  C   UNL     1      -2.647   6.384   1.876  1.00  0.00     0.117 C 
BRANCH   2   3
ATOM      3  N   UNL     1      -3.733   6.325   0.908  1.00  0.00    -0.356 N 
ATOM      4  C   UNL     1      -4.013   5.443  -0.086  1.00  0.00     0.223 C 
ATOM      5  O   UNL     1      -5.027   5.650  -0.759  1.00  0.00    -0.275 OA
ATOM      6  H   UNL     1      -4.385   7.059   0.990  1.00  0.00     0.163 HD
BRANCH   4   7
ATOM      7  C   UNL     1      -3.146   4.229  -0.368  1.00  0.00     0.082 C 
ATOM      8  N   UNL     1      -0.925   2.537   0.224  1.00  0.00    -0.342 N 
ATOM      9  C   UNL     1      -0.830   3.393  -0.951  1.00  0.00     0.120 C 
ATOM     10  C   UNL     1      -2.250   2.061   0.591  1.00  0.00     0.120 C 
ATOM     11  C   UNL     1      -1.732   4.610  -0.816  1.00  0.00     0.035 C 
ATOM     12  C   UNL     1      -3.204   3.228   0.792  1.00  0.00     0.035 C 
BRANCH   8  13
ATOM     13  C   UNL     1       0.065   2.580   1.146  1.00  0.00     0.206 A 
ATOM     14  N   UNL     1       0.674   1.428   1.596  1.00  0.00    -0.310 N 
ATOM     15  C   UNL     1       1.699   1.784   2.439  1.00  0.00     0.070 A 
ATOM     16  N   UNL     1       0.655   3.647   1.636  1.00  0.00    -0.213 NA
ATOM     17  C   UNL     1       1.653   3.173   2.453  1.00  0.00     0.091 A 
ATOM     18  C   UNL     1       2.648   1.042   3.149  1.00  0.00     0.029 A 
ATOM     19  C   UNL     1       2.582   3.878   3.230  1.00  0.00     0.034 A 
ATOM     20  C   UNL     1       3.567   1.758   3.916  1.00  0.00     0.006 A 
ATOM     21  C   UNL     1       3.540   3.157   3.963  1.00  0.00    -0.049 A 
ATOM     22  C   UNL     1       4.522   3.897   4.812  1.00  0.00     0.044 C 
BRANCH  14  23
ATOM     23  C   UNL     1       0.397   0.075   1.156  1.00  0.00     0.122 C 
ATOM     24  C   UNL     1       1.063  -0.244  -0.171  1.00  0.00     0.028 C 
ENDBRANCH  14  23
ENDBRANCH   8  13
ENDBRANCH   4   7
ENDBRANCH   2   3
ENDBRANCH   1   2
BRANCH   1  25
ATOM     25  C   UNL     1      -2.502   8.946   1.870  1.00  0.00     0.118 C 
BRANCH  25  26
ATOM     26  N   UNL     1      -3.167   9.088   3.149  1.00  0.00    -0.352 N 
ATOM     27  C   UNL     1      -2.801   9.526   4.394  1.00  0.00     0.251 C 
ATOM     28  H   UNL     1      -4.108   8.802   3.115  1.00  0.00     0.163 HD
ATOM     29  O   UNL     1      -3.708   9.637   5.213  1.00  0.00    -0.269 OA
BRANCH  27  30
ATOM     30  C   UNL     1      -1.404   9.807   4.832  1.00  0.00     0.039 A 
ATOM     31  C   UNL     1      -0.264   9.734   4.035  1.00  0.00     0.014 A 
ATOM     32  C   UNL     1      -1.245  10.103   6.202  1.00  0.00     0.014 A 
ATOM     33  C   UNL     1       1.002   9.839   4.608  1.00  0.00     0.010 A 
ATOM     34  C   UNL     1       0.016  10.231   6.775  1.00  0.00     0.010 A 
ATOM     35  C   UNL     1       1.143  10.045   5.985  1.00  0.00    -0.014 A 
BRANCH  35  36
ATOM     36  C   UNL     1       2.498  10.164   6.522  1.00  0.00     0.031 A 
ATOM     37  C   UNL     1       3.292  11.296   5.966  1.00  0.00     0.074 A 
ATOM     38  C   UNL     1       2.996   9.399   7.516  1.00  0.00     0.049 A 
ATOM     39  N   UNL     1       4.404  11.243   5.309  1.00  0.00    -0.248 NA
ATOM     40  C   UNL     1       2.725  12.650   6.075  1.00  0.00     0.031 C 
ATOM     41  C   UNL     1       2.276   8.461   8.381  1.00  0.00     0.029 A 
ATOM     42  N   UNL     1       4.259   9.388   8.037  1.00  0.00    -0.354 N 
ATOM     43  C   UNL     1       4.767  12.563   5.050  1.00  0.00     0.074 A 
ATOM     44  C   UNL     1       3.643  13.377   5.437  1.00  0.00     0.031 C 
ATOM     45  C   UNL     1       3.045   8.168   9.456  1.00  0.00     0.029 A 
ATOM     46  C   UNL     1       4.354   8.775   9.280  1.00  0.00     0.049 A 
ATOM     47  H   UNL     1       5.033   9.779   7.573  1.00  0.00     0.167 HD
ATOM     48  C   UNL     1       6.040  12.906   4.710  1.00  0.00     0.031 A 
ATOM     49  C   UNL     1       5.408   8.821  10.132  1.00  0.00     0.031 A 
ATOM     50  C   UNL     1       6.798  11.769   4.261  1.00  0.00     0.049 A 
ATOM     51  C   UNL     1       6.605   9.278   9.393  1.00  0.00     0.074 A 
ATOM     52  C   UNL     1       6.665  10.864   3.228  1.00  0.00     0.029 A 
ATOM     53  N   UNL     1       7.692  11.210   5.141  1.00  0.00    -0.354 N 
ATOM     54  N   UNL     1       7.258   8.544   8.545  1.00  0.00    -0.248 NA
ATOM     55  C   UNL     1       6.853  10.706   9.300  1.00  0.00     0.031 C 
ATOM     56  C   UNL     1       7.073   9.619   3.785  1.00  0.00     0.029 A 
ATOM     57  C   UNL     1       7.523   9.852   5.086  1.00  0.00     0.049 A 
ATOM     58  H   UNL     1       8.335  11.696   5.706  1.00  0.00     0.167 HD
ATOM     59  C   UNL     1       7.596   9.413   7.521  1.00  0.00     0.074 A 
ATOM     60  C   UNL     1       7.434  10.747   8.099  1.00  0.00     0.031 C 
ATOM     61  C   UNL     1       7.698   8.978   6.227  1.00  0.00     0.031 A 
BRANCH  48  62
ATOM     62  C   UNL     1       6.709  14.189   5.142  1.00  0.00    -0.014 A 
ATOM     63  C   UNL     1       6.186  15.035   6.136  1.00  0.00     0.009 A 
ATOM     64  C   UNL     1       8.044  14.419   4.758  1.00  0.00     0.009 A 
ATOM     65  C   UNL     1       6.959  16.025   6.749  1.00  0.00     0.001 A 
ATOM     66  C   UNL     1       8.835  15.380   5.401  1.00  0.00     0.001 A 
ATOM     67  C   UNL     1       8.293  16.176   6.404  1.00  0.00     0.000 A 
ENDBRANCH  48  62
BRANCH  49  68
ATOM     68  C   UNL     1       5.416   8.806  11.608  1.00  0.00    -0.014 A 
ATOM     69  C   UNL     1       4.414   9.500  12.307  1.00  0.00     0.009 A 
ATOM     70  C   UNL     1       6.565   8.413  12.311  1.00  0.00     0.009 A 
ATOM     71  C   UNL     1       4.584   9.848  13.650  1.00  0.00     0.001 A 
ATOM     72  C   UNL     1       6.733   8.759  13.658  1.00  0.00     0.001 A 
ATOM     73  C   UNL     1       5.752   9.496  14.319  1.00  0.00     0.000 A 
ENDBRANCH  49  68
BRANCH  61  74
ATOM     74  C   UNL     1       7.750   7.485   5.955  1.00  0.00    -0.014 A 
ATOM     75  C   UNL     1       8.596   7.020   4.932  1.00  0.00     0.009 A 
ATOM     76  C   UNL     1       6.942   6.536   6.602  1.00  0.00     0.009 A 
ATOM     77  C   UNL     1       8.642   5.670   4.578  1.00  0.00     0.001 A 
ATOM     78  C   UNL     1       7.055   5.175   6.314  1.00  0.00     0.001 A 
ATOM     79  C   UNL     1       7.889   4.743   5.287  1.00  0.00     0.000 A 
ENDBRANCH  61  74
ENDBRANCH  35  36
ENDBRANCH  27  30
ENDBRANCH  25  26
ENDBRANCH   1  25
TORSDOF 12
