REMARK SMILES Cc1ccc(S(=O)(=O)Nc2cnc(N(C)C)c(C(=O)NCCCNC(=O)c3ccc(-c4c5nc(c(-c6ccccc6)c6ccc([nH]6)c(-c6ccccc6)c6nc(c(-c7ccccc7)c7ccc4[nH]7)C=C6)C=C5)cc3)c2)c(C)c1
REMARK SMILES IDX 21 1 20 2 18 3 19 4 17 6 10 7 11 8 75 9 12 10 13 11 9 12
REMARK SMILES IDX 6 14 7 15 8 16 5 17 1 18 2 19 3 20 78 21 4 22 76 23 77 24
REMARK SMILES IDX 14 25 15 26 16 27 22 28 23 29 24 30 25 31 26 33 27 34 28 35
REMARK SMILES IDX 74 36 29 37 73 38 30 39 31 40 32 41 67 42 33 43 72 44 66 45
REMARK SMILES IDX 68 46 34 47 71 48 65 49 64 50 35 52 57 53 42 54 56 55 43 56
REMARK SMILES IDX 46 57 55 58 69 59 44 60 45 61 54 63 70 64 47 65 36 66 37 67
REMARK SMILES IDX 41 68 38 69 40 70 39 71 58 72 59 73 63 74 60 75 62 76 61 77
REMARK SMILES IDX 48 78 49 79 53 80 50 81 52 82 51 83
REMARK H PARENT 20 5 9 13 24 32 68 51 46 62
REMARK Flexibility Score: inf
ROOT
ATOM      1  C   UNL     1       1.030  -1.698   2.527  1.00  0.00     0.118 C 
ENDROOT
BRANCH   1   2
ATOM      2  N   UNL     1       1.887  -2.851   2.751  1.00  0.00    -0.352 N 
ATOM      3  C   UNL     1       1.820  -4.151   2.305  1.00  0.00     0.255 C 
ATOM      4  O   UNL     1       2.444  -4.992   2.949  1.00  0.00    -0.269 OA
ATOM      5  H   UNL     1       2.661  -2.667   3.331  1.00  0.00     0.163 HD
BRANCH   3   6
ATOM      6  C   UNL     1       1.052  -4.549   1.098  1.00  0.00     0.084 A 
ATOM      7  C   UNL     1      -1.036  -4.403  -0.127  1.00  0.00     0.068 A 
ATOM      8  C   UNL     1      -0.496  -5.305  -1.016  1.00  0.00     0.140 A 
ATOM      9  C   UNL     1      -0.297  -4.138   1.013  1.00  0.00     0.046 A 
ATOM     10  N   UNL     1       0.762  -5.773  -0.929  1.00  0.00    -0.236 NA
ATOM     11  C   UNL     1       1.593  -5.355   0.068  1.00  0.00     0.141 A 
BRANCH   7  12
ATOM     12  N   UNL     1      -2.251  -3.754  -0.480  1.00  0.00    -0.278 N 
ATOM     13  H   UNL     1      -2.912  -4.273  -0.993  1.00  0.00     0.180 HD
BRANCH  12  14
ATOM     14  S   UNL     1      -2.641  -2.169  -0.089  1.00  0.00     0.262 S 
ATOM     15  O   UNL     1      -2.759  -2.106   1.357  1.00  0.00    -0.201 OA
ATOM     16  O   UNL     1      -3.747  -1.835  -0.955  1.00  0.00    -0.201 OA
BRANCH  14  17
ATOM     17  C   UNL     1      -1.288  -1.075  -0.529  1.00  0.00     0.090 A 
ATOM     18  C   UNL     1       2.353   1.235  -0.471  1.00  0.00     0.044 C 
ATOM     19  C   UNL     1       1.073   0.457  -0.565  1.00  0.00    -0.051 A 
ATOM     20  C   UNL     1       1.045  -0.809  -1.150  1.00  0.00     0.005 A 
ATOM     21  C   UNL     1      -0.124   1.009  -0.098  1.00  0.00     0.008 A 
ATOM     22  C   UNL     1      -0.133  -1.564  -1.151  1.00  0.00     0.023 A 
ATOM     23  C   UNL     1      -1.316   0.260  -0.072  1.00  0.00    -0.030 A 
ATOM     24  C   UNL     1      -2.558   0.974   0.392  1.00  0.00     0.046 C 
ENDBRANCH  14  17
ENDBRANCH  12  14
ENDBRANCH   7  12
BRANCH  11  25
ATOM     25  N   UNL     1       2.912  -5.715  -0.135  1.00  0.00    -0.362 N 
ATOM     26  C   UNL     1       3.172  -6.827  -1.052  1.00  0.00     0.145 C 
ATOM     27  C   UNL     1       4.044  -5.290   0.669  1.00  0.00     0.145 C 
ENDBRANCH  11  25
ENDBRANCH   3   6
ENDBRANCH   1   2
BRANCH   1  28
ATOM     28  C   UNL     1       0.008  -1.571   3.659  1.00  0.00     0.042 C 
BRANCH  28  29
ATOM     29  C   UNL     1       0.629  -1.116   4.976  1.00  0.00     0.118 C 
BRANCH  29  30
ATOM     30  N   UNL     1       0.976   0.295   4.956  1.00  0.00    -0.352 N 
ATOM     31  C   UNL     1       0.730   1.261   5.899  1.00  0.00     0.251 C 
ATOM     32  H   UNL     1       1.456   0.602   4.153  1.00  0.00     0.163 HD
ATOM     33  O   UNL     1       0.929   2.441   5.628  1.00  0.00    -0.269 OA
BRANCH  31  34
ATOM     34  C   UNL     1       0.215   0.890   7.237  1.00  0.00     0.039 A 
ATOM     35  C   UNL     1      -0.787   1.679   7.809  1.00  0.00     0.014 A 
ATOM     36  C   UNL     1       0.746  -0.191   7.947  1.00  0.00     0.014 A 
ATOM     37  C   UNL     1      -1.277   1.369   9.080  1.00  0.00     0.010 A 
ATOM     38  C   UNL     1       0.218  -0.533   9.191  1.00  0.00     0.010 A 
ATOM     39  C   UNL     1      -0.786   0.253   9.775  1.00  0.00    -0.014 A 
BRANCH  39  40
ATOM     40  C   UNL     1      -1.286  -0.079  11.132  1.00  0.00     0.031 A 
ATOM     41  C   UNL     1      -0.376   0.053  12.323  1.00  0.00     0.074 A 
ATOM     42  C   UNL     1      -2.540  -0.540  11.291  1.00  0.00     0.049 A 
ATOM     43  N   UNL     1      -0.615  -0.225  13.580  1.00  0.00    -0.248 NA
ATOM     44  C   UNL     1       0.989   0.537  12.063  1.00  0.00     0.031 C 
ATOM     45  C   UNL     1      -3.509  -0.752  10.214  1.00  0.00     0.029 A 
ATOM     46  N   UNL     1      -3.213  -0.917  12.425  1.00  0.00    -0.354 N 
ATOM     47  C   UNL     1       0.574   0.024  14.253  1.00  0.00     0.074 A 
ATOM     48  C   UNL     1       1.542   0.442  13.263  1.00  0.00     0.031 C 
ATOM     49  C   UNL     1      -4.660  -1.199  10.743  1.00  0.00     0.029 A 
ATOM     50  C   UNL     1      -4.502  -1.327  12.189  1.00  0.00     0.049 A 
ATOM     51  H   UNL     1      -2.810  -0.896  13.324  1.00  0.00     0.167 HD
ATOM     52  C   UNL     1       0.835  -0.073  15.579  1.00  0.00     0.031 A 
ATOM     53  C   UNL     1      -5.450  -1.756  13.042  1.00  0.00     0.031 A 
ATOM     54  C   UNL     1      -0.131  -0.460  16.570  1.00  0.00     0.049 A 
ATOM     55  C   UNL     1      -5.149  -1.817  14.512  1.00  0.00     0.074 A 
ATOM     56  C   UNL     1       0.022  -0.530  17.944  1.00  0.00     0.029 A 
ATOM     57  N   UNL     1      -1.435  -0.835  16.292  1.00  0.00    -0.354 N 
ATOM     58  N   UNL     1      -4.036  -1.525  15.139  1.00  0.00    -0.248 NA
ATOM     59  C   UNL     1      -6.242  -2.254  15.392  1.00  0.00     0.031 C 
ATOM     60  C   UNL     1      -1.186  -0.974  18.496  1.00  0.00     0.029 A 
ATOM     61  C   UNL     1      -2.097  -1.146  17.467  1.00  0.00     0.049 A 
ATOM     62  H   UNL     1      -1.832  -0.874  15.392  1.00  0.00     0.167 HD
ATOM     63  C   UNL     1      -4.300  -1.721  16.487  1.00  0.00     0.074 A 
ATOM     64  C   UNL     1      -5.682  -2.145  16.589  1.00  0.00     0.031 C 
ATOM     65  C   UNL     1      -3.472  -1.563  17.548  1.00  0.00     0.031 A 
BRANCH  52  66
ATOM     66  C   UNL     1       2.233   0.244  16.027  1.00  0.00    -0.014 A 
ATOM     67  C   UNL     1       2.704   1.566  16.052  1.00  0.00     0.009 A 
ATOM     68  C   UNL     1       3.084  -0.790  16.445  1.00  0.00     0.009 A 
ATOM     69  C   UNL     1       4.014   1.842  16.451  1.00  0.00     0.001 A 
ATOM     70  C   UNL     1       4.385  -0.509  16.866  1.00  0.00     0.001 A 
ATOM     71  C   UNL     1       4.851   0.805  16.860  1.00  0.00     0.000 A 
ENDBRANCH  52  66
BRANCH  53  72
ATOM     72  C   UNL     1      -6.792  -2.127  12.528  1.00  0.00    -0.014 A 
ATOM     73  C   UNL     1      -7.884  -1.265  12.715  1.00  0.00     0.009 A 
ATOM     74  C   UNL     1      -6.987  -3.337  11.846  1.00  0.00     0.009 A 
ATOM     75  C   UNL     1      -9.150  -1.618  12.246  1.00  0.00     0.001 A 
ATOM     76  C   UNL     1      -8.251  -3.677  11.360  1.00  0.00     0.001 A 
ATOM     77  C   UNL     1      -9.332  -2.822  11.566  1.00  0.00     0.000 A 
ENDBRANCH  53  72
BRANCH  65  78
ATOM     78  C   UNL     1      -4.049  -1.821  18.908  1.00  0.00    -0.014 A 
ATOM     79  C   UNL     1      -4.263  -3.129  19.367  1.00  0.00     0.009 A 
ATOM     80  C   UNL     1      -4.351  -0.741  19.751  1.00  0.00     0.009 A 
ATOM     81  C   UNL     1      -4.796  -3.349  20.639  1.00  0.00     0.001 A 
ATOM     82  C   UNL     1      -4.864  -0.965  21.029  1.00  0.00     0.001 A 
ATOM     83  C   UNL     1      -5.093  -2.268  21.469  1.00  0.00     0.000 A 
ENDBRANCH  65  78
ENDBRANCH  39  40
ENDBRANCH  31  34
ENDBRANCH  29  30
ENDBRANCH  28  29
ENDBRANCH   1  28
TORSDOF 14
