REMARK SMILES O=C(NCCCNC(=O)c1ccc(S(=O)(=O)N[C@@H]2CC[N@H+]3CCC[C@H]23)cc1)c1ccc(-c2c3nc(c(-c4ccccc4)c4ccc([nH]4)c(-c4ccccc4)c4nc(c(-c5ccccc5)c5ccc2[nH]5)C=C4)C=C3)cc1
REMARK SMILES IDX 5 1 4 2 3 3 1 4 2 5 28 7 29 8 75 9 30 10 74 11 31 12 32 13
REMARK SMILES IDX 33 14 68 15 34 16 73 17 67 18 69 19 35 20 72 21 66 22 65 23
REMARK SMILES IDX 36 25 58 26 43 27 57 28 44 29 47 30 56 31 70 32 45 33 46 34
REMARK SMILES IDX 55 36 71 37 48 38 37 39 38 40 42 41 39 42 41 43 40 44 59 45
REMARK SMILES IDX 60 46 64 47 61 48 63 49 62 50 49 51 50 52 54 53 51 54 53 55
REMARK SMILES IDX 52 56 6 57 7 58 8 59 9 61 10 62 11 63 27 64 12 65 26 66
REMARK SMILES IDX 13 67 14 68 15 69 16 70 17 71 18 73 19 74 25 75 20 76 21 77
REMARK SMILES IDX 24 78 22 79 23 81
REMARK H PARENT 3 6 69 24 47 35 7 60 17 72 21 80
REMARK Flexibility Score: inf
ROOT
ATOM      1  C   UNL     1       4.931  -2.261  -0.204  1.00  0.00     0.042 C 
ENDROOT
BRANCH   1   2
ATOM      2  C   UNL     1       4.576  -0.967  -0.915  1.00  0.00     0.118 C 
BRANCH   2   3
ATOM      3  N   UNL     1       3.143  -0.696  -0.924  1.00  0.00    -0.352 N 
ATOM      4  O   UNL     1       1.176   0.179  -0.271  1.00  0.00    -0.269 OA
ATOM      5  C   UNL     1       2.402   0.242  -0.245  1.00  0.00     0.251 C 
ATOM      6  H   UNL     1       2.619  -1.283  -1.514  1.00  0.00     0.163 HD
BRANCH   5   7
ATOM      7  C   UNL     1       3.066   1.303   0.543  1.00  0.00     0.039 A 
ATOM      8  C   UNL     1       4.211   1.942   0.071  1.00  0.00     0.014 A 
ATOM      9  C   UNL     1       2.525   1.676   1.779  1.00  0.00     0.014 A 
ATOM     10  C   UNL     1       4.927   2.787   0.909  1.00  0.00     0.010 A 
ATOM     11  C   UNL     1       3.186   2.617   2.575  1.00  0.00     0.010 A 
ATOM     12  C   UNL     1       4.423   3.139   2.171  1.00  0.00    -0.014 A 
BRANCH  12  13
ATOM     13  C   UNL     1       5.208   4.067   3.026  1.00  0.00     0.031 A 
ATOM     14  C   UNL     1       5.759   3.623   4.355  1.00  0.00     0.074 A 
ATOM     15  C   UNL     1       5.483   5.303   2.565  1.00  0.00     0.049 A 
ATOM     16  N   UNL     1       6.527   4.283   5.187  1.00  0.00    -0.248 NA
ATOM     17  C   UNL     1       5.397   2.274   4.818  1.00  0.00     0.031 C 
ATOM     18  C   UNL     1       5.005   5.857   1.295  1.00  0.00     0.029 A 
ATOM     19  N   UNL     1       6.265   6.300   3.088  1.00  0.00    -0.354 N 
ATOM     20  C   UNL     1       6.710   3.447   6.282  1.00  0.00     0.074 A 
ATOM     21  C   UNL     1       5.961   2.237   6.017  1.00  0.00     0.031 C 
ATOM     22  C   UNL     1       5.567   7.058   1.101  1.00  0.00     0.029 A 
ATOM     23  C   UNL     1       6.393   7.386   2.256  1.00  0.00     0.049 A 
ATOM     24  H   UNL     1       6.693   6.244   3.973  1.00  0.00     0.167 HD
ATOM     25  C   UNL     1       7.437   3.663   7.404  1.00  0.00     0.031 A 
ATOM     26  C   UNL     1       7.100   8.521   2.401  1.00  0.00     0.031 A 
ATOM     27  C   UNL     1       8.207   4.852   7.660  1.00  0.00     0.049 A 
ATOM     28  C   UNL     1       7.909   8.728   3.645  1.00  0.00     0.074 A 
ATOM     29  C   UNL     1       9.003   5.145   8.754  1.00  0.00     0.029 A 
ATOM     30  N   UNL     1       8.281   5.941   6.807  1.00  0.00    -0.354 N 
ATOM     31  N   UNL     1       8.084   7.917   4.659  1.00  0.00    -0.248 NA
ATOM     32  C   UNL     1       8.617  10.010   3.764  1.00  0.00     0.031 C 
ATOM     33  C   UNL     1       9.534   6.428   8.577  1.00  0.00     0.029 A 
ATOM     34  C   UNL     1       9.099   6.915   7.356  1.00  0.00     0.049 A 
ATOM     35  H   UNL     1       7.821   6.013   5.939  1.00  0.00     0.167 HD
ATOM     36  C   UNL     1       8.934   8.582   5.530  1.00  0.00     0.074 A 
ATOM     37  C   UNL     1       9.253   9.856   4.917  1.00  0.00     0.031 C 
ATOM     38  C   UNL     1       9.405   8.176   6.734  1.00  0.00     0.031 A 
BRANCH  25  39
ATOM     39  C   UNL     1       7.412   2.596   8.461  1.00  0.00    -0.014 A 
ATOM     40  C   UNL     1       8.124   1.397   8.307  1.00  0.00     0.009 A 
ATOM     41  C   UNL     1       6.691   2.812   9.647  1.00  0.00     0.009 A 
ATOM     42  C   UNL     1       8.091   0.422   9.307  1.00  0.00     0.001 A 
ATOM     43  C   UNL     1       6.678   1.846  10.654  1.00  0.00     0.001 A 
ATOM     44  C   UNL     1       7.371   0.649  10.481  1.00  0.00     0.000 A 
ENDBRANCH  25  39
BRANCH  26  45
ATOM     45  C   UNL     1       7.080   9.543   1.325  1.00  0.00    -0.014 A 
ATOM     46  C   UNL     1       8.207   9.741   0.513  1.00  0.00     0.009 A 
ATOM     47  C   UNL     1       5.929  10.311   1.092  1.00  0.00     0.009 A 
ATOM     48  C   UNL     1       8.186  10.699  -0.502  1.00  0.00     0.001 A 
ATOM     49  C   UNL     1       5.902  11.251   0.061  1.00  0.00     0.001 A 
ATOM     50  C   UNL     1       7.033  11.449  -0.730  1.00  0.00     0.000 A 
ENDBRANCH  26  45
BRANCH  38  51
ATOM     51  C   UNL     1      10.337   9.110   7.447  1.00  0.00    -0.014 A 
ATOM     52  C   UNL     1       9.857  10.263   8.086  1.00  0.00     0.009 A 
ATOM     53  C   UNL     1      11.709   8.822   7.491  1.00  0.00     0.009 A 
ATOM     54  C   UNL     1      10.743  11.130   8.730  1.00  0.00     0.001 A 
ATOM     55  C   UNL     1      12.588   9.679   8.154  1.00  0.00     0.001 A 
ATOM     56  C   UNL     1      12.106  10.836   8.764  1.00  0.00     0.000 A 
ENDBRANCH  38  51
ENDBRANCH  12  13
ENDBRANCH   5   7
ENDBRANCH   2   3
ENDBRANCH   1   2
BRANCH   1  57
ATOM     57  C   UNL     1       4.408  -3.506  -0.898  1.00  0.00     0.118 C 
BRANCH  57  58
ATOM     58  N   UNL     1       4.951  -3.667  -2.241  1.00  0.00    -0.352 N 
ATOM     59  C   UNL     1       5.800  -4.614  -2.756  1.00  0.00     0.251 C 
ATOM     60  H   UNL     1       4.661  -2.982  -2.885  1.00  0.00     0.163 HD
ATOM     61  O   UNL     1       6.298  -4.441  -3.865  1.00  0.00    -0.269 OA
BRANCH  59  62
ATOM     62  C   UNL     1       6.113  -5.843  -1.996  1.00  0.00     0.039 A 
ATOM     63  C   UNL     1       7.404  -6.382  -2.058  1.00  0.00     0.015 A 
ATOM     64  C   UNL     1       5.120  -6.502  -1.269  1.00  0.00     0.015 A 
ATOM     65  C   UNL     1       7.706  -7.557  -1.361  1.00  0.00     0.022 A 
ATOM     66  C   UNL     1       5.437  -7.619  -0.508  1.00  0.00     0.022 A 
ATOM     67  C   UNL     1       6.718  -8.167  -0.580  1.00  0.00     0.082 A 
BRANCH  67  68
ATOM     68  S   UNL     1       7.092  -9.718   0.206  1.00  0.00     0.241 S 
ATOM     69  O   UNL     1       7.383 -10.671  -0.839  1.00  0.00    -0.207 OA
ATOM     70  O   UNL     1       8.018  -9.434   1.279  1.00  0.00    -0.207 OA
BRANCH  68  71
ATOM     71  N   UNL     1       5.655 -10.179   0.936  1.00  0.00    -0.202 NA
ATOM     72  H   UNL     1       5.295  -9.361   1.428  1.00  0.00     0.141 HD
BRANCH  71  73
ATOM     73  C   UNL     1       4.557 -10.697   0.109  1.00  0.00     0.133 C 
ATOM     74  C   UNL     1       3.203 -10.360   0.792  1.00  0.00     0.087 C 
ATOM     75  C   UNL     1       4.505 -12.206  -0.028  1.00  0.00     0.202 C 
ATOM     76  C   UNL     1       2.451 -11.691   0.902  1.00  0.00     0.264 C 
ATOM     77  N   UNL     1       3.572 -12.590   1.037  1.00  0.00    -0.331 N 
ATOM     78  C   UNL     1       5.627 -13.167   0.271  1.00  0.00     0.072 C 
ATOM     79  C   UNL     1       3.396 -14.017   0.871  1.00  0.00     0.262 C 
ATOM     80  H   UNL     1       3.846 -12.485   2.013  1.00  0.00     0.348 HD
ATOM     81  C   UNL     1       4.850 -14.457   0.615  1.00  0.00     0.068 C 
ENDBRANCH  71  73
ENDBRANCH  68  71
ENDBRANCH  67  68
ENDBRANCH  59  62
ENDBRANCH  57  58
ENDBRANCH   1  57
TORSDOF 13
