REMARK SMILES CN1C(=O)CC[C@H]([NH2+]Cc2ccc(C(=O)NCCCNC(=O)c3ccc(-c4c5nc(c(-c6ccccc6)c6ccc([nH]6)c(-c6ccccc6)c6nc(c(-c7ccccc7)c7ccc4[nH]7)C=C6)C=C5)cc3)cn2)C1=O
REMARK SMILES IDX 17 1 16 2 14 3 15 4 13 6 10 7 11 8 72 9 12 10 71 11 9 12
REMARK SMILES IDX 8 13 7 16 1 17 2 18 3 19 73 20 4 21 5 22 74 23 6 24 18 25
REMARK SMILES IDX 19 26 20 27 21 28 22 30 23 31 24 32 70 33 25 34 69 35 26 36
REMARK SMILES IDX 27 37 28 38 63 39 29 40 68 41 62 42 64 43 30 44 67 45 61 46
REMARK SMILES IDX 60 47 31 49 53 50 38 51 52 52 39 53 42 54 51 55 65 56 40 57
REMARK SMILES IDX 41 58 50 60 66 61 43 62 32 63 33 64 37 65 34 66 36 67 35 68
REMARK SMILES IDX 54 69 55 70 59 71 56 72 58 73 57 74 44 75 45 76 49 77 46 78
REMARK SMILES IDX 48 79 47 80
REMARK H PARENT 16 5 8 14 8 15 20 29 64 48 42 59
REMARK Flexibility Score: inf
ROOT
ATOM      1  C   UNL     1      -5.810  -7.925  -2.359  1.00  0.00     0.118 C 
ENDROOT
BRANCH   1   2
ATOM      2  N   UNL     1      -6.676  -6.766  -2.452  1.00  0.00    -0.352 N 
ATOM      3  C   UNL     1      -6.396  -5.426  -2.425  1.00  0.00     0.252 C 
ATOM      4  O   UNL     1      -7.325  -4.637  -2.592  1.00  0.00    -0.269 OA
ATOM      5  H   UNL     1      -7.631  -6.980  -2.553  1.00  0.00     0.163 HD
BRANCH   3   6
ATOM      6  C   UNL     1      -5.029  -4.896  -2.240  1.00  0.00     0.058 A 
ATOM      7  C   UNL     1      -2.568  -3.660  -2.003  1.00  0.00     0.094 A 
ATOM      8  C   UNL     1      -2.794  -4.854  -1.329  1.00  0.00     0.030 A 
ATOM      9  N   UNL     1      -3.524  -3.070  -2.765  1.00  0.00    -0.255 NA
ATOM     10  C   UNL     1      -4.042  -5.466  -1.439  1.00  0.00     0.017 A 
ATOM     11  C   UNL     1      -4.723  -3.695  -2.864  1.00  0.00     0.125 A 
BRANCH   7  12
ATOM     12  C   UNL     1      -1.286  -2.882  -1.808  1.00  0.00     0.318 C 
BRANCH  12  13
ATOM     13  N   UNL     1      -0.051  -3.678  -1.981  1.00  0.00    -0.331 N 
ATOM     14  H   UNL     1       0.059  -4.294  -1.175  1.00  0.00     0.347 HD
ATOM     15  H   UNL     1      -0.141  -4.213  -2.845  1.00  0.00     0.347 HD
BRANCH  13  16
ATOM     16  C   UNL     1       1.156  -2.819  -2.096  1.00  0.00     0.274 C 
ATOM     17  C   UNL     1       1.058   0.463  -0.136  1.00  0.00     0.156 C 
ATOM     18  N   UNL     1       1.287  -0.485  -1.211  1.00  0.00    -0.281 N 
ATOM     19  C   UNL     1       1.616   0.034  -2.458  1.00  0.00     0.229 C 
ATOM     20  C   UNL     1       1.235  -1.838  -0.909  1.00  0.00     0.287 C 
ATOM     21  O   UNL     1       1.575   1.233  -2.728  1.00  0.00    -0.274 OA
ATOM     22  C   UNL     1       2.138  -0.968  -3.457  1.00  0.00     0.107 C 
ATOM     23  O   UNL     1       1.195  -2.271   0.247  1.00  0.00    -0.267 OA
ATOM     24  C   UNL     1       1.249  -2.189  -3.482  1.00  0.00     0.085 C 
ENDBRANCH  13  16
ENDBRANCH  12  13
ENDBRANCH   7  12
ENDBRANCH   3   6
ENDBRANCH   1   2
BRANCH   1  25
ATOM     25  C   UNL     1      -5.846  -8.525  -0.956  1.00  0.00     0.042 C 
BRANCH  25  26
ATOM     26  C   UNL     1      -7.163  -9.218  -0.633  1.00  0.00     0.118 C 
BRANCH  26  27
ATOM     27  N   UNL     1      -7.343 -10.429  -1.419  1.00  0.00    -0.352 N 
ATOM     28  C   UNL     1      -7.519 -11.720  -1.000  1.00  0.00     0.251 C 
ATOM     29  H   UNL     1      -7.337 -10.301  -2.395  1.00  0.00     0.163 HD
ATOM     30  O   UNL     1      -7.402 -12.644  -1.806  1.00  0.00    -0.269 OA
BRANCH  28  31
ATOM     31  C   UNL     1      -7.844 -12.012   0.410  1.00  0.00     0.039 A 
ATOM     32  C   UNL     1      -7.256 -13.122   1.023  1.00  0.00     0.014 A 
ATOM     33  C   UNL     1      -8.761 -11.225   1.114  1.00  0.00     0.014 A 
ATOM     34  C   UNL     1      -7.558 -13.419   2.353  1.00  0.00     0.010 A 
ATOM     35  C   UNL     1      -9.001 -11.476   2.460  1.00  0.00     0.010 A 
ATOM     36  C   UNL     1      -8.416 -12.585   3.087  1.00  0.00    -0.014 A 
BRANCH  36  37
ATOM     37  C   UNL     1      -8.732 -12.869   4.507  1.00  0.00     0.031 A 
ATOM     38  C   UNL     1     -10.139 -13.216   4.910  1.00  0.00     0.074 A 
ATOM     39  C   UNL     1      -7.767 -12.755   5.439  1.00  0.00     0.049 A 
ATOM     40  N   UNL     1     -10.625 -13.439   6.104  1.00  0.00    -0.248 NA
ATOM     41  C   UNL     1     -11.137 -13.300   3.830  1.00  0.00     0.031 C 
ATOM     42  C   UNL     1      -6.373 -12.388   5.176  1.00  0.00     0.029 A 
ATOM     43  N   UNL     1      -7.814 -12.932   6.798  1.00  0.00    -0.354 N 
ATOM     44  C   UNL     1     -11.983 -13.666   5.922  1.00  0.00     0.074 A 
ATOM     45  C   UNL     1     -12.254 -13.508   4.510  1.00  0.00     0.031 C 
ATOM     46  C   UNL     1      -5.692 -12.394   6.333  1.00  0.00     0.029 A 
ATOM     47  C   UNL     1      -6.607 -12.725   7.420  1.00  0.00     0.049 A 
ATOM     48  H   UNL     1      -8.634 -13.184   7.281  1.00  0.00     0.167 HD
ATOM     49  C   UNL     1     -12.918 -13.996   6.844  1.00  0.00     0.031 A 
ATOM     50  C   UNL     1      -6.277 -12.790   8.723  1.00  0.00     0.031 A 
ATOM     51  C   UNL     1     -12.642 -14.167   8.245  1.00  0.00     0.049 A 
ATOM     52  C   UNL     1      -7.334 -13.152   9.728  1.00  0.00     0.074 A 
ATOM     53  C   UNL     1     -13.506 -14.556   9.254  1.00  0.00     0.029 A 
ATOM     54  N   UNL     1     -11.405 -13.957   8.835  1.00  0.00    -0.354 N 
ATOM     55  N   UNL     1      -8.600 -13.428   9.531  1.00  0.00    -0.248 NA
ATOM     56  C   UNL     1      -6.912 -13.222  11.134  1.00  0.00     0.031 C 
ATOM     57  C   UNL     1     -12.802 -14.536  10.462  1.00  0.00     0.029 A 
ATOM     58  C   UNL     1     -11.487 -14.187  10.197  1.00  0.00     0.049 A 
ATOM     59  H   UNL     1     -10.589 -13.685   8.355  1.00  0.00     0.167 HD
ATOM     60  C   UNL     1      -9.120 -13.730  10.783  1.00  0.00     0.074 A 
ATOM     61  C   UNL     1      -8.028 -13.619  11.728  1.00  0.00     0.031 C 
ATOM     62  C   UNL     1     -10.388 -14.070  11.120  1.00  0.00     0.031 A 
BRANCH  49  63
ATOM     63  C   UNL     1     -14.330 -14.187   6.362  1.00  0.00    -0.014 A 
ATOM     64  C   UNL     1     -14.685 -15.287   5.565  1.00  0.00     0.009 A 
ATOM     65  C   UNL     1     -15.324 -13.268   6.731  1.00  0.00     0.009 A 
ATOM     66  C   UNL     1     -15.999 -15.442   5.116  1.00  0.00     0.001 A 
ATOM     67  C   UNL     1     -16.643 -13.441   6.306  1.00  0.00     0.001 A 
ATOM     68  C   UNL     1     -16.977 -14.522   5.491  1.00  0.00     0.000 A 
ENDBRANCH  49  63
BRANCH  50  69
ATOM     69  C   UNL     1      -4.878 -12.526   9.151  1.00  0.00    -0.014 A 
ATOM     70  C   UNL     1      -4.066 -13.573   9.611  1.00  0.00     0.009 A 
ATOM     71  C   UNL     1      -4.348 -11.227   9.100  1.00  0.00     0.009 A 
ATOM     72  C   UNL     1      -2.760 -13.321  10.037  1.00  0.00     0.001 A 
ATOM     73  C   UNL     1      -3.032 -10.983   9.499  1.00  0.00     0.001 A 
ATOM     74  C   UNL     1      -2.243 -12.028   9.976  1.00  0.00     0.000 A 
ENDBRANCH  50  69
BRANCH  62  75
ATOM     75  C   UNL     1     -10.652 -14.378  12.566  1.00  0.00    -0.014 A 
ATOM     76  C   UNL     1     -10.689 -13.361  13.533  1.00  0.00     0.009 A 
ATOM     77  C   UNL     1     -10.906 -15.702  12.958  1.00  0.00     0.009 A 
ATOM     78  C   UNL     1     -10.942 -13.670  14.871  1.00  0.00     0.001 A 
ATOM     79  C   UNL     1     -11.188 -16.003  14.291  1.00  0.00     0.001 A 
ATOM     80  C   UNL     1     -11.196 -14.989  15.247  1.00  0.00     0.000 A 
ENDBRANCH  62  75
ENDBRANCH  36  37
ENDBRANCH  28  31
ENDBRANCH  26  27
ENDBRANCH  25  26
ENDBRANCH   1  25
TORSDOF 13
