REMARK SMILES O=C(NCCCNC(=O)c1cc2c(cc1NS(=O)(=O)c1cc(Cl)ccc1Cl)OCCCO2)c1ccc(-c2c3nc(c(-c4ccccc4)c4ccc([nH]4)c(-c4ccccc4)c4nc(c(-c5ccccc5)c5ccc2[nH]5)C=C4)C=C3)cc1
REMARK SMILES IDX 5 1 4 2 3 3 1 4 2 5 33 7 34 8 80 9 35 10 79 11 36 12 37 13
REMARK SMILES IDX 38 14 73 15 39 16 78 17 72 18 74 19 40 20 77 21 71 22 70 23
REMARK SMILES IDX 41 25 63 26 48 27 62 28 49 29 52 30 61 31 75 32 50 33 51 34
REMARK SMILES IDX 60 36 76 37 53 38 42 39 43 40 47 41 44 42 46 43 45 44 64 45
REMARK SMILES IDX 65 46 69 47 66 48 68 49 67 50 54 51 55 52 59 53 56 54 58 55
REMARK SMILES IDX 57 56 6 57 7 58 8 59 9 61 10 62 11 63 15 64 12 65 14 66
REMARK SMILES IDX 13 67 16 68 17 70 18 71 19 72 20 73 21 74 26 75 22 76 25 77
REMARK SMILES IDX 27 78 23 79 24 80 32 81 31 82 28 84 29 85 30 86
REMARK H PARENT 3 6 74 24 52 35 7 60 16 69
REMARK Flexibility Score: 100.00
ROOT
ATOM      1  C   UNL     1       4.993  -2.032   1.210  1.00  0.00     0.042 C 
ENDROOT
BRANCH   1   2
ATOM      2  C   UNL     1       4.577  -0.932   0.249  1.00  0.00     0.118 C 
BRANCH   2   3
ATOM      3  N   UNL     1       3.165  -0.970  -0.101  1.00  0.00    -0.352 N 
ATOM      4  O   UNL     1       1.060  -0.122  -0.180  1.00  0.00    -0.269 OA
ATOM      5  C   UNL     1       2.257   0.056   0.001  1.00  0.00     0.251 C 
ATOM      6  H   UNL     1       2.823  -1.824  -0.450  1.00  0.00     0.163 HD
BRANCH   5   7
ATOM      7  C   UNL     1       2.766   1.389   0.372  1.00  0.00     0.039 A 
ATOM      8  C   UNL     1       2.187   2.065   1.444  1.00  0.00     0.014 A 
ATOM      9  C   UNL     1       3.878   1.917  -0.293  1.00  0.00     0.014 A 
ATOM     10  C   UNL     1       2.743   3.271   1.867  1.00  0.00     0.010 A 
ATOM     11  C   UNL     1       4.501   3.049   0.209  1.00  0.00     0.010 A 
ATOM     12  C   UNL     1       3.911   3.764   1.261  1.00  0.00    -0.014 A 
BRANCH  12  13
ATOM     13  C   UNL     1       4.465   5.090   1.625  1.00  0.00     0.031 A 
ATOM     14  C   UNL     1       4.503   6.171   0.576  1.00  0.00     0.074 A 
ATOM     15  C   UNL     1       4.934   5.324   2.866  1.00  0.00     0.049 A 
ATOM     16  N   UNL     1       4.978   7.386   0.662  1.00  0.00    -0.248 NA
ATOM     17  C   UNL     1       3.962   5.837  -0.756  1.00  0.00     0.031 C 
ATOM     18  C   UNL     1       4.962   4.354   3.961  1.00  0.00     0.029 A 
ATOM     19  N   UNL     1       5.464   6.464   3.419  1.00  0.00    -0.354 N 
ATOM     20  C   UNL     1       4.807   7.943  -0.599  1.00  0.00     0.074 A 
ATOM     21  C   UNL     1       4.259   6.920  -1.455  1.00  0.00     0.031 C 
ATOM     22  C   UNL     1       5.433   4.954   5.067  1.00  0.00     0.029 A 
ATOM     23  C   UNL     1       5.785   6.336   4.749  1.00  0.00     0.049 A 
ATOM     24  H   UNL     1       5.601   7.295   2.910  1.00  0.00     0.167 HD
ATOM     25  C   UNL     1       5.043   9.211  -1.000  1.00  0.00     0.031 A 
ATOM     26  C   UNL     1       6.298   7.233   5.614  1.00  0.00     0.031 A 
ATOM     27  C   UNL     1       5.539  10.242  -0.134  1.00  0.00     0.049 A 
ATOM     28  C   UNL     1       6.576   8.634   5.135  1.00  0.00     0.074 A 
ATOM     29  C   UNL     1       5.768  11.572  -0.434  1.00  0.00     0.029 A 
ATOM     30  N   UNL     1       5.864  10.063   1.200  1.00  0.00    -0.354 N 
ATOM     31  N   UNL     1       6.364   9.159   3.951  1.00  0.00    -0.248 NA
ATOM     32  C   UNL     1       7.149   9.573   6.110  1.00  0.00     0.031 C 
ATOM     33  C   UNL     1       6.294  12.185   0.702  1.00  0.00     0.029 A 
ATOM     34  C   UNL     1       6.314  11.257   1.732  1.00  0.00     0.049 A 
ATOM     35  H   UNL     1       5.786   9.215   1.695  1.00  0.00     0.167 HD
ATOM     36  C   UNL     1       6.741  10.492   4.051  1.00  0.00     0.074 A 
ATOM     37  C   UNL     1       7.184  10.702   5.413  1.00  0.00     0.031 C 
ATOM     38  C   UNL     1       6.724  11.455   3.098  1.00  0.00     0.031 A 
BRANCH  25  39
ATOM     39  C   UNL     1       4.741   9.577  -2.426  1.00  0.00    -0.014 A 
ATOM     40  C   UNL     1       5.785   9.950  -3.287  1.00  0.00     0.009 A 
ATOM     41  C   UNL     1       3.417   9.662  -2.885  1.00  0.00     0.009 A 
ATOM     42  C   UNL     1       5.508  10.430  -4.567  1.00  0.00     0.001 A 
ATOM     43  C   UNL     1       3.146  10.109  -4.179  1.00  0.00     0.001 A 
ATOM     44  C   UNL     1       4.190  10.507  -5.013  1.00  0.00     0.000 A 
ENDBRANCH  25  39
BRANCH  26  45
ATOM     45  C   UNL     1       6.539   6.845   7.032  1.00  0.00    -0.014 A 
ATOM     46  C   UNL     1       7.512   5.888   7.363  1.00  0.00     0.009 A 
ATOM     47  C   UNL     1       5.781   7.417   8.066  1.00  0.00     0.009 A 
ATOM     48  C   UNL     1       7.707   5.499   8.691  1.00  0.00     0.001 A 
ATOM     49  C   UNL     1       6.003   7.053   9.397  1.00  0.00     0.001 A 
ATOM     50  C   UNL     1       6.959   6.088   9.707  1.00  0.00     0.000 A 
ENDBRANCH  26  45
BRANCH  38  51
ATOM     51  C   UNL     1       7.155  12.845   3.475  1.00  0.00    -0.014 A 
ATOM     52  C   UNL     1       6.217  13.891   3.444  1.00  0.00     0.009 A 
ATOM     53  C   UNL     1       8.504  13.149   3.711  1.00  0.00     0.009 A 
ATOM     54  C   UNL     1       6.624  15.215   3.610  1.00  0.00     0.001 A 
ATOM     55  C   UNL     1       8.902  14.472   3.913  1.00  0.00     0.001 A 
ATOM     56  C   UNL     1       7.966  15.503   3.848  1.00  0.00     0.000 A 
ENDBRANCH  38  51
ENDBRANCH  12  13
ENDBRANCH   5   7
ENDBRANCH   2   3
ENDBRANCH   1   2
BRANCH   1  57
ATOM     57  C   UNL     1       4.827  -3.420   0.625  1.00  0.00     0.118 C 
BRANCH  57  58
ATOM     58  N   UNL     1       5.587  -3.524  -0.609  1.00  0.00    -0.352 N 
ATOM     59  C   UNL     1       6.504  -4.462  -0.962  1.00  0.00     0.253 C 
ATOM     60  H   UNL     1       5.415  -2.822  -1.278  1.00  0.00     0.163 HD
ATOM     61  O   UNL     1       7.369  -4.187  -1.787  1.00  0.00    -0.269 OA
BRANCH  59  62
ATOM     62  C   UNL     1       6.450  -5.803  -0.372  1.00  0.00     0.067 A 
ATOM     63  C   UNL     1       7.710  -6.304  -0.015  1.00  0.00     0.066 A 
ATOM     64  C   UNL     1       5.279  -6.533  -0.110  1.00  0.00     0.066 A 
ATOM     65  C   UNL     1       7.815  -7.457   0.743  1.00  0.00     0.162 A 
ATOM     66  C   UNL     1       5.404  -7.626   0.766  1.00  0.00     0.078 A 
ATOM     67  C   UNL     1       6.658  -8.076   1.202  1.00  0.00     0.163 A 
BRANCH  64  68
ATOM     68  N   UNL     1       3.923  -6.141  -0.431  1.00  0.00    -0.279 N 
ATOM     69  H   UNL     1       3.285  -6.104   0.318  1.00  0.00     0.180 HD
BRANCH  68  70
ATOM     70  S   UNL     1       3.317  -5.739  -1.969  1.00  0.00     0.263 S 
ATOM     71  O   UNL     1       2.626  -6.918  -2.441  1.00  0.00    -0.201 OA
ATOM     72  O   UNL     1       2.550  -4.523  -1.751  1.00  0.00    -0.201 OA
BRANCH  70  73
ATOM     73  C   UNL     1       4.586  -5.354  -3.130  1.00  0.00     0.107 A 
ATOM     74  C   UNL     1       4.662  -4.022  -3.589  1.00  0.00     0.044 A 
ATOM     75  C   UNL     1       5.492  -6.303  -3.605  1.00  0.00     0.061 A 
ATOM     76  C   UNL     1       5.717  -3.621  -4.404  1.00  0.00     0.042 A 
ATOM     77  C   UNL     1       6.537  -5.889  -4.443  1.00  0.00     0.023 A 
ATOM     78  Cl  UNL     1       5.450  -7.975  -3.186  1.00  0.00    -0.083 Cl
ATOM     79  Cl  UNL     1       5.887  -1.962  -4.823  1.00  0.00    -0.084 Cl
ATOM     80  C   UNL     1       6.664  -4.548  -4.823  1.00  0.00     0.022 A 
ENDBRANCH  70  73
ENDBRANCH  68  70
ENDBRANCH  64  68
BRANCH  65  81
ATOM     81  O   UNL     1       9.082  -7.825   1.085  1.00  0.00    -0.490 OA
BRANCH  81  82
ATOM     82  C   UNL     1       9.328  -9.198   0.785  1.00  0.00     0.233 CG0
ATOM     83  G   UNL     1       8.860 -10.075   1.930  1.00  0.00     0.000 G0
ENDBRANCH  81  82
ENDBRANCH  65  81
BRANCH  67  84
ATOM     84  O   UNL     1       6.660  -8.983   2.227  1.00  0.00    -0.489 OA
BRANCH  84  85
ATOM     85  C   UNL     1       7.342 -10.200   1.938  1.00  0.00     0.233 C 
BRANCH  85  86
ATOM     86  C   UNL     1       8.860 -10.075   1.930  1.00  0.00     0.083 CG0
ATOM     87  G   UNL     1       9.328  -9.198   0.785  1.00  0.00     0.000 G0
ENDBRANCH  85  86
ENDBRANCH  84  85
ENDBRANCH  67  84
ENDBRANCH  59  62
ENDBRANCH  57  58
ENDBRANCH   1  57
TORSDOF 13
