REMARK SMILES CCC[NH2+][C@@](C)(C[N@H+]1CCC(C)(C)C1)C(=O)NCCCNC(=O)c1ccc(-c2c3nc(c(-c4ccccc4)c4ccc([nH]4)c(-c4ccccc4)c4nc(c(-c5ccccc5)c5ccc2[nH]5)C=C4)C=C3)cc1
REMARK SMILES IDX 18 1 17 2 15 3 16 4 5 6 6 7 4 8 3 11 2 12 1 13 7 14 8 15
REMARK SMILES IDX 9 16 14 17 10 19 11 20 12 21 13 22 19 23 20 24 21 25 22 26
REMARK SMILES IDX 23 28 24 29 25 30 71 31 26 32 70 33 27 34 28 35 29 36 64 37
REMARK SMILES IDX 30 38 69 39 63 40 65 41 31 42 68 43 62 44 61 45 32 47 54 48
REMARK SMILES IDX 39 49 53 50 40 51 43 52 52 53 66 54 41 55 42 56 51 58 67 59
REMARK SMILES IDX 44 60 33 61 34 62 38 63 35 64 37 65 36 66 55 67 56 68 60 69
REMARK SMILES IDX 57 70 59 71 58 72 45 73 46 74 50 75 47 76 49 77 48 78
REMARK H PARENT 17 5 4 9 4 10 8 18 21 27 65 46 43 57
REMARK Flexibility Score: inf
ROOT
ATOM      1  C   UNL     1       2.352  -1.306   7.046  1.00  0.00     0.118 C 
ENDROOT
BRANCH   1   2
ATOM      2  N   UNL     1       1.730  -2.159   6.052  1.00  0.00    -0.350 N 
ATOM      3  C   UNL     1       1.188  -1.955   4.817  1.00  0.00     0.287 C 
ATOM      4  O   UNL     1       0.702  -2.983   4.327  1.00  0.00    -0.268 OA
ATOM      5  H   UNL     1       1.688  -3.101   6.333  1.00  0.00     0.163 HD
BRANCH   3   6
ATOM      6  C   UNL     1       1.189  -0.569   4.075  1.00  0.00     0.221 C 
ATOM      7  C   UNL     1       2.652  -0.133   3.828  1.00  0.00     0.097 C 
BRANCH   6   8
ATOM      8  N   UNL     1       0.476  -0.664   2.760  1.00  0.00    -0.329 N 
ATOM      9  H   UNL     1      -0.471  -0.995   2.946  1.00  0.00     0.347 HD
ATOM     10  H   UNL     1       0.532   0.272   2.358  1.00  0.00     0.347 HD
BRANCH   8  11
ATOM     11  C   UNL     1       1.061  -1.547   1.752  1.00  0.00     0.261 C 
BRANCH  11  12
ATOM     12  C   UNL     1       0.481  -1.280   0.357  1.00  0.00     0.058 C 
ATOM     13  C   UNL     1       0.967   0.026  -0.256  1.00  0.00     0.010 C 
ENDBRANCH  11  12
ENDBRANCH   8  11
ENDBRANCH   6   8
BRANCH   6  14
ATOM     14  C   UNL     1       0.479   0.560   4.916  1.00  0.00     0.341 C 
BRANCH  14  15
ATOM     15  N   UNL     1      -0.989   0.583   5.073  1.00  0.00    -0.329 N 
ATOM     16  C   UNL     1      -1.608  -0.667   5.519  1.00  0.00     0.263 C 
ATOM     17  C   UNL     1      -1.432   1.652   5.980  1.00  0.00     0.269 C 
ATOM     18  H   UNL     1      -1.306   0.750   4.118  1.00  0.00     0.348 HD
ATOM     19  C   UNL     1      -2.630  -0.299   6.591  1.00  0.00     0.073 C 
ATOM     20  C   UNL     1      -2.820   1.211   6.457  1.00  0.00     0.019 C 
ATOM     21  C   UNL     1      -3.911   1.528   5.423  1.00  0.00     0.017 C 
ATOM     22  C   UNL     1      -3.187   1.851   7.799  1.00  0.00     0.017 C 
ENDBRANCH  14  15
ENDBRANCH   6  14
ENDBRANCH   3   6
ENDBRANCH   1   2
BRANCH   1  23
ATOM     23  C   UNL     1       1.409  -0.918   8.186  1.00  0.00     0.042 C 
BRANCH  23  24
ATOM     24  C   UNL     1       0.771  -2.089   8.927  1.00  0.00     0.118 C 
BRANCH  24  25
ATOM     25  N   UNL     1       1.751  -2.946   9.573  1.00  0.00    -0.352 N 
ATOM     26  C   UNL     1       2.032  -3.160  10.897  1.00  0.00     0.251 C 
ATOM     27  H   UNL     1       2.311  -3.464   8.950  1.00  0.00     0.163 HD
ATOM     28  O   UNL     1       3.050  -3.787  11.193  1.00  0.00    -0.269 OA
BRANCH  26  29
ATOM     29  C   UNL     1       1.159  -2.648  11.978  1.00  0.00     0.039 A 
ATOM     30  C   UNL     1       1.761  -2.190  13.156  1.00  0.00     0.014 A 
ATOM     31  C   UNL     1      -0.235  -2.685  11.889  1.00  0.00     0.014 A 
ATOM     32  C   UNL     1       0.975  -1.727  14.214  1.00  0.00     0.010 A 
ATOM     33  C   UNL     1      -1.018  -2.156  12.917  1.00  0.00     0.010 A 
ATOM     34  C   UNL     1      -0.422  -1.681  14.094  1.00  0.00    -0.014 A 
BRANCH  34  35
ATOM     35  C   UNL     1      -1.265  -1.147  15.195  1.00  0.00     0.031 A 
ATOM     36  C   UNL     1      -2.219  -2.046  15.936  1.00  0.00     0.074 A 
ATOM     37  C   UNL     1      -1.206   0.163  15.504  1.00  0.00     0.049 A 
ATOM     38  N   UNL     1      -3.052  -1.748  16.901  1.00  0.00    -0.248 NA
ATOM     39  C   UNL     1      -2.257  -3.458  15.524  1.00  0.00     0.031 C 
ATOM     40  C   UNL     1      -0.355   1.153  14.841  1.00  0.00     0.029 A 
ATOM     41  N   UNL     1      -1.879   0.887  16.456  1.00  0.00    -0.354 N 
ATOM     42  C   UNL     1      -3.727  -2.926  17.196  1.00  0.00     0.074 A 
ATOM     43  C   UNL     1      -3.234  -3.934  16.283  1.00  0.00     0.031 C 
ATOM     44  C   UNL     1      -0.537   2.349  15.423  1.00  0.00     0.029 A 
ATOM     45  C   UNL     1      -1.537   2.217  16.478  1.00  0.00     0.049 A 
ATOM     46  H   UNL     1      -2.543   0.491  17.065  1.00  0.00     0.167 HD
ATOM     47  C   UNL     1      -4.661  -3.156  18.150  1.00  0.00     0.031 A 
ATOM     48  C   UNL     1      -1.978   3.221  17.259  1.00  0.00     0.031 A 
ATOM     49  C   UNL     1      -5.141  -2.164  19.075  1.00  0.00     0.049 A 
ATOM     50  C   UNL     1      -3.003   2.938  18.319  1.00  0.00     0.074 A 
ATOM     51  C   UNL     1      -6.043  -2.318  20.115  1.00  0.00     0.029 A 
ATOM     52  N   UNL     1      -4.758  -0.833  19.073  1.00  0.00    -0.354 N 
ATOM     53  N   UNL     1      -3.585   1.804  18.623  1.00  0.00    -0.248 NA
ATOM     54  C   UNL     1      -3.422   4.075  19.152  1.00  0.00     0.031 C 
ATOM     55  C   UNL     1      -6.233  -1.070  20.719  1.00  0.00     0.029 A 
ATOM     56  C   UNL     1      -5.417  -0.150  20.081  1.00  0.00     0.049 A 
ATOM     57  H   UNL     1      -4.113  -0.431  18.447  1.00  0.00     0.167 HD
ATOM     58  C   UNL     1      -4.421   2.085  19.695  1.00  0.00     0.074 A 
ATOM     59  C   UNL     1      -4.259   3.492  19.998  1.00  0.00     0.031 C 
ATOM     60  C   UNL     1      -5.250   1.250  20.368  1.00  0.00     0.031 A 
BRANCH  47  61
ATOM     61  C   UNL     1      -5.232  -4.543  18.236  1.00  0.00    -0.014 A 
ATOM     62  C   UNL     1      -4.471  -5.611  18.739  1.00  0.00     0.009 A 
ATOM     63  C   UNL     1      -6.557  -4.780  17.839  1.00  0.00     0.009 A 
ATOM     64  C   UNL     1      -5.015  -6.896  18.807  1.00  0.00     0.001 A 
ATOM     65  C   UNL     1      -7.106  -6.060  17.932  1.00  0.00     0.001 A 
ATOM     66  C   UNL     1      -6.332  -7.118  18.407  1.00  0.00     0.000 A 
ENDBRANCH  47  61
BRANCH  48  67
ATOM     67  C   UNL     1      -1.431   4.590  17.083  1.00  0.00    -0.014 A 
ATOM     68  C   UNL     1      -0.536   5.121  18.024  1.00  0.00     0.009 A 
ATOM     69  C   UNL     1      -1.800   5.370  15.977  1.00  0.00     0.009 A 
ATOM     70  C   UNL     1      -0.038   6.416  17.872  1.00  0.00     0.001 A 
ATOM     71  C   UNL     1      -1.282   6.656  15.816  1.00  0.00     0.001 A 
ATOM     72  C   UNL     1      -0.408   7.181  16.767  1.00  0.00     0.000 A 
ENDBRANCH  48  67
BRANCH  60  73
ATOM     73  C   UNL     1      -6.023   1.836  21.514  1.00  0.00    -0.014 A 
ATOM     74  C   UNL     1      -7.121   2.682  21.292  1.00  0.00     0.009 A 
ATOM     75  C   UNL     1      -5.662   1.518  22.832  1.00  0.00     0.009 A 
ATOM     76  C   UNL     1      -7.821   3.225  22.371  1.00  0.00     0.001 A 
ATOM     77  C   UNL     1      -6.378   2.044  23.908  1.00  0.00     0.001 A 
ATOM     78  C   UNL     1      -7.451   2.904  23.677  1.00  0.00     0.000 A 
ENDBRANCH  60  73
ENDBRANCH  34  35
ENDBRANCH  26  29
ENDBRANCH  24  25
ENDBRANCH  23  24
ENDBRANCH   1  23
TORSDOF 15
