REMARK SMILES C[C@H](Nc1ccc2c(c1)OCCO2)[C@H](C)C(=O)NCCCNC(=O)c1ccc(-c2c3nc(c(-c4ccccc4)c4ccc([nH]4)c(-c4ccccc4)c4nc(c(-c5ccccc5)c5ccc2[nH]5)C=C4)C=C3)cc1
REMARK SMILES IDX 19 1 18 2 16 3 17 4 14 6 15 7 2 8 1 9 3 10 4 12 5 13 9 14
REMARK SMILES IDX 6 15 8 16 7 17 10 18 13 19 11 20 12 21 20 22 21 23 22 24
REMARK SMILES IDX 23 25 24 27 25 28 26 29 72 30 27 31 71 32 28 33 29 34 30 35
REMARK SMILES IDX 65 36 31 37 70 38 64 39 66 40 32 41 69 42 63 43 62 44 33 46
REMARK SMILES IDX 55 47 40 48 54 49 41 50 44 51 53 52 67 53 42 54 43 55 52 57
REMARK SMILES IDX 68 58 45 59 34 60 35 61 39 62 36 63 38 64 37 65 56 66 57 67
REMARK SMILES IDX 61 68 58 69 60 70 59 71 46 72 47 73 51 74 48 75 50 76 49 77
REMARK H PARENT 18 5 3 11 22 26 66 45 44 56
REMARK Flexibility Score: inf
ROOT
ATOM      1  C   UNL     1      -0.390   2.005   3.635  1.00  0.00     0.117 C 
ENDROOT
BRANCH   1   2
ATOM      2  N   UNL     1      -1.191   2.750   2.684  1.00  0.00    -0.356 N 
ATOM      3  C   UNL     1      -1.519   2.503   1.389  1.00  0.00     0.224 C 
ATOM      4  O   UNL     1      -2.144   3.392   0.801  1.00  0.00    -0.275 OA
ATOM      5  H   UNL     1      -1.566   3.587   3.042  1.00  0.00     0.163 HD
BRANCH   3   6
ATOM      6  C   UNL     1      -1.101   1.235   0.657  1.00  0.00     0.097 C 
ATOM      7  C   UNL     1       0.395   1.319   0.333  1.00  0.00     0.020 C 
BRANCH   6   8
ATOM      8  C   UNL     1      -1.498  -0.099   1.333  1.00  0.00     0.088 C 
ATOM      9  C   UNL     1      -1.473  -1.265   0.343  1.00  0.00     0.031 C 
BRANCH   8  10
ATOM     10  N   UNL     1      -2.746  -0.004   2.110  1.00  0.00    -0.382 N 
ATOM     11  H   UNL     1      -2.672   0.029   3.091  1.00  0.00     0.160 HD
BRANCH  10  12
ATOM     12  C   UNL     1      -4.019   0.041   1.560  1.00  0.00     0.038 A 
ATOM     13  C   UNL     1      -4.804   1.194   1.712  1.00  0.00     0.030 A 
ATOM     14  C   UNL     1      -4.549  -1.019   0.824  1.00  0.00     0.076 A 
ATOM     15  C   UNL     1      -6.080   1.284   1.145  1.00  0.00     0.052 A 
ATOM     16  C   UNL     1      -5.805  -0.924   0.230  1.00  0.00     0.163 A 
ATOM     17  C   UNL     1      -6.584   0.220   0.406  1.00  0.00     0.161 A 
ATOM     18  O   UNL     1      -6.209  -2.002  -0.518  1.00  0.00    -0.486 OA
ATOM     19  O   UNL     1      -7.837   0.368  -0.130  1.00  0.00    -0.486 OA
ATOM     20  C   UNL     1      -7.273  -1.630  -1.399  1.00  0.00     0.271 C 
ATOM     21  C   UNL     1      -8.346  -0.873  -0.634  1.00  0.00     0.271 C 
ENDBRANCH  10  12
ENDBRANCH   8  10
ENDBRANCH   6   8
ENDBRANCH   3   6
ENDBRANCH   1   2
BRANCH   1  22
ATOM     22  C   UNL     1       0.873   2.752   4.030  1.00  0.00     0.042 C 
BRANCH  22  23
ATOM     23  C   UNL     1       0.607   4.053   4.771  1.00  0.00     0.118 C 
BRANCH  23  24
ATOM     24  N   UNL     1      -0.072   3.845   6.043  1.00  0.00    -0.352 N 
ATOM     25  C   UNL     1       0.354   4.091   7.325  1.00  0.00     0.251 C 
ATOM     26  H   UNL     1      -0.979   3.468   5.973  1.00  0.00     0.163 HD
ATOM     27  O   UNL     1      -0.288   3.658   8.275  1.00  0.00    -0.269 OA
BRANCH  25  28
ATOM     28  C   UNL     1       1.595   4.859   7.560  1.00  0.00     0.039 A 
ATOM     29  C   UNL     1       2.469   4.441   8.567  1.00  0.00     0.014 A 
ATOM     30  C   UNL     1       1.892   5.993   6.801  1.00  0.00     0.014 A 
ATOM     31  C   UNL     1       3.673   5.121   8.763  1.00  0.00     0.010 A 
ATOM     32  C   UNL     1       3.131   6.607   6.931  1.00  0.00     0.010 A 
ATOM     33  C   UNL     1       4.031   6.184   7.920  1.00  0.00    -0.014 A 
BRANCH  33  34
ATOM     34  C   UNL     1       5.336   6.878   8.059  1.00  0.00     0.031 A 
ATOM     35  C   UNL     1       5.379   8.341   8.405  1.00  0.00     0.074 A 
ATOM     36  C   UNL     1       6.477   6.208   7.810  1.00  0.00     0.049 A 
ATOM     37  N   UNL     1       6.414   9.135   8.506  1.00  0.00    -0.248 NA
ATOM     38  C   UNL     1       4.087   9.007   8.640  1.00  0.00     0.031 C 
ATOM     39  C   UNL     1       6.569   4.796   7.430  1.00  0.00     0.029 A 
ATOM     40  N   UNL     1       7.783   6.629   7.836  1.00  0.00    -0.354 N 
ATOM     41  C   UNL     1       5.898  10.391   8.799  1.00  0.00     0.074 A 
ATOM     42  C   UNL     1       4.457  10.268   8.801  1.00  0.00     0.031 C 
ATOM     43  C   UNL     1       7.862   4.461   7.293  1.00  0.00     0.029 A 
ATOM     44  C   UNL     1       8.687   5.641   7.530  1.00  0.00     0.049 A 
ATOM     45  H   UNL     1       8.047   7.553   8.054  1.00  0.00     0.167 HD
ATOM     46  C   UNL     1       6.561  11.541   9.066  1.00  0.00     0.031 A 
ATOM     47  C   UNL     1      10.029   5.682   7.444  1.00  0.00     0.031 A 
ATOM     48  C   UNL     1       7.994  11.663   9.072  1.00  0.00     0.049 A 
ATOM     49  C   UNL     1      10.742   6.978   7.717  1.00  0.00     0.074 A 
ATOM     50  C   UNL     1       8.765  12.771   9.378  1.00  0.00     0.029 A 
ATOM     51  N   UNL     1       8.873  10.639   8.752  1.00  0.00    -0.354 N 
ATOM     52  N   UNL     1      10.242   8.141   8.056  1.00  0.00    -0.248 NA
ATOM     53  C   UNL     1      12.207   6.960   7.605  1.00  0.00     0.031 C 
ATOM     54  C   UNL     1      10.109  12.432   9.191  1.00  0.00     0.029 A 
ATOM     55  C   UNL     1      10.178  11.096   8.829  1.00  0.00     0.049 A 
ATOM     56  H   UNL     1       8.608   9.723   8.507  1.00  0.00     0.167 HD
ATOM     57  C   UNL     1      11.331   8.986   8.227  1.00  0.00     0.074 A 
ATOM     58  C   UNL     1      12.518   8.196   7.971  1.00  0.00     0.031 C 
ATOM     59  C   UNL     1      11.347  10.297   8.570  1.00  0.00     0.031 A 
BRANCH  46  60
ATOM     60  C   UNL     1       5.734  12.761   9.369  1.00  0.00    -0.014 A 
ATOM     61  C   UNL     1       4.985  12.857  10.553  1.00  0.00     0.009 A 
ATOM     62  C   UNL     1       5.720  13.837   8.469  1.00  0.00     0.009 A 
ATOM     63  C   UNL     1       4.205  13.987  10.808  1.00  0.00     0.001 A 
ATOM     64  C   UNL     1       4.965  14.980   8.741  1.00  0.00     0.001 A 
ATOM     65  C   UNL     1       4.199  15.049   9.904  1.00  0.00     0.000 A 
ENDBRANCH  46  60
BRANCH  47  66
ATOM     66  C   UNL     1      10.793   4.454   7.103  1.00  0.00    -0.014 A 
ATOM     67  C   UNL     1      11.592   3.824   8.070  1.00  0.00     0.009 A 
ATOM     68  C   UNL     1      10.736   3.908   5.811  1.00  0.00     0.009 A 
ATOM     69  C   UNL     1      12.339   2.690   7.743  1.00  0.00     0.001 A 
ATOM     70  C   UNL     1      11.461   2.757   5.495  1.00  0.00     0.001 A 
ATOM     71  C   UNL     1      12.270   2.155   6.458  1.00  0.00     0.000 A 
ENDBRANCH  47  66
BRANCH  59  72
ATOM     72  C   UNL     1      12.692  10.949   8.725  1.00  0.00    -0.014 A 
ATOM     73  C   UNL     1      13.500  11.234   7.613  1.00  0.00     0.009 A 
ATOM     74  C   UNL     1      13.139  11.319  10.003  1.00  0.00     0.009 A 
ATOM     75  C   UNL     1      14.744  11.844   7.783  1.00  0.00     0.001 A 
ATOM     76  C   UNL     1      14.369  11.957  10.167  1.00  0.00     0.001 A 
ATOM     77  C   UNL     1      15.175  12.210   9.058  1.00  0.00     0.000 A 
ENDBRANCH  59  72
ENDBRANCH  33  34
ENDBRANCH  25  28
ENDBRANCH  23  24
ENDBRANCH  22  23
ENDBRANCH   1  22
TORSDOF 13
