REMARK SMILES CCOc1cccc(OCC)c1-c1ccc([C@@H](C)C(=O)NCCCNC(=O)c2ccc(-c3c4nc(c(-c5ccccc5)c5ccc([nH]5)c(-c5ccccc5)c5nc(c(-c6ccccc6)c6ccc3[nH]6)C=C5)C=C4)cc2)cc1F
REMARK SMILES IDX 22 1 21 2 19 3 20 4 17 6 18 7 16 8 13 9 14 10 77 11 15 12
REMARK SMILES IDX 76 13 78 14 12 15 4 16 5 17 6 18 8 19 7 20 3 21 2 22 1 23
REMARK SMILES IDX 9 24 10 25 11 26 23 27 24 28 25 29 26 30 27 32 28 33 29 34
REMARK SMILES IDX 75 35 30 36 74 37 31 38 32 39 33 40 68 41 34 42 73 43 67 44
REMARK SMILES IDX 69 45 35 46 72 47 66 48 65 49 36 51 58 52 43 53 57 54 44 55
REMARK SMILES IDX 47 56 56 57 70 58 45 59 46 60 55 62 71 63 48 64 37 65 38 66
REMARK SMILES IDX 42 67 39 68 41 69 40 70 59 71 60 72 64 73 61 74 63 75 62 76
REMARK SMILES IDX 49 77 50 78 54 79 51 80 53 81 52 82
REMARK H PARENT 21 5 25 31 69 50 47 61
REMARK Flexibility Score: inf
ROOT
ATOM      1  C   UNL     1       2.557  -5.062   0.987  1.00  0.00     0.117 C 
ENDROOT
BRANCH   1   2
ATOM      2  N   UNL     1       1.149  -4.855   0.676  1.00  0.00    -0.356 N 
ATOM      3  C   UNL     1       0.470  -4.317  -0.377  1.00  0.00     0.227 C 
ATOM      4  O   UNL     1      -0.759  -4.264  -0.231  1.00  0.00    -0.274 OA
ATOM      5  H   UNL     1       0.551  -5.176   1.389  1.00  0.00     0.163 HD
BRANCH   3   6
ATOM      6  C   UNL     1       1.096  -3.777  -1.685  1.00  0.00     0.105 C 
ATOM      7  C   UNL     1       2.052  -4.734  -2.388  1.00  0.00     0.023 C 
BRANCH   6   8
ATOM      8  C   UNL     1       1.643  -2.365  -1.564  1.00  0.00    -0.033 A 
ATOM      9  C   UNL     1       2.597   0.279  -1.099  1.00  0.00     0.025 A 
ATOM     10  C   UNL     1       3.042  -0.804  -0.346  1.00  0.00     0.012 A 
ATOM     11  C   UNL     1       1.645   0.012  -2.094  1.00  0.00     0.131 A 
ATOM     12  C   UNL     1       2.669  -2.098  -0.669  1.00  0.00     0.005 A 
ATOM     13  C   UNL     1       1.142  -1.284  -2.300  1.00  0.00     0.044 A 
ATOM     14  F   UNL     1       1.165   1.008  -2.855  1.00  0.00    -0.206 F 
BRANCH   9  15
ATOM     15  C   UNL     1       3.082   1.619  -0.736  1.00  0.00     0.069 A 
ATOM     16  C   UNL     1       2.150   2.501  -0.122  1.00  0.00     0.130 A 
ATOM     17  C   UNL     1       2.518   3.752   0.379  1.00  0.00     0.047 A 
ATOM     18  C   UNL     1       3.842   4.151   0.305  1.00  0.00     0.008 A 
ATOM     19  C   UNL     1       4.427   2.050  -0.823  1.00  0.00     0.130 A 
ATOM     20  C   UNL     1       4.776   3.312  -0.299  1.00  0.00     0.047 A 
BRANCH  16  21
ATOM     21  O   UNL     1       0.819   2.154  -0.083  1.00  0.00    -0.493 OA
BRANCH  21  22
ATOM     22  C   UNL     1       0.363   1.806   1.228  1.00  0.00     0.226 C 
ATOM     23  C   UNL     1      -0.232   0.408   1.177  1.00  0.00     0.049 C 
ENDBRANCH  21  22
ENDBRANCH  16  21
BRANCH  19  24
ATOM     24  O   UNL     1       5.537   1.472  -1.378  1.00  0.00    -0.493 OA
BRANCH  24  25
ATOM     25  C   UNL     1       5.663   0.101  -1.722  1.00  0.00     0.226 C 
ATOM     26  C   UNL     1       6.229  -0.692  -0.551  1.00  0.00     0.049 C 
ENDBRANCH  24  25
ENDBRANCH  19  24
ENDBRANCH   9  15
ENDBRANCH   6   8
ENDBRANCH   3   6
ENDBRANCH   1   2
BRANCH   1  27
ATOM     27  C   UNL     1       3.097  -4.012   1.968  1.00  0.00     0.042 C 
BRANCH  27  28
ATOM     28  C   UNL     1       2.909  -4.322   3.444  1.00  0.00     0.118 C 
BRANCH  28  29
ATOM     29  N   UNL     1       3.841  -5.327   3.920  1.00  0.00    -0.352 N 
ATOM     30  C   UNL     1       4.869  -5.261   4.826  1.00  0.00     0.251 C 
ATOM     31  H   UNL     1       3.712  -6.218   3.521  1.00  0.00     0.163 HD
ATOM     32  O   UNL     1       5.634  -6.227   4.898  1.00  0.00    -0.269 OA
BRANCH  30  33
ATOM     33  C   UNL     1       5.106  -4.090   5.711  1.00  0.00     0.039 A 
ATOM     34  C   UNL     1       6.420  -3.846   6.137  1.00  0.00     0.014 A 
ATOM     35  C   UNL     1       4.078  -3.292   6.219  1.00  0.00     0.014 A 
ATOM     36  C   UNL     1       6.697  -2.816   7.043  1.00  0.00     0.010 A 
ATOM     37  C   UNL     1       4.365  -2.205   7.052  1.00  0.00     0.010 A 
ATOM     38  C   UNL     1       5.672  -1.976   7.502  1.00  0.00    -0.014 A 
BRANCH  38  39
ATOM     39  C   UNL     1       5.955  -0.902   8.493  1.00  0.00     0.031 A 
ATOM     40  C   UNL     1       5.351  -0.955   9.874  1.00  0.00     0.074 A 
ATOM     41  C   UNL     1       6.740   0.139   8.154  1.00  0.00     0.049 A 
ATOM     42  N   UNL     1       5.503  -0.124  10.877  1.00  0.00    -0.248 NA
ATOM     43  C   UNL     1       4.437  -2.072  10.159  1.00  0.00     0.031 C 
ATOM     44  C   UNL     1       7.348   0.347   6.839  1.00  0.00     0.029 A 
ATOM     45  N   UNL     1       7.164   1.216   8.892  1.00  0.00    -0.354 N 
ATOM     46  C   UNL     1       4.688  -0.604  11.895  1.00  0.00     0.074 A 
ATOM     47  C   UNL     1       4.006  -1.769  11.374  1.00  0.00     0.031 C 
ATOM     48  C   UNL     1       8.094   1.464   6.873  1.00  0.00     0.029 A 
ATOM     49  C   UNL     1       7.997   2.062   8.201  1.00  0.00     0.049 A 
ATOM     50  H   UNL     1       6.896   1.368   9.827  1.00  0.00     0.167 HD
ATOM     51  C   UNL     1       4.531  -0.136  13.157  1.00  0.00     0.031 A 
ATOM     52  C   UNL     1       8.624   3.187   8.594  1.00  0.00     0.031 A 
ATOM     53  C   UNL     1       5.222   1.007  13.691  1.00  0.00     0.049 A 
ATOM     54  C   UNL     1       8.472   3.665  10.010  1.00  0.00     0.074 A 
ATOM     55  C   UNL     1       5.182   1.518  14.978  1.00  0.00     0.029 A 
ATOM     56  N   UNL     1       6.080   1.818  12.966  1.00  0.00    -0.354 N 
ATOM     57  N   UNL     1       7.758   3.152  10.982  1.00  0.00    -0.248 NA
ATOM     58  C   UNL     1       9.232   4.865  10.386  1.00  0.00     0.031 C 
ATOM     59  C   UNL     1       5.985   2.664  15.019  1.00  0.00     0.029 A 
ATOM     60  C   UNL     1       6.562   2.837  13.771  1.00  0.00     0.049 A 
ATOM     61  H   UNL     1       6.312   1.690  12.018  1.00  0.00     0.167 HD
ATOM     62  C   UNL     1       8.001   3.953  12.091  1.00  0.00     0.074 A 
ATOM     63  C   UNL     1       8.942   4.972  11.675  1.00  0.00     0.031 C 
ATOM     64  C   UNL     1       7.490   3.851  13.343  1.00  0.00     0.031 A 
BRANCH  51  65
ATOM     65  C   UNL     1       3.558  -0.864  14.045  1.00  0.00    -0.014 A 
ATOM     66  C   UNL     1       3.833  -2.155  14.527  1.00  0.00     0.009 A 
ATOM     67  C   UNL     1       2.352  -0.247  14.413  1.00  0.00     0.009 A 
ATOM     68  C   UNL     1       2.901  -2.829  15.319  1.00  0.00     0.001 A 
ATOM     69  C   UNL     1       1.435  -0.912  15.229  1.00  0.00     0.001 A 
ATOM     70  C   UNL     1       1.704  -2.206  15.671  1.00  0.00     0.000 A 
ENDBRANCH  51  65
BRANCH  52  71
ATOM     71  C   UNL     1       9.493   3.917   7.635  1.00  0.00    -0.014 A 
ATOM     72  C   UNL     1      10.890   3.865   7.758  1.00  0.00     0.009 A 
ATOM     73  C   UNL     1       8.929   4.656   6.583  1.00  0.00     0.009 A 
ATOM     74  C   UNL     1      11.705   4.555   6.859  1.00  0.00     0.001 A 
ATOM     75  C   UNL     1       9.748   5.324   5.670  1.00  0.00     0.001 A 
ATOM     76  C   UNL     1      11.134   5.279   5.813  1.00  0.00     0.000 A 
ENDBRANCH  52  71
BRANCH  64  77
ATOM     77  C   UNL     1       7.960   4.857  14.356  1.00  0.00    -0.014 A 
ATOM     78  C   UNL     1       7.545   6.196  14.300  1.00  0.00     0.009 A 
ATOM     79  C   UNL     1       8.820   4.452  15.389  1.00  0.00     0.009 A 
ATOM     80  C   UNL     1       8.015   7.120  15.236  1.00  0.00     0.001 A 
ATOM     81  C   UNL     1       9.266   5.372  16.339  1.00  0.00     0.001 A 
ATOM     82  C   UNL     1       8.873   6.707  16.256  1.00  0.00     0.000 A 
ENDBRANCH  64  77
ENDBRANCH  38  39
ENDBRANCH  30  33
ENDBRANCH  28  29
ENDBRANCH  27  28
ENDBRANCH   1  27
TORSDOF 16
