REMARK SMILES C[C@@H]1[C@H](C(=O)NCCCNC(=O)c2ccc(-c3c4nc(c(-c5ccccc5)c5ccc([nH]5)c(-c5ccccc5)c5nc(c(-c6ccccc6)c6ccc3[nH]6)C=C5)C=C4)cc2)CCN1C(=O)N1CCc2ccccc21
REMARK SMILES IDX 8 1 7 2 6 3 4 4 5 5 3 7 1 8 2 9 63 10 61 11 62 12 64 13
REMARK SMILES IDX 65 14 66 15 67 16 74 17 68 18 69 19 73 20 70 21 72 22 71 23
REMARK SMILES IDX 9 24 10 25 11 26 12 28 13 29 14 30 60 31 15 32 59 33 16 34
REMARK SMILES IDX 17 35 18 36 53 37 19 38 58 39 52 40 54 41 20 42 57 43 51 44
REMARK SMILES IDX 50 45 21 47 43 48 28 49 42 50 29 51 32 52 41 53 55 54 30 55
REMARK SMILES IDX 31 56 40 58 56 59 33 60 22 61 23 62 27 63 24 64 26 65 25 66
REMARK SMILES IDX 44 67 45 68 49 69 46 70 48 71 47 72 34 73 35 74 39 75 36 76
REMARK SMILES IDX 38 77 37 78
REMARK H PARENT 6 6 10 27 54 46 32 57
REMARK Flexibility Score: inf
ROOT
ATOM      1  C   UNL     1       2.561   1.215   2.658  1.00  0.00     0.042 C 
ENDROOT
BRANCH   1   2
ATOM      2  C   UNL     1       1.173   1.590   2.139  1.00  0.00     0.117 C 
BRANCH   2   3
ATOM      3  N   UNL     1       1.224   2.236   0.834  1.00  0.00    -0.356 N 
ATOM      4  C   UNL     1       0.751   1.928  -0.399  1.00  0.00     0.225 C 
ATOM      5  O   UNL     1       1.103   2.690  -1.308  1.00  0.00    -0.275 OA
ATOM      6  H   UNL     1       1.714   3.090   0.851  1.00  0.00     0.163 HD
BRANCH   4   7
ATOM      7  C   UNL     1      -0.123   0.732  -0.740  1.00  0.00     0.102 C 
ATOM      8  C   UNL     1       1.760  -0.876  -0.022  1.00  0.00     0.032 C 
ATOM      9  C   UNL     1       0.571  -0.623  -0.937  1.00  0.00     0.096 C 
ATOM     10  N   UNL     1      -0.496  -1.608  -0.724  1.00  0.00    -0.321 N 
ATOM     11  C   UNL     1      -1.327   0.452   0.145  1.00  0.00     0.037 C 
ATOM     12  C   UNL     1      -1.706  -0.969  -0.229  1.00  0.00     0.122 C 
BRANCH  10  13
ATOM     13  C   UNL     1      -0.642  -2.713  -1.575  1.00  0.00     0.324 C 
ATOM     14  O   UNL     1      -1.348  -2.692  -2.579  1.00  0.00    -0.248 OA
BRANCH  13  15
ATOM     15  N   UNL     1      -0.110  -3.887  -1.043  1.00  0.00    -0.294 N 
ATOM     16  C   UNL     1       1.328  -4.173  -1.079  1.00  0.00     0.132 C 
ATOM     17  C   UNL     1      -0.587  -4.293   0.216  1.00  0.00     0.049 A 
ATOM     18  C   UNL     1       1.775  -4.446   0.374  1.00  0.00     0.060 C 
ATOM     19  C   UNL     1       0.469  -4.464   1.101  1.00  0.00    -0.022 A 
ATOM     20  C   UNL     1      -1.912  -4.300   0.618  1.00  0.00     0.027 A 
ATOM     21  C   UNL     1       0.220  -4.487   2.462  1.00  0.00     0.006 A 
ATOM     22  C   UNL     1      -2.173  -4.375   1.982  1.00  0.00     0.002 A 
ATOM     23  C   UNL     1      -1.111  -4.422   2.899  1.00  0.00     0.000 A 
ENDBRANCH  13  15
ENDBRANCH  10  13
ENDBRANCH   4   7
ENDBRANCH   2   3
ENDBRANCH   1   2
BRANCH   1  24
ATOM     24  C   UNL     1       3.444   2.405   3.010  1.00  0.00     0.118 C 
BRANCH  24  25
ATOM     25  N   UNL     1       3.133   2.956   4.319  1.00  0.00    -0.352 N 
ATOM     26  C   UNL     1       3.835   2.892   5.500  1.00  0.00     0.251 C 
ATOM     27  H   UNL     1       2.285   3.453   4.368  1.00  0.00     0.163 HD
ATOM     28  O   UNL     1       3.290   3.240   6.543  1.00  0.00    -0.269 OA
BRANCH  26  29
ATOM     29  C   UNL     1       5.231   2.392   5.538  1.00  0.00     0.039 A 
ATOM     30  C   UNL     1       5.630   1.593   6.615  1.00  0.00     0.014 A 
ATOM     31  C   UNL     1       6.164   2.741   4.559  1.00  0.00     0.014 A 
ATOM     32  C   UNL     1       6.937   1.099   6.676  1.00  0.00     0.010 A 
ATOM     33  C   UNL     1       7.439   2.177   4.573  1.00  0.00     0.010 A 
ATOM     34  C   UNL     1       7.845   1.359   5.637  1.00  0.00    -0.014 A 
BRANCH  34  35
ATOM     35  C   UNL     1       9.224   0.801   5.655  1.00  0.00     0.031 A 
ATOM     36  C   UNL     1      10.416   1.722   5.704  1.00  0.00     0.074 A 
ATOM     37  C   UNL     1       9.413  -0.530   5.570  1.00  0.00     0.049 A 
ATOM     38  N   UNL     1      11.691   1.426   5.660  1.00  0.00    -0.248 NA
ATOM     39  C   UNL     1      10.138   3.165   5.788  1.00  0.00     0.031 C 
ATOM     40  C   UNL     1       8.351  -1.535   5.484  1.00  0.00     0.029 A 
ATOM     41  N   UNL     1      10.570  -1.269   5.536  1.00  0.00    -0.354 N 
ATOM     42  C   UNL     1      12.363   2.643   5.690  1.00  0.00     0.074 A 
ATOM     43  C   UNL     1      11.356   3.681   5.705  1.00  0.00     0.031 C 
ATOM     44  C   UNL     1       8.905  -2.757   5.439  1.00  0.00     0.029 A 
ATOM     45  C   UNL     1      10.358  -2.624   5.448  1.00  0.00     0.049 A 
ATOM     46  H   UNL     1      11.468  -0.866   5.572  1.00  0.00     0.167 HD
ATOM     47  C   UNL     1      13.697   2.879   5.721  1.00  0.00     0.031 A 
ATOM     48  C   UNL     1      11.232  -3.645   5.378  1.00  0.00     0.031 A 
ATOM     49  C   UNL     1      14.703   1.851   5.723  1.00  0.00     0.049 A 
ATOM     50  C   UNL     1      12.708  -3.357   5.400  1.00  0.00     0.074 A 
ATOM     51  C   UNL     1      16.078   1.990   5.808  1.00  0.00     0.029 A 
ATOM     52  N   UNL     1      14.443   0.493   5.636  1.00  0.00    -0.354 N 
ATOM     53  N   UNL     1      13.323  -2.203   5.486  1.00  0.00    -0.248 NA
ATOM     54  C   UNL     1      13.608  -4.516   5.325  1.00  0.00     0.031 C 
ATOM     55  C   UNL     1      16.652   0.718   5.725  1.00  0.00     0.029 A 
ATOM     56  C   UNL     1      15.633  -0.216   5.644  1.00  0.00     0.049 A 
ATOM     57  H   UNL     1      13.546   0.091   5.578  1.00  0.00     0.167 HD
ATOM     58  C   UNL     1      14.680  -2.499   5.505  1.00  0.00     0.074 A 
ATOM     59  C   UNL     1      14.797  -3.941   5.436  1.00  0.00     0.031 C 
ATOM     60  C   UNL     1      15.735  -1.651   5.576  1.00  0.00     0.031 A 
BRANCH  47  61
ATOM     61  C   UNL     1      14.145   4.314   5.753  1.00  0.00    -0.014 A 
ATOM     62  C   UNL     1      13.952   5.112   6.892  1.00  0.00     0.009 A 
ATOM     63  C   UNL     1      14.799   4.867   4.641  1.00  0.00     0.009 A 
ATOM     64  C   UNL     1      14.369   6.445   6.903  1.00  0.00     0.001 A 
ATOM     65  C   UNL     1      15.242   6.191   4.665  1.00  0.00     0.001 A 
ATOM     66  C   UNL     1      15.018   6.982   5.791  1.00  0.00     0.000 A 
ENDBRANCH  47  61
BRANCH  48  67
ATOM     67  C   UNL     1      10.738  -5.045   5.297  1.00  0.00    -0.014 A 
ATOM     68  C   UNL     1      10.887  -5.914   6.389  1.00  0.00     0.009 A 
ATOM     69  C   UNL     1      10.124  -5.521   4.129  1.00  0.00     0.009 A 
ATOM     70  C   UNL     1      10.455  -7.239   6.303  1.00  0.00     0.001 A 
ATOM     71  C   UNL     1       9.667  -6.839   4.056  1.00  0.00     0.001 A 
ATOM     72  C   UNL     1       9.841  -7.699   5.139  1.00  0.00     0.000 A 
ENDBRANCH  48  67
BRANCH  60  73
ATOM     73  C   UNL     1      17.107  -2.261   5.620  1.00  0.00    -0.014 A 
ATOM     74  C   UNL     1      17.682  -2.847   4.481  1.00  0.00     0.009 A 
ATOM     75  C   UNL     1      17.849  -2.213   6.810  1.00  0.00     0.009 A 
ATOM     76  C   UNL     1      18.962  -3.401   4.544  1.00  0.00     0.001 A 
ATOM     77  C   UNL     1      19.140  -2.743   6.862  1.00  0.00     0.001 A 
ATOM     78  C   UNL     1      19.691  -3.344   5.732  1.00  0.00     0.000 A 
ENDBRANCH  60  73
ENDBRANCH  34  35
ENDBRANCH  26  29
ENDBRANCH  24  25
ENDBRANCH   1  24
TORSDOF 12
