REMARK SMILES Cc1nn2c(nnc3c(=O)n(CCCC(=O)NCCCNC(=O)c4ccc(-c5c6nc(c(-c7ccccc7)c7ccc([nH]7)c(-c7ccccc7)c7nc(c(-c8ccccc8)c8ccc5[nH]8)C=C7)C=C6)cc4)ccc32)c1-c1ccc(F)cc1
REMARK SMILES IDX 18 1 17 2 15 3 16 4 14 6 13 7 12 8 11 9 1 10 2 11 3 12 75 13
REMARK SMILES IDX 4 14 5 15 74 16 6 17 8 18 73 19 7 20 9 21 72 22 10 23 76 24
REMARK SMILES IDX 77 25 82 26 78 27 81 28 79 29 80 30 19 31 20 32 21 33 22 34
REMARK SMILES IDX 23 36 24 37 25 38 71 39 26 40 70 41 27 42 28 43 29 44 64 45
REMARK SMILES IDX 30 46 69 47 63 48 65 49 31 50 68 51 62 52 61 53 32 55 54 56
REMARK SMILES IDX 39 57 53 58 40 59 43 60 52 61 66 62 41 63 42 64 51 66 67 67
REMARK SMILES IDX 44 68 33 69 34 70 38 71 35 72 37 73 36 74 55 75 56 76 60 77
REMARK SMILES IDX 57 78 59 79 58 80 45 81 46 82 50 83 47 84 49 85 48 86
REMARK H PARENT 17 5 21 35 65 54 43 65
REMARK Flexibility Score: inf
ROOT
ATOM      1  C   UNL     1      -0.550   0.778   9.368  1.00  0.00     0.117 C 
ENDROOT
BRANCH   1   2
ATOM      2  N   UNL     1      -1.378   0.478  10.515  1.00  0.00    -0.356 N 
ATOM      3  C   UNL     1      -2.721   0.359  10.661  1.00  0.00     0.220 C 
ATOM      4  O   UNL     1      -3.115   0.083  11.800  1.00  0.00    -0.275 OA
ATOM      5  H   UNL     1      -0.872   0.332  11.347  1.00  0.00     0.163 HD
BRANCH   3   6
ATOM      6  C   UNL     1      -3.716   0.415   9.515  1.00  0.00     0.102 C 
BRANCH   6   7
ATOM      7  C   UNL     1      -4.016   1.674   8.689  1.00  0.00     0.032 C 
BRANCH   7   8
ATOM      8  C   UNL     1      -3.020   2.411   7.782  1.00  0.00     0.126 C 
BRANCH   8   9
ATOM      9  N   UNL     1      -2.403   1.826   6.571  1.00  0.00    -0.313 N 
ATOM     10  C   UNL     1       1.092   0.294  -0.021  1.00  0.00     0.069 C 
ATOM     11  C   UNL     1       0.606  -0.016   1.347  1.00  0.00     0.070 A 
ATOM     12  N   UNL     1       0.256   0.977   2.179  1.00  0.00    -0.170 NA
ATOM     13  C   UNL     1       0.408  -1.291   1.929  1.00  0.00     0.051 A 
ATOM     14  N   UNL     1      -0.270   0.349   3.267  1.00  0.00    -0.210 N 
ATOM     15  C   UNL     1      -0.144  -1.030   3.161  1.00  0.00     0.186 A 
ATOM     16  C   UNL     1      -0.946   0.886   4.364  1.00  0.00     0.102 A 
ATOM     17  N   UNL     1      -0.588  -1.848   4.156  1.00  0.00    -0.129 NA
ATOM     18  C   UNL     1      -1.467  -0.012   5.217  1.00  0.00     0.177 A 
ATOM     19  C   UNL     1      -1.128   2.300   4.599  1.00  0.00     0.049 A 
ATOM     20  N   UNL     1      -1.252  -1.372   5.109  1.00  0.00    -0.141 NA
ATOM     21  C   UNL     1      -2.359   0.455   6.321  1.00  0.00     0.280 A 
ATOM     22  C   UNL     1      -1.796   2.718   5.684  1.00  0.00     0.091 A 
ATOM     23  O   UNL     1      -2.981  -0.391   6.951  1.00  0.00    -0.267 OA
BRANCH  13  24
ATOM     24  C   UNL     1       0.618  -2.639   1.443  1.00  0.00    -0.012 A 
ATOM     25  C   UNL     1       1.903  -3.084   1.115  1.00  0.00     0.012 A 
ATOM     26  C   UNL     1      -0.465  -3.531   1.372  1.00  0.00     0.012 A 
ATOM     27  C   UNL     1       2.103  -4.414   0.735  1.00  0.00     0.040 A 
ATOM     28  C   UNL     1      -0.263  -4.857   0.991  1.00  0.00     0.040 A 
ATOM     29  C   UNL     1       1.020  -5.287   0.680  1.00  0.00     0.123 A 
ATOM     30  F   UNL     1       1.220  -6.564   0.330  1.00  0.00    -0.207 F 
ENDBRANCH  13  24
ENDBRANCH   8   9
ENDBRANCH   7   8
ENDBRANCH   6   7
ENDBRANCH   3   6
ENDBRANCH   1   2
BRANCH   1  31
ATOM     31  C   UNL     1      -0.071   2.234   9.395  1.00  0.00     0.042 C 
BRANCH  31  32
ATOM     32  C   UNL     1       1.279   2.393  10.060  1.00  0.00     0.118 C 
BRANCH  32  33
ATOM     33  N   UNL     1       2.374   1.971   9.191  1.00  0.00    -0.352 N 
ATOM     34  C   UNL     1       3.728   1.994   9.479  1.00  0.00     0.251 C 
ATOM     35  H   UNL     1       2.122   1.633   8.301  1.00  0.00     0.163 HD
ATOM     36  O   UNL     1       4.568   1.951   8.606  1.00  0.00    -0.269 OA
BRANCH  34  37
ATOM     37  C   UNL     1       4.109   2.085  10.899  1.00  0.00     0.039 A 
ATOM     38  C   UNL     1       5.053   3.019  11.330  1.00  0.00     0.014 A 
ATOM     39  C   UNL     1       3.430   1.270  11.802  1.00  0.00     0.014 A 
ATOM     40  C   UNL     1       5.245   3.190  12.697  1.00  0.00     0.010 A 
ATOM     41  C   UNL     1       3.516   1.538  13.144  1.00  0.00     0.010 A 
ATOM     42  C   UNL     1       4.455   2.461  13.598  1.00  0.00    -0.014 A 
BRANCH  42  43
ATOM     43  C   UNL     1       4.551   2.697  15.032  1.00  0.00     0.031 A 
ATOM     44  C   UNL     1       4.257   4.082  15.495  1.00  0.00     0.074 A 
ATOM     45  C   UNL     1       4.671   1.688  15.918  1.00  0.00     0.049 A 
ATOM     46  N   UNL     1       5.059   4.910  16.079  1.00  0.00    -0.248 NA
ATOM     47  C   UNL     1       2.922   4.637  15.216  1.00  0.00     0.031 C 
ATOM     48  C   UNL     1       4.640   0.241  15.665  1.00  0.00     0.029 A 
ATOM     49  N   UNL     1       4.730   1.756  17.273  1.00  0.00    -0.354 N 
ATOM     50  C   UNL     1       4.301   6.037  16.383  1.00  0.00     0.074 A 
ATOM     51  C   UNL     1       3.031   5.868  15.721  1.00  0.00     0.031 C 
ATOM     52  C   UNL     1       4.446  -0.417  16.829  1.00  0.00     0.029 A 
ATOM     53  C   UNL     1       4.535   0.541  17.913  1.00  0.00     0.049 A 
ATOM     54  H   UNL     1       4.896   2.596  17.759  1.00  0.00     0.167 HD
ATOM     55  C   UNL     1       4.689   6.947  17.319  1.00  0.00     0.031 A 
ATOM     56  C   UNL     1       4.437   0.349  19.248  1.00  0.00     0.031 A 
ATOM     57  C   UNL     1       6.059   6.772  17.714  1.00  0.00     0.049 A 
ATOM     58  C   UNL     1       5.069   1.518  19.897  1.00  0.00     0.074 A 
ATOM     59  C   UNL     1       7.281   6.886  17.086  1.00  0.00     0.029 A 
ATOM     60  N   UNL     1       6.276   6.033  18.851  1.00  0.00    -0.354 N 
ATOM     61  N   UNL     1       6.338   1.794  19.807  1.00  0.00    -0.248 NA
ATOM     62  C   UNL     1       4.224   2.608  20.355  1.00  0.00     0.031 C 
ATOM     63  C   UNL     1       8.078   5.838  17.636  1.00  0.00     0.029 A 
ATOM     64  C   UNL     1       7.315   5.174  18.599  1.00  0.00     0.049 A 
ATOM     65  H   UNL     1       5.776   6.107  19.695  1.00  0.00     0.167 HD
ATOM     66  C   UNL     1       6.399   3.177  19.786  1.00  0.00     0.074 A 
ATOM     67  C   UNL     1       5.095   3.618  20.271  1.00  0.00     0.031 C 
ATOM     68  C   UNL     1       7.396   3.824  19.117  1.00  0.00     0.031 A 
BRANCH  55  69
ATOM     69  C   UNL     1       3.727   7.764  18.136  1.00  0.00    -0.014 A 
ATOM     70  C   UNL     1       4.198   8.856  18.885  1.00  0.00     0.009 A 
ATOM     71  C   UNL     1       2.409   7.338  18.391  1.00  0.00     0.009 A 
ATOM     72  C   UNL     1       3.390   9.480  19.846  1.00  0.00     0.001 A 
ATOM     73  C   UNL     1       1.588   7.981  19.321  1.00  0.00     0.001 A 
ATOM     74  C   UNL     1       2.086   9.045  20.061  1.00  0.00     0.000 A 
ENDBRANCH  55  69
BRANCH  56  75
ATOM     75  C   UNL     1       3.632  -0.631  20.002  1.00  0.00    -0.014 A 
ATOM     76  C   UNL     1       3.873  -0.827  21.372  1.00  0.00     0.009 A 
ATOM     77  C   UNL     1       2.439  -1.145  19.463  1.00  0.00     0.009 A 
ATOM     78  C   UNL     1       2.917  -1.442  22.189  1.00  0.00     0.001 A 
ATOM     79  C   UNL     1       1.489  -1.768  20.279  1.00  0.00     0.001 A 
ATOM     80  C   UNL     1       1.718  -1.893  21.646  1.00  0.00     0.000 A 
ENDBRANCH  56  75
BRANCH  68  81
ATOM     81  C   UNL     1       8.563   2.994  18.636  1.00  0.00    -0.014 A 
ATOM     82  C   UNL     1       8.445   2.036  17.614  1.00  0.00     0.009 A 
ATOM     83  C   UNL     1       9.843   3.304  19.114  1.00  0.00     0.009 A 
ATOM     84  C   UNL     1       9.577   1.400  17.093  1.00  0.00     0.001 A 
ATOM     85  C   UNL     1      10.975   2.682  18.582  1.00  0.00     0.001 A 
ATOM     86  C   UNL     1      10.843   1.730  17.572  1.00  0.00     0.000 A 
ENDBRANCH  68  81
ENDBRANCH  42  43
ENDBRANCH  34  37
ENDBRANCH  32  33
ENDBRANCH  31  32
ENDBRANCH   1  31
TORSDOF 14
