REMARK SMILES C[C@@H]1CN(C(=O)Nc2ccc(O)c(C(=O)NCCCNC(=O)c3ccc(-c4c5nc(c(-c6ccccc6)c6ccc([nH]6)c(-c6ccccc6)c6nc(c(-c7ccccc7)c7ccc4[nH]7)C=C6)C=C5)cc3)c2)C[C@@H]1C
REMARK SMILES IDX 18 1 17 2 16 3 14 4 15 5 13 7 8 8 9 9 71 10 10 11 11 12 7 13
REMARK SMILES IDX 5 14 6 15 4 17 1 18 2 19 3 20 73 21 72 22 74 23 12 24 19 26
REMARK SMILES IDX 20 27 21 28 22 30 23 31 24 32 70 33 25 34 69 35 26 36 27 37
REMARK SMILES IDX 28 38 63 39 29 40 68 41 62 42 64 43 30 44 67 45 61 46 60 47
REMARK SMILES IDX 31 49 53 50 38 51 52 52 39 53 42 54 51 55 65 56 40 57 41 58
REMARK SMILES IDX 50 60 66 61 43 62 32 63 33 64 37 65 34 66 36 67 35 68 54 69
REMARK SMILES IDX 55 70 59 71 56 72 58 73 57 74 44 75 45 76 49 77 46 78 48 79
REMARK SMILES IDX 47 80
REMARK H PARENT 16 6 7 16 12 25 20 29 64 48 42 59
REMARK Flexibility Score: inf
ROOT
ATOM      1  C   UNL     1       2.618   7.438   1.408  1.00  0.00     0.042 C 
ENDROOT
BRANCH   1   2
ATOM      2  C   UNL     1       3.352   6.122   1.153  1.00  0.00     0.118 C 
BRANCH   2   3
ATOM      3  N   UNL     1       4.240   5.789   2.249  1.00  0.00    -0.352 N 
ATOM      4  C   UNL     1       4.117   4.934   3.312  1.00  0.00     0.255 C 
ATOM      5  O   UNL     1       5.088   4.856   4.071  1.00  0.00    -0.269 OA
ATOM      6  H   UNL     1       5.098   6.272   2.226  1.00  0.00     0.163 HD
BRANCH   4   7
ATOM      7  C   UNL     1       2.957   4.034   3.570  1.00  0.00     0.083 A 
ATOM      8  C   UNL     1       2.332   1.813   4.370  1.00  0.00     0.043 A 
ATOM      9  C   UNL     1       0.988   2.165   4.321  1.00  0.00     0.030 A 
ATOM     10  C   UNL     1       3.307   2.764   4.069  1.00  0.00     0.044 A 
ATOM     11  C   UNL     1       0.618   3.416   3.838  1.00  0.00     0.049 A 
ATOM     12  C   UNL     1       1.596   4.336   3.443  1.00  0.00     0.128 A 
BRANCH   8  13
ATOM     13  N   UNL     1       2.744   0.530   4.738  1.00  0.00    -0.308 N 
ATOM     14  C   UNL     1       2.155  -0.683   4.546  1.00  0.00     0.321 C 
ATOM     15  O   UNL     1       2.423  -1.583   5.346  1.00  0.00    -0.248 OA
ATOM     16  H   UNL     1       3.604   0.497   5.217  1.00  0.00     0.171 HD
BRANCH  14  17
ATOM     17  N   UNL     1       1.421  -0.920   3.407  1.00  0.00    -0.324 N 
ATOM     18  C   UNL     1       0.916  -0.505  -0.245  1.00  0.00     0.010 C 
ATOM     19  C   UNL     1       0.601  -0.953   1.172  1.00  0.00     0.010 C 
ATOM     20  C   UNL     1       1.284  -0.078   2.222  1.00  0.00     0.125 C 
ATOM     21  C   UNL     1       1.030  -2.371   1.572  1.00  0.00     0.010 C 
ATOM     22  C   UNL     1       0.984  -2.278   3.104  1.00  0.00     0.125 C 
ATOM     23  C   UNL     1       2.424  -2.763   1.079  1.00  0.00     0.010 C 
ENDBRANCH  14  17
ENDBRANCH   8  13
BRANCH  12  24
ATOM     24  O   UNL     1       1.152   5.533   2.975  1.00  0.00    -0.507 OA
ATOM     25  H   UNL     1       0.232   5.697   2.905  1.00  0.00     0.293 HD
ENDBRANCH  12  24
ENDBRANCH   4   7
ENDBRANCH   2   3
ENDBRANCH   1   2
BRANCH   1  26
ATOM     26  C   UNL     1       3.483   8.686   1.300  1.00  0.00     0.118 C 
BRANCH  26  27
ATOM     27  N   UNL     1       3.782   9.040  -0.076  1.00  0.00    -0.352 N 
ATOM     28  C   UNL     1       3.470  10.164  -0.798  1.00  0.00     0.251 C 
ATOM     29  H   UNL     1       4.294   8.361  -0.573  1.00  0.00     0.163 HD
ATOM     30  O   UNL     1       3.657  10.157  -2.012  1.00  0.00    -0.269 OA
BRANCH  28  31
ATOM     31  C   UNL     1       2.900  11.379  -0.159  1.00  0.00     0.039 A 
ATOM     32  C   UNL     1       1.976  12.134  -0.892  1.00  0.00     0.014 A 
ATOM     33  C   UNL     1       3.307  11.832   1.099  1.00  0.00     0.014 A 
ATOM     34  C   UNL     1       1.441  13.308  -0.355  1.00  0.00     0.010 A 
ATOM     35  C   UNL     1       2.717  12.965   1.667  1.00  0.00     0.010 A 
ATOM     36  C   UNL     1       1.790  13.724   0.939  1.00  0.00    -0.014 A 
BRANCH  36  37
ATOM     37  C   UNL     1       1.196  14.956   1.520  1.00  0.00     0.031 A 
ATOM     38  C   UNL     1       2.048  16.165   1.800  1.00  0.00     0.074 A 
ATOM     39  C   UNL     1      -0.119  14.985   1.811  1.00  0.00     0.049 A 
ATOM     40  N   UNL     1       1.690  17.337   2.263  1.00  0.00    -0.248 NA
ATOM     41  C   UNL     1       3.491  16.037   1.545  1.00  0.00     0.031 C 
ATOM     42  C   UNL     1      -1.050  13.869   1.633  1.00  0.00     0.029 A 
ATOM     43  N   UNL     1      -0.903  15.996   2.310  1.00  0.00    -0.354 N 
ATOM     44  C   UNL     1       2.861  18.078   2.365  1.00  0.00     0.074 A 
ATOM     45  C   UNL     1       3.945  17.211   1.958  1.00  0.00     0.031 C 
ATOM     46  C   UNL     1      -2.285  14.268   1.980  1.00  0.00     0.029 A 
ATOM     47  C   UNL     1      -2.228  15.656   2.428  1.00  0.00     0.049 A 
ATOM     48  H   UNL     1      -0.548  16.880   2.559  1.00  0.00     0.167 HD
ATOM     49  C   UNL     1       3.020  19.369   2.743  1.00  0.00     0.031 A 
ATOM     50  C   UNL     1      -3.284  16.382   2.840  1.00  0.00     0.031 A 
ATOM     51  C   UNL     1       1.946  20.241   3.137  1.00  0.00     0.049 A 
ATOM     52  C   UNL     1      -3.084  17.816   3.240  1.00  0.00     0.074 A 
ATOM     53  C   UNL     1       2.002  21.582   3.480  1.00  0.00     0.029 A 
ATOM     54  N   UNL     1       0.618  19.858   3.242  1.00  0.00    -0.354 N 
ATOM     55  N   UNL     1      -1.980  18.521   3.258  1.00  0.00    -0.248 NA
ATOM     56  C   UNL     1      -4.282  18.556   3.663  1.00  0.00     0.031 C 
ATOM     57  C   UNL     1       0.713  21.999   3.831  1.00  0.00     0.029 A 
ATOM     58  C   UNL     1      -0.151  20.929   3.665  1.00  0.00     0.049 A 
ATOM     59  H   UNL     1       0.273  18.957   3.045  1.00  0.00     0.167 HD
ATOM     60  C   UNL     1      -2.352  19.792   3.677  1.00  0.00     0.074 A 
ATOM     61  C   UNL     1      -3.786  19.765   3.881  1.00  0.00     0.031 C 
ATOM     62  C   UNL     1      -1.574  20.884   3.876  1.00  0.00     0.031 A 
BRANCH  49  63
ATOM     63  C   UNL     1       4.420  19.918   2.752  1.00  0.00    -0.014 A 
ATOM     64  C   UNL     1       5.099  20.193   1.554  1.00  0.00     0.009 A 
ATOM     65  C   UNL     1       5.056  20.194   3.972  1.00  0.00     0.009 A 
ATOM     66  C   UNL     1       6.399  20.700   1.578  1.00  0.00     0.001 A 
ATOM     67  C   UNL     1       6.348  20.724   3.993  1.00  0.00     0.001 A 
ATOM     68  C   UNL     1       7.021  20.969   2.797  1.00  0.00     0.000 A 
ENDBRANCH  49  63
BRANCH  50  69
ATOM     69  C   UNL     1      -4.638  15.773   2.860  1.00  0.00    -0.014 A 
ATOM     70  C   UNL     1      -5.593  16.135   1.899  1.00  0.00     0.009 A 
ATOM     71  C   UNL     1      -4.979  14.825   3.837  1.00  0.00     0.009 A 
ATOM     72  C   UNL     1      -6.872  15.575   1.927  1.00  0.00     0.001 A 
ATOM     73  C   UNL     1      -6.251  14.249   3.848  1.00  0.00     0.001 A 
ATOM     74  C   UNL     1      -7.199  14.630   2.899  1.00  0.00     0.000 A 
ENDBRANCH  50  69
BRANCH  62  75
ATOM     75  C   UNL     1      -2.265  22.139   4.324  1.00  0.00    -0.014 A 
ATOM     76  C   UNL     1      -2.738  22.274   5.639  1.00  0.00     0.009 A 
ATOM     77  C   UNL     1      -2.428  23.205   3.427  1.00  0.00     0.009 A 
ATOM     78  C   UNL     1      -3.393  23.441   6.036  1.00  0.00     0.001 A 
ATOM     79  C   UNL     1      -3.062  24.380   3.834  1.00  0.00     0.001 A 
ATOM     80  C   UNL     1      -3.552  24.493   5.134  1.00  0.00     0.000 A 
ENDBRANCH  62  75
ENDBRANCH  36  37
ENDBRANCH  28  31
ENDBRANCH  26  27
ENDBRANCH   1  26
TORSDOF 13
