REMARK SMILES C[C@H]1CC[C@](C#N)([C@H](O)C(=O)NCCCNC(=O)c2ccc(-c3c4nc(c(-c5ccccc5)c5ccc([nH]5)c(-c5ccccc5)c5nc(c(-c6ccccc6)c6ccc3[nH]6)C=C5)C=C4)cc2)C1
REMARK SMILES IDX 14 1 13 2 12 3 10 4 11 5 8 7 5 8 1 9 2 10 3 11 67 12 4 13
REMARK SMILES IDX 6 14 7 15 9 16 15 18 16 19 17 20 18 22 19 23 20 24 66 25
REMARK SMILES IDX 21 26 65 27 22 28 23 29 24 30 59 31 25 32 64 33 58 34 60 35
REMARK SMILES IDX 26 36 63 37 57 38 56 39 27 41 49 42 34 43 48 44 35 45 38 46
REMARK SMILES IDX 47 47 61 48 36 49 37 50 46 52 62 53 39 54 28 55 29 56 33 57
REMARK SMILES IDX 30 58 32 59 31 60 50 61 51 62 55 63 52 64 54 65 53 66 40 67
REMARK SMILES IDX 41 68 45 69 42 70 44 71 43 72
REMARK H PARENT 12 6 9 17 16 21 60 40 38 51
REMARK Flexibility Score: inf
ROOT
ATOM      1  C   UNL     1       2.983   4.416  -6.266  1.00  0.00     0.042 C 
ENDROOT
BRANCH   1   2
ATOM      2  C   UNL     1       1.933   3.727  -5.434  1.00  0.00     0.117 C 
BRANCH   2   3
ATOM      3  N   UNL     1       0.747   3.326  -6.158  1.00  0.00    -0.354 N 
ATOM      4  C   UNL     1       0.051   2.156  -6.076  1.00  0.00     0.250 C 
ATOM      5  O   UNL     1      -0.956   2.038  -6.777  1.00  0.00    -0.272 OA
ATOM      6  H   UNL     1       0.395   3.987  -6.797  1.00  0.00     0.163 HD
BRANCH   4   7
ATOM      7  C   UNL     1       0.526   0.993  -5.168  1.00  0.00     0.223 C 
BRANCH   7   8
ATOM      8  C   UNL     1       0.222   1.179  -3.654  1.00  0.00     0.092 C 
ATOM      9  C   UNL     1      -0.094   2.517  -0.678  1.00  0.00     0.008 C 
ATOM     10  C   UNL     1       1.067   1.896  -1.447  1.00  0.00    -0.013 C 
ATOM     11  C   UNL     1       1.064   0.370  -1.450  1.00  0.00     0.005 C 
ATOM     12  C   UNL     1       1.060   2.245  -2.930  1.00  0.00     0.029 C 
ATOM     13  C   UNL     1       0.592  -0.086  -2.842  1.00  0.00     0.026 C 
BRANCH   8  14
ATOM     14  C   UNL     1      -1.224   1.468  -3.509  1.00  0.00     0.072 C 
ATOM     15  N   UNL     1      -2.352   1.703  -3.392  1.00  0.00    -0.198 NA
ENDBRANCH   8  14
ENDBRANCH   7   8
BRANCH   7  16
ATOM     16  O   UNL     1       1.899   0.673  -5.411  1.00  0.00    -0.382 OA
ATOM     17  H   UNL     1       2.455   1.427  -5.159  1.00  0.00     0.211 HD
ENDBRANCH   7  16
ENDBRANCH   4   7
ENDBRANCH   2   3
ENDBRANCH   1   2
BRANCH   1  18
ATOM     18  C   UNL     1       2.538   5.764  -6.789  1.00  0.00     0.118 C 
BRANCH  18  19
ATOM     19  N   UNL     1       2.246   6.729  -5.731  1.00  0.00    -0.352 N 
ATOM     20  C   UNL     1       2.893   7.891  -5.383  1.00  0.00     0.251 C 
ATOM     21  H   UNL     1       1.459   6.512  -5.180  1.00  0.00     0.163 HD
ATOM     22  O   UNL     1       2.587   8.482  -4.353  1.00  0.00    -0.269 OA
BRANCH  20  23
ATOM     23  C   UNL     1       3.987   8.401  -6.234  1.00  0.00     0.039 A 
ATOM     24  C   UNL     1       5.141   8.910  -5.637  1.00  0.00     0.014 A 
ATOM     25  C   UNL     1       3.891   8.327  -7.623  1.00  0.00     0.014 A 
ATOM     26  C   UNL     1       6.233   9.249  -6.437  1.00  0.00     0.010 A 
ATOM     27  C   UNL     1       5.023   8.514  -8.399  1.00  0.00     0.010 A 
ATOM     28  C   UNL     1       6.203   8.997  -7.818  1.00  0.00    -0.014 A 
BRANCH  28  29
ATOM     29  C   UNL     1       7.381   9.248  -8.683  1.00  0.00     0.031 A 
ATOM     30  C   UNL     1       7.268  10.197  -9.846  1.00  0.00     0.074 A 
ATOM     31  C   UNL     1       8.527   8.572  -8.466  1.00  0.00     0.049 A 
ATOM     32  N   UNL     1       8.163  10.502 -10.751  1.00  0.00    -0.248 NA
ATOM     33  C   UNL     1       5.970  10.868 -10.041  1.00  0.00     0.031 C 
ATOM     34  C   UNL     1       8.746   7.585  -7.405  1.00  0.00     0.029 A 
ATOM     35  N   UNL     1       9.727   8.611  -9.132  1.00  0.00    -0.354 N 
ATOM     36  C   UNL     1       7.530  11.378 -11.625  1.00  0.00     0.074 A 
ATOM     37  C   UNL     1       6.161  11.505 -11.186  1.00  0.00     0.031 C 
ATOM     38  C   UNL     1      10.013   7.145  -7.467  1.00  0.00     0.029 A 
ATOM     39  C   UNL     1      10.678   7.772  -8.603  1.00  0.00     0.049 A 
ATOM     40  H   UNL     1       9.890   9.185  -9.914  1.00  0.00     0.167 HD
ATOM     41  C   UNL     1       8.050  12.037 -12.686  1.00  0.00     0.031 A 
ATOM     42  C   UNL     1      11.943   7.526  -8.997  1.00  0.00     0.031 A 
ATOM     43  C   UNL     1       9.417  11.918 -13.113  1.00  0.00     0.049 A 
ATOM     44  C   UNL     1      12.488   8.258 -10.193  1.00  0.00     0.074 A 
ATOM     45  C   UNL     1      10.059  12.594 -14.135  1.00  0.00     0.029 A 
ATOM     46  N   UNL     1      10.348  11.062 -12.547  1.00  0.00    -0.354 N 
ATOM     47  N   UNL     1      11.901   9.148 -10.956  1.00  0.00    -0.248 NA
ATOM     48  C   UNL     1      13.875   7.960 -10.574  1.00  0.00     0.031 C 
ATOM     49  C   UNL     1      11.357  12.090 -14.239  1.00  0.00     0.029 A 
ATOM     50  C   UNL     1      11.550  11.164 -13.226  1.00  0.00     0.049 A 
ATOM     51  H   UNL     1      10.181  10.471 -11.779  1.00  0.00     0.167 HD
ATOM     52  C   UNL     1      12.857   9.539 -11.886  1.00  0.00     0.074 A 
ATOM     53  C   UNL     1      14.066   8.805 -11.576  1.00  0.00     0.031 C 
ATOM     54  C   UNL     1      12.745  10.426 -12.904  1.00  0.00     0.031 A 
BRANCH  41  55
ATOM     55  C   UNL     1       7.132  12.937 -13.468  1.00  0.00    -0.014 A 
ATOM     56  C   UNL     1       6.617  14.121 -12.916  1.00  0.00     0.009 A 
ATOM     57  C   UNL     1       6.818  12.618 -14.799  1.00  0.00     0.009 A 
ATOM     58  C   UNL     1       5.781  14.948 -13.669  1.00  0.00     0.001 A 
ATOM     59  C   UNL     1       6.011  13.464 -15.561  1.00  0.00     0.001 A 
ATOM     60  C   UNL     1       5.487  14.624 -14.993  1.00  0.00     0.000 A 
ENDBRANCH  41  55
BRANCH  42  61
ATOM     61  C   UNL     1      12.780   6.539  -8.262  1.00  0.00    -0.014 A 
ATOM     62  C   UNL     1      13.921   6.949  -7.555  1.00  0.00     0.009 A 
ATOM     63  C   UNL     1      12.457   5.173  -8.288  1.00  0.00     0.009 A 
ATOM     64  C   UNL     1      14.742   6.008  -6.925  1.00  0.00     0.001 A 
ATOM     65  C   UNL     1      13.256   4.239  -7.625  1.00  0.00     0.001 A 
ATOM     66  C   UNL     1      14.406   4.656  -6.958  1.00  0.00     0.000 A 
ENDBRANCH  42  61
BRANCH  54  67
ATOM     67  C   UNL     1      13.973  10.689 -13.731  1.00  0.00    -0.014 A 
ATOM     68  C   UNL     1      14.503   9.716 -14.593  1.00  0.00     0.009 A 
ATOM     69  C   UNL     1      14.584  11.952 -13.676  1.00  0.00     0.009 A 
ATOM     70  C   UNL     1      15.643   9.991 -15.352  1.00  0.00     0.001 A 
ATOM     71  C   UNL     1      15.699  12.237 -14.464  1.00  0.00     0.001 A 
ATOM     72  C   UNL     1      16.235  11.252 -15.292  1.00  0.00     0.000 A 
ENDBRANCH  54  67
ENDBRANCH  28  29
ENDBRANCH  20  23
ENDBRANCH  18  19
ENDBRANCH   1  18
TORSDOF 13
