REMARK SMILES O=C(NCCCNC(=O)c1cccc2c(C(F)(F)F)cc(Br)nc12)c1ccc(-c2c3nc(c(-c4ccccc4)c4ccc([nH]4)c(-c4ccccc4)c4nc(c(-c5ccccc5)c5ccc2[nH]5)C=C4)C=C3)cc1
REMARK SMILES IDX 4 1 3 2 1 3 2 4 25 6 26 7 72 8 27 9 71 10 28 11 29 12 30 13
REMARK SMILES IDX 65 14 31 15 70 16 64 17 66 18 32 19 69 20 63 21 62 22 33 24
REMARK SMILES IDX 55 25 40 26 54 27 41 28 44 29 53 30 67 31 42 32 43 33 52 35
REMARK SMILES IDX 68 36 45 37 34 38 35 39 39 40 36 41 38 42 37 43 56 44 57 45
REMARK SMILES IDX 61 46 58 47 60 48 59 49 46 50 47 51 51 52 48 53 50 54 49 55
REMARK SMILES IDX 5 56 6 57 7 58 8 59 9 61 10 62 11 63 24 64 12 65 14 66 23 67
REMARK SMILES IDX 13 68 15 69 21 70 20 71 22 72 16 73 17 74 18 75 19 76
REMARK H PARENT 3 5 66 23 44 34 7 60
REMARK Flexibility Score: inf
ROOT
ATOM      1  C   UNL     1       4.607   0.381  -1.282  1.00  0.00     0.118 C 
ENDROOT
BRANCH   1   2
ATOM      2  N   UNL     1       3.175   0.465  -1.030  1.00  0.00    -0.352 N 
ATOM      3  O   UNL     1       1.205   0.146  -0.009  1.00  0.00    -0.269 OA
ATOM      4  C   UNL     1       2.432   0.145   0.078  1.00  0.00     0.251 C 
ATOM      5  H   UNL     1       2.649   0.811  -1.786  1.00  0.00     0.163 HD
BRANCH   4   6
ATOM      6  C   UNL     1       3.067  -0.207   1.368  1.00  0.00     0.039 A 
ATOM      7  C   UNL     1       2.449  -1.169   2.175  1.00  0.00     0.014 A 
ATOM      8  C   UNL     1       4.210   0.447   1.833  1.00  0.00     0.014 A 
ATOM      9  C   UNL     1       2.992  -1.498   3.420  1.00  0.00     0.010 A 
ATOM     10  C   UNL     1       4.801   0.060   3.035  1.00  0.00     0.010 A 
ATOM     11  C   UNL     1       4.184  -0.898   3.853  1.00  0.00    -0.014 A 
BRANCH  11  12
ATOM     12  C   UNL     1       4.763  -1.203   5.185  1.00  0.00     0.031 A 
ATOM     13  C   UNL     1       4.845  -0.122   6.230  1.00  0.00     0.074 A 
ATOM     14  C   UNL     1       5.244  -2.432   5.452  1.00  0.00     0.049 A 
ATOM     15  N   UNL     1       5.386  -0.165   7.422  1.00  0.00    -0.248 NA
ATOM     16  C   UNL     1       4.262   1.184   5.882  1.00  0.00     0.031 C 
ATOM     17  C   UNL     1       5.234  -3.565   4.526  1.00  0.00     0.029 A 
ATOM     18  N   UNL     1       5.831  -2.933   6.588  1.00  0.00    -0.354 N 
ATOM     19  C   UNL     1       5.228   1.110   7.952  1.00  0.00     0.074 A 
ATOM     20  C   UNL     1       4.586   1.916   6.937  1.00  0.00     0.031 C 
ATOM     21  C   UNL     1       5.754  -4.638   5.144  1.00  0.00     0.029 A 
ATOM     22  C   UNL     1       6.171  -4.260   6.491  1.00  0.00     0.049 A 
ATOM     23  H   UNL     1       5.992  -2.392   7.394  1.00  0.00     0.167 HD
ATOM     24  C   UNL     1       5.564   1.565   9.181  1.00  0.00     0.031 A 
ATOM     25  C   UNL     1       6.753  -5.081   7.386  1.00  0.00     0.031 A 
ATOM     26  C   UNL     1       6.179   0.762  10.201  1.00  0.00     0.049 A 
ATOM     27  C   UNL     1       7.125  -4.554   8.743  1.00  0.00     0.074 A 
ATOM     28  C   UNL     1       6.537   1.129  11.486  1.00  0.00     0.029 A 
ATOM     29  N   UNL     1       6.513  -0.575  10.057  1.00  0.00    -0.354 N 
ATOM     30  N   UNL     1       6.966  -3.348   9.229  1.00  0.00    -0.248 NA
ATOM     31  C   UNL     1       7.753  -5.502   9.676  1.00  0.00     0.031 C 
ATOM     32  C   UNL     1       7.120   0.023  12.109  1.00  0.00     0.029 A 
ATOM     33  C   UNL     1       7.079  -1.046  11.228  1.00  0.00     0.049 A 
ATOM     34  H   UNL     1       6.369  -1.110   9.242  1.00  0.00     0.167 HD
ATOM     35  C   UNL     1       7.456  -3.394  10.528  1.00  0.00     0.074 A 
ATOM     36  C   UNL     1       7.906  -4.751  10.759  1.00  0.00     0.031 C 
ATOM     37  C   UNL     1       7.525  -2.398  11.444  1.00  0.00     0.031 A 
BRANCH  24  38
ATOM     38  C   UNL     1       5.263   3.004   9.494  1.00  0.00    -0.014 A 
ATOM     39  C   UNL     1       6.311   3.925   9.643  1.00  0.00     0.009 A 
ATOM     40  C   UNL     1       3.942   3.440   9.686  1.00  0.00     0.009 A 
ATOM     41  C   UNL     1       6.043   5.253   9.977  1.00  0.00     0.001 A 
ATOM     42  C   UNL     1       3.675   4.775   9.992  1.00  0.00     0.001 A 
ATOM     43  C   UNL     1       4.726   5.679  10.143  1.00  0.00     0.000 A 
ENDBRANCH  24  38
BRANCH  25  44
ATOM     44  C   UNL     1       6.977  -6.505   7.028  1.00  0.00    -0.014 A 
ATOM     45  C   UNL     1       7.974  -6.867   6.109  1.00  0.00     0.009 A 
ATOM     46  C   UNL     1       6.154  -7.505   7.568  1.00  0.00     0.009 A 
ATOM     47  C   UNL     1       8.130  -8.200   5.723  1.00  0.00     0.001 A 
ATOM     48  C   UNL     1       6.329  -8.841   7.198  1.00  0.00     0.001 A 
ATOM     49  C   UNL     1       7.310  -9.186   6.270  1.00  0.00     0.000 A 
ENDBRANCH  25  44
BRANCH  37  50
ATOM     50  C   UNL     1       8.093  -2.727  12.794  1.00  0.00    -0.014 A 
ATOM     51  C   UNL     1       7.244  -2.778  13.912  1.00  0.00     0.009 A 
ATOM     52  C   UNL     1       9.474  -2.880  12.979  1.00  0.00     0.009 A 
ATOM     53  C   UNL     1       7.769  -2.963  15.191  1.00  0.00     0.001 A 
ATOM     54  C   UNL     1       9.995  -3.088  14.258  1.00  0.00     0.001 A 
ATOM     55  C   UNL     1       9.144  -3.121  15.362  1.00  0.00     0.000 A 
ENDBRANCH  37  50
ENDBRANCH  11  12
ENDBRANCH   4   6
ENDBRANCH   1   2
BRANCH   1  56
ATOM     56  C   UNL     1       4.956  -0.579  -2.414  1.00  0.00     0.042 C 
BRANCH  56  57
ATOM     57  C   UNL     1       4.350  -0.218  -3.763  1.00  0.00     0.118 C 
BRANCH  57  58
ATOM     58  N   UNL     1       4.775   1.087  -4.240  1.00  0.00    -0.352 N 
ATOM     59  C   UNL     1       5.612   1.421  -5.276  1.00  0.00     0.253 C 
ATOM     60  H   UNL     1       4.406   1.851  -3.741  1.00  0.00     0.163 HD
ATOM     61  O   UNL     1       5.857   2.606  -5.496  1.00  0.00    -0.269 OA
BRANCH  59  62
ATOM     62  C   UNL     1       6.134   0.373  -6.175  1.00  0.00     0.066 A 
ATOM     63  C   UNL     1       5.198  -0.383  -6.897  1.00  0.00     0.016 A 
ATOM     64  C   UNL     1       7.518   0.225  -6.351  1.00  0.00     0.085 A 
ATOM     65  C   UNL     1       5.634  -1.360  -7.773  1.00  0.00     0.002 A 
ATOM     66  C   UNL     1       7.959  -0.745  -7.285  1.00  0.00     0.013 A 
ATOM     67  N   UNL     1       8.399   0.971  -5.652  1.00  0.00    -0.240 NA
ATOM     68  C   UNL     1       7.001  -1.539  -7.964  1.00  0.00     0.011 A 
ATOM     69  C   UNL     1       9.356  -0.870  -7.506  1.00  0.00     0.068 A 
ATOM     70  C   UNL     1       9.717   0.847  -5.888  1.00  0.00     0.107 A 
ATOM     71  C   UNL     1      10.239  -0.047  -6.796  1.00  0.00     0.049 A 
ATOM     72  Br  UNL     1      10.899   1.964  -4.915  1.00  0.00    -0.029 Br
BRANCH  69  73
ATOM     73  C   UNL     1       9.922  -1.857  -8.496  1.00  0.00     0.417 C 
ATOM     74  F   UNL     1       9.641  -3.147  -8.163  1.00  0.00    -0.166 F 
ATOM     75  F   UNL     1       9.439  -1.678  -9.756  1.00  0.00    -0.166 F 
ATOM     76  F   UNL     1      11.278  -1.795  -8.611  1.00  0.00    -0.166 F 
ENDBRANCH  69  73
ENDBRANCH  59  62
ENDBRANCH  57  58
ENDBRANCH  56  57
ENDBRANCH   1  56
TORSDOF 11
