REMARK SMILES O=C(NCCCNC(=O)[C@H]1O[C@@H](Oc2c(-c3cc(O)c(O)c(O)c3)oc3cc(O)cc(O)c3c2=O)[C@H](O)[C@@H](O)[C@@H]1O)c1ccc(-c2c3nc(c(-c4ccccc4)c4ccc([nH]4)c(-c4ccccc4)c4nc(c(-c5ccccc5)c5ccc2[nH]5)C=C4)C=C3)cc1
REMARK SMILES IDX 6 1 5 2 4 3 3 4 1 5 2 6 42 8 43 9 89 10 44 11 88 12 45 13
REMARK SMILES IDX 46 14 47 15 82 16 48 17 87 18 81 19 83 20 49 21 86 22 80 23
REMARK SMILES IDX 79 24 50 26 72 27 57 28 71 29 58 30 61 31 70 32 84 33 59 34
REMARK SMILES IDX 60 35 69 37 85 38 62 39 51 40 52 41 56 42 53 43 55 44 54 45
REMARK SMILES IDX 73 46 74 47 78 48 75 49 77 50 76 51 63 52 64 53 68 54 65 55
REMARK SMILES IDX 67 56 66 57 7 58 8 59 9 61 10 62 11 63 40 64 12 65 38 66
REMARK SMILES IDX 36 67 41 68 13 70 14 71 15 72 34 73 25 74 33 75 35 76 26 77
REMARK SMILES IDX 31 78 27 79 30 80 28 81 16 82 17 83 24 84 18 85 22 86 20 87
REMARK SMILES IDX 19 88 23 90 21 92 32 94 29 96 39 98 37 100
REMARK H PARENT 3 7 83 25 61 36 7 60 41 69 19 89 23 91 21 93 32 95 29 97 39 99
REMARK H PARENT 37 101
REMARK Flexibility Score: inf
ROOT
ATOM      1  C   UNL     1       8.572   0.545   5.647  1.00  0.00     0.117 C 
ENDROOT
BRANCH   1   2
ATOM      2  C   UNL     1       9.982   1.036   5.917  1.00  0.00     0.042 C 
BRANCH   2   3
ATOM      3  C   UNL     1      10.561   0.547   7.233  1.00  0.00     0.118 C 
BRANCH   3   4
ATOM      4  N   UNL     1      10.652  -0.905   7.308  1.00  0.00    -0.352 N 
ATOM      5  O   UNL     1      11.655  -2.927   7.259  1.00  0.00    -0.269 OA
ATOM      6  C   UNL     1      11.761  -1.710   7.380  1.00  0.00     0.251 C 
ATOM      7  H   UNL     1       9.790  -1.380   7.306  1.00  0.00     0.163 HD
BRANCH   6   8
ATOM      8  C   UNL     1      13.090  -1.100   7.578  1.00  0.00     0.039 A 
ATOM      9  C   UNL     1      13.262  -0.073   8.508  1.00  0.00     0.014 A 
ATOM     10  C   UNL     1      14.174  -1.557   6.824  1.00  0.00     0.014 A 
ATOM     11  C   UNL     1      14.467   0.610   8.564  1.00  0.00     0.010 A 
ATOM     12  C   UNL     1      15.420  -0.943   6.967  1.00  0.00     0.010 A 
ATOM     13  C   UNL     1      15.568   0.163   7.818  1.00  0.00    -0.014 A 
BRANCH  13  14
ATOM     14  C   UNL     1      16.884   0.811   8.022  1.00  0.00     0.031 A 
ATOM     15  C   UNL     1      17.580   1.539   6.909  1.00  0.00     0.074 A 
ATOM     16  C   UNL     1      17.439   0.749   9.249  1.00  0.00     0.049 A 
ATOM     17  N   UNL     1      18.735   2.157   6.931  1.00  0.00    -0.248 NA
ATOM     18  C   UNL     1      16.903   1.575   5.604  1.00  0.00     0.031 C 
ATOM     19  C   UNL     1      16.850   0.069  10.408  1.00  0.00     0.029 A 
ATOM     20  N   UNL     1      18.607   1.276   9.733  1.00  0.00    -0.354 N 
ATOM     21  C   UNL     1      18.933   2.637   5.642  1.00  0.00     0.074 A 
ATOM     22  C   UNL     1      17.791   2.219   4.857  1.00  0.00     0.031 C 
ATOM     23  C   UNL     1      17.632   0.264  11.477  1.00  0.00     0.029 A 
ATOM     24  C   UNL     1      18.813   1.009  11.065  1.00  0.00     0.049 A 
ATOM     25  H   UNL     1      19.236   1.794   9.182  1.00  0.00     0.167 HD
ATOM     26  C   UNL     1      19.973   3.361   5.163  1.00  0.00     0.031 A 
ATOM     27  C   UNL     1      19.852   1.306  11.864  1.00  0.00     0.031 A 
ATOM     28  C   UNL     1      21.109   3.764   5.952  1.00  0.00     0.049 A 
ATOM     29  C   UNL     1      21.014   2.059  11.290  1.00  0.00     0.074 A 
ATOM     30  C   UNL     1      22.201   4.523   5.565  1.00  0.00     0.029 A 
ATOM     31  N   UNL     1      21.305   3.433   7.284  1.00  0.00    -0.354 N 
ATOM     32  N   UNL     1      21.170   2.535  10.079  1.00  0.00    -0.248 NA
ATOM     33  C   UNL     1      22.143   2.313  12.193  1.00  0.00     0.031 C 
ATOM     34  C   UNL     1      23.085   4.599   6.646  1.00  0.00     0.029 A 
ATOM     35  C   UNL     1      22.515   3.945   7.726  1.00  0.00     0.049 A 
ATOM     36  H   UNL     1      20.677   2.912   7.835  1.00  0.00     0.167 HD
ATOM     37  C   UNL     1      22.407   3.162  10.078  1.00  0.00     0.074 A 
ATOM     38  C   UNL     1      22.947   3.025  11.415  1.00  0.00     0.031 C 
ATOM     39  C   UNL     1      23.040   3.793   9.059  1.00  0.00     0.031 A 
BRANCH  26  40
ATOM     40  C   UNL     1      19.950   3.737   3.706  1.00  0.00    -0.014 A 
ATOM     41  C   UNL     1      19.053   4.697   3.211  1.00  0.00     0.009 A 
ATOM     42  C   UNL     1      20.876   3.158   2.824  1.00  0.00     0.009 A 
ATOM     43  C   UNL     1      19.064   5.044   1.857  1.00  0.00     0.001 A 
ATOM     44  C   UNL     1      20.904   3.527   1.478  1.00  0.00     0.001 A 
ATOM     45  C   UNL     1      19.992   4.463   0.994  1.00  0.00     0.000 A 
ENDBRANCH  26  40
BRANCH  27  46
ATOM     46  C   UNL     1      19.845   0.861  13.281  1.00  0.00    -0.014 A 
ATOM     47  C   UNL     1      19.746   1.793  14.324  1.00  0.00     0.009 A 
ATOM     48  C   UNL     1      19.920  -0.506  13.597  1.00  0.00     0.009 A 
ATOM     49  C   UNL     1      19.746   1.366  15.654  1.00  0.00     0.001 A 
ATOM     50  C   UNL     1      19.886  -0.931  14.925  1.00  0.00     0.001 A 
ATOM     51  C   UNL     1      19.809   0.006  15.953  1.00  0.00     0.000 A 
ENDBRANCH  27  46
BRANCH  39  52
ATOM     52  C   UNL     1      24.375   4.410   9.366  1.00  0.00    -0.014 A 
ATOM     53  C   UNL     1      25.512   3.616   9.582  1.00  0.00     0.009 A 
ATOM     54  C   UNL     1      24.499   5.807   9.411  1.00  0.00     0.009 A 
ATOM     55  C   UNL     1      26.742   4.212   9.872  1.00  0.00     0.001 A 
ATOM     56  C   UNL     1      25.736   6.399   9.668  1.00  0.00     0.001 A 
ATOM     57  C   UNL     1      26.853   5.601   9.909  1.00  0.00     0.000 A 
ENDBRANCH  39  52
ENDBRANCH  13  14
ENDBRANCH   6   8
ENDBRANCH   3   4
ENDBRANCH   2   3
ENDBRANCH   1   2
BRANCH   1  58
ATOM     58  N   UNL     1       7.677   0.841   6.746  1.00  0.00    -0.354 N 
ATOM     59  C   UNL     1       6.563   1.583   6.898  1.00  0.00     0.252 C 
ATOM     60  H   UNL     1       7.947   0.394   7.580  1.00  0.00     0.163 HD
ATOM     61  O   UNL     1       6.083   1.547   8.042  1.00  0.00    -0.272 OA
BRANCH  59  62
ATOM     62  C   UNL     1       5.857   2.426   5.831  1.00  0.00     0.242 C 
ATOM     63  O   UNL     1       5.851   3.801   6.290  1.00  0.00    -0.324 OA
ATOM     64  C   UNL     1       6.278   2.443   4.370  1.00  0.00     0.184 C 
ATOM     65  C   UNL     1       4.702   4.476   5.786  1.00  0.00     0.340 C 
ATOM     66  C   UNL     1       5.235   3.232   3.569  1.00  0.00     0.181 C 
ATOM     67  C   UNL     1       4.744   4.514   4.241  1.00  0.00     0.214 C 
BRANCH  64  68
ATOM     68  O   UNL     1       6.309   1.143   3.767  1.00  0.00    -0.387 OA
ATOM     69  H   UNL     1       5.419   0.758   3.783  1.00  0.00     0.211 HD
ENDBRANCH  64  68
BRANCH  65  70
ATOM     70  O   UNL     1       4.476   5.821   6.274  1.00  0.00    -0.454 OA
BRANCH  70  71
ATOM     71  C   UNL     1       5.569   6.585   6.657  1.00  0.00     0.214 A 
ATOM     72  C   UNL     1       6.116   7.538   5.872  1.00  0.00     0.181 A 
ATOM     73  C   UNL     1       5.999   6.546   8.092  1.00  0.00     0.239 A 
ATOM     74  O   UNL     1       7.154   8.368   6.231  1.00  0.00    -0.452 OA
ATOM     75  C   UNL     1       7.020   7.545   8.516  1.00  0.00     0.111 A 
ATOM     76  O   UNL     1       5.482   5.751   8.868  1.00  0.00    -0.285 OA
ATOM     77  C   UNL     1       7.544   8.395   7.541  1.00  0.00     0.146 A 
ATOM     78  C   UNL     1       7.465   7.698   9.839  1.00  0.00     0.134 A 
ATOM     79  C   UNL     1       8.504   9.358   7.861  1.00  0.00     0.094 A 
ATOM     80  C   UNL     1       8.420   8.671  10.170  1.00  0.00     0.093 A 
ATOM     81  C   UNL     1       8.932   9.492   9.172  1.00  0.00     0.123 A 
BRANCH  72  82
ATOM     82  C   UNL     1       5.698   7.737   4.475  1.00  0.00     0.029 A 
ATOM     83  C   UNL     1       6.612   7.438   3.449  1.00  0.00     0.062 A 
ATOM     84  C   UNL     1       4.367   8.052   4.157  1.00  0.00     0.062 A 
ATOM     85  C   UNL     1       6.154   7.304   2.145  1.00  0.00     0.162 A 
ATOM     86  C   UNL     1       3.934   7.932   2.842  1.00  0.00     0.162 A 
ATOM     87  C   UNL     1       4.813   7.518   1.849  1.00  0.00     0.200 A 
BRANCH  85  88
ATOM     88  O   UNL     1       7.020   6.863   1.188  1.00  0.00    -0.504 OA
ATOM     89  H   UNL     1       7.922   6.723   1.402  1.00  0.00     0.293 HD
ENDBRANCH  85  88
BRANCH  86  90
ATOM     90  O   UNL     1       2.610   8.109   2.567  1.00  0.00    -0.504 OA
ATOM     91  H   UNL     1       2.300   8.032   1.686  1.00  0.00     0.293 HD
ENDBRANCH  86  90
BRANCH  87  92
ATOM     92  O   UNL     1       4.323   7.210   0.610  1.00  0.00    -0.502 OA
ATOM     93  H   UNL     1       4.907   6.929  -0.068  1.00  0.00     0.293 HD
ENDBRANCH  87  92
ENDBRANCH  72  82
BRANCH  78  94
ATOM     94  O   UNL     1       6.970   6.910  10.839  1.00  0.00    -0.507 OA
ATOM     95  H   UNL     1       7.275   7.022  11.718  1.00  0.00     0.293 HD
ENDBRANCH  78  94
BRANCH  81  96
ATOM     96  O   UNL     1       9.857  10.456   9.438  1.00  0.00    -0.508 OA
ATOM     97  H   UNL     1      10.185  10.995   8.745  1.00  0.00     0.293 HD
ENDBRANCH  81  96
ENDBRANCH  70  71
ENDBRANCH  65  70
BRANCH  66  98
ATOM     98  O   UNL     1       5.794   3.500   2.258  1.00  0.00    -0.387 OA
ATOM     99  H   UNL     1       6.590   4.047   2.352  1.00  0.00     0.211 HD
ENDBRANCH  66  98
BRANCH  67 100
ATOM    100  O   UNL     1       3.464   4.843   3.680  1.00  0.00    -0.384 OA
ATOM    101  H   UNL     1       2.832   4.134   3.878  1.00  0.00     0.211 HD
ENDBRANCH  67 100
ENDBRANCH  59  62
ENDBRANCH   1  58
TORSDOF 21
