REMARK SMILES O=C(NCCCNC(=O)c1ccccc1OCC[S@@](=O)c1cccc(F)c1)c1ccc(-c2c3nc(c(-c4ccccc4)c4ccc([nH]4)c(-c4ccccc4)c4nc(c(-c5ccccc5)c5ccc2[nH]5)C=C4)C=C3)cc1
REMARK SMILES IDX 7 1 8 2 9 3 6 5 5 6 4 7 3 8 1 9 2 10 28 12 29 13 75 14 30 15
REMARK SMILES IDX 74 16 31 17 32 18 33 19 68 20 34 21 73 22 67 23 69 24 35 25
REMARK SMILES IDX 72 26 66 27 65 28 36 30 58 31 43 32 57 33 44 34 47 35 56 36
REMARK SMILES IDX 70 37 45 38 46 39 55 41 71 42 48 43 37 44 38 45 42 46 39 47
REMARK SMILES IDX 41 48 40 49 59 50 60 51 64 52 61 53 63 54 62 55 49 56 50 57
REMARK SMILES IDX 54 58 51 59 53 60 52 61 10 62 11 63 15 64 12 65 14 66 13 67
REMARK SMILES IDX 16 68 17 69 18 70 19 71 20 72 21 73 22 74 27 75 23 76 25 77
REMARK SMILES IDX 24 78 26 79
REMARK H PARENT 7 4 3 11 69 29 47 40
REMARK Flexibility Score: inf
ROOT
ATOM      1  N   UNL     1       4.546  -2.877  -3.702  1.00  0.00    -0.352 N 
ATOM      2  C   UNL     1       5.426  -3.836  -4.116  1.00  0.00     0.255 C 
ATOM      3  O   UNL     1       6.248  -3.278  -4.870  1.00  0.00    -0.269 OA
ATOM      4  H   UNL     1       4.759  -2.069  -4.222  1.00  0.00     0.163 HD
ENDROOT
BRANCH   1   5
ATOM      5  C   UNL     1       3.425  -2.514  -2.826  1.00  0.00     0.118 C 
BRANCH   5   6
ATOM      6  C   UNL     1       3.966  -1.784  -1.584  1.00  0.00     0.042 C 
BRANCH   6   7
ATOM      7  C   UNL     1       3.909  -0.264  -1.703  1.00  0.00     0.118 C 
BRANCH   7   8
ATOM      8  N   UNL     1       2.568   0.236  -1.431  1.00  0.00    -0.352 N 
ATOM      9  O   UNL     1       0.819   0.895  -0.196  1.00  0.00    -0.269 OA
ATOM     10  C   UNL     1       2.040   0.846  -0.317  1.00  0.00     0.251 C 
ATOM     11  H   UNL     1       1.930   0.117  -2.172  1.00  0.00     0.163 HD
BRANCH  10  12
ATOM     12  C   UNL     1       2.902   1.447   0.732  1.00  0.00     0.039 A 
ATOM     13  C   UNL     1       4.120   2.047   0.420  1.00  0.00     0.014 A 
ATOM     14  C   UNL     1       2.432   1.507   2.052  1.00  0.00     0.014 A 
ATOM     15  C   UNL     1       4.924   2.570   1.428  1.00  0.00     0.010 A 
ATOM     16  C   UNL     1       3.187   2.144   3.046  1.00  0.00     0.010 A 
ATOM     17  C   UNL     1       4.451   2.668   2.746  1.00  0.00    -0.014 A 
BRANCH  17  18
ATOM     18  C   UNL     1       5.269   3.411   3.745  1.00  0.00     0.031 A 
ATOM     19  C   UNL     1       5.806   2.743   4.979  1.00  0.00     0.074 A 
ATOM     20  C   UNL     1       5.569   4.703   3.494  1.00  0.00     0.049 A 
ATOM     21  N   UNL     1       6.591   3.238   5.905  1.00  0.00    -0.248 NA
ATOM     22  C   UNL     1       5.406   1.348   5.217  1.00  0.00     0.031 C 
ATOM     23  C   UNL     1       5.091   5.471   2.339  1.00  0.00     0.029 A 
ATOM     24  N   UNL     1       6.379   5.587   4.161  1.00  0.00    -0.354 N 
ATOM     25  C   UNL     1       6.753   2.229   6.847  1.00  0.00     0.074 A 
ATOM     26  C   UNL     1       5.969   1.101   6.392  1.00  0.00     0.031 C 
ATOM     27  C   UNL     1       5.690   6.669   2.326  1.00  0.00     0.029 A 
ATOM     28  C   UNL     1       6.527   6.790   3.513  1.00  0.00     0.049 A 
ATOM     29  H   UNL     1       6.813   5.379   5.020  1.00  0.00     0.167 HD
ATOM     30  C   UNL     1       7.490   2.243   7.985  1.00  0.00     0.031 A 
ATOM     31  C   UNL     1       7.250   7.878   3.834  1.00  0.00     0.031 A 
ATOM     32  C   UNL     1       8.280   3.364   8.428  1.00  0.00     0.049 A 
ATOM     33  C   UNL     1       8.055   7.864   5.099  1.00  0.00     0.074 A 
ATOM     34  C   UNL     1       9.082   3.465   9.552  1.00  0.00     0.029 A 
ATOM     35  N   UNL     1       8.368   4.579   7.765  1.00  0.00    -0.354 N 
ATOM     36  N   UNL     1       8.213   6.892   5.964  1.00  0.00    -0.248 NA
ATOM     37  C   UNL     1       8.778   9.097   5.432  1.00  0.00     0.031 C 
ATOM     38  C   UNL     1       9.616   4.757   9.595  1.00  0.00     0.029 A 
ATOM     39  C   UNL     1       9.194   5.442   8.466  1.00  0.00     0.049 A 
ATOM     40  H   UNL     1       7.911   4.796   6.920  1.00  0.00     0.167 HD
ATOM     41  C   UNL     1       9.068   7.390   6.937  1.00  0.00     0.074 A 
ATOM     42  C   UNL     1       9.413   8.741   6.540  1.00  0.00     0.031 C 
ATOM     43  C   UNL     1       9.524   6.784   8.059  1.00  0.00     0.031 A 
BRANCH  30  44
ATOM     44  C   UNL     1       7.446   1.015   8.856  1.00  0.00    -0.014 A 
ATOM     45  C   UNL     1       8.069  -0.183   8.472  1.00  0.00     0.009 A 
ATOM     46  C   UNL     1       6.796   1.071  10.099  1.00  0.00     0.009 A 
ATOM     47  C   UNL     1       8.009  -1.309   9.298  1.00  0.00     0.001 A 
ATOM     48  C   UNL     1       6.762  -0.047  10.936  1.00  0.00     0.001 A 
ATOM     49  C   UNL     1       7.359  -1.238  10.530  1.00  0.00     0.000 A 
ENDBRANCH  30  44
BRANCH  31  50
ATOM     50  C   UNL     1       7.239   9.070   2.945  1.00  0.00    -0.014 A 
ATOM     51  C   UNL     1       8.390   9.443   2.233  1.00  0.00     0.009 A 
ATOM     52  C   UNL     1       6.072   9.836   2.795  1.00  0.00     0.009 A 
ATOM     53  C   UNL     1       8.377  10.570   1.407  1.00  0.00     0.001 A 
ATOM     54  C   UNL     1       6.053  10.942   1.944  1.00  0.00     0.001 A 
ATOM     55  C   UNL     1       7.207  11.314   1.258  1.00  0.00     0.000 A 
ENDBRANCH  31  50
BRANCH  43  56
ATOM     56  C   UNL     1      10.478   7.570   8.912  1.00  0.00    -0.014 A 
ATOM     57  C   UNL     1      10.044   8.663   9.678  1.00  0.00     0.009 A 
ATOM     58  C   UNL     1      11.831   7.201   8.957  1.00  0.00     0.009 A 
ATOM     59  C   UNL     1      10.956   9.398  10.438  1.00  0.00     0.001 A 
ATOM     60  C   UNL     1      12.735   7.918   9.741  1.00  0.00     0.001 A 
ATOM     61  C   UNL     1      12.299   9.023  10.471  1.00  0.00     0.000 A 
ENDBRANCH  43  56
ENDBRANCH  17  18
ENDBRANCH  10  12
ENDBRANCH   7   8
ENDBRANCH   6   7
ENDBRANCH   5   6
ENDBRANCH   1   5
BRANCH   2  62
ATOM     62  C   UNL     1       5.609  -5.348  -3.938  1.00  0.00     0.081 A 
ATOM     63  C   UNL     1       6.542  -5.820  -4.926  1.00  0.00     0.018 A 
ATOM     64  C   UNL     1       5.164  -6.359  -3.058  1.00  0.00     0.132 A 
ATOM     65  C   UNL     1       6.942  -7.151  -5.097  1.00  0.00     0.001 A 
ATOM     66  C   UNL     1       5.498  -7.727  -3.311  1.00  0.00     0.047 A 
ATOM     67  C   UNL     1       6.379  -8.124  -4.308  1.00  0.00     0.004 A 
BRANCH  64  68
ATOM     68  O   UNL     1       4.536  -6.354  -1.840  1.00  0.00    -0.492 OA
BRANCH  68  69
ATOM     69  C   UNL     1       4.270  -5.147  -1.187  1.00  0.00     0.243 C 
BRANCH  69  70
ATOM     70  C   UNL     1       5.286  -4.644  -0.188  1.00  0.00     0.152 C 
BRANCH  70  71
ATOM     71  S   UNL     1       6.971  -4.399  -0.880  1.00  0.00     0.056 S 
ATOM     72  O   UNL     1       7.577  -3.251  -0.125  1.00  0.00    -0.254 OA
BRANCH  71  73
ATOM     73  C   UNL     1       7.639  -5.887  -0.109  1.00  0.00     0.042 A 
ATOM     74  C   UNL     1       7.842  -7.026  -0.890  1.00  0.00     0.018 A 
ATOM     75  C   UNL     1       7.647  -5.976   1.284  1.00  0.00     0.057 A 
ATOM     76  C   UNL     1       7.869  -8.280  -0.285  1.00  0.00     0.004 A 
ATOM     77  C   UNL     1       7.649  -7.228   1.872  1.00  0.00     0.124 A 
ATOM     78  C   UNL     1       7.726  -8.382   1.099  1.00  0.00     0.039 A 
ATOM     79  F   UNL     1       7.477  -7.327   3.196  1.00  0.00    -0.207 F 
ENDBRANCH  71  73
ENDBRANCH  70  71
ENDBRANCH  69  70
ENDBRANCH  68  69
ENDBRANCH  64  68
ENDBRANCH   2  62
TORSDOF 15
