REMARK SMILES CN1C(=O)C[C@@H](C(=O)NCCCNC(=O)c2ccc(-c3c4nc(c(-c5ccccc5)c5ccc([nH]5)c(-c5ccccc5)c5nc(c(-c6ccccc6)c6ccc3[nH]6)C=C5)C=C4)cc2)C12CCN(C(=O)c1cccc3ccccc13)CC2
REMARK SMILES IDX 11 1 10 2 9 3 7 4 8 5 6 7 1 8 2 9 3 10 64 11 4 12 5 13 65 14
REMARK SMILES IDX 81 15 66 16 80 17 67 18 68 19 69 20 70 21 71 22 79 23 72 24
REMARK SMILES IDX 74 25 78 26 73 27 75 28 77 29 76 30 12 31 13 32 14 33 15 35
REMARK SMILES IDX 16 36 17 37 63 38 18 39 62 40 19 41 20 42 21 43 56 44 22 45
REMARK SMILES IDX 61 46 55 47 57 48 23 49 60 50 54 51 53 52 24 54 46 55 31 56
REMARK SMILES IDX 45 57 32 58 35 59 44 60 58 61 33 62 34 63 43 65 59 66 36 67
REMARK SMILES IDX 25 68 26 69 30 70 27 71 29 72 28 73 47 74 48 75 52 76 49 77
REMARK SMILES IDX 51 78 50 79 37 80 38 81 42 82 39 83 41 84 40 85
REMARK H PARENT 9 6 13 34 57 53 35 64
REMARK Flexibility Score: inf
ROOT
ATOM      1  C   UNL     1      -0.448  -0.175  -3.483  1.00  0.00     0.042 C 
ENDROOT
BRANCH   1   2
ATOM      2  C   UNL     1      -1.601  -0.750  -2.658  1.00  0.00     0.117 C 
BRANCH   2   3
ATOM      3  N   UNL     1      -1.828  -2.178  -2.849  1.00  0.00    -0.356 N 
ATOM      4  C   UNL     1      -1.672  -3.281  -2.078  1.00  0.00     0.226 C 
ATOM      5  O   UNL     1      -2.058  -4.343  -2.584  1.00  0.00    -0.275 OA
ATOM      6  H   UNL     1      -2.174  -2.389  -3.747  1.00  0.00     0.163 HD
BRANCH   4   7
ATOM      7  C   UNL     1      -1.024  -3.328  -0.693  1.00  0.00     0.113 C 
ATOM      8  C   UNL     1       1.406  -0.562  -0.056  1.00  0.00     0.147 C 
ATOM      9  N   UNL     1       0.340  -1.545  -0.062  1.00  0.00    -0.339 N 
ATOM     10  C   UNL     1      -0.880  -1.302   0.560  1.00  0.00     0.223 C 
ATOM     11  C   UNL     1       0.461  -2.911  -0.593  1.00  0.00     0.058 C 
ATOM     12  O   UNL     1      -1.207  -0.289   1.152  1.00  0.00    -0.275 OA
ATOM     13  C   UNL     1      -1.774  -2.490   0.339  1.00  0.00     0.116 C 
ATOM     14  C   UNL     1       1.217  -3.031  -1.934  1.00  0.00     0.051 C 
ATOM     15  C   UNL     1       1.233  -3.757   0.467  1.00  0.00     0.051 C 
ATOM     16  C   UNL     1       1.423  -4.488  -2.356  1.00  0.00     0.122 C 
ATOM     17  C   UNL     1       1.627  -5.155  -0.012  1.00  0.00     0.122 C 
ATOM     18  N   UNL     1       2.233  -5.129  -1.343  1.00  0.00    -0.338 N 
ATOM     19  C   UNL     1       3.495  -5.683  -1.532  1.00  0.00     0.254 C 
ATOM     20  O   UNL     1       4.192  -6.051  -0.585  1.00  0.00    -0.269 OA
BRANCH  19  21
ATOM     21  C   UNL     1       4.027  -5.999  -2.887  1.00  0.00     0.047 A 
ATOM     22  C   UNL     1       4.163  -7.380  -3.121  1.00  0.00     0.014 A 
ATOM     23  C   UNL     1       4.586  -5.054  -3.796  1.00  0.00    -0.006 A 
ATOM     24  C   UNL     1       4.897  -7.847  -4.204  1.00  0.00     0.001 A 
ATOM     25  C   UNL     1       5.357  -5.556  -4.879  1.00  0.00    -0.018 A 
ATOM     26  C   UNL     1       4.444  -3.648  -3.715  1.00  0.00     0.009 A 
ATOM     27  C   UNL     1       5.518  -6.939  -5.055  1.00  0.00     0.009 A 
ATOM     28  C   UNL     1       5.975  -4.675  -5.782  1.00  0.00     0.009 A 
ATOM     29  C   UNL     1       4.984  -2.789  -4.678  1.00  0.00     0.001 A 
ATOM     30  C   UNL     1       5.772  -3.301  -5.697  1.00  0.00     0.001 A 
ENDBRANCH  19  21
ENDBRANCH   4   7
ENDBRANCH   2   3
ENDBRANCH   1   2
BRANCH   1  31
ATOM     31  C   UNL     1      -0.622  -0.345  -4.987  1.00  0.00     0.118 C 
BRANCH  31  32
ATOM     32  N   UNL     1      -1.627   0.571  -5.501  1.00  0.00    -0.352 N 
ATOM     33  C   UNL     1      -1.458   1.729  -6.219  1.00  0.00     0.251 C 
ATOM     34  H   UNL     1      -2.561   0.327  -5.307  1.00  0.00     0.163 HD
ATOM     35  O   UNL     1      -2.368   2.551  -6.274  1.00  0.00    -0.269 OA
BRANCH  33  36
ATOM     36  C   UNL     1      -0.185   1.990  -6.928  1.00  0.00     0.039 A 
ATOM     37  C   UNL     1       0.329   3.290  -6.950  1.00  0.00     0.014 A 
ATOM     38  C   UNL     1       0.474   0.969  -7.616  1.00  0.00     0.014 A 
ATOM     39  C   UNL     1       1.523   3.553  -7.627  1.00  0.00     0.010 A 
ATOM     40  C   UNL     1       1.706   1.214  -8.216  1.00  0.00     0.010 A 
ATOM     41  C   UNL     1       2.236   2.512  -8.244  1.00  0.00    -0.014 A 
BRANCH  41  42
ATOM     42  C   UNL     1       3.521   2.763  -8.946  1.00  0.00     0.031 A 
ATOM     43  C   UNL     1       3.640   2.492 -10.424  1.00  0.00     0.074 A 
ATOM     44  C   UNL     1       4.598   3.174  -8.248  1.00  0.00     0.049 A 
ATOM     45  N   UNL     1       4.693   2.577 -11.197  1.00  0.00    -0.248 NA
ATOM     46  C   UNL     1       2.423   2.039 -11.119  1.00  0.00     0.031 C 
ATOM     47  C   UNL     1       4.626   3.438  -6.807  1.00  0.00     0.029 A 
ATOM     48  N   UNL     1       5.882   3.437  -8.657  1.00  0.00    -0.354 N 
ATOM     49  C   UNL     1       4.271   2.168 -12.457  1.00  0.00     0.074 A 
ATOM     50  C   UNL     1       2.882   1.787 -12.336  1.00  0.00     0.031 C 
ATOM     51  C   UNL     1       5.856   3.849  -6.459  1.00  0.00     0.029 A 
ATOM     52  C   UNL     1       6.714   3.836  -7.638  1.00  0.00     0.049 A 
ATOM     53  H   UNL     1       6.178   3.347  -9.591  1.00  0.00     0.167 HD
ATOM     54  C   UNL     1       4.970   2.133 -13.616  1.00  0.00     0.031 A 
ATOM     55  C   UNL     1       8.024   4.146  -7.651  1.00  0.00     0.031 A 
ATOM     56  C   UNL     1       6.345   2.534 -13.742  1.00  0.00     0.049 A 
ATOM     57  C   UNL     1       8.779   4.088  -8.951  1.00  0.00     0.074 A 
ATOM     58  C   UNL     1       7.123   2.595 -14.885  1.00  0.00     0.029 A 
ATOM     59  N   UNL     1       7.147   2.945 -12.689  1.00  0.00    -0.354 N 
ATOM     60  N   UNL     1       8.345   3.767 -10.146  1.00  0.00    -0.248 NA
ATOM     61  C   UNL     1      10.204   4.448  -8.905  1.00  0.00     0.031 C 
ATOM     62  C   UNL     1       8.412   2.987 -14.515  1.00  0.00     0.029 A 
ATOM     63  C   UNL     1       8.419   3.233 -13.152  1.00  0.00     0.049 A 
ATOM     64  H   UNL     1       6.855   3.020 -11.752  1.00  0.00     0.167 HD
ATOM     65  C   UNL     1       9.432   3.917 -10.997  1.00  0.00     0.074 A 
ATOM     66  C   UNL     1      10.540   4.375 -10.185  1.00  0.00     0.031 C 
ATOM     67  C   UNL     1       9.508   3.694 -12.331  1.00  0.00     0.031 A 
BRANCH  54  68
ATOM     68  C   UNL     1       4.260   1.639 -14.847  1.00  0.00    -0.014 A 
ATOM     69  C   UNL     1       3.247   2.395 -15.458  1.00  0.00     0.009 A 
ATOM     70  C   UNL     1       4.650   0.426 -15.437  1.00  0.00     0.009 A 
ATOM     71  C   UNL     1       2.618   1.932 -16.616  1.00  0.00     0.001 A 
ATOM     72  C   UNL     1       4.041  -0.020 -16.611  1.00  0.00     0.001 A 
ATOM     73  C   UNL     1       3.020   0.729 -17.195  1.00  0.00     0.000 A 
ENDBRANCH  54  68
BRANCH  55  74
ATOM     74  C   UNL     1       8.715   4.543  -6.394  1.00  0.00    -0.014 A 
ATOM     75  C   UNL     1       9.182   5.855  -6.218  1.00  0.00     0.009 A 
ATOM     76  C   UNL     1       8.937   3.604  -5.375  1.00  0.00     0.009 A 
ATOM     77  C   UNL     1       9.888   6.207  -5.066  1.00  0.00     0.001 A 
ATOM     78  C   UNL     1       9.614   3.968  -4.209  1.00  0.00     0.001 A 
ATOM     79  C   UNL     1      10.101   5.265  -4.061  1.00  0.00     0.000 A 
ENDBRANCH  55  74
BRANCH  67  80
ATOM     80  C   UNL     1      10.820   3.985 -13.005  1.00  0.00    -0.014 A 
ATOM     81  C   UNL     1      11.942   3.166 -12.807  1.00  0.00     0.009 A 
ATOM     82  C   UNL     1      10.918   5.072 -13.889  1.00  0.00     0.009 A 
ATOM     83  C   UNL     1      13.146   3.452 -13.454  1.00  0.00     0.001 A 
ATOM     84  C   UNL     1      12.113   5.336 -14.558  1.00  0.00     0.001 A 
ATOM     85  C   UNL     1      13.228   4.532 -14.333  1.00  0.00     0.000 A 
ENDBRANCH  67  80
ENDBRANCH  41  42
ENDBRANCH  33  36
ENDBRANCH  31  32
ENDBRANCH   1  31
TORSDOF 11
