REMARK SMILES C[C@@H](NC1=[NH+]CCC1)C(=O)NCCCNC(=O)c1ccc(-c2c3nc(c(-c4ccccc4)c4ccc([nH]4)c(-c4ccccc4)c4nc(c(-c5ccccc5)c5ccc2[nH]5)C=C4)C=C3)cc1
REMARK SMILES IDX 13 1 12 2 11 3 9 4 10 5 2 7 1 8 3 9 4 10 5 12 8 13 6 14 7 16
REMARK SMILES IDX 14 17 15 18 16 19 17 21 18 22 19 23 65 24 20 25 64 26 21 27
REMARK SMILES IDX 22 28 23 29 58 30 24 31 63 32 57 33 59 34 25 35 62 36 56 37
REMARK SMILES IDX 55 38 26 40 48 41 33 42 47 43 34 44 37 45 46 46 60 47 35 48
REMARK SMILES IDX 36 49 45 51 61 52 38 53 27 54 28 55 32 56 29 57 31 58 30 59
REMARK SMILES IDX 49 60 50 61 54 62 51 63 53 64 52 65 39 66 40 67 44 68 41 69
REMARK SMILES IDX 43 70 42 71
REMARK H PARENT 11 6 3 11 5 15 15 20 59 39 37 50
REMARK Flexibility Score: inf
ROOT
ATOM      1  C   UNL     1      -1.430   0.733   2.712  1.00  0.00     0.042 C 
ENDROOT
BRANCH   1   2
ATOM      2  C   UNL     1      -1.116  -0.643   2.157  1.00  0.00     0.118 C 
BRANCH   2   3
ATOM      3  N   UNL     1      -1.649  -0.816   0.816  1.00  0.00    -0.352 N 
ATOM      4  C   UNL     1      -1.037  -1.263  -0.318  1.00  0.00     0.264 C 
ATOM      5  O   UNL     1      -1.720  -1.319  -1.346  1.00  0.00    -0.270 OA
ATOM      6  H   UNL     1      -2.598  -0.574   0.710  1.00  0.00     0.163 HD
BRANCH   4   7
ATOM      7  C   UNL     1       0.450  -1.656  -0.337  1.00  0.00     0.258 C 
ATOM      8  C   UNL     1       1.295  -0.381  -0.302  1.00  0.00     0.069 C 
BRANCH   7   9
ATOM      9  N   UNL     1       0.845  -2.554   0.747  1.00  0.00    -0.267 N 
ATOM     10  C   UNL     1       0.060  -3.440   1.424  1.00  0.00     0.243 C 
ATOM     11  H   UNL     1       1.790  -2.515   1.020  1.00  0.00     0.305 HD
ATOM     12  N   UNL     1       0.283  -3.644   2.691  1.00  0.00    -0.279 N 
ATOM     13  C   UNL     1      -1.083  -4.216   0.835  1.00  0.00     0.131 C 
ATOM     14  C   UNL     1      -0.796  -4.540   3.151  1.00  0.00     0.234 C 
ATOM     15  H   UNL     1       1.020  -3.276   3.231  1.00  0.00     0.304 HD
ATOM     16  C   UNL     1      -1.883  -4.445   2.096  1.00  0.00     0.058 C 
ENDBRANCH   7   9
ENDBRANCH   4   7
ENDBRANCH   2   3
ENDBRANCH   1   2
BRANCH   1  17
ATOM     17  C   UNL     1      -2.914   0.956   2.948  1.00  0.00     0.118 C 
BRANCH  17  18
ATOM     18  N   UNL     1      -3.459   0.093   3.989  1.00  0.00    -0.352 N 
ATOM     19  C   UNL     1      -4.120   0.434   5.143  1.00  0.00     0.251 C 
ATOM     20  H   UNL     1      -3.336  -0.873   3.843  1.00  0.00     0.163 HD
ATOM     21  O   UNL     1      -4.368  -0.417   5.992  1.00  0.00    -0.269 OA
BRANCH  19  22
ATOM     22  C   UNL     1      -4.504   1.841   5.371  1.00  0.00     0.039 A 
ATOM     23  C   UNL     1      -4.254   2.418   6.617  1.00  0.00     0.014 A 
ATOM     24  C   UNL     1      -5.073   2.597   4.343  1.00  0.00     0.014 A 
ATOM     25  C   UNL     1      -4.506   3.777   6.806  1.00  0.00     0.010 A 
ATOM     26  C   UNL     1      -5.228   3.967   4.502  1.00  0.00     0.010 A 
ATOM     27  C   UNL     1      -4.952   4.571   5.737  1.00  0.00    -0.014 A 
BRANCH  27  28
ATOM     28  C   UNL     1      -5.135   6.035   5.889  1.00  0.00     0.031 A 
ATOM     29  C   UNL     1      -6.495   6.649   5.702  1.00  0.00     0.074 A 
ATOM     30  C   UNL     1      -4.065   6.818   6.131  1.00  0.00     0.049 A 
ATOM     31  N   UNL     1      -6.843   7.910   5.747  1.00  0.00    -0.248 NA
ATOM     32  C   UNL     1      -7.604   5.731   5.396  1.00  0.00     0.031 C 
ATOM     33  C   UNL     1      -2.686   6.349   6.286  1.00  0.00     0.029 A 
ATOM     34  N   UNL     1      -3.971   8.178   6.288  1.00  0.00    -0.354 N 
ATOM     35  C   UNL     1      -8.202   7.935   5.461  1.00  0.00     0.074 A 
ATOM     36  C   UNL     1      -8.603   6.574   5.185  1.00  0.00     0.031 C 
ATOM     37  C   UNL     1      -1.892   7.398   6.552  1.00  0.00     0.029 A 
ATOM     38  C   UNL     1      -2.694   8.616   6.540  1.00  0.00     0.049 A 
ATOM     39  H   UNL     1      -4.746   8.782   6.225  1.00  0.00     0.167 HD
ATOM     40  C   UNL     1      -9.047   8.993   5.451  1.00  0.00     0.031 A 
ATOM     41  C   UNL     1      -2.220   9.861   6.735  1.00  0.00     0.031 A 
ATOM     42  C   UNL     1      -8.649  10.345   5.734  1.00  0.00     0.049 A 
ATOM     43  C   UNL     1      -3.176  11.021   6.700  1.00  0.00     0.074 A 
ATOM     44  C   UNL     1      -9.438  11.479   5.805  1.00  0.00     0.029 A 
ATOM     45  N   UNL     1      -7.346  10.747   5.986  1.00  0.00    -0.354 N 
ATOM     46  N   UNL     1      -4.472  11.019   6.503  1.00  0.00    -0.248 NA
ATOM     47  C   UNL     1      -2.603  12.355   6.927  1.00  0.00     0.031 C 
ATOM     48  C   UNL     1      -8.605  12.576   6.042  1.00  0.00     0.029 A 
ATOM     49  C   UNL     1      -7.305  12.116   6.185  1.00  0.00     0.049 A 
ATOM     50  H   UNL     1      -6.566  10.147   6.019  1.00  0.00     0.167 HD
ATOM     51  C   UNL     1      -4.874  12.344   6.612  1.00  0.00     0.074 A 
ATOM     52  C   UNL     1      -3.687  13.118   6.910  1.00  0.00     0.031 C 
ATOM     53  C   UNL     1      -6.115  12.872   6.478  1.00  0.00     0.031 A 
BRANCH  40  54
ATOM     54  C   UNL     1     -10.489   8.725   5.116  1.00  0.00    -0.014 A 
ATOM     55  C   UNL     1     -11.320   8.006   5.991  1.00  0.00     0.009 A 
ATOM     56  C   UNL     1     -11.034   9.226   3.924  1.00  0.00     0.009 A 
ATOM     57  C   UNL     1     -12.655   7.761   5.661  1.00  0.00     0.001 A 
ATOM     58  C   UNL     1     -12.377   9.009   3.611  1.00  0.00     0.001 A 
ATOM     59  C   UNL     1     -13.183   8.268   4.474  1.00  0.00     0.000 A 
ENDBRANCH  40  54
BRANCH  41  60
ATOM     60  C   UNL     1      -0.772  10.077   6.996  1.00  0.00    -0.014 A 
ATOM     61  C   UNL     1      -0.330  10.501   8.259  1.00  0.00     0.009 A 
ATOM     62  C   UNL     1       0.176   9.868   5.982  1.00  0.00     0.009 A 
ATOM     63  C   UNL     1       1.026  10.741   8.492  1.00  0.00     0.001 A 
ATOM     64  C   UNL     1       1.535  10.078   6.227  1.00  0.00     0.001 A 
ATOM     65  C   UNL     1       1.958  10.524   7.478  1.00  0.00     0.000 A 
ENDBRANCH  41  60
BRANCH  53  66
ATOM     66  C   UNL     1      -6.258  14.353   6.691  1.00  0.00    -0.014 A 
ATOM     67  C   UNL     1      -5.759  15.278   5.761  1.00  0.00     0.009 A 
ATOM     68  C   UNL     1      -6.942  14.827   7.822  1.00  0.00     0.009 A 
ATOM     69  C   UNL     1      -5.910  16.649   5.979  1.00  0.00     0.001 A 
ATOM     70  C   UNL     1      -7.121  16.196   8.020  1.00  0.00     0.001 A 
ATOM     71  C   UNL     1      -6.596  17.106   7.105  1.00  0.00     0.000 A 
ENDBRANCH  53  66
ENDBRANCH  27  28
ENDBRANCH  19  22
ENDBRANCH  17  18
ENDBRANCH   1  17
TORSDOF 11
