REMARK SMILES O=C(NCCCNC(=O)[C@@H](Cc1ccc(F)cc1)NC(=O)c1ccn(C2CCCC2)n1)c1ccc(-c2c3nc(c(-c4ccccc4)c4ccc([nH]4)c(-c4ccccc4)c4nc(c(-c5ccccc5)c5ccc2[nH]5)C=C4)C=C3)cc1
REMARK SMILES IDX 5 1 4 2 3 3 1 4 2 5 32 7 33 8 79 9 34 10 78 11 35 12 36 13
REMARK SMILES IDX 37 14 72 15 38 16 77 17 71 18 73 19 39 20 76 21 70 22 69 23
REMARK SMILES IDX 40 25 62 26 47 27 61 28 48 29 51 30 60 31 74 32 49 33 50 34
REMARK SMILES IDX 59 36 75 37 52 38 41 39 42 40 46 41 43 42 45 43 44 44 63 45
REMARK SMILES IDX 64 46 68 47 65 48 67 49 66 50 53 51 54 52 58 53 55 54 57 55
REMARK SMILES IDX 56 56 6 57 7 58 8 59 9 61 10 62 11 63 12 64 13 65 18 66
REMARK SMILES IDX 14 67 17 68 15 69 16 70 19 71 20 72 21 74 22 75 23 76 31 77
REMARK SMILES IDX 24 78 25 79 26 80 27 81 30 82 28 83 29 84
REMARK H PARENT 3 6 73 24 51 35 7 60 19 73
REMARK Flexibility Score: inf
ROOT
ATOM      1  C   UNL     1       5.020  -1.649   1.194  1.00  0.00     0.042 C 
ENDROOT
BRANCH   1   2
ATOM      2  C   UNL     1       4.535  -1.086  -0.140  1.00  0.00     0.118 C 
BRANCH   2   3
ATOM      3  N   UNL     1       3.093  -1.024  -0.268  1.00  0.00    -0.352 N 
ATOM      4  O   UNL     1       0.979  -0.493  -0.412  1.00  0.00    -0.269 OA
ATOM      5  C   UNL     1       2.094  -0.130  -0.020  1.00  0.00     0.251 C 
ATOM      6  H   UNL     1       2.733  -1.863  -0.637  1.00  0.00     0.163 HD
BRANCH   5   7
ATOM      7  C   UNL     1       2.191   1.170   0.702  1.00  0.00     0.039 A 
ATOM      8  C   UNL     1       3.347   1.817   1.136  1.00  0.00     0.014 A 
ATOM      9  C   UNL     1       0.946   1.777   0.983  1.00  0.00     0.014 A 
ATOM     10  C   UNL     1       3.245   3.003   1.887  1.00  0.00     0.010 A 
ATOM     11  C   UNL     1       0.841   2.933   1.746  1.00  0.00     0.010 A 
ATOM     12  C   UNL     1       1.992   3.534   2.237  1.00  0.00    -0.014 A 
BRANCH  12  13
ATOM     13  C   UNL     1       1.894   4.839   2.909  1.00  0.00     0.031 A 
ATOM     14  C   UNL     1       2.374   5.967   2.060  1.00  0.00     0.074 A 
ATOM     15  C   UNL     1       1.238   5.080   4.070  1.00  0.00     0.049 A 
ATOM     16  N   UNL     1       3.369   6.761   2.283  1.00  0.00    -0.248 NA
ATOM     17  C   UNL     1       1.746   6.152   0.739  1.00  0.00     0.031 C 
ATOM     18  C   UNL     1       0.457   4.130   4.866  1.00  0.00     0.029 A 
ATOM     19  N   UNL     1       1.035   6.262   4.737  1.00  0.00    -0.354 N 
ATOM     20  C   UNL     1       3.369   7.674   1.232  1.00  0.00     0.074 A 
ATOM     21  C   UNL     1       2.479   7.143   0.232  1.00  0.00     0.031 C 
ATOM     22  C   UNL     1      -0.309   4.805   5.758  1.00  0.00     0.029 A 
ATOM     23  C   UNL     1       0.013   6.221   5.690  1.00  0.00     0.049 A 
ATOM     24  H   UNL     1       1.565   7.072   4.560  1.00  0.00     0.167 HD
ATOM     25  C   UNL     1       3.873   8.930   1.386  1.00  0.00     0.031 A 
ATOM     26  C   UNL     1      -0.559   7.268   6.346  1.00  0.00     0.031 A 
ATOM     27  C   UNL     1       4.729   9.020   2.542  1.00  0.00     0.049 A 
ATOM     28  C   UNL     1       0.356   8.422   6.239  1.00  0.00     0.074 A 
ATOM     29  C   UNL     1       5.874   8.379   2.971  1.00  0.00     0.029 A 
ATOM     30  N   UNL     1       4.206   9.637   3.652  1.00  0.00    -0.354 N 
ATOM     31  N   UNL     1       1.500   8.494   6.851  1.00  0.00    -0.248 NA
ATOM     32  C   UNL     1       0.185   9.325   5.114  1.00  0.00     0.031 C 
ATOM     33  C   UNL     1       5.714   8.245   4.382  1.00  0.00     0.029 A 
ATOM     34  C   UNL     1       4.526   8.879   4.743  1.00  0.00     0.049 A 
ATOM     35  H   UNL     1       3.692  10.476   3.660  1.00  0.00     0.167 HD
ATOM     36  C   UNL     1       2.347   9.070   5.919  1.00  0.00     0.074 A 
ATOM     37  C   UNL     1       1.462   9.660   4.915  1.00  0.00     0.031 C 
ATOM     38  C   UNL     1       3.676   8.760   5.904  1.00  0.00     0.031 A 
BRANCH  25  39
ATOM     39  C   UNL     1       3.204  10.157   0.799  1.00  0.00    -0.014 A 
ATOM     40  C   UNL     1       3.764  11.420   1.073  1.00  0.00     0.009 A 
ATOM     41  C   UNL     1       1.897  10.152   0.275  1.00  0.00     0.009 A 
ATOM     42  C   UNL     1       3.016  12.596   0.938  1.00  0.00     0.001 A 
ATOM     43  C   UNL     1       1.163  11.327   0.095  1.00  0.00     0.001 A 
ATOM     44  C   UNL     1       1.710  12.547   0.461  1.00  0.00     0.000 A 
ENDBRANCH  25  39
BRANCH  26  45
ATOM     45  C   UNL     1      -1.940   7.456   6.863  1.00  0.00    -0.014 A 
ATOM     46  C   UNL     1      -2.244   8.503   7.756  1.00  0.00     0.009 A 
ATOM     47  C   UNL     1      -3.018   6.801   6.246  1.00  0.00     0.009 A 
ATOM     48  C   UNL     1      -3.570   8.906   7.981  1.00  0.00     0.001 A 
ATOM     49  C   UNL     1      -4.342   7.201   6.473  1.00  0.00     0.001 A 
ATOM     50  C   UNL     1      -4.618   8.265   7.326  1.00  0.00     0.000 A 
ENDBRANCH  26  45
BRANCH  38  51
ATOM     51  C   UNL     1       4.248   8.025   7.090  1.00  0.00    -0.014 A 
ATOM     52  C   UNL     1       3.799   6.763   7.518  1.00  0.00     0.009 A 
ATOM     53  C   UNL     1       5.373   8.580   7.718  1.00  0.00     0.009 A 
ATOM     54  C   UNL     1       4.439   6.097   8.569  1.00  0.00     0.001 A 
ATOM     55  C   UNL     1       6.026   7.904   8.749  1.00  0.00     0.001 A 
ATOM     56  C   UNL     1       5.555   6.666   9.180  1.00  0.00     0.000 A 
ENDBRANCH  38  51
ENDBRANCH  12  13
ENDBRANCH   5   7
ENDBRANCH   2   3
ENDBRANCH   1   2
BRANCH   1  57
ATOM     57  C   UNL     1       4.394  -2.986   1.614  1.00  0.00     0.117 C 
BRANCH  57  58
ATOM     58  N   UNL     1       5.306  -4.105   1.485  1.00  0.00    -0.354 N 
ATOM     59  C   UNL     1       6.000  -4.834   2.396  1.00  0.00     0.242 C 
ATOM     60  H   UNL     1       5.451  -4.393   0.555  1.00  0.00     0.163 HD
ATOM     61  O   UNL     1       6.568  -5.840   1.948  1.00  0.00    -0.273 OA
BRANCH  59  62
ATOM     62  C   UNL     1       6.067  -4.543   3.917  1.00  0.00     0.176 C 
BRANCH  62  63
ATOM     63  C   UNL     1       6.677  -3.201   4.386  1.00  0.00     0.070 C 
BRANCH  63  64
ATOM     64  C   UNL     1       5.896  -1.903   4.453  1.00  0.00    -0.045 A 
ATOM     65  C   UNL     1       4.542  -1.812   4.807  1.00  0.00     0.007 A 
ATOM     66  C   UNL     1       6.591  -0.701   4.207  1.00  0.00     0.007 A 
ATOM     67  C   UNL     1       3.865  -0.590   4.755  1.00  0.00     0.039 A 
ATOM     68  C   UNL     1       5.928   0.529   4.204  1.00  0.00     0.039 A 
ATOM     69  C   UNL     1       4.564   0.568   4.455  1.00  0.00     0.123 A 
ATOM     70  F   UNL     1       3.915   1.736   4.414  1.00  0.00    -0.207 F 
ENDBRANCH  63  64
ENDBRANCH  62  63
BRANCH  62  71
ATOM     71  N   UNL     1       4.879  -4.961   4.650  1.00  0.00    -0.339 N 
ATOM     72  C   UNL     1       4.692  -5.947   5.590  1.00  0.00     0.272 C 
ATOM     73  H   UNL     1       4.068  -4.446   4.434  1.00  0.00     0.164 HD
ATOM     74  O   UNL     1       3.550  -6.036   6.062  1.00  0.00    -0.267 OA
BRANCH  72  75
ATOM     75  C   UNL     1       5.771  -6.880   5.955  1.00  0.00     0.150 A 
ATOM     76  C   UNL     1       7.145  -6.644   6.243  1.00  0.00     0.056 A 
ATOM     77  N   UNL     1       5.502  -8.194   6.063  1.00  0.00    -0.167 NA
ATOM     78  C   UNL     1       7.707  -7.887   6.426  1.00  0.00     0.110 A 
ATOM     79  N   UNL     1       6.686  -8.780   6.294  1.00  0.00    -0.269 N 
BRANCH  79  80
ATOM     80  C   UNL     1       6.786 -10.224   6.320  1.00  0.00     0.107 C 
ATOM     81  C   UNL     1       5.985 -10.897   7.433  1.00  0.00     0.027 C 
ATOM     82  C   UNL     1       6.249 -10.904   5.059  1.00  0.00     0.027 C 
ATOM     83  C   UNL     1       5.947 -12.359   7.003  1.00  0.00     0.002 C 
ATOM     84  C   UNL     1       5.986 -12.349   5.474  1.00  0.00     0.002 C 
ENDBRANCH  79  80
ENDBRANCH  72  75
ENDBRANCH  62  71
ENDBRANCH  59  62
ENDBRANCH  57  58
ENDBRANCH   1  57
TORSDOF 15
