REMARK SMILES C[C@H]1[C@H](C(=O)NCCCNC(=O)c2ccc(-c3c4nc(c(-c5ccccc5)c5ccc([nH]5)c(-c5ccccc5)c5nc(c(-c6ccccc6)c6ccc3[nH]6)C=C5)C=C4)cc2)CCN1C(=O)Nc1ccc(F)c(Cl)c1
REMARK SMILES IDX 8 1 7 2 6 3 4 4 5 5 3 7 1 8 2 9 63 10 61 11 62 12 64 13
REMARK SMILES IDX 65 14 66 15 67 17 68 18 74 19 69 20 72 21 70 22 73 23 71 24
REMARK SMILES IDX 9 25 10 26 11 27 12 29 13 30 14 31 60 32 15 33 59 34 16 35
REMARK SMILES IDX 17 36 18 37 53 38 19 39 58 40 52 41 54 42 20 43 57 44 51 45
REMARK SMILES IDX 50 46 21 48 43 49 28 50 42 51 29 52 32 53 41 54 55 55 30 56
REMARK SMILES IDX 31 57 40 59 56 60 33 61 22 62 23 63 27 64 24 65 26 66 25 67
REMARK SMILES IDX 44 68 45 69 49 70 46 71 48 72 47 73 34 74 35 75 39 76 36 77
REMARK SMILES IDX 38 78 37 79
REMARK H PARENT 6 6 66 16 10 28 54 47 32 58
REMARK Flexibility Score: inf
ROOT
ATOM      1  C   UNL     1      -0.628   0.254   4.161  1.00  0.00     0.042 C 
ENDROOT
BRANCH   1   2
ATOM      2  C   UNL     1      -1.353   0.753   2.915  1.00  0.00     0.117 C 
BRANCH   2   3
ATOM      3  N   UNL     1      -0.731   1.929   2.324  1.00  0.00    -0.356 N 
ATOM      4  C   UNL     1      -0.330   2.232   1.064  1.00  0.00     0.225 C 
ATOM      5  O   UNL     1       0.107   3.376   0.892  1.00  0.00    -0.275 OA
ATOM      6  H   UNL     1      -0.568   2.652   2.971  1.00  0.00     0.163 HD
BRANCH   4   7
ATOM      7  C   UNL     1      -0.323   1.255  -0.104  1.00  0.00     0.102 C 
ATOM      8  C   UNL     1       1.715   0.256  -1.218  1.00  0.00     0.032 C 
ATOM      9  C   UNL     1       0.812   0.227   0.017  1.00  0.00     0.096 C 
ATOM     10  N   UNL     1       0.149  -1.070   0.179  1.00  0.00    -0.321 N 
ATOM     11  C   UNL     1      -1.610   0.478  -0.342  1.00  0.00     0.037 C 
ATOM     12  C   UNL     1      -1.217  -0.990  -0.316  1.00  0.00     0.122 C 
BRANCH  10  13
ATOM     13  C   UNL     1       0.657  -2.322   0.417  1.00  0.00     0.322 C 
ATOM     14  O   UNL     1      -0.047  -3.327   0.262  1.00  0.00    -0.248 OA
ATOM     15  N   UNL     1       1.969  -2.547   0.676  1.00  0.00    -0.308 N 
ATOM     16  H   UNL     1       2.281  -3.415   0.331  1.00  0.00     0.171 HD
BRANCH  15  17
ATOM     17  C   UNL     1       2.980  -1.828   1.321  1.00  0.00     0.044 A 
ATOM     18  C   UNL     1       4.309  -2.121   0.996  1.00  0.00     0.029 A 
ATOM     19  C   UNL     1       2.718  -0.884   2.307  1.00  0.00     0.049 A 
ATOM     20  C   UNL     1       5.351  -1.379   1.560  1.00  0.00     0.043 A 
ATOM     21  C   UNL     1       3.752  -0.131   2.865  1.00  0.00     0.078 A 
ATOM     22  C   UNL     1       5.064  -0.370   2.475  1.00  0.00     0.141 A 
ATOM     23  Cl  UNL     1       3.376   1.099   4.010  1.00  0.00    -0.081 Cl
ATOM     24  F   UNL     1       6.073   0.359   2.972  1.00  0.00    -0.205 F 
ENDBRANCH  15  17
ENDBRANCH  10  13
ENDBRANCH   4   7
ENDBRANCH   2   3
ENDBRANCH   1   2
BRANCH   1  25
ATOM     25  C   UNL     1      -0.590   1.223   5.334  1.00  0.00     0.118 C 
BRANCH  25  26
ATOM     26  N   UNL     1      -1.785   1.155   6.155  1.00  0.00    -0.352 N 
ATOM     27  C   UNL     1      -2.012   0.567   7.377  1.00  0.00     0.251 C 
ATOM     28  H   UNL     1      -2.569   1.609   5.771  1.00  0.00     0.163 HD
ATOM     29  O   UNL     1      -3.170   0.493   7.784  1.00  0.00    -0.269 OA
BRANCH  27  30
ATOM     30  C   UNL     1      -0.918  -0.001   8.208  1.00  0.00     0.039 A 
ATOM     31  C   UNL     1      -1.196  -1.142   8.971  1.00  0.00     0.014 A 
ATOM     32  C   UNL     1       0.337   0.600   8.326  1.00  0.00     0.014 A 
ATOM     33  C   UNL     1      -0.217  -1.695   9.804  1.00  0.00     0.010 A 
ATOM     34  C   UNL     1       1.343  -0.003   9.087  1.00  0.00     0.010 A 
ATOM     35  C   UNL     1       1.074  -1.147   9.852  1.00  0.00    -0.014 A 
BRANCH  35  36
ATOM     36  C   UNL     1       2.128  -1.743  10.718  1.00  0.00     0.031 A 
ATOM     37  C   UNL     1       2.718  -0.959  11.862  1.00  0.00     0.074 A 
ATOM     38  C   UNL     1       2.585  -2.985  10.464  1.00  0.00     0.049 A 
ATOM     39  N   UNL     1       3.652  -1.312  12.712  1.00  0.00    -0.248 NA
ATOM     40  C   UNL     1       2.210   0.406  12.068  1.00  0.00     0.031 C 
ATOM     41  C   UNL     1       2.139  -3.845   9.366  1.00  0.00     0.029 A 
ATOM     42  N   UNL     1       3.527  -3.742  11.117  1.00  0.00    -0.354 N 
ATOM     43  C   UNL     1       3.855  -0.210  13.534  1.00  0.00     0.074 A 
ATOM     44  C   UNL     1       2.981   0.839  13.054  1.00  0.00     0.031 C 
ATOM     45  C   UNL     1       2.784  -5.021   9.440  1.00  0.00     0.029 A 
ATOM     46  C   UNL     1       3.710  -4.988  10.568  1.00  0.00     0.049 A 
ATOM     47  H   UNL     1       4.025  -3.421  11.903  1.00  0.00     0.167 HD
ATOM     48  C   UNL     1       4.675  -0.082  14.605  1.00  0.00     0.031 A 
ATOM     49  C   UNL     1       4.527  -5.995  10.929  1.00  0.00     0.031 A 
ATOM     50  C   UNL     1       5.534  -1.123  15.105  1.00  0.00     0.049 A 
ATOM     51  C   UNL     1       5.418  -5.836  12.129  1.00  0.00     0.074 A 
ATOM     52  C   UNL     1       6.359  -1.101  16.217  1.00  0.00     0.029 A 
ATOM     53  N   UNL     1       5.677  -2.373  14.526  1.00  0.00    -0.354 N 
ATOM     54  N   UNL     1       5.550  -4.807  12.929  1.00  0.00    -0.248 NA
ATOM     55  C   UNL     1       6.262  -6.987  12.482  1.00  0.00     0.031 C 
ATOM     56  C   UNL     1       7.030  -2.326  16.289  1.00  0.00     0.029 A 
ATOM     57  C   UNL     1       6.588  -3.126  15.248  1.00  0.00     0.049 A 
ATOM     58  H   UNL     1       5.201  -2.681  13.722  1.00  0.00     0.167 HD
ATOM     59  C   UNL     1       6.476  -5.192  13.889  1.00  0.00     0.074 A 
ATOM     60  C   UNL     1       6.858  -6.555  13.584  1.00  0.00     0.031 C 
ATOM     61  C   UNL     1       6.967  -4.478  14.931  1.00  0.00     0.031 A 
BRANCH  48  62
ATOM     62  C   UNL     1       4.680   1.244  15.314  1.00  0.00    -0.014 A 
ATOM     63  C   UNL     1       3.588   1.651  16.097  1.00  0.00     0.009 A 
ATOM     64  C   UNL     1       5.800   2.084  15.220  1.00  0.00     0.009 A 
ATOM     65  C   UNL     1       3.602   2.890  16.741  1.00  0.00     0.001 A 
ATOM     66  C   UNL     1       5.822   3.311  15.887  1.00  0.00     0.001 A 
ATOM     67  C   UNL     1       4.720   3.717  16.638  1.00  0.00     0.000 A 
ENDBRANCH  48  62
BRANCH  49  68
ATOM     68  C   UNL     1       4.527  -7.261  10.153  1.00  0.00    -0.014 A 
ATOM     69  C   UNL     1       3.943  -8.421  10.686  1.00  0.00     0.009 A 
ATOM     70  C   UNL     1       5.110  -7.316   8.878  1.00  0.00     0.009 A 
ATOM     71  C   UNL     1       3.963  -9.616   9.965  1.00  0.00     0.001 A 
ATOM     72  C   UNL     1       5.105  -8.507   8.149  1.00  0.00     0.001 A 
ATOM     73  C   UNL     1       4.539  -9.657   8.696  1.00  0.00     0.000 A 
ENDBRANCH  49  68
BRANCH  61  74
ATOM     74  C   UNL     1       7.955  -5.166  15.828  1.00  0.00    -0.014 A 
ATOM     75  C   UNL     1       9.274  -5.401  15.410  1.00  0.00     0.009 A 
ATOM     76  C   UNL     1       7.568  -5.562  17.117  1.00  0.00     0.009 A 
ATOM     77  C   UNL     1      10.177  -6.051  16.255  1.00  0.00     0.001 A 
ATOM     78  C   UNL     1       8.479  -6.189  17.968  1.00  0.00     0.001 A 
ATOM     79  C   UNL     1       9.780  -6.441  17.533  1.00  0.00     0.000 A 
ENDBRANCH  61  74
ENDBRANCH  35  36
ENDBRANCH  27  30
ENDBRANCH  25  26
ENDBRANCH   1  25
TORSDOF 12
