REMARK SMILES Cc1cccc([C@@H](CC(F)(F)F)C(=O)NCCCNC(=O)c2ccc(-c3c4nc(c(-c5ccccc5)c5ccc([nH]5)c(-c5ccccc5)c5nc(c(-c6ccccc6)c6ccc3[nH]6)C=C5)C=C4)cc2)c1
REMARK SMILES IDX 17 1 16 2 15 3 13 4 14 5 7 7 6 8 1 9 2 10 3 11 70 12 4 13
REMARK SMILES IDX 5 14 8 15 9 16 10 17 11 18 12 19 18 20 19 21 20 22 21 24
REMARK SMILES IDX 22 25 23 26 69 27 24 28 68 29 25 30 26 31 27 32 62 33 28 34
REMARK SMILES IDX 67 35 61 36 63 37 29 38 66 39 60 40 59 41 30 43 52 44 37 45
REMARK SMILES IDX 51 46 38 47 41 48 50 49 64 50 39 51 40 52 49 54 65 55 42 56
REMARK SMILES IDX 31 57 32 58 36 59 33 60 35 61 34 62 53 63 54 64 58 65 55 66
REMARK SMILES IDX 57 67 56 68 43 69 44 70 48 71 45 72 47 73 46 74
REMARK H PARENT 15 6 19 23 63 42 41 53
REMARK Flexibility Score: inf
ROOT
ATOM      1  C   UNL     1      -3.915  -0.623   0.991  1.00  0.00     0.042 C 
ENDROOT
BRANCH   1   2
ATOM      2  C   UNL     1      -4.400   0.736   0.520  1.00  0.00     0.117 C 
BRANCH   2   3
ATOM      3  N   UNL     1      -3.704   1.835   1.162  1.00  0.00    -0.356 N 
ATOM      4  C   UNL     1      -2.623   2.579   0.830  1.00  0.00     0.227 C 
ATOM      5  O   UNL     1      -2.335   3.481   1.631  1.00  0.00    -0.274 OA
ATOM      6  H   UNL     1      -4.104   2.096   2.023  1.00  0.00     0.163 HD
BRANCH   4   7
ATOM      7  C   UNL     1      -1.763   2.408  -0.430  1.00  0.00     0.117 C 
BRANCH   7   8
ATOM      8  C   UNL     1      -0.905   1.147  -0.482  1.00  0.00    -0.035 A 
ATOM      9  C   UNL     1       2.732   0.211   0.308  1.00  0.00     0.044 C 
ATOM     10  C   UNL     1       1.284   0.097  -0.068  1.00  0.00    -0.051 A 
ATOM     11  C   UNL     1       0.755  -1.142  -0.431  1.00  0.00     0.003 A 
ATOM     12  C   UNL     1       0.443   1.220  -0.063  1.00  0.00     0.008 A 
ATOM     13  C   UNL     1      -0.564  -1.233  -0.862  1.00  0.00     0.001 A 
ATOM     14  C   UNL     1      -1.370  -0.091  -0.926  1.00  0.00     0.004 A 
ENDBRANCH   7   8
BRANCH   7  15
ATOM     15  C   UNL     1      -2.298   2.986  -1.749  1.00  0.00     0.133 C 
BRANCH  15  16
ATOM     16  C   UNL     1      -3.595   2.486  -2.321  1.00  0.00     0.390 C 
ATOM     17  F   UNL     1      -4.640   2.749  -1.511  1.00  0.00    -0.171 F 
ATOM     18  F   UNL     1      -3.848   3.109  -3.497  1.00  0.00    -0.171 F 
ATOM     19  F   UNL     1      -3.573   1.165  -2.581  1.00  0.00    -0.171 F 
ENDBRANCH  15  16
ENDBRANCH   7  15
ENDBRANCH   4   7
ENDBRANCH   2   3
ENDBRANCH   1   2
BRANCH   1  20
ATOM     20  C   UNL     1      -4.939  -1.374   1.817  1.00  0.00     0.118 C 
BRANCH  20  21
ATOM     21  N   UNL     1      -5.901  -2.136   1.016  1.00  0.00    -0.352 N 
ATOM     22  C   UNL     1      -6.878  -3.033   1.439  1.00  0.00     0.251 C 
ATOM     23  H   UNL     1      -5.848  -1.994   0.043  1.00  0.00     0.163 HD
ATOM     24  O   UNL     1      -7.645  -3.544   0.654  1.00  0.00    -0.269 OA
BRANCH  22  25
ATOM     25  C   UNL     1      -7.050  -3.226   2.901  1.00  0.00     0.039 A 
ATOM     26  C   UNL     1      -8.288  -2.870   3.440  1.00  0.00     0.014 A 
ATOM     27  C   UNL     1      -5.927  -3.349   3.708  1.00  0.00     0.014 A 
ATOM     28  C   UNL     1      -8.324  -2.326   4.717  1.00  0.00     0.010 A 
ATOM     29  C   UNL     1      -5.933  -2.671   4.907  1.00  0.00     0.010 A 
ATOM     30  C   UNL     1      -7.119  -2.091   5.374  1.00  0.00    -0.014 A 
BRANCH  30  31
ATOM     31  C   UNL     1      -6.989  -1.144   6.476  1.00  0.00     0.031 A 
ATOM     32  C   UNL     1      -6.630  -1.634   7.822  1.00  0.00     0.074 A 
ATOM     33  C   UNL     1      -7.168   0.182   6.269  1.00  0.00     0.049 A 
ATOM     34  N   UNL     1      -6.855  -0.977   8.908  1.00  0.00    -0.248 NA
ATOM     35  C   UNL     1      -6.074  -2.964   8.066  1.00  0.00     0.031 C 
ATOM     36  C   UNL     1      -6.814   1.280   7.165  1.00  0.00     0.029 A 
ATOM     37  N   UNL     1      -7.929   0.791   5.272  1.00  0.00    -0.354 N 
ATOM     38  C   UNL     1      -6.211  -1.633   9.926  1.00  0.00     0.074 A 
ATOM     39  C   UNL     1      -5.863  -2.920   9.384  1.00  0.00     0.031 C 
ATOM     40  C   UNL     1      -7.529   2.366   6.834  1.00  0.00     0.029 A 
ATOM     41  C   UNL     1      -8.475   1.970   5.806  1.00  0.00     0.049 A 
ATOM     42  H   UNL     1      -8.059   0.455   4.356  1.00  0.00     0.167 HD
ATOM     43  C   UNL     1      -5.918  -0.951  11.065  1.00  0.00     0.031 A 
ATOM     44  C   UNL     1      -9.826   2.149   5.889  1.00  0.00     0.031 A 
ATOM     45  C   UNL     1      -6.632   0.324  11.127  1.00  0.00     0.049 A 
ATOM     46  C   UNL     1     -10.342   2.272   7.308  1.00  0.00     0.074 A 
ATOM     47  C   UNL     1      -6.246   1.644  10.975  1.00  0.00     0.029 A 
ATOM     48  N   UNL     1      -8.023   0.314  11.102  1.00  0.00    -0.354 N 
ATOM     49  N   UNL     1      -9.646   1.965   8.368  1.00  0.00    -0.248 NA
ATOM     50  C   UNL     1     -11.697   2.707   7.644  1.00  0.00     0.031 C 
ATOM     51  C   UNL     1      -7.421   2.418  10.763  1.00  0.00     0.029 A 
ATOM     52  C   UNL     1      -8.517   1.575  10.834  1.00  0.00     0.049 A 
ATOM     53  H   UNL     1      -8.580  -0.484  11.254  1.00  0.00     0.167 HD
ATOM     54  C   UNL     1     -10.421   2.110   9.489  1.00  0.00     0.074 A 
ATOM     55  C   UNL     1     -11.691   2.599   8.985  1.00  0.00     0.031 C 
ATOM     56  C   UNL     1      -9.956   1.790  10.732  1.00  0.00     0.031 A 
BRANCH  43  57
ATOM     57  C   UNL     1      -4.810  -1.337  12.020  1.00  0.00    -0.014 A 
ATOM     58  C   UNL     1      -4.489  -0.478  13.086  1.00  0.00     0.009 A 
ATOM     59  C   UNL     1      -3.965  -2.453  11.863  1.00  0.00     0.009 A 
ATOM     60  C   UNL     1      -3.385  -0.709  13.923  1.00  0.00     0.001 A 
ATOM     61  C   UNL     1      -2.878  -2.706  12.709  1.00  0.00     0.001 A 
ATOM     62  C   UNL     1      -2.580  -1.826  13.735  1.00  0.00     0.000 A 
ENDBRANCH  43  57
BRANCH  44  63
ATOM     63  C   UNL     1     -10.576   1.535   4.759  1.00  0.00    -0.014 A 
ATOM     64  C   UNL     1     -10.438   2.113   3.481  1.00  0.00     0.009 A 
ATOM     65  C   UNL     1     -11.074   0.228   4.853  1.00  0.00     0.009 A 
ATOM     66  C   UNL     1     -10.674   1.361   2.326  1.00  0.00     0.001 A 
ATOM     67  C   UNL     1     -11.314  -0.520   3.692  1.00  0.00     0.001 A 
ATOM     68  C   UNL     1     -11.079   0.034   2.433  1.00  0.00     0.000 A 
ENDBRANCH  44  63
BRANCH  56  69
ATOM     69  C   UNL     1     -10.785   1.682  11.992  1.00  0.00    -0.014 A 
ATOM     70  C   UNL     1     -12.171   1.479  12.018  1.00  0.00     0.009 A 
ATOM     71  C   UNL     1     -10.120   1.646  13.240  1.00  0.00     0.009 A 
ATOM     72  C   UNL     1     -12.861   1.295  13.226  1.00  0.00     0.001 A 
ATOM     73  C   UNL     1     -10.796   1.416  14.441  1.00  0.00     0.001 A 
ATOM     74  C   UNL     1     -12.173   1.253  14.435  1.00  0.00     0.000 A 
ENDBRANCH  56  69
ENDBRANCH  30  31
ENDBRANCH  22  25
ENDBRANCH  20  21
ENDBRANCH   1  20
TORSDOF 13
