REMARK SMILES CC(C)[NH2+][C@]1(C(=O)NCCCNC(=O)c2ccc(-c3c4nc(c(-c5ccccc5)c5ccc([nH]5)c(-c5ccccc5)c5nc(c(-c6ccccc6)c6ccc3[nH]6)C=C5)C=C4)cc2)CC[C@H]([NH+]2CCC(C)(C)CC2)C1
REMARK SMILES IDX 10 1 9 2 8 3 6 4 7 5 5 7 63 8 74 9 64 10 65 11 4 12 2 15
REMARK SMILES IDX 1 16 3 17 66 18 67 19 73 20 68 22 72 23 69 24 70 25 71 26
REMARK SMILES IDX 11 27 12 28 13 29 14 31 15 32 16 33 62 34 17 35 61 36 18 37
REMARK SMILES IDX 19 38 20 39 55 40 21 41 60 42 54 43 56 44 22 45 59 46 53 47
REMARK SMILES IDX 52 48 23 50 45 51 30 52 44 53 31 54 34 55 43 56 57 57 32 58
REMARK SMILES IDX 33 59 42 61 58 62 35 63 24 64 25 65 29 66 26 67 28 68 27 69
REMARK SMILES IDX 46 70 47 71 51 72 48 73 50 74 49 75 36 76 37 77 41 78 38 79
REMARK SMILES IDX 40 80 39 81
REMARK H PARENT 8 6 4 13 4 14 66 21 12 30 56 49 34 60
REMARK Flexibility Score: inf
ROOT
ATOM      1  C   UNL     1       0.131   1.016  -3.406  1.00  0.00     0.042 C 
ENDROOT
BRANCH   1   2
ATOM      2  C   UNL     1       0.878  -0.076  -2.652  1.00  0.00     0.118 C 
BRANCH   2   3
ATOM      3  N   UNL     1       0.396  -0.333  -1.296  1.00  0.00    -0.351 N 
ATOM      4  C   UNL     1      -0.351  -1.310  -0.698  1.00  0.00     0.281 C 
ATOM      5  O   UNL     1      -0.389  -1.265   0.539  1.00  0.00    -0.268 OA
ATOM      6  H   UNL     1       0.677   0.365  -0.661  1.00  0.00     0.163 HD
BRANCH   4   7
ATOM      7  C   UNL     1      -1.217  -2.347  -1.470  1.00  0.00     0.181 C 
ATOM      8  C   UNL     1      -0.611  -2.767  -2.808  1.00  0.00     0.085 C 
ATOM      9  C   UNL     1      -1.184  -3.714  -0.712  1.00  0.00     0.144 C 
ATOM     10  C   UNL     1      -0.991  -4.201  -3.102  1.00  0.00     0.072 C 
ATOM     11  C   UNL     1      -1.344  -4.846  -1.756  1.00  0.00     0.191 C 
BRANCH   7  12
ATOM     12  N   UNL     1      -2.650  -1.955  -1.488  1.00  0.00    -0.331 N 
ATOM     13  H   UNL     1      -3.115  -2.576  -2.150  1.00  0.00     0.347 HD
ATOM     14  H   UNL     1      -2.919  -2.019  -0.507  1.00  0.00     0.347 HD
BRANCH  12  15
ATOM     15  C   UNL     1      -3.041  -0.595  -1.847  1.00  0.00     0.176 C 
ATOM     16  C   UNL     1      -4.464  -0.676  -2.412  1.00  0.00     0.075 C 
ATOM     17  C   UNL     1      -3.062   0.362  -0.647  1.00  0.00     0.075 C 
ENDBRANCH  12  15
ENDBRANCH   7  12
BRANCH  11  18
ATOM     18  N   UNL     1      -2.611  -5.623  -1.788  1.00  0.00    -0.332 N 
ATOM     19  C   UNL     1      -2.464  -6.765  -2.713  1.00  0.00     0.263 C 
ATOM     20  C   UNL     1      -3.793  -4.784  -2.044  1.00  0.00     0.263 C 
ATOM     21  H   UNL     1      -2.789  -6.004  -0.859  1.00  0.00     0.348 HD
ATOM     22  C   UNL     1      -3.755  -7.516  -3.038  1.00  0.00     0.068 C 
ATOM     23  C   UNL     1      -5.077  -5.545  -2.382  1.00  0.00     0.068 C 
ATOM     24  C   UNL     1      -4.877  -6.574  -3.505  1.00  0.00    -0.025 C 
ATOM     25  C   UNL     1      -6.173  -7.374  -3.711  1.00  0.00     0.011 C 
ATOM     26  C   UNL     1      -4.529  -5.893  -4.845  1.00  0.00     0.011 C 
ENDBRANCH  11  18
ENDBRANCH   4   7
ENDBRANCH   2   3
ENDBRANCH   1   2
BRANCH   1  27
ATOM     27  C   UNL     1       0.254   2.388  -2.763  1.00  0.00     0.118 C 
BRANCH  27  28
ATOM     28  N   UNL     1       1.619   2.887  -2.842  1.00  0.00    -0.352 N 
ATOM     29  C   UNL     1       2.159   3.859  -3.642  1.00  0.00     0.251 C 
ATOM     30  H   UNL     1       2.254   2.459  -2.223  1.00  0.00     0.163 HD
ATOM     31  O   UNL     1       3.382   3.905  -3.787  1.00  0.00    -0.269 OA
BRANCH  29  32
ATOM     32  C   UNL     1       1.305   4.861  -4.316  1.00  0.00     0.039 A 
ATOM     33  C   UNL     1       1.706   5.368  -5.557  1.00  0.00     0.014 A 
ATOM     34  C   UNL     1       0.170   5.381  -3.689  1.00  0.00     0.014 A 
ATOM     35  C   UNL     1       0.965   6.382  -6.169  1.00  0.00     0.010 A 
ATOM     36  C   UNL     1      -0.618   6.324  -4.340  1.00  0.00     0.010 A 
ATOM     37  C   UNL     1      -0.206   6.865  -5.565  1.00  0.00    -0.014 A 
BRANCH  37  38
ATOM     38  C   UNL     1      -0.964   8.001  -6.145  1.00  0.00     0.031 A 
ATOM     39  C   UNL     1      -1.057   9.298  -5.383  1.00  0.00     0.074 A 
ATOM     40  C   UNL     1      -1.605   7.859  -7.319  1.00  0.00     0.049 A 
ATOM     41  N   UNL     1      -1.732  10.382  -5.672  1.00  0.00    -0.248 NA
ATOM     42  C   UNL     1      -0.319   9.374  -4.110  1.00  0.00     0.031 C 
ATOM     43  C   UNL     1      -1.621   6.646  -8.139  1.00  0.00     0.029 A 
ATOM     44  N   UNL     1      -2.374   8.749  -8.025  1.00  0.00    -0.354 N 
ATOM     45  C   UNL     1      -1.528  11.248  -4.604  1.00  0.00     0.074 A 
ATOM     46  C   UNL     1      -0.708  10.549  -3.640  1.00  0.00     0.031 C 
ATOM     47  C   UNL     1      -2.339   6.878  -9.250  1.00  0.00     0.029 A 
ATOM     48  C   UNL     1      -2.859   8.241  -9.205  1.00  0.00     0.049 A 
ATOM     49  H   UNL     1      -2.561   9.665  -7.715  1.00  0.00     0.167 HD
ATOM     50  C   UNL     1      -1.963  12.520  -4.446  1.00  0.00     0.031 A 
ATOM     51  C   UNL     1      -3.634   8.813 -10.145  1.00  0.00     0.031 A 
ATOM     52  C   UNL     1      -2.744  13.231  -5.421  1.00  0.00     0.049 A 
ATOM     53  C   UNL     1      -4.077  10.238  -9.964  1.00  0.00     0.074 A 
ATOM     54  C   UNL     1      -3.192  14.540  -5.383  1.00  0.00     0.029 A 
ATOM     55  N   UNL     1      -3.182  12.690  -6.620  1.00  0.00    -0.354 N 
ATOM     56  N   UNL     1      -3.839  11.058  -8.970  1.00  0.00    -0.248 NA
ATOM     57  C   UNL     1      -4.882  10.820 -11.047  1.00  0.00     0.031 C 
ATOM     58  C   UNL     1      -3.926  14.783  -6.549  1.00  0.00     0.029 A 
ATOM     59  C   UNL     1      -3.897  13.638  -7.330  1.00  0.00     0.049 A 
ATOM     60  H   UNL     1      -3.010  11.769  -6.921  1.00  0.00     0.167 HD
ATOM     61  C   UNL     1      -4.434  12.262  -9.322  1.00  0.00     0.074 A 
ATOM     62  C   UNL     1      -5.037  12.067 -10.625  1.00  0.00     0.031 C 
ATOM     63  C   UNL     1      -4.477  13.426  -8.630  1.00  0.00     0.031 A 
BRANCH  50  64
ATOM     64  C   UNL     1      -1.596  13.221  -3.168  1.00  0.00    -0.014 A 
ATOM     65  C   UNL     1      -0.274  13.618  -2.910  1.00  0.00     0.009 A 
ATOM     66  C   UNL     1      -2.587  13.501  -2.215  1.00  0.00     0.009 A 
ATOM     67  C   UNL     1       0.055  14.243  -1.705  1.00  0.00     0.001 A 
ATOM     68  C   UNL     1      -2.260  14.151  -1.023  1.00  0.00     0.001 A 
ATOM     69  C   UNL     1      -0.939  14.511  -0.764  1.00  0.00     0.000 A 
ENDBRANCH  50  64
BRANCH  51  70
ATOM     70  C   UNL     1      -4.007   8.051 -11.364  1.00  0.00    -0.014 A 
ATOM     71  C   UNL     1      -3.420   8.363 -12.600  1.00  0.00     0.009 A 
ATOM     72  C   UNL     1      -4.949   7.013 -11.301  1.00  0.00     0.009 A 
ATOM     73  C   UNL     1      -3.789   7.668 -13.754  1.00  0.00     0.001 A 
ATOM     74  C   UNL     1      -5.297   6.303 -12.452  1.00  0.00     0.001 A 
ATOM     75  C   UNL     1      -4.724   6.637 -13.678  1.00  0.00     0.000 A 
ENDBRANCH  51  70
BRANCH  63  76
ATOM     76  C   UNL     1      -5.153  14.591  -9.292  1.00  0.00    -0.014 A 
ATOM     77  C   UNL     1      -6.550  14.659  -9.400  1.00  0.00     0.009 A 
ATOM     78  C   UNL     1      -4.378  15.655  -9.778  1.00  0.00     0.009 A 
ATOM     79  C   UNL     1      -7.156  15.756 -10.015  1.00  0.00     0.001 A 
ATOM     80  C   UNL     1      -4.987  16.762 -10.369  1.00  0.00     0.001 A 
ATOM     81  C   UNL     1      -6.374  16.808 -10.495  1.00  0.00     0.000 A 
ENDBRANCH  63  76
ENDBRANCH  37  38
ENDBRANCH  29  32
ENDBRANCH  27  28
ENDBRANCH   1  27
TORSDOF 13
