REMARK SMILES O=C(COCC(=O)N1CCC([NH+]2CCN(c3ccc(F)cc3)CC2)CC1)NCCCNC(=O)c1ccc(-c2c3nc(c(-c4ccccc4)c4ccc([nH]4)c(-c4ccccc4)c4nc(c(-c5ccccc5)c5ccc2[nH]5)C=C4)C=C3)cc1
REMARK SMILES IDX 1 1 2 2 27 3 3 5 4 6 5 7 6 8 7 9 8 10 9 11 26 12 10 13 25 14
REMARK SMILES IDX 11 15 12 16 13 17 24 18 14 20 23 21 15 22 16 23 17 24 22 25
REMARK SMILES IDX 18 26 21 27 19 28 20 29 28 30 29 31 30 32 31 33 32 34 33 36
REMARK SMILES IDX 34 37 35 38 81 39 36 40 80 41 37 42 38 43 39 44 74 45 40 46
REMARK SMILES IDX 79 47 73 48 75 49 41 50 78 51 72 52 71 53 42 55 64 56 49 57
REMARK SMILES IDX 63 58 50 59 53 60 62 61 76 62 51 63 52 64 61 66 77 67 54 68
REMARK SMILES IDX 43 69 44 70 48 71 45 72 47 73 46 74 65 75 66 76 70 77 67 78
REMARK SMILES IDX 69 79 68 80 55 81 56 82 60 83 57 84 59 85 58 86
REMARK H PARENT 27 4 12 19 31 35 75 54 53 65
REMARK Flexibility Score: inf
ROOT
ATOM      1  O   UNL     1       0.977   0.447   0.787  1.00  0.00    -0.272 OA
ATOM      2  C   UNL     1       2.079   0.159   0.330  1.00  0.00     0.246 C 
ATOM      3  N   UNL     1       2.758   0.944  -0.578  1.00  0.00    -0.354 N 
ATOM      4  H   UNL     1       3.683   0.704  -0.816  1.00  0.00     0.163 HD
ENDROOT
BRANCH   2   5
ATOM      5  C   UNL     1       2.846  -1.096   0.769  1.00  0.00     0.260 C 
BRANCH   5   6
ATOM      6  O   UNL     1       3.852  -1.569  -0.117  1.00  0.00    -0.362 OA
BRANCH   6   7
ATOM      7  C   UNL     1       3.349  -2.174  -1.292  1.00  0.00     0.260 C 
BRANCH   7   8
ATOM      8  C   UNL     1       2.519  -3.476  -1.284  1.00  0.00     0.248 C 
ATOM      9  O   UNL     1       1.408  -3.492  -1.822  1.00  0.00    -0.272 OA
ATOM     10  N   UNL     1       3.115  -4.631  -0.802  1.00  0.00    -0.340 N 
ATOM     11  C   UNL     1       2.576  -5.921  -1.202  1.00  0.00     0.125 C 
ATOM     12  C   UNL     1       4.012  -4.688   0.344  1.00  0.00     0.125 C 
ATOM     13  C   UNL     1       1.775  -6.551  -0.070  1.00  0.00     0.086 C 
ATOM     14  C   UNL     1       3.240  -5.241   1.549  1.00  0.00     0.086 C 
ATOM     15  C   UNL     1       2.594  -6.617   1.232  1.00  0.00     0.187 C 
BRANCH  15  16
ATOM     16  N   UNL     1       1.916  -7.200   2.405  1.00  0.00    -0.329 N 
ATOM     17  C   UNL     1       0.869  -6.407   3.076  1.00  0.00     0.284 C 
ATOM     18  C   UNL     1       1.445  -8.593   2.232  1.00  0.00     0.284 C 
ATOM     19  H   UNL     1       2.711  -7.190   3.044  1.00  0.00     0.348 HD
ATOM     20  C   UNL     1      -0.558  -6.510   2.495  1.00  0.00     0.178 C 
ATOM     21  C   UNL     1       0.003  -8.803   1.698  1.00  0.00     0.178 C 
ATOM     22  N   UNL     1      -0.958  -7.914   2.366  1.00  0.00    -0.360 N 
BRANCH  22  23
ATOM     23  C   UNL     1      -2.304  -8.221   2.219  1.00  0.00     0.037 A 
ATOM     24  C   UNL     1      -2.826  -9.351   2.868  1.00  0.00     0.029 A 
ATOM     25  C   UNL     1      -3.184  -7.434   1.460  1.00  0.00     0.029 A 
ATOM     26  C   UNL     1      -4.183  -9.672   2.787  1.00  0.00     0.041 A 
ATOM     27  C   UNL     1      -4.541  -7.757   1.364  1.00  0.00     0.041 A 
ATOM     28  C   UNL     1      -5.029  -8.869   2.036  1.00  0.00     0.123 A 
ATOM     29  F   UNL     1      -6.332  -9.169   1.961  1.00  0.00    -0.207 F 
ENDBRANCH  22  23
ENDBRANCH  15  16
ENDBRANCH   7   8
ENDBRANCH   6   7
ENDBRANCH   5   6
ENDBRANCH   2   5
BRANCH   3  30
ATOM     30  C   UNL     1       2.158   2.108  -1.195  1.00  0.00     0.117 C 
BRANCH  30  31
ATOM     31  C   UNL     1       2.434   3.399  -0.433  1.00  0.00     0.042 C 
BRANCH  31  32
ATOM     32  C   UNL     1       3.908   3.787  -0.352  1.00  0.00     0.118 C 
BRANCH  32  33
ATOM     33  N   UNL     1       4.507   4.036  -1.655  1.00  0.00    -0.352 N 
ATOM     34  C   UNL     1       5.212   5.110  -2.131  1.00  0.00     0.251 C 
ATOM     35  H   UNL     1       4.386   3.307  -2.305  1.00  0.00     0.163 HD
ATOM     36  O   UNL     1       5.508   5.140  -3.327  1.00  0.00    -0.269 OA
BRANCH  34  37
ATOM     37  C   UNL     1       5.617   6.236  -1.257  1.00  0.00     0.039 A 
ATOM     38  C   UNL     1       5.611   7.527  -1.799  1.00  0.00     0.014 A 
ATOM     39  C   UNL     1       6.070   6.041   0.050  1.00  0.00     0.014 A 
ATOM     40  C   UNL     1       6.023   8.616  -1.027  1.00  0.00     0.010 A 
ATOM     41  C   UNL     1       6.414   7.138   0.844  1.00  0.00     0.010 A 
ATOM     42  C   UNL     1       6.412   8.434   0.309  1.00  0.00    -0.014 A 
BRANCH  42  43
ATOM     43  C   UNL     1       6.851   9.589   1.136  1.00  0.00     0.031 A 
ATOM     44  C   UNL     1       8.276   9.687   1.614  1.00  0.00     0.074 A 
ATOM     45  C   UNL     1       5.965  10.543   1.480  1.00  0.00     0.049 A 
ATOM     46  N   UNL     1       8.843  10.622   2.336  1.00  0.00    -0.248 NA
ATOM     47  C   UNL     1       9.177   8.581   1.252  1.00  0.00     0.031 C 
ATOM     48  C   UNL     1       4.546  10.553   1.120  1.00  0.00     0.029 A 
ATOM     49  N   UNL     1       6.132  11.694   2.210  1.00  0.00    -0.354 N 
ATOM     50  C   UNL     1      10.155  10.208   2.528  1.00  0.00     0.074 A 
ATOM     51  C   UNL     1      10.289   8.918   1.888  1.00  0.00     0.031 C 
ATOM     52  C   UNL     1       3.980  11.672   1.602  1.00  0.00     0.029 A 
ATOM     53  C   UNL     1       4.986  12.443   2.326  1.00  0.00     0.049 A 
ATOM     54  H   UNL     1       6.991  11.958   2.611  1.00  0.00     0.167 HD
ATOM     55  C   UNL     1      11.167  10.850   3.161  1.00  0.00     0.031 A 
ATOM     56  C   UNL     1       4.770  13.622   2.937  1.00  0.00     0.031 A 
ATOM     57  C   UNL     1      11.048  12.141   3.784  1.00  0.00     0.049 A 
ATOM     58  C   UNL     1       5.913  14.326   3.614  1.00  0.00     0.074 A 
ATOM     59  C   UNL     1      12.029  12.892   4.409  1.00  0.00     0.029 A 
ATOM     60  N   UNL     1       9.875  12.875   3.858  1.00  0.00    -0.354 N 
ATOM     61  N   UNL     1       7.163  13.949   3.730  1.00  0.00    -0.248 NA
ATOM     62  C   UNL     1       5.617  15.630   4.224  1.00  0.00     0.031 C 
ATOM     63  C   UNL     1      11.441  14.067   4.891  1.00  0.00     0.029 A 
ATOM     64  C   UNL     1      10.105  14.066   4.525  1.00  0.00     0.049 A 
ATOM     65  H   UNL     1       9.007  12.591   3.490  1.00  0.00     0.167 HD
ATOM     66  C   UNL     1       7.809  14.984   4.395  1.00  0.00     0.074 A 
ATOM     67  C   UNL     1       6.815  16.008   4.645  1.00  0.00     0.031 C 
ATOM     68  C   UNL     1       9.110  15.079   4.761  1.00  0.00     0.031 A 
BRANCH  55  69
ATOM     69  C   UNL     1      12.499  10.154   3.210  1.00  0.00    -0.014 A 
ATOM     70  C   UNL     1      13.290  10.020   2.058  1.00  0.00     0.009 A 
ATOM     71  C   UNL     1      12.981   9.650   4.427  1.00  0.00     0.009 A 
ATOM     72  C   UNL     1      14.519   9.360   2.116  1.00  0.00     0.001 A 
ATOM     73  C   UNL     1      14.223   9.015   4.489  1.00  0.00     0.001 A 
ATOM     74  C   UNL     1      14.986   8.862   3.332  1.00  0.00     0.000 A 
ENDBRANCH  55  69
BRANCH  56  75
ATOM     75  C   UNL     1       3.420  14.241   2.903  1.00  0.00    -0.014 A 
ATOM     76  C   UNL     1       3.177  15.370   2.106  1.00  0.00     0.009 A 
ATOM     77  C   UNL     1       2.373  13.713   3.673  1.00  0.00     0.009 A 
ATOM     78  C   UNL     1       1.919  15.976   2.103  1.00  0.00     0.001 A 
ATOM     79  C   UNL     1       1.109  14.305   3.648  1.00  0.00     0.001 A 
ATOM     80  C   UNL     1       0.885  15.441   2.871  1.00  0.00     0.000 A 
ENDBRANCH  56  75
BRANCH  68  81
ATOM     81  C   UNL     1       9.543  16.354   5.428  1.00  0.00    -0.014 A 
ATOM     82  C   UNL     1       9.172  16.653   6.748  1.00  0.00     0.009 A 
ATOM     83  C   UNL     1      10.355  17.259   4.727  1.00  0.00     0.009 A 
ATOM     84  C   UNL     1       9.574  17.852   7.339  1.00  0.00     0.001 A 
ATOM     85  C   UNL     1      10.778  18.445   5.330  1.00  0.00     0.001 A 
ATOM     86  C   UNL     1      10.379  18.745   6.631  1.00  0.00     0.000 A 
ENDBRANCH  68  81
ENDBRANCH  42  43
ENDBRANCH  34  37
ENDBRANCH  32  33
ENDBRANCH  31  32
ENDBRANCH  30  31
ENDBRANCH   3  30
TORSDOF 15
