REMARK SMILES Cc1ccc([C@@H](CC(=O)NCCCNC(=O)c2ccc(-c3c4nc(c(-c5ccccc5)c5ccc([nH]5)c(-c5ccccc5)c5nc(c(-c6ccccc6)c6ccc3[nH]6)C=C5)C=C4)cc2)NC(=O)c2ccc(OC(F)F)cc2)cc1
REMARK SMILES IDX 8 1 9 2 10 3 7 5 6 6 5 7 1 8 2 9 3 10 79 11 4 12 78 13 65 14
REMARK SMILES IDX 66 15 67 17 68 18 69 19 77 20 70 21 76 22 71 23 72 24 73 25
REMARK SMILES IDX 74 26 75 27 11 28 12 29 13 30 14 31 15 32 16 34 17 35 18 36
REMARK SMILES IDX 64 37 19 38 63 39 20 40 21 41 22 42 57 43 23 44 62 45 56 46
REMARK SMILES IDX 58 47 24 48 61 49 55 50 54 51 25 53 47 54 32 55 46 56 33 57
REMARK SMILES IDX 36 58 45 59 59 60 34 61 35 62 44 64 60 65 37 66 26 67 27 68
REMARK SMILES IDX 31 69 28 70 30 71 29 72 48 73 49 74 53 75 50 76 52 77 51 78
REMARK SMILES IDX 38 79 39 80 43 81 40 82 42 83 41 84
REMARK H PARENT 10 4 65 16 14 33 58 52 36 63
REMARK Flexibility Score: inf
ROOT
ATOM      1  C   UNL     1      -3.627  -1.669  -1.386  1.00  0.00     0.222 C 
ATOM      2  O   UNL     1      -4.695  -2.179  -1.045  1.00  0.00    -0.275 OA
ATOM      3  N   UNL     1      -2.696  -2.476  -1.964  1.00  0.00    -0.356 N 
ATOM      4  H   UNL     1      -3.054  -3.276  -2.413  1.00  0.00     0.163 HD
ENDROOT
BRANCH   1   5
ATOM      5  C   UNL     1      -3.406  -0.176  -1.311  1.00  0.00     0.129 C 
BRANCH   5   6
ATOM      6  C   UNL     1      -3.237   0.462   0.086  1.00  0.00     0.122 C 
BRANCH   6   7
ATOM      7  C   UNL     1      -1.756   0.763   0.315  1.00  0.00    -0.025 A 
ATOM      8  C   UNL     1       2.530   1.198   0.039  1.00  0.00     0.044 C 
ATOM      9  C   UNL     1       1.046   1.123   0.245  1.00  0.00    -0.051 A 
ATOM     10  C   UNL     1       0.485   0.047   0.932  1.00  0.00     0.004 A 
ATOM     11  C   UNL     1       0.198   2.073  -0.330  1.00  0.00     0.004 A 
ATOM     12  C   UNL     1      -0.901  -0.114   0.992  1.00  0.00     0.006 A 
ATOM     13  C   UNL     1      -1.188   1.895  -0.294  1.00  0.00     0.006 A 
ENDBRANCH   6   7
BRANCH   6  14
ATOM     14  N   UNL     1      -3.836  -0.260   1.207  1.00  0.00    -0.345 N 
ATOM     15  C   UNL     1      -4.948   0.039   1.950  1.00  0.00     0.251 C 
ATOM     16  H   UNL     1      -3.369  -1.087   1.469  1.00  0.00     0.164 HD
ATOM     17  O   UNL     1      -5.071  -0.438   3.080  1.00  0.00    -0.269 OA
BRANCH  15  18
ATOM     18  C   UNL     1      -6.011   0.911   1.411  1.00  0.00     0.040 A 
ATOM     19  C   UNL     1      -6.633   1.846   2.240  1.00  0.00     0.017 A 
ATOM     20  C   UNL     1      -6.478   0.728   0.109  1.00  0.00     0.017 A 
ATOM     21  C   UNL     1      -7.672   2.637   1.735  1.00  0.00     0.047 A 
ATOM     22  C   UNL     1      -7.493   1.539  -0.401  1.00  0.00     0.047 A 
ATOM     23  C   UNL     1      -8.093   2.503   0.406  1.00  0.00     0.126 A 
BRANCH  23  24
ATOM     24  O   UNL     1      -9.104   3.342   0.033  1.00  0.00    -0.435 OA
BRANCH  24  25
ATOM     25  C   UNL     1      -9.478   3.363  -1.340  1.00  0.00     0.542 C 
ATOM     26  F   UNL     1      -8.403   3.668  -2.107  1.00  0.00    -0.167 F 
ATOM     27  F   UNL     1      -9.939   2.147  -1.719  1.00  0.00    -0.167 F 
ENDBRANCH  24  25
ENDBRANCH  23  24
ENDBRANCH  15  18
ENDBRANCH   6  14
ENDBRANCH   5   6
ENDBRANCH   1   5
BRANCH   3  28
ATOM     28  C   UNL     1      -1.249  -2.333  -2.015  1.00  0.00     0.117 C 
BRANCH  28  29
ATOM     29  C   UNL     1      -0.682  -3.079  -0.826  1.00  0.00     0.042 C 
BRANCH  29  30
ATOM     30  C   UNL     1       0.768  -3.508  -0.915  1.00  0.00     0.118 C 
BRANCH  30  31
ATOM     31  N   UNL     1       1.781  -2.487  -1.186  1.00  0.00    -0.352 N 
ATOM     32  C   UNL     1       3.145  -2.542  -0.906  1.00  0.00     0.251 C 
ATOM     33  H   UNL     1       1.461  -1.662  -1.618  1.00  0.00     0.163 HD
ATOM     34  O   UNL     1       3.940  -1.764  -1.440  1.00  0.00    -0.269 OA
BRANCH  32  35
ATOM     35  C   UNL     1       3.650  -3.619  -0.028  1.00  0.00     0.039 A 
ATOM     36  C   UNL     1       4.382  -4.640  -0.649  1.00  0.00     0.014 A 
ATOM     37  C   UNL     1       2.938  -3.848   1.140  1.00  0.00     0.014 A 
ATOM     38  C   UNL     1       4.055  -5.956  -0.355  1.00  0.00     0.010 A 
ATOM     39  C   UNL     1       2.526  -5.146   1.343  1.00  0.00     0.010 A 
ATOM     40  C   UNL     1       2.994  -6.176   0.508  1.00  0.00    -0.014 A 
BRANCH  40  41
ATOM     41  C   UNL     1       2.228  -7.411   0.577  1.00  0.00     0.031 A 
ATOM     42  C   UNL     1       2.290  -8.162   1.840  1.00  0.00     0.074 A 
ATOM     43  C   UNL     1       1.342  -7.745  -0.394  1.00  0.00     0.049 A 
ATOM     44  N   UNL     1       1.809  -9.341   1.998  1.00  0.00    -0.248 NA
ATOM     45  C   UNL     1       2.969  -7.658   3.033  1.00  0.00     0.031 C 
ATOM     46  C   UNL     1       0.199  -8.653  -0.287  1.00  0.00     0.029 A 
ATOM     47  N   UNL     1       1.413  -7.466  -1.761  1.00  0.00    -0.354 N 
ATOM     48  C   UNL     1       1.825  -9.612   3.342  1.00  0.00     0.074 A 
ATOM     49  C   UNL     1       2.644  -8.586   3.933  1.00  0.00     0.031 C 
ATOM     50  C   UNL     1      -0.175  -9.048  -1.515  1.00  0.00     0.029 A 
ATOM     51  C   UNL     1       0.823  -8.557  -2.444  1.00  0.00     0.049 A 
ATOM     52  H   UNL     1       1.801  -6.660  -2.173  1.00  0.00     0.167 HD
ATOM     53  C   UNL     1       1.032 -10.615   3.799  1.00  0.00     0.031 A 
ATOM     54  C   UNL     1       1.563  -9.348  -3.281  1.00  0.00     0.031 A 
ATOM     55  C   UNL     1       0.445 -11.365   2.689  1.00  0.00     0.049 A 
ATOM     56  C   UNL     1       1.697 -10.789  -2.817  1.00  0.00     0.074 A 
ATOM     57  C   UNL     1      -0.801 -11.406   2.089  1.00  0.00     0.029 A 
ATOM     58  N   UNL     1       1.313 -11.987   1.810  1.00  0.00    -0.354 N 
ATOM     59  N   UNL     1       1.262 -11.228  -1.667  1.00  0.00    -0.248 NA
ATOM     60  C   UNL     1       2.408 -11.829  -3.562  1.00  0.00     0.031 C 
ATOM     61  C   UNL     1      -0.661 -12.077   0.837  1.00  0.00     0.029 A 
ATOM     62  C   UNL     1       0.657 -12.472   0.702  1.00  0.00     0.049 A 
ATOM     63  H   UNL     1       2.283 -12.072   1.959  1.00  0.00     0.167 HD
ATOM     64  C   UNL     1       1.672 -12.520  -1.472  1.00  0.00     0.074 A 
ATOM     65  C   UNL     1       2.387 -12.855  -2.691  1.00  0.00     0.031 C 
ATOM     66  C   UNL     1       1.434 -13.184  -0.302  1.00  0.00     0.031 A 
BRANCH  53  67
ATOM     67  C   UNL     1       0.643 -10.826   5.236  1.00  0.00    -0.014 A 
ATOM     68  C   UNL     1      -0.401 -11.722   5.525  1.00  0.00     0.009 A 
ATOM     69  C   UNL     1       1.192 -10.146   6.337  1.00  0.00     0.009 A 
ATOM     70  C   UNL     1      -0.898 -11.890   6.823  1.00  0.00     0.001 A 
ATOM     71  C   UNL     1       0.700 -10.306   7.638  1.00  0.00     0.001 A 
ATOM     72  C   UNL     1      -0.354 -11.172   7.880  1.00  0.00     0.000 A 
ENDBRANCH  53  67
BRANCH  54  73
ATOM     73  C   UNL     1       2.621  -8.563  -3.985  1.00  0.00    -0.014 A 
ATOM     74  C   UNL     1       2.194  -7.589  -4.913  1.00  0.00     0.009 A 
ATOM     75  C   UNL     1       3.884  -8.420  -3.393  1.00  0.00     0.009 A 
ATOM     76  C   UNL     1       2.917  -6.405  -5.080  1.00  0.00     0.001 A 
ATOM     77  C   UNL     1       4.616  -7.242  -3.589  1.00  0.00     0.001 A 
ATOM     78  C   UNL     1       4.103  -6.213  -4.378  1.00  0.00     0.000 A 
ENDBRANCH  54  73
BRANCH  66  79
ATOM     79  C   UNL     1       1.958 -14.558   0.040  1.00  0.00    -0.014 A 
ATOM     80  C   UNL     1       2.042 -15.603  -0.884  1.00  0.00     0.009 A 
ATOM     81  C   UNL     1       2.298 -14.872   1.378  1.00  0.00     0.009 A 
ATOM     82  C   UNL     1       2.506 -16.872  -0.503  1.00  0.00     0.001 A 
ATOM     83  C   UNL     1       2.739 -16.137   1.768  1.00  0.00     0.001 A 
ATOM     84  C   UNL     1       2.858 -17.137   0.819  1.00  0.00     0.000 A 
ENDBRANCH  66  79
ENDBRANCH  40  41
ENDBRANCH  32  35
ENDBRANCH  30  31
ENDBRANCH  29  30
ENDBRANCH  28  29
ENDBRANCH   3  28
TORSDOF 16
