REMARK SMILES O=C(NCCCNC(=O)c1cccc(S(=O)(=O)Nc2ccccc2N2CCOCC2)c1)c1ccc(-c2c3nc(c(-c4ccccc4)c4ccc([nH]4)c(-c4ccccc4)c4nc(c(-c5ccccc5)c5ccc2[nH]5)C=C4)C=C3)cc1
REMARK SMILES IDX 6 1 5 2 4 3 3 4 1 5 2 6 32 8 33 9 79 10 34 11 78 12 35 13
REMARK SMILES IDX 36 14 37 15 72 16 38 17 77 18 71 19 73 20 39 21 76 22 70 23
REMARK SMILES IDX 69 24 40 26 62 27 47 28 61 29 48 30 51 31 60 32 74 33 49 34
REMARK SMILES IDX 50 35 59 37 75 38 52 39 41 40 42 41 46 42 43 43 45 44 44 45
REMARK SMILES IDX 63 46 64 47 68 48 65 49 67 50 66 51 53 52 54 53 58 54 55 55
REMARK SMILES IDX 57 56 56 57 7 58 8 59 9 61 10 62 11 63 31 64 12 65 14 66
REMARK SMILES IDX 13 67 15 68 16 69 17 70 18 71 19 73 20 74 24 75 21 76 23 77
REMARK SMILES IDX 22 78 25 79 26 80 30 81 27 82 29 83 28 84
REMARK H PARENT 3 7 73 25 51 36 7 60 18 72
REMARK Flexibility Score: inf
ROOT
ATOM      1  C   UNL     1       4.817   3.105   0.263  1.00  0.00     0.118 C 
ENDROOT
BRANCH   1   2
ATOM      2  C   UNL     1       5.107   1.694  -0.175  1.00  0.00     0.042 C 
BRANCH   2   3
ATOM      3  C   UNL     1       4.570   0.707   0.838  1.00  0.00     0.118 C 
BRANCH   3   4
ATOM      4  N   UNL     1       3.115   0.590   0.763  1.00  0.00    -0.352 N 
ATOM      5  O   UNL     1       1.144  -0.053  -0.141  1.00  0.00    -0.269 OA
ATOM      6  C   UNL     1       2.348  -0.254  -0.005  1.00  0.00     0.251 C 
ATOM      7  H   UNL     1       2.612   1.202   1.347  1.00  0.00     0.163 HD
BRANCH   6   8
ATOM      8  C   UNL     1       3.003  -1.390  -0.682  1.00  0.00     0.039 A 
ATOM      9  C   UNL     1       3.989  -2.099  -0.002  1.00  0.00     0.014 A 
ATOM     10  C   UNL     1       2.666  -1.737  -1.992  1.00  0.00     0.014 A 
ATOM     11  C   UNL     1       4.803  -2.974  -0.690  1.00  0.00     0.010 A 
ATOM     12  C   UNL     1       3.365  -2.768  -2.627  1.00  0.00     0.010 A 
ATOM     13  C   UNL     1       4.453  -3.379  -1.984  1.00  0.00    -0.014 A 
BRANCH  13  14
ATOM     14  C   UNL     1       5.154  -4.560  -2.539  1.00  0.00     0.031 A 
ATOM     15  C   UNL     1       5.954  -4.485  -3.804  1.00  0.00     0.074 A 
ATOM     16  C   UNL     1       5.086  -5.705  -1.828  1.00  0.00     0.049 A 
ATOM     17  N   UNL     1       6.629  -5.438  -4.395  1.00  0.00    -0.248 NA
ATOM     18  C   UNL     1       6.002  -3.192  -4.504  1.00  0.00     0.031 C 
ATOM     19  C   UNL     1       4.332  -5.881  -0.578  1.00  0.00     0.029 A 
ATOM     20  N   UNL     1       5.679  -6.923  -2.021  1.00  0.00    -0.354 N 
ATOM     21  C   UNL     1       7.154  -4.873  -5.549  1.00  0.00     0.074 A 
ATOM     22  C   UNL     1       6.717  -3.494  -5.582  1.00  0.00     0.031 C 
ATOM     23  C   UNL     1       4.568  -7.100  -0.083  1.00  0.00     0.029 A 
ATOM     24  C   UNL     1       5.390  -7.832  -1.031  1.00  0.00     0.049 A 
ATOM     25  H   UNL     1       6.256  -7.128  -2.792  1.00  0.00     0.167 HD
ATOM     26  C   UNL     1       7.923  -5.465  -6.493  1.00  0.00     0.031 A 
ATOM     27  C   UNL     1       5.708  -9.133  -0.917  1.00  0.00     0.031 A 
ATOM     28  C   UNL     1       8.354  -6.839  -6.437  1.00  0.00     0.049 A 
ATOM     29  C   UNL     1       6.519  -9.760  -2.007  1.00  0.00     0.074 A 
ATOM     30  C   UNL     1       9.171  -7.519  -7.324  1.00  0.00     0.029 A 
ATOM     31  N   UNL     1       7.995  -7.743  -5.449  1.00  0.00    -0.354 N 
ATOM     32  N   UNL     1       7.042  -9.200  -3.071  1.00  0.00    -0.248 NA
ATOM     33  C   UNL     1       6.774 -11.200  -1.889  1.00  0.00     0.031 C 
ATOM     34  C   UNL     1       9.250  -8.852  -6.910  1.00  0.00     0.029 A 
ATOM     35  C   UNL     1       8.538  -8.987  -5.729  1.00  0.00     0.049 A 
ATOM     36  H   UNL     1       7.437  -7.533  -4.666  1.00  0.00     0.167 HD
ATOM     37  C   UNL     1       7.696 -10.218  -3.746  1.00  0.00     0.074 A 
ATOM     38  C   UNL     1       7.536 -11.419  -2.950  1.00  0.00     0.031 C 
ATOM     39  C   UNL     1       8.359 -10.168  -4.926  1.00  0.00     0.031 A 
BRANCH  26  40
ATOM     40  C   UNL     1       8.325  -4.655  -7.695  1.00  0.00    -0.014 A 
ATOM     41  C   UNL     1       9.302  -3.653  -7.614  1.00  0.00     0.009 A 
ATOM     42  C   UNL     1       7.783  -4.976  -8.951  1.00  0.00     0.009 A 
ATOM     43  C   UNL     1       9.720  -2.980  -8.766  1.00  0.00     0.001 A 
ATOM     44  C   UNL     1       8.220  -4.319 -10.103  1.00  0.00     0.001 A 
ATOM     45  C   UNL     1       9.186  -3.320 -10.009  1.00  0.00     0.000 A 
ENDBRANCH  26  40
BRANCH  27  46
ATOM     46  C   UNL     1       5.191  -9.933   0.223  1.00  0.00    -0.014 A 
ATOM     47  C   UNL     1       6.063 -10.498   1.163  1.00  0.00     0.009 A 
ATOM     48  C   UNL     1       3.809 -10.150   0.364  1.00  0.00     0.009 A 
ATOM     49  C   UNL     1       5.566 -11.294   2.198  1.00  0.00     0.001 A 
ATOM     50  C   UNL     1       3.312 -10.910   1.423  1.00  0.00     0.001 A 
ATOM     51  C   UNL     1       4.192 -11.495   2.329  1.00  0.00     0.000 A 
ENDBRANCH  27  46
BRANCH  39  52
ATOM     52  C   UNL     1       8.975 -11.450  -5.404  1.00  0.00    -0.014 A 
ATOM     53  C   UNL     1       8.179 -12.507  -5.872  1.00  0.00     0.009 A 
ATOM     54  C   UNL     1      10.371 -11.594  -5.402  1.00  0.00     0.009 A 
ATOM     55  C   UNL     1       8.768 -13.700  -6.290  1.00  0.00     0.001 A 
ATOM     56  C   UNL     1      10.959 -12.775  -5.855  1.00  0.00     0.001 A 
ATOM     57  C   UNL     1      10.157 -13.830  -6.287  1.00  0.00     0.000 A 
ENDBRANCH  39  52
ENDBRANCH  13  14
ENDBRANCH   6   8
ENDBRANCH   3   4
ENDBRANCH   2   3
ENDBRANCH   1   2
BRANCH   1  58
ATOM     58  N   UNL     1       5.559   3.440   1.476  1.00  0.00    -0.352 N 
ATOM     59  C   UNL     1       6.522   4.396   1.663  1.00  0.00     0.251 C 
ATOM     60  H   UNL     1       5.335   2.904   2.271  1.00  0.00     0.163 HD
ATOM     61  O   UNL     1       7.231   4.376   2.664  1.00  0.00    -0.269 OA
BRANCH  59  62
ATOM     62  C   UNL     1       6.631   5.507   0.698  1.00  0.00     0.041 A 
ATOM     63  C   UNL     1       7.846   6.131   0.436  1.00  0.00     0.014 A 
ATOM     64  C   UNL     1       5.457   6.016   0.150  1.00  0.00     0.036 A 
ATOM     65  C   UNL     1       7.865   7.251  -0.402  1.00  0.00     0.002 A 
ATOM     66  C   UNL     1       5.451   7.145  -0.638  1.00  0.00     0.088 A 
ATOM     67  C   UNL     1       6.669   7.763  -0.935  1.00  0.00     0.022 A 
BRANCH  66  68
ATOM     68  S   UNL     1       3.926   7.697  -1.340  1.00  0.00     0.261 S 
ATOM     69  O   UNL     1       4.100   9.099  -1.672  1.00  0.00    -0.201 OA
ATOM     70  O   UNL     1       3.599   6.743  -2.380  1.00  0.00    -0.201 OA
BRANCH  68  71
ATOM     71  N   UNL     1       2.612   7.665  -0.263  1.00  0.00    -0.278 N 
ATOM     72  H   UNL     1       1.923   8.360  -0.360  1.00  0.00     0.180 HD
BRANCH  71  73
ATOM     73  C   UNL     1       2.437   6.686   0.787  1.00  0.00     0.072 A 
ATOM     74  C   UNL     1       1.616   5.571   0.535  1.00  0.00     0.029 A 
ATOM     75  C   UNL     1       3.104   6.823   2.036  1.00  0.00     0.061 A 
ATOM     76  C   UNL     1       1.419   4.595   1.515  1.00  0.00     0.002 A 
ATOM     77  C   UNL     1       2.890   5.809   2.993  1.00  0.00     0.028 A 
ATOM     78  C   UNL     1       2.056   4.715   2.744  1.00  0.00     0.002 A 
BRANCH  75  79
ATOM     79  N   UNL     1       3.999   7.860   2.286  1.00  0.00    -0.365 N 
ATOM     80  C   UNL     1       3.552   9.256   2.126  1.00  0.00     0.145 C 
ATOM     81  C   UNL     1       5.093   7.704   3.264  1.00  0.00     0.145 C 
ATOM     82  C   UNL     1       4.765  10.148   1.822  1.00  0.00     0.181 C 
ATOM     83  C   UNL     1       6.234   8.680   2.935  1.00  0.00     0.181 C 
ATOM     84  O   UNL     1       5.767  10.036   2.848  1.00  0.00    -0.378 OA
ENDBRANCH  75  79
ENDBRANCH  71  73
ENDBRANCH  68  71
ENDBRANCH  66  68
ENDBRANCH  59  62
ENDBRANCH   1  58
TORSDOF 14
