REMARK SMILES COCc1c(C(=O)NCCCNC(=O)c2ccc(-c3c4nc(c(-c5ccccc5)c5ccc([nH]5)c(-c5ccccc5)c5nc(c(-c6ccccc6)c6ccc3[nH]6)C=C5)C=C4)cc2)sc2ccccc12
REMARK SMILES IDX 10 1 9 2 8 3 6 4 7 5 5 7 4 8 69 9 63 10 64 11 68 12 65 13
REMARK SMILES IDX 67 14 66 15 3 16 2 17 1 18 11 19 12 20 13 21 14 23 15 24
REMARK SMILES IDX 16 25 62 26 17 27 61 28 18 29 19 30 20 31 55 32 21 33 60 34
REMARK SMILES IDX 54 35 56 36 22 37 59 38 53 39 52 40 23 42 45 43 30 44 44 45
REMARK SMILES IDX 31 46 34 47 43 48 57 49 32 50 33 51 42 53 58 54 35 55 24 56
REMARK SMILES IDX 25 57 29 58 26 59 28 60 27 61 46 62 47 63 51 64 48 65 50 66
REMARK SMILES IDX 49 67 36 68 37 69 41 70 38 71 40 72 39 73
REMARK H PARENT 8 6 12 22 56 41 34 52
REMARK Flexibility Score: inf
ROOT
ATOM      1  C   UNL     1      -1.906  -0.926   7.413  1.00  0.00     0.042 C 
ENDROOT
BRANCH   1   2
ATOM      2  C   UNL     1      -2.478  -0.706   6.013  1.00  0.00     0.118 C 
BRANCH   2   3
ATOM      3  N   UNL     1      -1.838   0.412   5.343  1.00  0.00    -0.351 N 
ATOM      4  C   UNL     1      -0.819   0.554   4.431  1.00  0.00     0.261 C 
ATOM      5  O   UNL     1      -0.580   1.740   4.173  1.00  0.00    -0.268 OA
ATOM      6  H   UNL     1      -2.229   1.277   5.605  1.00  0.00     0.163 HD
BRANCH   4   7
ATOM      7  C   UNL     1      -0.069  -0.544   3.809  1.00  0.00     0.099 A 
ATOM      8  C   UNL     1       0.842  -0.439   2.748  1.00  0.00     0.009 A 
ATOM      9  C   UNL     1       1.390  -1.731   2.357  1.00  0.00    -0.001 A 
ATOM     10  S   UNL     1      -0.156  -2.159   4.348  1.00  0.00    -0.130 S 
ATOM     11  C   UNL     1       0.854  -2.766   3.117  1.00  0.00     0.035 A 
ATOM     12  C   UNL     1       2.321  -2.084   1.343  1.00  0.00     0.010 A 
ATOM     13  C   UNL     1       1.161  -4.117   2.864  1.00  0.00     0.019 A 
ATOM     14  C   UNL     1       2.632  -3.422   1.084  1.00  0.00     0.001 A 
ATOM     15  C   UNL     1       2.044  -4.430   1.830  1.00  0.00     0.001 A 
BRANCH   8  16
ATOM     16  C   UNL     1       1.220   0.842   2.043  1.00  0.00     0.197 C 
BRANCH  16  17
ATOM     17  O   UNL     1       0.316   1.189   0.989  1.00  0.00    -0.380 OA
ATOM     18  C   UNL     1       0.575   0.503  -0.227  1.00  0.00     0.195 C 
ENDBRANCH  16  17
ENDBRANCH   8  16
ENDBRANCH   4   7
ENDBRANCH   2   3
ENDBRANCH   1   2
BRANCH   1  19
ATOM     19  C   UNL     1      -2.358   0.130   8.425  1.00  0.00     0.118 C 
BRANCH  19  20
ATOM     20  N   UNL     1      -3.792   0.064   8.687  1.00  0.00    -0.352 N 
ATOM     21  C   UNL     1      -4.475  -0.210   9.840  1.00  0.00     0.251 C 
ATOM     22  H   UNL     1      -4.361   0.247   7.905  1.00  0.00     0.163 HD
ATOM     23  O   UNL     1      -5.686  -0.445   9.783  1.00  0.00    -0.269 OA
BRANCH  21  24
ATOM     24  C   UNL     1      -3.795  -0.231  11.150  1.00  0.00     0.039 A 
ATOM     25  C   UNL     1      -4.163  -1.202  12.088  1.00  0.00     0.014 A 
ATOM     26  C   UNL     1      -2.845   0.737  11.487  1.00  0.00     0.014 A 
ATOM     27  C   UNL     1      -3.542  -1.236  13.338  1.00  0.00     0.010 A 
ATOM     28  C   UNL     1      -2.177   0.662  12.708  1.00  0.00     0.010 A 
ATOM     29  C   UNL     1      -2.522  -0.322  13.647  1.00  0.00    -0.014 A 
BRANCH  29  30
ATOM     30  C   UNL     1      -1.806  -0.376  14.946  1.00  0.00     0.031 A 
ATOM     31  C   UNL     1      -1.917   0.762  15.924  1.00  0.00     0.074 A 
ATOM     32  C   UNL     1      -1.003  -1.422  15.219  1.00  0.00     0.049 A 
ATOM     33  N   UNL     1      -1.311   0.926  17.072  1.00  0.00    -0.248 NA
ATOM     34  C   UNL     1      -2.810   1.870  15.550  1.00  0.00     0.031 C 
ATOM     35  C   UNL     1      -0.786  -2.576  14.344  1.00  0.00     0.029 A 
ATOM     36  N   UNL     1      -0.213  -1.680  16.311  1.00  0.00    -0.354 N 
ATOM     37  C   UNL     1      -1.733   2.162  17.548  1.00  0.00     0.074 A 
ATOM     38  C   UNL     1      -2.609   2.724  16.543  1.00  0.00     0.031 C 
ATOM     39  C   UNL     1       0.057  -3.431  14.946  1.00  0.00     0.029 A 
ATOM     40  C   UNL     1       0.472  -2.868  16.226  1.00  0.00     0.049 A 
ATOM     41  H   UNL     1      -0.144  -1.072  17.082  1.00  0.00     0.167 HD
ATOM     42  C   UNL     1      -1.432   2.768  18.722  1.00  0.00     0.031 A 
ATOM     43  C   UNL     1       1.342  -3.437  17.080  1.00  0.00     0.031 A 
ATOM     44  C   UNL     1      -0.567   2.206  19.725  1.00  0.00     0.049 A 
ATOM     45  C   UNL     1       1.678  -2.734  18.365  1.00  0.00     0.074 A 
ATOM     46  C   UNL     1      -0.239   2.720  20.968  1.00  0.00     0.029 A 
ATOM     47  N   UNL     1       0.109   1.002  19.598  1.00  0.00    -0.354 N 
ATOM     48  N   UNL     1       1.229  -1.591  18.824  1.00  0.00    -0.248 NA
ATOM     49  C   UNL     1       2.637  -3.406  19.253  1.00  0.00     0.031 C 
ATOM     50  C   UNL     1       0.672   1.848  21.574  1.00  0.00     0.029 A 
ATOM     51  C   UNL     1       0.870   0.766  20.731  1.00  0.00     0.049 A 
ATOM     52  H   UNL     1       0.056   0.404  18.818  1.00  0.00     0.167 HD
ATOM     53  C   UNL     1       1.827  -1.421  20.065  1.00  0.00     0.074 A 
ATOM     54  C   UNL     1       2.661  -2.584  20.292  1.00  0.00     0.031 C 
ATOM     55  C   UNL     1       1.695  -0.395  20.940  1.00  0.00     0.031 A 
BRANCH  42  56
ATOM     56  C   UNL     1      -2.043   4.118  18.976  1.00  0.00    -0.014 A 
ATOM     57  C   UNL     1      -3.419   4.260  19.220  1.00  0.00     0.009 A 
ATOM     58  C   UNL     1      -1.230   5.262  18.992  1.00  0.00     0.009 A 
ATOM     59  C   UNL     1      -3.974   5.524  19.433  1.00  0.00     0.001 A 
ATOM     60  C   UNL     1      -1.783   6.522  19.234  1.00  0.00     0.001 A 
ATOM     61  C   UNL     1      -3.155   6.653  19.442  1.00  0.00     0.000 A 
ENDBRANCH  42  56
BRANCH  43  62
ATOM     62  C   UNL     1       1.941  -4.758  16.761  1.00  0.00    -0.014 A 
ATOM     63  C   UNL     1       1.552  -5.902  17.474  1.00  0.00     0.009 A 
ATOM     64  C   UNL     1       2.902  -4.884  15.746  1.00  0.00     0.009 A 
ATOM     65  C   UNL     1       2.131  -7.142  17.194  1.00  0.00     0.001 A 
ATOM     66  C   UNL     1       3.460  -6.130  15.450  1.00  0.00     0.001 A 
ATOM     67  C   UNL     1       3.081  -7.255  16.180  1.00  0.00     0.000 A 
ENDBRANCH  43  62
BRANCH  55  68
ATOM     68  C   UNL     1       2.441  -0.503  22.239  1.00  0.00    -0.014 A 
ATOM     69  C   UNL     1       3.834  -0.338  22.297  1.00  0.00     0.009 A 
ATOM     70  C   UNL     1       1.734  -0.741  23.428  1.00  0.00     0.009 A 
ATOM     71  C   UNL     1       4.506  -0.440  23.516  1.00  0.00     0.001 A 
ATOM     72  C   UNL     1       2.405  -0.815  24.649  1.00  0.00     0.001 A 
ATOM     73  C   UNL     1       3.791  -0.674  24.691  1.00  0.00     0.000 A 
ENDBRANCH  55  68
ENDBRANCH  29  30
ENDBRANCH  21  24
ENDBRANCH  19  20
ENDBRANCH   1  19
TORSDOF 12
