REMARK SMILES Cc1cc(C(=O)N[C@@H](Cc2ccccc2)C(=O)NCCCNC(=O)c2ccc(-c3c4nc(c(-c5ccccc5)c5ccc([nH]5)c(-c5ccccc5)c5nc(c(-c6ccccc6)c6ccc3[nH]6)C=C5)C=C4)cc2)c(C)o1
REMARK SMILES IDX 20 1 19 2 18 3 16 4 17 5 8 7 7 8 5 9 6 10 4 12 1 13 2 14
REMARK SMILES IDX 3 15 75 16 73 17 74 18 9 19 10 20 11 21 15 22 12 23 14 24
REMARK SMILES IDX 13 25 21 26 22 27 23 28 24 30 25 31 26 32 72 33 27 34 71 35
REMARK SMILES IDX 28 36 29 37 30 38 65 39 31 40 70 41 64 42 66 43 32 44 69 45
REMARK SMILES IDX 63 46 62 47 33 49 55 50 40 51 54 52 41 53 44 54 53 55 67 56
REMARK SMILES IDX 42 57 43 58 52 60 68 61 45 62 34 63 35 64 39 65 36 66 38 67
REMARK SMILES IDX 37 68 56 69 57 70 61 71 58 72 60 73 59 74 46 75 47 76 51 77
REMARK SMILES IDX 48 78 50 79 49 80
REMARK H PARENT 18 6 7 11 22 29 66 48 44 59
REMARK Flexibility Score: inf
ROOT
ATOM      1  C   UNL     1      -1.794   6.893   2.222  1.00  0.00     0.042 C 
ENDROOT
BRANCH   1   2
ATOM      2  C   UNL     1      -0.713   6.542   1.222  1.00  0.00     0.117 C 
BRANCH   2   3
ATOM      3  N   UNL     1       0.335   5.666   1.694  1.00  0.00    -0.354 N 
ATOM      4  C   UNL     1       1.022   4.715   0.987  1.00  0.00     0.242 C 
ATOM      5  O   UNL     1       2.112   4.352   1.444  1.00  0.00    -0.273 OA
ATOM      6  H   UNL     1       0.586   5.764   2.641  1.00  0.00     0.163 HD
BRANCH   4   7
ATOM      7  C   UNL     1       0.500   4.114  -0.345  1.00  0.00     0.176 C 
BRANCH   7   8
ATOM      8  N   UNL     1      -0.857   3.595  -0.175  1.00  0.00    -0.340 N 
ATOM      9  C   UNL     1      -1.343   2.352   0.143  1.00  0.00     0.255 C 
ATOM     10  O   UNL     1      -2.555   2.305   0.365  1.00  0.00    -0.269 OA
ATOM     11  H   UNL     1      -1.560   4.270  -0.317  1.00  0.00     0.164 HD
BRANCH   9  12
ATOM     12  C   UNL     1      -0.512   1.150   0.153  1.00  0.00     0.081 A 
ATOM     13  C   UNL     1       2.372  -1.211   0.110  1.00  0.00     0.087 C 
ATOM     14  C   UNL     1       1.142  -0.396   0.145  1.00  0.00     0.101 A 
ATOM     15  C   UNL     1       0.892   0.944   0.333  1.00  0.00     0.059 A 
ATOM     16  O   UNL     1      -0.025  -1.061  -0.030  1.00  0.00    -0.466 OA
ATOM     17  C   UNL     1      -1.026  -0.138   0.009  1.00  0.00     0.113 A 
ATOM     18  C   UNL     1      -2.384  -0.716  -0.117  1.00  0.00     0.088 C 
ENDBRANCH   9  12
ENDBRANCH   7   8
BRANCH   7  19
ATOM     19  C   UNL     1       0.745   4.942  -1.629  1.00  0.00     0.070 C 
BRANCH  19  20
ATOM     20  C   UNL     1       0.071   6.280  -1.802  1.00  0.00    -0.045 A 
ATOM     21  C   UNL     1       0.809   7.465  -1.649  1.00  0.00     0.004 A 
ATOM     22  C   UNL     1      -1.300   6.372  -2.089  1.00  0.00     0.004 A 
ATOM     23  C   UNL     1       0.175   8.709  -1.698  1.00  0.00     0.000 A 
ATOM     24  C   UNL     1      -1.935   7.616  -2.115  1.00  0.00     0.000 A 
ATOM     25  C   UNL     1      -1.201   8.782  -1.906  1.00  0.00     0.000 A 
ENDBRANCH  19  20
ENDBRANCH   7  19
ENDBRANCH   4   7
ENDBRANCH   2   3
ENDBRANCH   1   2
BRANCH   1  26
ATOM     26  C   UNL     1      -1.379   7.948   3.233  1.00  0.00     0.118 C 
BRANCH  26  27
ATOM     27  N   UNL     1      -1.056   9.241   2.632  1.00  0.00    -0.352 N 
ATOM     28  C   UNL     1      -1.725  10.444   2.594  1.00  0.00     0.251 C 
ATOM     29  H   UNL     1      -0.192   9.254   2.161  1.00  0.00     0.163 HD
ATOM     30  O   UNL     1      -1.292  11.345   1.884  1.00  0.00    -0.269 OA
BRANCH  28  31
ATOM     31  C   UNL     1      -2.972  10.659   3.363  1.00  0.00     0.039 A 
ATOM     32  C   UNL     1      -3.977  11.469   2.820  1.00  0.00     0.014 A 
ATOM     33  C   UNL     1      -3.161  10.090   4.619  1.00  0.00     0.014 A 
ATOM     34  C   UNL     1      -5.197  11.616   3.490  1.00  0.00     0.010 A 
ATOM     35  C   UNL     1      -4.414  10.123   5.217  1.00  0.00     0.010 A 
ATOM     36  C   UNL     1      -5.446  10.894   4.667  1.00  0.00    -0.014 A 
BRANCH  36  37
ATOM     37  C   UNL     1      -6.762  10.931   5.357  1.00  0.00     0.031 A 
ATOM     38  C   UNL     1      -6.845  11.360   6.800  1.00  0.00     0.074 A 
ATOM     39  C   UNL     1      -7.863  10.474   4.729  1.00  0.00     0.049 A 
ATOM     40  N   UNL     1      -7.867  11.324   7.617  1.00  0.00    -0.248 NA
ATOM     41  C   UNL     1      -5.601  11.847   7.419  1.00  0.00     0.031 C 
ATOM     42  C   UNL     1      -7.912   9.969   3.355  1.00  0.00     0.029 A 
ATOM     43  N   UNL     1      -9.155  10.347   5.174  1.00  0.00    -0.354 N 
ATOM     44  C   UNL     1      -7.376  11.735   8.850  1.00  0.00     0.074 A 
ATOM     45  C   UNL     1      -5.958  11.963   8.688  1.00  0.00     0.031 C 
ATOM     46  C   UNL     1      -9.174   9.619   3.059  1.00  0.00     0.029 A 
ATOM     47  C   UNL     1     -10.012   9.830   4.233  1.00  0.00     0.049 A 
ATOM     48  H   UNL     1      -9.440  10.602   6.081  1.00  0.00     0.167 HD
ATOM     49  C   UNL     1      -8.047  11.929  10.011  1.00  0.00     0.031 A 
ATOM     50  C   UNL     1     -11.327   9.550   4.308  1.00  0.00     0.031 A 
ATOM     51  C   UNL     1      -9.465  11.748  10.160  1.00  0.00     0.049 A 
ATOM     52  C   UNL     1     -12.062   9.814   5.591  1.00  0.00     0.074 A 
ATOM     53  C   UNL     1     -10.257  12.006  11.265  1.00  0.00     0.029 A 
ATOM     54  N   UNL     1     -10.305  11.269   9.167  1.00  0.00    -0.354 N 
ATOM     55  N   UNL     1     -11.597  10.273   6.728  1.00  0.00    -0.248 NA
ATOM     56  C   UNL     1     -13.504   9.532   5.597  1.00  0.00     0.031 C 
ATOM     57  C   UNL     1     -11.571  11.643  10.953  1.00  0.00     0.029 A 
ATOM     58  C   UNL     1     -11.605  11.206   9.639  1.00  0.00     0.049 A 
ATOM     59  H   UNL     1     -10.019  11.012   8.260  1.00  0.00     0.167 HD
ATOM     60  C   UNL     1     -12.692  10.355   7.578  1.00  0.00     0.074 A 
ATOM     61  C   UNL     1     -13.845   9.915   6.819  1.00  0.00     0.031 C 
ATOM     62  C   UNL     1     -12.738  10.761   8.870  1.00  0.00     0.031 A 
BRANCH  49  63
ATOM     63  C   UNL     1      -7.243  12.360  11.207  1.00  0.00    -0.014 A 
ATOM     64  C   UNL     1      -6.654  13.633  11.273  1.00  0.00     0.009 A 
ATOM     65  C   UNL     1      -7.075  11.480  12.287  1.00  0.00     0.009 A 
ATOM     66  C   UNL     1      -5.871  13.996  12.371  1.00  0.00     0.001 A 
ATOM     67  C   UNL     1      -6.319  11.857  13.399  1.00  0.00     0.001 A 
ATOM     68  C   UNL     1      -5.706  13.109  13.433  1.00  0.00     0.000 A 
ENDBRANCH  49  63
BRANCH  50  69
ATOM     69  C   UNL     1     -12.037   9.016   3.117  1.00  0.00    -0.014 A 
ATOM     70  C   UNL     1     -12.911   9.838   2.389  1.00  0.00     0.009 A 
ATOM     71  C   UNL     1     -11.830   7.696   2.689  1.00  0.00     0.009 A 
ATOM     72  C   UNL     1     -13.578   9.342   1.266  1.00  0.00     0.001 A 
ATOM     73  C   UNL     1     -12.479   7.212   1.551  1.00  0.00     0.001 A 
ATOM     74  C   UNL     1     -13.357   8.032   0.845  1.00  0.00     0.000 A 
ENDBRANCH  50  69
BRANCH  62  75
ATOM     75  C   UNL     1     -14.084  10.774   9.536  1.00  0.00    -0.014 A 
ATOM     76  C   UNL     1     -14.713   9.582   9.926  1.00  0.00     0.009 A 
ATOM     77  C   UNL     1     -14.707  12.000   9.817  1.00  0.00     0.009 A 
ATOM     78  C   UNL     1     -15.957   9.618  10.559  1.00  0.00     0.001 A 
ATOM     79  C   UNL     1     -15.937  12.033  10.474  1.00  0.00     0.001 A 
ATOM     80  C   UNL     1     -16.565  10.842  10.837  1.00  0.00     0.000 A 
ENDBRANCH  62  75
ENDBRANCH  36  37
ENDBRANCH  28  31
ENDBRANCH  26  27
ENDBRANCH   1  26
TORSDOF 14
