REMARK SMILES Cc1cccc(O[C@@H](C)C(=O)N2CC[C@@H](C(=O)NCCCNC(=O)c3ccc(-c4c5nc(c(-c6ccccc6)c6ccc([nH]6)c(-c6ccccc6)c6nc(c(-c7ccccc7)c7ccc4[nH]7)C=C6)C=C5)cc3)[C@@H]2C)c1
REMARK SMILES IDX 19 1 18 2 16 3 17 4 15 6 12 7 13 8 73 9 14 10 74 11 10 12
REMARK SMILES IDX 11 13 8 14 9 15 7 16 6 17 1 18 2 19 3 20 75 21 4 22 5 23
REMARK SMILES IDX 20 24 21 25 22 26 23 27 24 29 25 30 26 31 72 32 27 33 71 34
REMARK SMILES IDX 28 35 29 36 30 37 65 38 31 39 70 40 64 41 66 42 32 43 69 44
REMARK SMILES IDX 63 45 62 46 33 48 55 49 40 50 54 51 41 52 44 53 53 54 67 55
REMARK SMILES IDX 42 56 43 57 52 59 68 60 45 61 34 62 35 63 39 64 36 65 38 66
REMARK SMILES IDX 37 67 56 68 57 69 61 70 58 71 60 72 59 73 46 74 47 75 51 76
REMARK SMILES IDX 48 77 50 78 49 79
REMARK H PARENT 18 5 22 28 66 47 44 58
REMARK Flexibility Score: inf
ROOT
ATOM      1  C   UNL     1       2.785   0.266   2.144  1.00  0.00     0.117 C 
ENDROOT
BRANCH   1   2
ATOM      2  N   UNL     1       2.844  -0.406   0.644  1.00  0.00    -0.356 N 
ATOM      3  C   UNL     1       2.678  -0.470  -0.730  1.00  0.00     0.225 C 
ATOM      4  O   UNL     1       3.239  -1.528  -1.123  1.00  0.00    -0.275 OA
ATOM      5  H   UNL     1       3.226  -1.293   0.839  1.00  0.00     0.163 HD
BRANCH   3   6
ATOM      6  C   UNL     1       2.023   0.397  -2.042  1.00  0.00     0.102 C 
ATOM      7  N   UNL     1       0.853   2.528  -2.476  1.00  0.00    -0.336 N 
ATOM      8  C   UNL     1       2.248   2.731  -2.873  1.00  0.00     0.121 C 
ATOM      9  C   UNL     1       0.616   1.067  -2.433  1.00  0.00     0.094 C 
ATOM     10  C   UNL     1       3.006   1.404  -2.679  1.00  0.00     0.037 C 
ATOM     11  C   UNL     1       0.141   0.641  -3.842  1.00  0.00     0.032 C 
BRANCH   7  12
ATOM     12  C   UNL     1       0.073   3.673  -2.278  1.00  0.00     0.263 C 
ATOM     13  O   UNL     1       0.582   4.753  -2.648  1.00  0.00    -0.271 OA
BRANCH  12  14
ATOM     14  C   UNL     1      -1.380   3.846  -1.540  1.00  0.00     0.259 C 
ATOM     15  C   UNL     1      -1.239   5.049  -0.528  1.00  0.00     0.064 C 
BRANCH  14  16
ATOM     16  O   UNL     1      -2.345   2.935  -1.006  1.00  0.00    -0.481 OA
BRANCH  16  17
ATOM     17  C   UNL     1      -1.857   2.085  -0.056  1.00  0.00     0.120 A 
ATOM     18  C   UNL     1       1.678   2.322   0.281  1.00  0.00     0.044 C 
ATOM     19  C   UNL     1       0.324   1.570   0.373  1.00  0.00    -0.047 A 
ATOM     20  C   UNL     1      -0.050   0.192   0.352  1.00  0.00     0.003 A 
ATOM     21  C   UNL     1      -0.707   2.417   0.604  1.00  0.00     0.049 A 
ATOM     22  C   UNL     1      -1.385  -0.210   0.234  1.00  0.00     0.004 A 
ATOM     23  C   UNL     1      -2.303   0.771  -0.078  1.00  0.00     0.046 A 
ENDBRANCH  16  17
ENDBRANCH  14  16
ENDBRANCH  12  14
ENDBRANCH   7  12
ENDBRANCH   3   6
ENDBRANCH   1   2
BRANCH   1  24
ATOM     24  C   UNL     1       1.417   0.688   2.818  1.00  0.00     0.042 C 
BRANCH  24  25
ATOM     25  C   UNL     1       0.796   1.738   3.824  1.00  0.00     0.118 C 
BRANCH  25  26
ATOM     26  N   UNL     1       1.648   2.699   4.533  1.00  0.00    -0.352 N 
ATOM     27  C   UNL     1       1.851   2.821   5.917  1.00  0.00     0.251 C 
ATOM     28  H   UNL     1       2.138   3.339   3.968  1.00  0.00     0.163 HD
ATOM     29  O   UNL     1       2.226   3.864   6.411  1.00  0.00    -0.269 OA
BRANCH  27  30
ATOM     30  C   UNL     1       1.610   1.626   6.759  1.00  0.00     0.039 A 
ATOM     31  C   UNL     1       1.620   1.535   8.148  1.00  0.00     0.014 A 
ATOM     32  C   UNL     1       1.456   0.462   6.053  1.00  0.00     0.014 A 
ATOM     33  C   UNL     1       1.597   0.242   8.697  1.00  0.00     0.010 A 
ATOM     34  C   UNL     1       0.809  -0.588   6.574  1.00  0.00     0.010 A 
ATOM     35  C   UNL     1       1.263  -0.816   7.845  1.00  0.00    -0.014 A 
BRANCH  35  36
ATOM     36  C   UNL     1       1.660  -2.210   7.909  1.00  0.00     0.031 A 
ATOM     37  C   UNL     1       0.729  -3.174   8.454  1.00  0.00     0.074 A 
ATOM     38  C   UNL     1       2.633  -2.594   7.037  1.00  0.00     0.049 A 
ATOM     39  N   UNL     1       1.095  -4.262   9.022  1.00  0.00    -0.248 NA
ATOM     40  C   UNL     1      -0.714  -2.982   8.374  1.00  0.00     0.031 C 
ATOM     41  C   UNL     1       2.943  -3.905   6.486  1.00  0.00     0.029 A 
ATOM     42  N   UNL     1       3.597  -1.771   6.451  1.00  0.00    -0.354 N 
ATOM     43  C   UNL     1      -0.021  -5.057   9.043  1.00  0.00     0.074 A 
ATOM     44  C   UNL     1      -1.141  -4.170   8.807  1.00  0.00     0.031 C 
ATOM     45  C   UNL     1       4.164  -3.856   5.913  1.00  0.00     0.029 A 
ATOM     46  C   UNL     1       4.728  -2.535   6.161  1.00  0.00     0.049 A 
ATOM     47  H   UNL     1       3.495  -0.808   6.272  1.00  0.00     0.167 HD
ATOM     48  C   UNL     1       0.131  -6.409   9.009  1.00  0.00     0.031 A 
ATOM     49  C   UNL     1       5.855  -2.248   6.878  1.00  0.00     0.031 A 
ATOM     50  C   UNL     1       1.541  -6.780   8.794  1.00  0.00     0.049 A 
ATOM     51  C   UNL     1       6.092  -3.280   7.960  1.00  0.00     0.074 A 
ATOM     52  C   UNL     1       2.220  -7.269   7.687  1.00  0.00     0.029 A 
ATOM     53  N   UNL     1       2.524  -6.316   9.666  1.00  0.00    -0.354 N 
ATOM     54  N   UNL     1       5.252  -4.236   8.249  1.00  0.00    -0.248 NA
ATOM     55  C   UNL     1       7.283  -3.325   8.800  1.00  0.00     0.031 C 
ATOM     56  C   UNL     1       3.611  -7.022   7.872  1.00  0.00     0.029 A 
ATOM     57  C   UNL     1       3.786  -6.413   9.102  1.00  0.00     0.049 A 
ATOM     58  H   UNL     1       2.345  -5.963  10.568  1.00  0.00     0.167 HD
ATOM     59  C   UNL     1       5.712  -4.971   9.302  1.00  0.00     0.074 A 
ATOM     60  C   UNL     1       7.011  -4.384   9.586  1.00  0.00     0.031 C 
ATOM     61  C   UNL     1       4.963  -5.973   9.857  1.00  0.00     0.031 A 
BRANCH  48  62
ATOM     62  C   UNL     1      -1.033  -7.352   8.828  1.00  0.00    -0.014 A 
ATOM     63  C   UNL     1      -0.817  -8.649   8.336  1.00  0.00     0.009 A 
ATOM     64  C   UNL     1      -2.368  -7.028   9.139  1.00  0.00     0.009 A 
ATOM     65  C   UNL     1      -1.876  -9.531   8.084  1.00  0.00     0.001 A 
ATOM     66  C   UNL     1      -3.437  -7.882   8.841  1.00  0.00     0.001 A 
ATOM     67  C   UNL     1      -3.189  -9.137   8.308  1.00  0.00     0.000 A 
ENDBRANCH  48  62
BRANCH  49  68
ATOM     68  C   UNL     1       6.071  -0.762   6.992  1.00  0.00    -0.014 A 
ATOM     69  C   UNL     1       6.508  -0.083   5.832  1.00  0.00     0.009 A 
ATOM     70  C   UNL     1       5.429  -0.007   7.989  1.00  0.00     0.009 A 
ATOM     71  C   UNL     1       6.189   1.265   5.616  1.00  0.00     0.001 A 
ATOM     72  C   UNL     1       5.118   1.345   7.769  1.00  0.00     0.001 A 
ATOM     73  C   UNL     1       5.459   1.968   6.569  1.00  0.00     0.000 A 
ENDBRANCH  49  68
BRANCH  61  74
ATOM     74  C   UNL     1       5.265  -6.679  11.158  1.00  0.00    -0.014 A 
ATOM     75  C   UNL     1       6.138  -6.203  12.142  1.00  0.00     0.009 A 
ATOM     76  C   UNL     1       4.529  -7.843  11.483  1.00  0.00     0.009 A 
ATOM     77  C   UNL     1       6.297  -6.873  13.363  1.00  0.00     0.001 A 
ATOM     78  C   UNL     1       4.633  -8.476  12.722  1.00  0.00     0.001 A 
ATOM     79  C   UNL     1       5.533  -7.997  13.659  1.00  0.00     0.000 A 
ENDBRANCH  61  74
ENDBRANCH  35  36
ENDBRANCH  27  30
ENDBRANCH  25  26
ENDBRANCH  24  25
ENDBRANCH   1  24
TORSDOF 14
