REMARK SMILES O=C(CCC(=O)N1CCCn2nc(-c3ccccc3)cc21)NCCCNC(=O)c1ccc(-c2c3nc(c(-c4ccccc4)c4ccc([nH]4)c(-c4ccccc4)c4nc(c(-c5ccccc5)c5ccc2[nH]5)C=C4)C=C3)cc1
REMARK SMILES IDX 23 1 22 2 1 3 2 4 3 6 4 7 5 8 6 9 7 10 8 11 21 12 9 13 11 14
REMARK SMILES IDX 20 15 10 16 12 17 13 18 14 19 15 20 19 21 16 22 18 23 17 24
REMARK SMILES IDX 24 25 25 26 26 27 27 28 28 30 29 31 30 32 76 33 31 34 75 35
REMARK SMILES IDX 32 36 33 37 34 38 69 39 35 40 74 41 68 42 70 43 36 44 73 45
REMARK SMILES IDX 67 46 66 47 37 49 59 50 44 51 58 52 45 53 48 54 57 55 71 56
REMARK SMILES IDX 46 57 47 58 56 60 72 61 49 62 38 63 39 64 43 65 40 66 42 67
REMARK SMILES IDX 41 68 60 69 61 70 65 71 62 72 64 73 63 74 50 75 51 76 55 77
REMARK SMILES IDX 52 78 54 79 53 80
REMARK H PARENT 22 5 26 29 70 48 48 59
REMARK Flexibility Score: inf
ROOT
ATOM      1  C   UNL     1       1.547   2.628  -0.314  1.00  0.00     0.117 C 
ENDROOT
BRANCH   1   2
ATOM      2  N   UNL     1       2.387   1.743   0.485  1.00  0.00    -0.356 N 
ATOM      3  O   UNL     1       1.031  -0.087   0.176  1.00  0.00    -0.275 OA
ATOM      4  C   UNL     1       2.081   0.395   0.596  1.00  0.00     0.220 C 
ATOM      5  H   UNL     1       3.176   2.105   0.949  1.00  0.00     0.163 HD
BRANCH   4   6
ATOM      6  C   UNL     1       3.231  -0.493   1.060  1.00  0.00     0.110 C 
BRANCH   6   7
ATOM      7  C   UNL     1       3.547  -1.630   0.058  1.00  0.00     0.110 C 
BRANCH   7   8
ATOM      8  C   UNL     1       4.650  -1.371  -0.979  1.00  0.00     0.228 C 
ATOM      9  O   UNL     1       5.826  -1.666  -0.761  1.00  0.00    -0.274 OA
BRANCH   8  10
ATOM     10  N   UNL     1       4.302  -0.767  -2.256  1.00  0.00    -0.297 N 
ATOM     11  C   UNL     1       2.971  -0.147  -2.437  1.00  0.00     0.129 C 
ATOM     12  C   UNL     1       5.185  -0.627  -3.349  1.00  0.00     0.134 A 
ATOM     13  C   UNL     1       3.127   1.171  -3.157  1.00  0.00     0.046 C 
ATOM     14  N   UNL     1       4.862   0.164  -4.427  1.00  0.00    -0.249 N 
ATOM     15  C   UNL     1       6.426  -1.144  -3.664  1.00  0.00     0.077 A 
ATOM     16  C   UNL     1       3.652   0.945  -4.542  1.00  0.00     0.148 C 
ATOM     17  N   UNL     1       5.787   0.254  -5.361  1.00  0.00    -0.171 NA
ATOM     18  C   UNL     1       6.745  -0.579  -4.945  1.00  0.00     0.095 A 
BRANCH  18  19
ATOM     19  C   UNL     1       7.829  -0.811  -5.882  1.00  0.00     0.002 A 
ATOM     20  C   UNL     1       8.768   0.198  -6.138  1.00  0.00     0.010 A 
ATOM     21  C   UNL     1       7.740  -1.909  -6.746  1.00  0.00     0.010 A 
ATOM     22  C   UNL     1       9.613   0.103  -7.246  1.00  0.00     0.001 A 
ATOM     23  C   UNL     1       8.578  -1.995  -7.858  1.00  0.00     0.001 A 
ATOM     24  C   UNL     1       9.512  -0.990  -8.107  1.00  0.00     0.000 A 
ENDBRANCH  18  19
ENDBRANCH   8  10
ENDBRANCH   7   8
ENDBRANCH   6   7
ENDBRANCH   4   6
ENDBRANCH   1   2
BRANCH   1  25
ATOM     25  C   UNL     1       2.098   4.021  -0.665  1.00  0.00     0.042 C 
BRANCH  25  26
ATOM     26  C   UNL     1       3.606   4.267  -0.781  1.00  0.00     0.118 C 
BRANCH  26  27
ATOM     27  N   UNL     1       4.227   3.905  -2.050  1.00  0.00    -0.352 N 
ATOM     28  C   UNL     1       4.610   4.679  -3.121  1.00  0.00     0.251 C 
ATOM     29  H   UNL     1       4.401   2.942  -2.160  1.00  0.00     0.163 HD
ATOM     30  O   UNL     1       4.606   4.222  -4.259  1.00  0.00    -0.269 OA
BRANCH  28  31
ATOM     31  C   UNL     1       5.220   5.992  -2.850  1.00  0.00     0.039 A 
ATOM     32  C   UNL     1       5.225   6.997  -3.821  1.00  0.00     0.014 A 
ATOM     33  C   UNL     1       5.872   6.185  -1.629  1.00  0.00     0.014 A 
ATOM     34  C   UNL     1       5.788   8.233  -3.513  1.00  0.00     0.010 A 
ATOM     35  C   UNL     1       6.328   7.437  -1.282  1.00  0.00     0.010 A 
ATOM     36  C   UNL     1       6.285   8.470  -2.221  1.00  0.00    -0.014 A 
BRANCH  36  37
ATOM     37  C   UNL     1       6.729   9.805  -1.787  1.00  0.00     0.031 A 
ATOM     38  C   UNL     1       8.149  10.012  -1.353  1.00  0.00     0.074 A 
ATOM     39  C   UNL     1       5.798  10.768  -1.662  1.00  0.00     0.049 A 
ATOM     40  N   UNL     1       8.705  11.080  -0.848  1.00  0.00    -0.248 NA
ATOM     41  C   UNL     1       9.053   8.853  -1.455  1.00  0.00     0.031 C 
ATOM     42  C   UNL     1       4.373  10.615  -1.981  1.00  0.00     0.029 A 
ATOM     43  N   UNL     1       5.903  12.059  -1.228  1.00  0.00    -0.354 N 
ATOM     44  C   UNL     1      10.014  10.718  -0.559  1.00  0.00     0.074 A 
ATOM     45  C   UNL     1      10.151   9.315  -0.876  1.00  0.00     0.031 C 
ATOM     46  C   UNL     1       3.749  11.785  -1.778  1.00  0.00     0.029 A 
ATOM     47  C   UNL     1       4.717  12.750  -1.274  1.00  0.00     0.049 A 
ATOM     48  H   UNL     1       6.747  12.457  -0.914  1.00  0.00     0.167 HD
ATOM     49  C   UNL     1      11.017  11.500  -0.098  1.00  0.00     0.031 A 
ATOM     50  C   UNL     1       4.450  14.026  -0.949  1.00  0.00     0.031 A 
ATOM     51  C   UNL     1      10.848  12.896   0.202  1.00  0.00     0.049 A 
ATOM     52  C   UNL     1       5.587  14.880  -0.467  1.00  0.00     0.074 A 
ATOM     53  C   UNL     1      11.794  13.812   0.622  1.00  0.00     0.029 A 
ATOM     54  N   UNL     1       9.641  13.576   0.105  1.00  0.00    -0.354 N 
ATOM     55  N   UNL     1       6.842  14.548  -0.272  1.00  0.00    -0.248 NA
ATOM     56  C   UNL     1       5.278  16.284  -0.182  1.00  0.00     0.031 C 
ATOM     57  C   UNL     1      11.147  15.036   0.828  1.00  0.00     0.029 A 
ATOM     58  C   UNL     1       9.813  14.898   0.472  1.00  0.00     0.049 A 
ATOM     59  H   UNL     1       8.789  13.176  -0.183  1.00  0.00     0.167 HD
ATOM     60  C   UNL     1       7.483  15.712   0.126  1.00  0.00     0.074 A 
ATOM     61  C   UNL     1       6.477  16.758   0.127  1.00  0.00     0.031 C 
ATOM     62  C   UNL     1       8.783  15.906   0.460  1.00  0.00     0.031 A 
BRANCH  49  63
ATOM     63  C   UNL     1      12.361  10.856   0.107  1.00  0.00    -0.014 A 
ATOM     64  C   UNL     1      13.114  10.375  -0.979  1.00  0.00     0.009 A 
ATOM     65  C   UNL     1      12.890  10.730   1.400  1.00  0.00     0.009 A 
ATOM     66  C   UNL     1      14.341   9.741  -0.770  1.00  0.00     0.001 A 
ATOM     67  C   UNL     1      14.134  10.126   1.604  1.00  0.00     0.001 A 
ATOM     68  C   UNL     1      14.851   9.621   0.521  1.00  0.00     0.000 A 
ENDBRANCH  49  63
BRANCH  50  69
ATOM     69  C   UNL     1       3.079  14.571  -1.121  1.00  0.00    -0.014 A 
ATOM     70  C   UNL     1       2.809  15.517  -2.122  1.00  0.00     0.009 A 
ATOM     71  C   UNL     1       2.025  14.135  -0.302  1.00  0.00     0.009 A 
ATOM     72  C   UNL     1       1.523  16.040  -2.277  1.00  0.00     0.001 A 
ATOM     73  C   UNL     1       0.733  14.635  -0.481  1.00  0.00     0.001 A 
ATOM     74  C   UNL     1       0.486  15.596  -1.460  1.00  0.00     0.000 A 
ENDBRANCH  50  69
BRANCH  62  75
ATOM     75  C   UNL     1       9.187  17.311   0.807  1.00  0.00    -0.014 A 
ATOM     76  C   UNL     1       8.768  17.920   1.999  1.00  0.00     0.009 A 
ATOM     77  C   UNL     1      10.026  18.020  -0.067  1.00  0.00     0.009 A 
ATOM     78  C   UNL     1       9.148  19.231   2.288  1.00  0.00     0.001 A 
ATOM     79  C   UNL     1      10.434  19.316   0.243  1.00  0.00     0.001 A 
ATOM     80  C   UNL     1       9.984  19.925   1.413  1.00  0.00     0.000 A 
ENDBRANCH  62  75
ENDBRANCH  36  37
ENDBRANCH  28  31
ENDBRANCH  26  27
ENDBRANCH  25  26
ENDBRANCH   1  25
TORSDOF 14
