REMARK SMILES O=C(COCC(=O)/[NH+]=C1\S[C@@H]2CS(=O)(=O)C[C@H]2N1c1ccc(Cl)cc1)NCCCNC(=O)c1ccc(-c2c3nc(c(-c4ccccc4)c4ccc([nH]4)c(-c4ccccc4)c4nc(c(-c5ccccc5)c5ccc2[nH]5)C=C4)C=C3)cc1
REMARK SMILES IDX 27 1 26 2 2 3 1 4 3 6 4 7 5 8 6 9 7 10 8 11 9 12 10 14 18 15
REMARK SMILES IDX 11 16 17 17 12 18 16 19 13 20 14 21 15 22 19 23 20 24 25 25
REMARK SMILES IDX 21 26 24 27 22 28 23 29 28 30 29 31 30 32 31 33 32 35 33 36
REMARK SMILES IDX 34 37 80 38 35 39 79 40 36 41 37 42 38 43 73 44 39 45 78 46
REMARK SMILES IDX 72 47 74 48 40 49 77 50 71 51 70 52 41 54 63 55 48 56 62 57
REMARK SMILES IDX 49 58 52 59 61 60 75 61 50 62 51 63 60 65 76 66 53 67 42 68
REMARK SMILES IDX 43 69 47 70 44 71 46 72 45 73 64 74 65 75 69 76 66 77 68 78
REMARK SMILES IDX 67 79 54 80 55 81 59 82 56 83 58 84 57 85
REMARK H PARENT 26 5 8 13 30 34 74 53 52 64
REMARK Flexibility Score: inf
ROOT
ATOM      1  C   UNL     1       4.033   1.972   4.513  1.00  0.00     0.117 C 
ENDROOT
BRANCH   1   2
ATOM      2  N   UNL     1       2.613   1.675   4.466  1.00  0.00    -0.354 N 
ATOM      3  C   UNL     1       1.970   0.707   3.748  1.00  0.00     0.246 C 
ATOM      4  O   UNL     1       0.750   0.588   3.862  1.00  0.00    -0.272 OA
ATOM      5  H   UNL     1       2.038   2.246   5.026  1.00  0.00     0.163 HD
BRANCH   3   6
ATOM      6  C   UNL     1       2.781  -0.188   2.809  1.00  0.00     0.260 C 
BRANCH   6   7
ATOM      7  O   UNL     1       3.462   0.547   1.803  1.00  0.00    -0.359 OA
BRANCH   7   8
ATOM      8  C   UNL     1       2.582   1.047   0.803  1.00  0.00     0.288 C 
BRANCH   8   9
ATOM      9  C   UNL     1       2.293   0.153  -0.420  1.00  0.00     0.333 C 
ATOM     10  O   UNL     1       1.330   0.411  -1.141  1.00  0.00    -0.244 OA
ATOM     11  N   UNL     1       3.084  -0.943  -0.661  1.00  0.00    -0.202 N 
ATOM     12  C   UNL     1       4.357  -0.859  -0.855  1.00  0.00     0.319 C 
ATOM     13  H   UNL     1       2.661  -1.832  -0.687  1.00  0.00     0.316 HD
ATOM     14  S   UNL     1       5.338   0.635  -0.689  1.00  0.00    -0.029 SA
ATOM     15  N   UNL     1       5.214  -1.920  -1.191  1.00  0.00    -0.217 N 
ATOM     16  C   UNL     1       6.770  -0.392  -0.304  1.00  0.00     0.120 C 
ATOM     17  C   UNL     1       6.610  -1.484  -1.369  1.00  0.00     0.212 C 
ATOM     18  C   UNL     1       8.164   0.166  -0.405  1.00  0.00     0.156 C 
ATOM     19  C   UNL     1       7.763  -2.421  -1.106  1.00  0.00     0.188 C 
ATOM     20  S   UNL     1       9.129  -1.284  -0.839  1.00  0.00     0.155 S 
ATOM     21  O   UNL     1       9.864  -1.724   0.328  1.00  0.00    -0.229 OA
ATOM     22  O   UNL     1       9.768  -1.029  -2.110  1.00  0.00    -0.229 OA
BRANCH  15  23
ATOM     23  C   UNL     1       4.770  -3.091  -1.827  1.00  0.00     0.128 A 
ATOM     24  C   UNL     1       5.277  -4.351  -1.472  1.00  0.00     0.053 A 
ATOM     25  C   UNL     1       3.772  -3.053  -2.817  1.00  0.00     0.053 A 
ATOM     26  C   UNL     1       4.819  -5.523  -2.087  1.00  0.00     0.025 A 
ATOM     27  C   UNL     1       3.308  -4.221  -3.435  1.00  0.00     0.025 A 
ATOM     28  C   UNL     1       3.836  -5.452  -3.068  1.00  0.00     0.041 A 
ATOM     29  Cl  UNL     1       3.263  -6.893  -3.812  1.00  0.00    -0.084 Cl
ENDBRANCH  15  23
ENDBRANCH   8   9
ENDBRANCH   7   8
ENDBRANCH   6   7
ENDBRANCH   3   6
ENDBRANCH   1   2
BRANCH   1  30
ATOM     30  C   UNL     1       4.387   3.279   3.812  1.00  0.00     0.042 C 
BRANCH  30  31
ATOM     31  C   UNL     1       3.712   4.515   4.400  1.00  0.00     0.118 C 
BRANCH  31  32
ATOM     32  N   UNL     1       4.050   4.743   5.800  1.00  0.00    -0.352 N 
ATOM     33  C   UNL     1       4.572   5.857   6.413  1.00  0.00     0.251 C 
ATOM     34  H   UNL     1       3.877   3.981   6.399  1.00  0.00     0.163 HD
ATOM     35  O   UNL     1       4.929   5.801   7.585  1.00  0.00    -0.269 OA
BRANCH  33  36
ATOM     36  C   UNL     1       4.730   7.113   5.653  1.00  0.00     0.039 A 
ATOM     37  C   UNL     1       5.927   7.827   5.761  1.00  0.00     0.014 A 
ATOM     38  C   UNL     1       3.705   7.581   4.828  1.00  0.00     0.014 A 
ATOM     39  C   UNL     1       6.130   8.963   4.973  1.00  0.00     0.010 A 
ATOM     40  C   UNL     1       3.938   8.664   3.988  1.00  0.00     0.010 A 
ATOM     41  C   UNL     1       5.155   9.362   4.045  1.00  0.00    -0.014 A 
BRANCH  41  42
ATOM     42  C   UNL     1       5.374  10.494   3.110  1.00  0.00     0.031 A 
ATOM     43  C   UNL     1       4.473  11.696   3.163  1.00  0.00     0.074 A 
ATOM     44  C   UNL     1       6.313  10.397   2.148  1.00  0.00     0.049 A 
ATOM     45  N   UNL     1       4.404  12.714   2.345  1.00  0.00    -0.248 NA
ATOM     46  C   UNL     1       3.503  11.743   4.269  1.00  0.00     0.031 C 
ATOM     47  C   UNL     1       7.242   9.279   1.976  1.00  0.00     0.029 A 
ATOM     48  N   UNL     1       6.627  11.250   1.120  1.00  0.00    -0.354 N 
ATOM     49  C   UNL     1       3.371  13.511   2.823  1.00  0.00     0.074 A 
ATOM     50  C   UNL     1       2.810  12.832   3.971  1.00  0.00     0.031 C 
ATOM     51  C   UNL     1       8.034   9.524   0.920  1.00  0.00     0.029 A 
ATOM     52  C   UNL     1       7.632  10.786   0.306  1.00  0.00     0.049 A 
ATOM     53  H   UNL     1       6.175  12.114   0.979  1.00  0.00     0.167 HD
ATOM     54  C   UNL     1       2.937  14.707   2.359  1.00  0.00     0.031 A 
ATOM     55  C   UNL     1       8.158  11.306  -0.819  1.00  0.00     0.031 A 
ATOM     56  C   UNL     1       3.492  15.378   1.214  1.00  0.00     0.049 A 
ATOM     57  C   UNL     1       7.622  12.607  -1.348  1.00  0.00     0.074 A 
ATOM     58  C   UNL     1       3.147  16.610   0.685  1.00  0.00     0.029 A 
ATOM     59  N   UNL     1       4.506  14.870   0.416  1.00  0.00    -0.354 N 
ATOM     60  N   UNL     1       6.675  13.371  -0.860  1.00  0.00    -0.248 NA
ATOM     61  C   UNL     1       8.233  13.120  -2.583  1.00  0.00     0.031 C 
ATOM     62  C   UNL     1       3.909  16.819  -0.468  1.00  0.00     0.029 A 
ATOM     63  C   UNL     1       4.781  15.752  -0.616  1.00  0.00     0.049 A 
ATOM     64  H   UNL     1       4.962  14.010   0.561  1.00  0.00     0.167 HD
ATOM     65  C   UNL     1       6.606  14.474  -1.702  1.00  0.00     0.074 A 
ATOM     66  C   UNL     1       7.610  14.282  -2.728  1.00  0.00     0.031 C 
ATOM     67  C   UNL     1       5.789  15.553  -1.626  1.00  0.00     0.031 A 
BRANCH  54  68
ATOM     68  C   UNL     1       1.789  15.354   3.086  1.00  0.00    -0.014 A 
ATOM     69  C   UNL     1       1.933  15.837   4.397  1.00  0.00     0.009 A 
ATOM     70  C   UNL     1       0.549  15.500   2.444  1.00  0.00     0.009 A 
ATOM     71  C   UNL     1       0.848  16.407   5.066  1.00  0.00     0.001 A 
ATOM     72  C   UNL     1      -0.524  16.103   3.102  1.00  0.00     0.001 A 
ATOM     73  C   UNL     1      -0.378  16.544   4.417  1.00  0.00     0.000 A 
ENDBRANCH  54  68
BRANCH  55  74
ATOM     74  C   UNL     1       9.264  10.601  -1.521  1.00  0.00    -0.014 A 
ATOM     75  C   UNL     1      10.556  11.149  -1.536  1.00  0.00     0.009 A 
ATOM     76  C   UNL     1       9.037   9.384  -2.183  1.00  0.00     0.009 A 
ATOM     77  C   UNL     1      11.590  10.509  -2.224  1.00  0.00     0.001 A 
ATOM     78  C   UNL     1      10.079   8.730  -2.843  1.00  0.00     0.001 A 
ATOM     79  C   UNL     1      11.352   9.298  -2.872  1.00  0.00     0.000 A 
ENDBRANCH  55  74
BRANCH  67  80
ATOM     80  C   UNL     1       5.983  16.643  -2.644  1.00  0.00    -0.014 A 
ATOM     81  C   UNL     1       5.618  16.472  -3.988  1.00  0.00     0.009 A 
ATOM     82  C   UNL     1       6.492  17.886  -2.232  1.00  0.00     0.009 A 
ATOM     83  C   UNL     1       5.788  17.514  -4.904  1.00  0.00     0.001 A 
ATOM     84  C   UNL     1       6.629  18.935  -3.141  1.00  0.00     0.001 A 
ATOM     85  C   UNL     1       6.286  18.745  -4.478  1.00  0.00     0.000 A 
ENDBRANCH  67  80
ENDBRANCH  41  42
ENDBRANCH  33  36
ENDBRANCH  31  32
ENDBRANCH  30  31
ENDBRANCH   1  30
TORSDOF 14
