REMARK SMILES CCc1cc(OC(F)(F)F)cc2c1O[C@@H](C(F)(F)F)C(C(=O)NCCCNC(=O)c1ccc(-c3c4nc(c(-c5ccccc5)c5ccc([nH]5)c(-c5ccccc5)c5nc(c(-c6ccccc6)c6ccc3[nH]6)C=C5)C=C4)cc1)=C2
REMARK SMILES IDX 25 1 24 2 23 3 21 4 22 5 20 7 3 8 4 9 13 10 5 11 12 12 14 13
REMARK SMILES IDX 11 14 78 15 15 16 2 17 1 18 6 19 7 20 8 21 9 22 10 23 16 24
REMARK SMILES IDX 17 25 18 26 19 27 26 28 27 29 28 30 29 32 30 33 31 34 77 35
REMARK SMILES IDX 32 36 76 37 33 38 34 39 35 40 70 41 36 42 75 43 69 44 71 45
REMARK SMILES IDX 37 46 74 47 68 48 67 49 38 51 60 52 45 53 59 54 46 55 49 56
REMARK SMILES IDX 58 57 72 58 47 59 48 60 57 62 73 63 50 64 39 65 40 66 44 67
REMARK SMILES IDX 41 68 43 69 42 70 61 71 62 72 66 73 63 74 65 75 64 76 51 77
REMARK SMILES IDX 52 78 56 79 53 80 55 81 54 82
REMARK H PARENT 23 6 27 31 71 50 49 61
REMARK Flexibility Score: inf
ROOT
ATOM      1  C   UNL     1       5.580  -5.881  -5.003  1.00  0.00     0.042 C 
ENDROOT
BRANCH   1   2
ATOM      2  C   UNL     1       6.082  -4.771  -4.075  1.00  0.00     0.118 C 
BRANCH   2   3
ATOM      3  N   UNL     1       6.177  -3.514  -4.800  1.00  0.00    -0.352 N 
ATOM      4  C   UNL     1       5.317  -2.478  -4.982  1.00  0.00     0.251 C 
ATOM      5  O   UNL     1       5.626  -1.620  -5.805  1.00  0.00    -0.270 OA
ATOM      6  H   UNL     1       7.043  -3.387  -5.252  1.00  0.00     0.163 HD
BRANCH   4   7
ATOM      7  C   UNL     1       4.071  -2.308  -4.191  1.00  0.00     0.067 C 
ATOM      8  C   UNL     1       0.758  -1.589  -1.696  1.00  0.00    -0.002 A 
ATOM      9  C   UNL     1       0.002  -2.687  -1.240  1.00  0.00     0.054 A 
ATOM     10  C   UNL     1       1.849  -1.814  -2.548  1.00  0.00     0.131 A 
ATOM     11  C   UNL     1       0.321  -3.987  -1.633  1.00  0.00     0.130 A 
ATOM     12  C   UNL     1       2.156  -3.108  -2.963  1.00  0.00     0.021 A 
ATOM     13  O   UNL     1       2.626  -0.744  -2.881  1.00  0.00    -0.475 OA
ATOM     14  C   UNL     1       1.393  -4.187  -2.504  1.00  0.00     0.058 A 
ATOM     15  C   UNL     1       3.322  -3.346  -3.796  1.00  0.00     0.025 C 
ATOM     16  C   UNL     1       3.578  -0.879  -3.978  1.00  0.00     0.314 C 
BRANCH   8  17
ATOM     17  C   UNL     1       0.389  -0.199  -1.230  1.00  0.00     0.036 C 
ATOM     18  C   UNL     1       0.973   0.121   0.137  1.00  0.00     0.009 C 
ENDBRANCH   8  17
BRANCH  11  19
ATOM     19  O   UNL     1      -0.301  -5.136  -1.242  1.00  0.00    -0.406 OA
BRANCH  19  20
ATOM     20  C   UNL     1      -1.406  -5.027  -0.361  1.00  0.00     0.573 C 
ATOM     21  F   UNL     1      -1.046  -4.454   0.806  1.00  0.00    -0.132 F 
ATOM     22  F   UNL     1      -2.405  -4.318  -0.926  1.00  0.00    -0.132 F 
ATOM     23  F   UNL     1      -1.868  -6.269  -0.095  1.00  0.00    -0.132 F 
ENDBRANCH  19  20
ENDBRANCH  11  19
BRANCH  16  24
ATOM     24  C   UNL     1       4.654   0.213  -3.772  1.00  0.00     0.429 C 
ATOM     25  F   UNL     1       5.164   0.675  -4.935  1.00  0.00    -0.167 F 
ATOM     26  F   UNL     1       4.122   1.304  -3.156  1.00  0.00    -0.167 F 
ATOM     27  F   UNL     1       5.678  -0.212  -2.997  1.00  0.00    -0.167 F 
ENDBRANCH  16  24
ENDBRANCH   4   7
ENDBRANCH   2   3
ENDBRANCH   1   2
BRANCH   1  28
ATOM     28  C   UNL     1       6.651  -6.364  -5.977  1.00  0.00     0.118 C 
BRANCH  28  29
ATOM     29  N   UNL     1       7.694  -7.122  -5.298  1.00  0.00    -0.352 N 
ATOM     30  C   UNL     1       8.090  -8.424  -5.488  1.00  0.00     0.251 C 
ATOM     31  H   UNL     1       8.187  -6.630  -4.603  1.00  0.00     0.163 HD
ATOM     32  O   UNL     1       8.815  -8.974  -4.669  1.00  0.00    -0.269 OA
BRANCH  30  33
ATOM     33  C   UNL     1       7.628  -9.160  -6.681  1.00  0.00     0.039 A 
ATOM     34  C   UNL     1       7.169 -10.473  -6.541  1.00  0.00     0.014 A 
ATOM     35  C   UNL     1       7.656  -8.551  -7.938  1.00  0.00     0.014 A 
ATOM     36  C   UNL     1       6.672 -11.152  -7.656  1.00  0.00     0.010 A 
ATOM     37  C   UNL     1       7.092  -9.200  -9.029  1.00  0.00     0.010 A 
ATOM     38  C   UNL     1       6.596 -10.507  -8.900  1.00  0.00    -0.014 A 
BRANCH  38  39
ATOM     39  C   UNL     1       6.008 -11.164 -10.093  1.00  0.00     0.031 A 
ATOM     40  C   UNL     1       6.864 -11.406 -11.306  1.00  0.00     0.074 A 
ATOM     41  C   UNL     1       4.691 -11.441 -10.125  1.00  0.00     0.049 A 
ATOM     42  N   UNL     1       6.511 -11.811 -12.498  1.00  0.00    -0.248 NA
ATOM     43  C   UNL     1       8.302 -11.123 -11.165  1.00  0.00     0.031 C 
ATOM     44  C   UNL     1       3.751 -11.234  -9.021  1.00  0.00     0.029 A 
ATOM     45  N   UNL     1       3.908 -11.937 -11.138  1.00  0.00    -0.354 N 
ATOM     46  C   UNL     1       7.676 -11.805 -13.256  1.00  0.00     0.074 A 
ATOM     47  C   UNL     1       8.735 -11.312 -12.403  1.00  0.00     0.031 C 
ATOM     48  C   UNL     1       2.523 -11.612  -9.412  1.00  0.00     0.029 A 
ATOM     49  C   UNL     1       2.578 -12.035 -10.808  1.00  0.00     0.049 A 
ATOM     50  H   UNL     1       4.266 -12.198 -12.017  1.00  0.00     0.167 HD
ATOM     51  C   UNL     1       7.850 -12.188 -14.543  1.00  0.00     0.031 A 
ATOM     52  C   UNL     1       1.517 -12.400 -11.553  1.00  0.00     0.031 A 
ATOM     53  C   UNL     1       6.795 -12.683 -15.384  1.00  0.00     0.049 A 
ATOM     54  C   UNL     1       1.730 -12.784 -12.992  1.00  0.00     0.074 A 
ATOM     55  C   UNL     1       6.876 -13.146 -16.685  1.00  0.00     0.029 A 
ATOM     56  N   UNL     1       5.464 -12.778 -15.006  1.00  0.00    -0.354 N 
ATOM     57  N   UNL     1       2.846 -12.826 -13.679  1.00  0.00    -0.248 NA
ATOM     58  C   UNL     1       0.538 -13.176 -13.757  1.00  0.00     0.031 C 
ATOM     59  C   UNL     1       5.585 -13.464 -17.116  1.00  0.00     0.029 A 
ATOM     60  C   UNL     1       4.710 -13.265 -16.059  1.00  0.00     0.049 A 
ATOM     61  H   UNL     1       5.109 -12.534 -14.121  1.00  0.00     0.167 HD
ATOM     62  C   UNL     1       2.496 -13.284 -14.943  1.00  0.00     0.074 A 
ATOM     63  C   UNL     1       1.066 -13.512 -14.925  1.00  0.00     0.031 C 
ATOM     64  C   UNL     1       3.289 -13.499 -16.020  1.00  0.00     0.031 A 
BRANCH  51  65
ATOM     65  C   UNL     1       9.233 -12.068 -15.122  1.00  0.00    -0.014 A 
ATOM     66  C   UNL     1      10.283 -12.892 -14.684  1.00  0.00     0.009 A 
ATOM     67  C   UNL     1       9.482 -11.141 -16.146  1.00  0.00     0.009 A 
ATOM     68  C   UNL     1      11.561 -12.760 -15.230  1.00  0.00     0.001 A 
ATOM     69  C   UNL     1      10.753 -11.035 -16.714  1.00  0.00     0.001 A 
ATOM     70  C   UNL     1      11.794 -11.836 -16.248  1.00  0.00     0.000 A 
ENDBRANCH  51  65
BRANCH  52  71
ATOM     71  C   UNL     1       0.156 -12.420 -10.955  1.00  0.00    -0.014 A 
ATOM     72  C   UNL     1      -0.509 -13.638 -10.741  1.00  0.00     0.009 A 
ATOM     73  C   UNL     1      -0.492 -11.225 -10.604  1.00  0.00     0.009 A 
ATOM     74  C   UNL     1      -1.803 -13.657 -10.216  1.00  0.00     0.001 A 
ATOM     75  C   UNL     1      -1.773 -11.249 -10.048  1.00  0.00     0.001 A 
ATOM     76  C   UNL     1      -2.432 -12.463  -9.865  1.00  0.00     0.000 A 
ENDBRANCH  52  71
BRANCH  64  77
ATOM     77  C   UNL     1       2.646 -14.061 -17.257  1.00  0.00    -0.014 A 
ATOM     78  C   UNL     1       1.813 -13.279 -18.071  1.00  0.00     0.009 A 
ATOM     79  C   UNL     1       2.945 -15.376 -17.651  1.00  0.00     0.009 A 
ATOM     80  C   UNL     1       1.275 -13.811 -19.244  1.00  0.00     0.001 A 
ATOM     81  C   UNL     1       2.431 -15.894 -18.840  1.00  0.00     0.001 A 
ATOM     82  C   UNL     1       1.591 -15.113 -19.632  1.00  0.00     0.000 A 
ENDBRANCH  64  77
ENDBRANCH  38  39
ENDBRANCH  30  33
ENDBRANCH  28  29
ENDBRANCH   1  28
TORSDOF 14
