REMARK SMILES Cc1oc2cc(OCC(=O)NCCCNC(=O)c3ccc(-c4c5nc(c(-c6ccccc6)c6ccc([nH]6)c(-c6ccccc6)c6nc(c(-c7ccccc7)c7ccc4[nH]7)C=C6)C=C5)cc3)ccc2c(=O)c1Oc1ccc(Cl)cc1Cl
REMARK SMILES IDX 12 1 11 2 9 3 10 4 8 6 7 7 6 8 1 9 2 10 3 11 71 12 4 13
REMARK SMILES IDX 69 14 5 15 68 16 70 17 67 18 66 19 72 20 73 21 74 22 79 23
REMARK SMILES IDX 75 24 78 25 80 26 76 27 77 28 13 29 14 30 15 31 16 32 17 34
REMARK SMILES IDX 18 35 19 36 65 37 20 38 64 39 21 40 22 41 23 42 58 43 24 44
REMARK SMILES IDX 63 45 57 46 59 47 25 48 62 49 56 50 55 51 26 53 48 54 33 55
REMARK SMILES IDX 47 56 34 57 37 58 46 59 60 60 35 61 36 62 45 64 61 65 38 66
REMARK SMILES IDX 27 67 28 68 32 69 29 70 31 71 30 72 49 73 50 74 54 75 51 76
REMARK SMILES IDX 53 77 52 78 39 79 40 80 44 81 41 82 43 83 42 84
REMARK H PARENT 11 5 15 33 59 52 37 63
REMARK Flexibility Score: inf
ROOT
ATOM      1  C   UNL     1       5.217   3.211  -2.336  1.00  0.00     0.117 C 
ENDROOT
BRANCH   1   2
ATOM      2  N   UNL     1       3.985   3.943  -2.121  1.00  0.00    -0.353 N 
ATOM      3  C   UNL     1       3.276   4.070  -0.961  1.00  0.00     0.257 C 
ATOM      4  O   UNL     1       2.269   4.780  -0.958  1.00  0.00    -0.271 OA
ATOM      5  H   UNL     1       3.613   4.404  -2.907  1.00  0.00     0.163 HD
BRANCH   3   6
ATOM      6  C   UNL     1       3.764   3.352   0.304  1.00  0.00     0.329 C 
BRANCH   6   7
ATOM      7  O   UNL     1       3.866   1.935   0.207  1.00  0.00    -0.484 OA
BRANCH   7   8
ATOM      8  C   UNL     1       2.700   1.220   0.174  1.00  0.00     0.123 A 
ATOM      9  C   UNL     1      -3.207   1.775   0.510  1.00  0.00     0.092 C 
ATOM     10  C   UNL     1      -2.066   0.827   0.269  1.00  0.00     0.148 A 
ATOM     11  O   UNL     1      -0.900   1.569   0.193  1.00  0.00    -0.457 OA
ATOM     12  C   UNL     1      -2.103  -0.527   0.154  1.00  0.00     0.213 A 
ATOM     13  C   UNL     1       0.303   0.939   0.150  1.00  0.00     0.142 A 
ATOM     14  C   UNL     1      -0.787  -1.242   0.012  1.00  0.00     0.235 A 
ATOM     15  C   UNL     1       1.421   1.766   0.210  1.00  0.00     0.094 A 
ATOM     16  C   UNL     1       0.436  -0.432   0.059  1.00  0.00     0.069 A 
ATOM     17  O   UNL     1      -0.714  -2.461  -0.108  1.00  0.00    -0.285 OA
ATOM     18  C   UNL     1       1.713  -1.000   0.030  1.00  0.00     0.020 A 
ATOM     19  C   UNL     1       2.841  -0.169   0.089  1.00  0.00     0.047 A 
BRANCH  12  20
ATOM     20  O   UNL     1      -3.196  -1.390   0.175  1.00  0.00    -0.448 OA
BRANCH  20  21
ATOM     21  C   UNL     1      -4.478  -0.916   0.134  1.00  0.00     0.146 A 
ATOM     22  C   UNL     1      -5.217  -1.004   1.319  1.00  0.00     0.050 A 
ATOM     23  C   UNL     1      -5.059  -0.381  -1.022  1.00  0.00     0.085 A 
ATOM     24  C   UNL     1      -6.495  -0.450   1.380  1.00  0.00     0.024 A 
ATOM     25  C   UNL     1      -6.335   0.181  -0.957  1.00  0.00     0.045 A 
ATOM     26  Cl  UNL     1      -4.221  -0.346  -2.529  1.00  0.00    -0.080 Cl
ATOM     27  C   UNL     1      -7.037   0.160   0.249  1.00  0.00     0.042 A 
ATOM     28  Cl  UNL     1      -8.582   0.909   0.348  1.00  0.00    -0.084 Cl
ENDBRANCH  20  21
ENDBRANCH  12  20
ENDBRANCH   7   8
ENDBRANCH   6   7
ENDBRANCH   3   6
ENDBRANCH   1   2
BRANCH   1  29
ATOM     29  C   UNL     1       4.997   1.900  -3.080  1.00  0.00     0.042 C 
BRANCH  29  30
ATOM     30  C   UNL     1       4.434   2.068  -4.487  1.00  0.00     0.118 C 
BRANCH  30  31
ATOM     31  N   UNL     1       5.314   2.833  -5.364  1.00  0.00    -0.352 N 
ATOM     32  C   UNL     1       5.926   2.470  -6.537  1.00  0.00     0.251 C 
ATOM     33  H   UNL     1       5.498   3.753  -5.067  1.00  0.00     0.163 HD
ATOM     34  O   UNL     1       6.773   3.204  -7.039  1.00  0.00    -0.269 OA
BRANCH  32  35
ATOM     35  C   UNL     1       5.584   1.189  -7.190  1.00  0.00     0.039 A 
ATOM     36  C   UNL     1       6.612   0.386  -7.692  1.00  0.00     0.014 A 
ATOM     37  C   UNL     1       4.253   0.787  -7.318  1.00  0.00     0.014 A 
ATOM     38  C   UNL     1       6.309  -0.857  -8.254  1.00  0.00     0.010 A 
ATOM     39  C   UNL     1       3.959  -0.481  -7.806  1.00  0.00     0.010 A 
ATOM     40  C   UNL     1       4.983  -1.317  -8.280  1.00  0.00    -0.014 A 
BRANCH  40  41
ATOM     41  C   UNL     1       4.623  -2.657  -8.809  1.00  0.00     0.031 A 
ATOM     42  C   UNL     1       3.720  -2.765 -10.008  1.00  0.00     0.074 A 
ATOM     43  C   UNL     1       5.028  -3.769  -8.166  1.00  0.00     0.049 A 
ATOM     44  N   UNL     1       3.155  -3.826 -10.524  1.00  0.00    -0.248 NA
ATOM     45  C   UNL     1       3.390  -1.508 -10.701  1.00  0.00     0.031 C 
ATOM     46  C   UNL     1       5.897  -3.805  -6.987  1.00  0.00     0.029 A 
ATOM     47  N   UNL     1       4.743  -5.091  -8.405  1.00  0.00    -0.354 N 
ATOM     48  C   UNL     1       2.386  -3.363 -11.585  1.00  0.00     0.074 A 
ATOM     49  C   UNL     1       2.521  -1.923 -11.611  1.00  0.00     0.031 C 
ATOM     50  C   UNL     1       6.083  -5.082  -6.615  1.00  0.00     0.029 A 
ATOM     51  C   UNL     1       5.306  -5.951  -7.493  1.00  0.00     0.049 A 
ATOM     52  H   UNL     1       4.187  -5.394  -9.159  1.00  0.00     0.167 HD
ATOM     53  C   UNL     1       1.647  -4.073 -12.469  1.00  0.00     0.031 A 
ATOM     54  C   UNL     1       5.191  -7.287  -7.365  1.00  0.00     0.031 A 
ATOM     55  C   UNL     1       1.521  -5.505 -12.451  1.00  0.00     0.049 A 
ATOM     56  C   UNL     1       4.326  -8.047  -8.335  1.00  0.00     0.074 A 
ATOM     57  C   UNL     1       0.817  -6.319 -13.321  1.00  0.00     0.029 A 
ATOM     58  N   UNL     1       2.120  -6.337 -11.519  1.00  0.00    -0.354 N 
ATOM     59  N   UNL     1       3.633  -7.598  -9.353  1.00  0.00    -0.248 NA
ATOM     60  C   UNL     1       4.234  -9.502  -8.141  1.00  0.00     0.031 C 
ATOM     61  C   UNL     1       0.955  -7.641 -12.890  1.00  0.00     0.029 A 
ATOM     62  C   UNL     1       1.794  -7.654 -11.788  1.00  0.00     0.049 A 
ATOM     63  H   UNL     1       2.692  -6.035 -10.776  1.00  0.00     0.167 HD
ATOM     64  C   UNL     1       3.064  -8.718  -9.947  1.00  0.00     0.074 A 
ATOM     65  C   UNL     1       3.495  -9.867  -9.179  1.00  0.00     0.031 C 
ATOM     66  C   UNL     1       2.259  -8.788 -11.034  1.00  0.00     0.031 A 
BRANCH  53  67
ATOM     67  C   UNL     1       0.916  -3.309 -13.537  1.00  0.00    -0.014 A 
ATOM     68  C   UNL     1       1.611  -2.690 -14.588  1.00  0.00     0.009 A 
ATOM     69  C   UNL     1      -0.486  -3.251 -13.522  1.00  0.00     0.009 A 
ATOM     70  C   UNL     1       0.917  -2.002 -15.586  1.00  0.00     0.001 A 
ATOM     71  C   UNL     1      -1.178  -2.588 -14.537  1.00  0.00     0.001 A 
ATOM     72  C   UNL     1      -0.476  -1.958 -15.564  1.00  0.00     0.000 A 
ENDBRANCH  53  67
BRANCH  54  73
ATOM     73  C   UNL     1       5.907  -8.007  -6.278  1.00  0.00    -0.014 A 
ATOM     74  C   UNL     1       6.955  -8.890  -6.581  1.00  0.00     0.009 A 
ATOM     75  C   UNL     1       5.520  -7.851  -4.938  1.00  0.00     0.009 A 
ATOM     76  C   UNL     1       7.572  -9.633  -5.572  1.00  0.00     0.001 A 
ATOM     77  C   UNL     1       6.162  -8.570  -3.926  1.00  0.00     0.001 A 
ATOM     78  C   UNL     1       7.177  -9.470  -4.245  1.00  0.00     0.000 A 
ENDBRANCH  54  73
BRANCH  66  79
ATOM     79  C   UNL     1       1.854 -10.154 -11.512  1.00  0.00    -0.014 A 
ATOM     80  C   UNL     1       0.914 -10.929 -10.818  1.00  0.00     0.009 A 
ATOM     81  C   UNL     1       2.382 -10.641 -12.720  1.00  0.00     0.009 A 
ATOM     82  C   UNL     1       0.531 -12.179 -11.311  1.00  0.00     0.001 A 
ATOM     83  C   UNL     1       1.975 -11.875 -13.225  1.00  0.00     0.001 A 
ATOM     84  C   UNL     1       1.055 -12.647 -12.516  1.00  0.00     0.000 A 
ENDBRANCH  66  79
ENDBRANCH  40  41
ENDBRANCH  32  35
ENDBRANCH  30  31
ENDBRANCH  29  30
ENDBRANCH   1  29
TORSDOF 14
