REMARK SMILES O=C(NCCCNC(=O)[C@H]1C=C[C@H](NS(=O)(=O)c2ccc(F)c(F)c2F)C1)c1ccc(-c2c3nc(c(-c4ccccc4)c4ccc([nH]4)c(-c4ccccc4)c4nc(c(-c5ccccc5)c5ccc2[nH]5)C=C4)C=C3)cc1
REMARK SMILES IDX 5 1 4 2 3 3 1 4 2 5 28 7 29 8 75 9 30 10 74 11 31 12 32 13
REMARK SMILES IDX 33 14 68 15 34 16 73 17 67 18 69 19 35 20 72 21 66 22 65 23
REMARK SMILES IDX 36 25 58 26 43 27 57 28 44 29 47 30 56 31 70 32 45 33 46 34
REMARK SMILES IDX 55 36 71 37 48 38 37 39 38 40 42 41 39 42 41 43 40 44 59 45
REMARK SMILES IDX 60 46 64 47 61 48 63 49 62 50 49 51 50 52 54 53 51 54 53 55
REMARK SMILES IDX 52 56 6 57 7 58 8 59 9 61 10 62 11 63 27 64 12 65 13 66
REMARK SMILES IDX 14 67 15 69 16 70 17 71 18 72 19 73 25 74 20 75 23 76 26 77
REMARK SMILES IDX 21 78 24 79 22 80
REMARK H PARENT 3 6 69 24 47 35 7 60 14 68
REMARK Flexibility Score: inf
ROOT
ATOM      1  C   UNL     1       4.756   2.766  -0.264  1.00  0.00     0.042 C 
ENDROOT
BRANCH   1   2
ATOM      2  C   UNL     1       4.521   1.396   0.359  1.00  0.00     0.118 C 
BRANCH   2   3
ATOM      3  N   UNL     1       3.108   1.049   0.404  1.00  0.00    -0.352 N 
ATOM      4  O   UNL     1       1.236  -0.104  -0.056  1.00  0.00    -0.269 OA
ATOM      5  C   UNL     1       2.463  -0.084  -0.023  1.00  0.00     0.251 C 
ATOM      6  H   UNL     1       2.525   1.734   0.804  1.00  0.00     0.163 HD
BRANCH   5   7
ATOM      7  C   UNL     1       3.229  -1.274  -0.453  1.00  0.00     0.039 A 
ATOM      8  C   UNL     1       4.367  -1.691   0.241  1.00  0.00     0.014 A 
ATOM      9  C   UNL     1       2.757  -2.025  -1.535  1.00  0.00     0.014 A 
ATOM     10  C   UNL     1       5.090  -2.791  -0.207  1.00  0.00     0.010 A 
ATOM     11  C   UNL     1       3.441  -3.175  -1.939  1.00  0.00     0.010 A 
ATOM     12  C   UNL     1       4.621  -3.559  -1.286  1.00  0.00    -0.014 A 
BRANCH  12  13
ATOM     13  C   UNL     1       5.329  -4.812  -1.643  1.00  0.00     0.031 A 
ATOM     14  C   UNL     1       6.047  -4.958  -2.954  1.00  0.00     0.074 A 
ATOM     15  C   UNL     1       5.333  -5.821  -0.750  1.00  0.00     0.049 A 
ATOM     16  N   UNL     1       6.742  -5.975  -3.397  1.00  0.00    -0.248 NA
ATOM     17  C   UNL     1       5.974  -3.825  -3.890  1.00  0.00     0.031 C 
ATOM     18  C   UNL     1       4.654  -5.801   0.549  1.00  0.00     0.029 A 
ATOM     19  N   UNL     1       5.940  -7.049  -0.787  1.00  0.00    -0.354 N 
ATOM     20  C   UNL     1       7.175  -5.615  -4.667  1.00  0.00     0.074 A 
ATOM     21  C   UNL     1       6.650  -4.292  -4.932  1.00  0.00     0.031 C 
ATOM     22  C   UNL     1       4.922  -6.940   1.203  1.00  0.00     0.029 A 
ATOM     23  C   UNL     1       5.740  -7.793   0.351  1.00  0.00     0.049 A 
ATOM     24  H   UNL     1       6.468  -7.368  -1.554  1.00  0.00     0.167 HD
ATOM     25  C   UNL     1       7.942  -6.324  -5.529  1.00  0.00     0.031 A 
ATOM     26  C   UNL     1       6.158  -9.031   0.670  1.00  0.00     0.031 A 
ATOM     27  C   UNL     1       8.468  -7.636  -5.259  1.00  0.00     0.049 A 
ATOM     28  C   UNL     1       6.990  -9.796  -0.314  1.00  0.00     0.074 A 
ATOM     29  C   UNL     1       9.293  -8.414  -6.056  1.00  0.00     0.029 A 
ATOM     30  N   UNL     1       8.217  -8.368  -4.110  1.00  0.00    -0.354 N 
ATOM     31  N   UNL     1       7.430  -9.418  -1.490  1.00  0.00    -0.248 NA
ATOM     32  C   UNL     1       7.381 -11.158   0.071  1.00  0.00     0.031 C 
ATOM     33  C   UNL     1       9.502  -9.635  -5.407  1.00  0.00     0.029 A 
ATOM     34  C   UNL     1       8.847  -9.599  -4.188  1.00  0.00     0.049 A 
ATOM     35  H   UNL     1       7.672  -8.059  -3.350  1.00  0.00     0.167 HD
ATOM     36  C   UNL     1       8.157 -10.493  -1.981  1.00  0.00     0.074 A 
ATOM     37  C   UNL     1       8.121 -11.525  -0.965  1.00  0.00     0.031 C 
ATOM     38  C   UNL     1       8.792 -10.616  -3.171  1.00  0.00     0.031 A 
BRANCH  25  39
ATOM     39  C   UNL     1       8.249  -5.707  -6.864  1.00  0.00    -0.014 A 
ATOM     40  C   UNL     1       9.195  -4.679  -6.990  1.00  0.00     0.009 A 
ATOM     41  C   UNL     1       7.638  -6.216  -8.021  1.00  0.00     0.009 A 
ATOM     42  C   UNL     1       9.512  -4.163  -8.249  1.00  0.00     0.001 A 
ATOM     43  C   UNL     1       7.971  -5.712  -9.279  1.00  0.00     0.001 A 
ATOM     44  C   UNL     1       8.905  -4.683  -9.392  1.00  0.00     0.000 A 
ENDBRANCH  25  39
BRANCH  26  45
ATOM     45  C   UNL     1       5.774  -9.629   1.974  1.00  0.00    -0.014 A 
ATOM     46  C   UNL     1       6.731  -9.834   2.978  1.00  0.00     0.009 A 
ATOM     47  C   UNL     1       4.441  -9.997   2.219  1.00  0.00     0.009 A 
ATOM     48  C   UNL     1       6.365 -10.417   4.193  1.00  0.00     0.001 A 
ATOM     49  C   UNL     1       4.073 -10.553   3.445  1.00  0.00     0.001 A 
ATOM     50  C   UNL     1       5.037 -10.772   4.427  1.00  0.00     0.000 A 
ENDBRANCH  26  45
BRANCH  38  51
ATOM     51  C   UNL     1       9.507 -11.910  -3.425  1.00  0.00    -0.014 A 
ATOM     52  C   UNL     1       8.795 -13.083  -3.722  1.00  0.00     0.009 A 
ATOM     53  C   UNL     1      10.909 -11.953  -3.384  1.00  0.00     0.009 A 
ATOM     54  C   UNL     1       9.475 -14.282  -3.941  1.00  0.00     0.001 A 
ATOM     55  C   UNL     1      11.586 -13.148  -3.628  1.00  0.00     0.001 A 
ATOM     56  C   UNL     1      10.868 -14.313  -3.896  1.00  0.00     0.000 A 
ENDBRANCH  38  51
ENDBRANCH  12  13
ENDBRANCH   5   7
ENDBRANCH   2   3
ENDBRANCH   1   2
BRANCH   1  57
ATOM     57  C   UNL     1       4.236   3.917   0.592  1.00  0.00     0.117 C 
BRANCH  57  58
ATOM     58  N   UNL     1       5.035   4.096   1.791  1.00  0.00    -0.356 N 
ATOM     59  C   UNL     1       6.106   4.929   1.988  1.00  0.00     0.226 C 
ATOM     60  H   UNL     1       4.773   3.548   2.566  1.00  0.00     0.163 HD
ATOM     61  O   UNL     1       6.682   4.903   3.074  1.00  0.00    -0.274 OA
BRANCH  59  62
ATOM     62  C   UNL     1       6.483   5.882   0.857  1.00  0.00     0.103 C 
ATOM     63  C   UNL     1       5.707   7.160   1.009  1.00  0.00    -0.016 C 
ATOM     64  C   UNL     1       7.931   6.384   0.890  1.00  0.00     0.042 C 
ATOM     65  C   UNL     1       6.481   8.231   0.801  1.00  0.00    -0.011 C 
ATOM     66  C   UNL     1       7.880   7.844   0.446  1.00  0.00     0.093 C 
BRANCH  66  67
ATOM     67  N   UNL     1       8.063   8.178  -0.958  1.00  0.00    -0.204 NA
ATOM     68  H   UNL     1       8.941   8.697  -0.975  1.00  0.00     0.142 HD
BRANCH  67  69
ATOM     69  S   UNL     1       8.149   7.206  -2.295  1.00  0.00     0.244 S 
ATOM     70  O   UNL     1       8.467   8.072  -3.409  1.00  0.00    -0.207 OA
ATOM     71  O   UNL     1       8.979   6.065  -1.983  1.00  0.00    -0.207 OA
BRANCH  69  72
ATOM     72  C   UNL     1       6.524   6.602  -2.608  1.00  0.00     0.121 A 
ATOM     73  C   UNL     1       6.357   5.277  -3.042  1.00  0.00     0.028 A 
ATOM     74  C   UNL     1       5.421   7.426  -2.427  1.00  0.00     0.181 A 
ATOM     75  C   UNL     1       5.073   4.779  -3.263  1.00  0.00     0.044 A 
ATOM     76  C   UNL     1       4.142   6.912  -2.611  1.00  0.00     0.195 A 
ATOM     77  F   UNL     1       5.559   8.709  -2.066  1.00  0.00    -0.202 F 
ATOM     78  C   UNL     1       3.971   5.596  -3.025  1.00  0.00     0.161 A 
ATOM     79  F   UNL     1       3.070   7.680  -2.371  1.00  0.00    -0.200 F 
ATOM     80  F   UNL     1       2.740   5.091  -3.178  1.00  0.00    -0.204 F 
ENDBRANCH  69  72
ENDBRANCH  67  69
ENDBRANCH  66  67
ENDBRANCH  59  62
ENDBRANCH  57  58
ENDBRANCH   1  57
TORSDOF 13
