REMARK SMILES Cc1noc(C)c1[C@@H](C)NC(=O)N(CC(=O)NCCCNC(=O)c1ccc(-c2c3nc(c(-c4ccccc4)c4ccc([nH]4)c(-c4ccccc4)c4nc(c(-c5ccccc5)c5ccc2[nH]5)C=C4)C=C3)cc1)C(C)C
REMARK SMILES IDX 18 1 17 2 15 3 16 4 14 6 13 7 11 8 10 9 12 11 8 12 9 13 7 14
REMARK SMILES IDX 1 15 2 16 3 17 4 18 5 19 6 20 72 21 73 22 74 23 19 24 20 25
REMARK SMILES IDX 21 26 22 27 23 29 24 30 25 31 71 32 26 33 70 34 27 35 28 36
REMARK SMILES IDX 29 37 64 38 30 39 69 40 63 41 65 42 31 43 68 44 62 45 61 46
REMARK SMILES IDX 32 48 54 49 39 50 53 51 40 52 43 53 52 54 66 55 41 56 42 57
REMARK SMILES IDX 51 59 67 60 44 61 33 62 34 63 38 64 35 65 37 66 36 67 55 68
REMARK SMILES IDX 56 69 60 70 57 71 59 72 58 73 45 74 46 75 50 76 47 77 49 78
REMARK SMILES IDX 48 79
REMARK H PARENT 17 5 10 10 21 28 65 47 43 58
REMARK Flexibility Score: inf
ROOT
ATOM      1  C   UNL     1       0.534   5.883  -0.662  1.00  0.00     0.117 C 
ENDROOT
BRANCH   1   2
ATOM      2  N   UNL     1       1.953   6.103  -0.511  1.00  0.00    -0.354 N 
ATOM      3  C   UNL     1       2.889   5.298   0.070  1.00  0.00     0.239 C 
ATOM      4  O   UNL     1       4.074   5.555  -0.166  1.00  0.00    -0.273 OA
ATOM      5  H   UNL     1       2.291   6.951  -0.878  1.00  0.00     0.163 HD
BRANCH   3   6
ATOM      6  C   UNL     1       2.511   4.031   0.860  1.00  0.00     0.221 C 
BRANCH   6   7
ATOM      7  N   UNL     1       1.540   4.208   1.943  1.00  0.00    -0.313 N 
BRANCH   7   8
ATOM      8  C   UNL     1       0.261   3.733   2.029  1.00  0.00     0.318 C 
ATOM      9  N   UNL     1      -0.359   2.956   1.128  1.00  0.00    -0.331 N 
ATOM     10  H   UNL     1      -1.253   2.722   1.469  1.00  0.00     0.165 HD
ATOM     11  O   UNL     1      -0.461   4.010   2.995  1.00  0.00    -0.249 OA
BRANCH   9  12
ATOM     12  C   UNL     1      -0.171   2.334  -0.183  1.00  0.00     0.116 C 
ATOM     13  C   UNL     1      -1.275   2.776  -1.155  1.00  0.00     0.036 C 
BRANCH  12  14
ATOM     14  C   UNL     1      -0.119   0.851   0.003  1.00  0.00     0.040 A 
ATOM     15  C   UNL     1      -2.647   0.120   0.151  1.00  0.00     0.071 C 
ATOM     16  C   UNL     1      -1.181  -0.097   0.136  1.00  0.00     0.086 A 
ATOM     17  N   UNL     1      -0.712  -1.345   0.243  1.00  0.00    -0.085 NA
ATOM     18  O   UNL     1       0.659  -1.241   0.205  1.00  0.00    -0.361 OA
ATOM     19  C   UNL     1       1.014   0.060   0.065  1.00  0.00     0.139 A 
ATOM     20  C   UNL     1       2.464   0.325   0.012  1.00  0.00     0.091 C 
ENDBRANCH  12  14
ENDBRANCH   9  12
ENDBRANCH   7   8
BRANCH   7  21
ATOM     21  C   UNL     1       2.100   4.965   3.103  1.00  0.00     0.081 C 
ATOM     22  C   UNL     1       1.484   6.351   3.302  1.00  0.00     0.031 C 
ATOM     23  C   UNL     1       2.103   4.164   4.410  1.00  0.00     0.031 C 
ENDBRANCH   7  21
ENDBRANCH   6   7
ENDBRANCH   3   6
ENDBRANCH   1   2
BRANCH   1  24
ATOM     24  C   UNL     1      -0.348   6.865   0.089  1.00  0.00     0.042 C 
BRANCH  24  25
ATOM     25  C   UNL     1      -0.279   8.282  -0.454  1.00  0.00     0.118 C 
BRANCH  25  26
ATOM     26  N   UNL     1      -0.902   8.397  -1.764  1.00  0.00    -0.352 N 
ATOM     27  C   UNL     1      -1.829   9.302  -2.215  1.00  0.00     0.251 C 
ATOM     28  H   UNL     1      -0.615   7.726  -2.425  1.00  0.00     0.163 HD
ATOM     29  O   UNL     1      -2.380   9.111  -3.295  1.00  0.00    -0.269 OA
BRANCH  27  30
ATOM     30  C   UNL     1      -2.182  10.491  -1.407  1.00  0.00     0.039 A 
ATOM     31  C   UNL     1      -3.511  10.923  -1.401  1.00  0.00     0.014 A 
ATOM     32  C   UNL     1      -1.216  11.204  -0.690  1.00  0.00     0.014 A 
ATOM     33  C   UNL     1      -3.875  12.042  -0.650  1.00  0.00     0.010 A 
ATOM     34  C   UNL     1      -1.595  12.267   0.126  1.00  0.00     0.010 A 
ATOM     35  C   UNL     1      -2.924  12.710   0.140  1.00  0.00    -0.014 A 
BRANCH  35  36
ATOM     36  C   UNL     1      -3.316  13.880   0.966  1.00  0.00     0.031 A 
ATOM     37  C   UNL     1      -2.744  15.243   0.681  1.00  0.00     0.074 A 
ATOM     38  C   UNL     1      -4.166  13.707   1.997  1.00  0.00     0.049 A 
ATOM     39  N   UNL     1      -2.994  16.382   1.277  1.00  0.00    -0.248 NA
ATOM     40  C   UNL     1      -1.741  15.339  -0.393  1.00  0.00     0.031 C 
ATOM     41  C   UNL     1      -4.737  12.427   2.420  1.00  0.00     0.029 A 
ATOM     42  N   UNL     1      -4.702  14.616   2.874  1.00  0.00    -0.354 N 
ATOM     43  C   UNL     1      -2.170  17.319   0.665  1.00  0.00     0.074 A 
ATOM     44  C   UNL     1      -1.377  16.610  -0.314  1.00  0.00     0.031 C 
ATOM     45  C   UNL     1      -5.572  12.637   3.451  1.00  0.00     0.029 A 
ATOM     46  C   UNL     1      -5.574  14.059   3.778  1.00  0.00     0.049 A 
ATOM     47  H   UNL     1      -4.483  15.576   2.857  1.00  0.00     0.167 HD
ATOM     48  C   UNL     1      -2.095  18.654   0.883  1.00  0.00     0.031 A 
ATOM     49  C   UNL     1      -6.301  14.631   4.756  1.00  0.00     0.031 A 
ATOM     50  C   UNL     1      -2.901  19.364   1.839  1.00  0.00     0.049 A 
ATOM     51  C   UNL     1      -6.230  16.120   4.946  1.00  0.00     0.074 A 
ATOM     52  C   UNL     1      -2.954  20.727   2.078  1.00  0.00     0.029 A 
ATOM     53  N   UNL     1      -3.795  18.768   2.714  1.00  0.00    -0.354 N 
ATOM     54  N   UNL     1      -5.518  17.005   4.291  1.00  0.00    -0.248 NA
ATOM     55  C   UNL     1      -7.085  16.691   5.996  1.00  0.00     0.031 C 
ATOM     56  C   UNL     1      -3.847  20.951   3.131  1.00  0.00     0.029 A 
ATOM     57  C   UNL     1      -4.388  19.733   3.510  1.00  0.00     0.049 A 
ATOM     58  H   UNL     1      -3.980  17.803   2.762  1.00  0.00     0.167 HD
ATOM     59  C   UNL     1      -5.854  18.237   4.834  1.00  0.00     0.074 A 
ATOM     60  C   UNL     1      -6.855  17.988   5.851  1.00  0.00     0.031 C 
ATOM     61  C   UNL     1      -5.376  19.467   4.523  1.00  0.00     0.031 A 
BRANCH  48  62
ATOM     62  C   UNL     1      -1.103  19.438   0.069  1.00  0.00    -0.014 A 
ATOM     63  C   UNL     1      -1.304  19.666  -1.302  1.00  0.00     0.009 A 
ATOM     64  C   UNL     1       0.021  20.001   0.692  1.00  0.00     0.009 A 
ATOM     65  C   UNL     1      -0.383  20.416  -2.038  1.00  0.00     0.001 A 
ATOM     66  C   UNL     1       0.926  20.773  -0.039  1.00  0.00     0.001 A 
ATOM     67  C   UNL     1       0.727  20.974  -1.405  1.00  0.00     0.000 A 
ENDBRANCH  48  62
BRANCH  49  68
ATOM     68  C   UNL     1      -7.180  13.799   5.617  1.00  0.00    -0.014 A 
ATOM     69  C   UNL     1      -8.577  13.886   5.510  1.00  0.00     0.009 A 
ATOM     70  C   UNL     1      -6.627  12.925   6.566  1.00  0.00     0.009 A 
ATOM     71  C   UNL     1      -9.401  13.143   6.359  1.00  0.00     0.001 A 
ATOM     72  C   UNL     1      -7.453  12.161   7.392  1.00  0.00     0.001 A 
ATOM     73  C   UNL     1      -8.838  12.279   7.296  1.00  0.00     0.000 A 
ENDBRANCH  49  68
BRANCH  61  74
ATOM     74  C   UNL     1      -5.952  20.632   5.277  1.00  0.00    -0.014 A 
ATOM     75  C   UNL     1      -5.655  20.840   6.633  1.00  0.00     0.009 A 
ATOM     76  C   UNL     1      -6.795  21.539   4.617  1.00  0.00     0.009 A 
ATOM     77  C   UNL     1      -6.230  21.907   7.325  1.00  0.00     0.001 A 
ATOM     78  C   UNL     1      -7.343  22.623   5.303  1.00  0.00     0.001 A 
ATOM     79  C   UNL     1      -7.071  22.799   6.659  1.00  0.00     0.000 A 
ENDBRANCH  61  74
ENDBRANCH  35  36
ENDBRANCH  27  30
ENDBRANCH  25  26
ENDBRANCH  24  25
ENDBRANCH   1  24
TORSDOF 15
