REMARK SMILES CN(CC(N)=O)C(=O)Cn1cccc1C(=O)NCCCNC(=O)c1ccc(-c2c3nc(c(-c4ccccc4)c4ccc([nH]4)c(-c4ccccc4)c4nc(c(-c5ccccc5)c5ccc2[nH]5)C=C4)C=C3)cc1
REMARK SMILES IDX 15 1 16 2 17 3 14 5 10 6 11 7 12 8 13 9 9 10 7 11 8 12 2 13
REMARK SMILES IDX 1 14 3 15 4 16 5 17 6 18 18 21 19 22 20 23 21 24 22 25 23 27
REMARK SMILES IDX 24 28 25 29 71 30 26 31 70 32 27 33 28 34 29 35 64 36 30 37
REMARK SMILES IDX 69 38 63 39 65 40 31 41 68 42 62 43 61 44 32 46 54 47 39 48
REMARK SMILES IDX 53 49 40 50 43 51 52 52 66 53 41 54 42 55 51 57 67 58 44 59
REMARK SMILES IDX 33 60 34 61 38 62 35 63 37 64 36 65 55 66 56 67 60 68 57 69
REMARK SMILES IDX 59 70 58 71 45 72 46 73 50 74 47 75 49 76 48 77
REMARK H PARENT 17 4 5 19 5 20 21 26 65 45 43 56
REMARK Flexibility Score: inf
ROOT
ATOM      1  C   UNL     1      -0.985  -1.241  -4.492  1.00  0.00     0.267 C 
ATOM      2  O   UNL     1      -1.740  -2.218  -4.597  1.00  0.00    -0.268 OA
ATOM      3  N   UNL     1      -1.612  -0.141  -3.983  1.00  0.00    -0.351 N 
ATOM      4  H   UNL     1      -2.564  -0.313  -3.801  1.00  0.00     0.163 HD
ENDROOT
BRANCH   1   5
ATOM      5  C   UNL     1       0.422  -1.373  -4.835  1.00  0.00     0.107 A 
ATOM      6  N   UNL     1       1.585  -0.734  -4.433  1.00  0.00    -0.334 N 
ATOM      7  C   UNL     1       2.625  -1.161  -5.254  1.00  0.00     0.087 A 
ATOM      8  C   UNL     1       2.226  -2.280  -5.930  1.00  0.00     0.020 A 
ATOM      9  C   UNL     1       0.867  -2.445  -5.623  1.00  0.00     0.033 A 
BRANCH   6  10
ATOM     10  C   UNL     1       1.813   0.382  -3.530  1.00  0.00     0.222 C 
BRANCH  10  11
ATOM     11  C   UNL     1       1.776   0.326  -2.013  1.00  0.00     0.242 C 
ATOM     12  O   UNL     1       2.442   1.237  -1.477  1.00  0.00    -0.273 OA
BRANCH  11  13
ATOM     13  N   UNL     1       1.048  -0.498  -1.179  1.00  0.00    -0.335 N 
ATOM     14  C   UNL     1       1.115  -0.144   0.241  1.00  0.00     0.147 C 
BRANCH  13  15
ATOM     15  C   UNL     1       0.172  -1.642  -1.465  1.00  0.00     0.218 C 
BRANCH  15  16
ATOM     16  C   UNL     1      -1.324  -1.399  -1.143  1.00  0.00     0.237 C 
ATOM     17  N   UNL     1      -2.228  -2.188  -1.794  1.00  0.00    -0.368 N 
ATOM     18  O   UNL     1      -1.736  -0.597  -0.308  1.00  0.00    -0.273 OA
ATOM     19  H   UNL     1      -1.919  -2.838  -2.467  1.00  0.00     0.159 HD
ATOM     20  H   UNL     1      -3.188  -2.108  -1.592  1.00  0.00     0.159 HD
ENDBRANCH  15  16
ENDBRANCH  13  15
ENDBRANCH  11  13
ENDBRANCH  10  11
ENDBRANCH   6  10
ENDBRANCH   1   5
BRANCH   3  21
ATOM     21  C   UNL     1      -1.234   1.214  -3.643  1.00  0.00     0.118 C 
BRANCH  21  22
ATOM     22  C   UNL     1      -2.444   2.145  -3.520  1.00  0.00     0.042 C 
BRANCH  22  23
ATOM     23  C   UNL     1      -3.228   1.998  -2.211  1.00  0.00     0.118 C 
BRANCH  23  24
ATOM     24  N   UNL     1      -2.619   2.729  -1.112  1.00  0.00    -0.352 N 
ATOM     25  C   UNL     1      -3.204   3.188   0.050  1.00  0.00     0.251 C 
ATOM     26  H   UNL     1      -1.659   2.923  -1.210  1.00  0.00     0.163 HD
ATOM     27  O   UNL     1      -2.634   4.015   0.740  1.00  0.00    -0.269 OA
BRANCH  25  28
ATOM     28  C   UNL     1      -4.546   2.703   0.451  1.00  0.00     0.039 A 
ATOM     29  C   UNL     1      -5.489   3.638   0.893  1.00  0.00     0.014 A 
ATOM     30  C   UNL     1      -4.853   1.337   0.448  1.00  0.00     0.014 A 
ATOM     31  C   UNL     1      -6.766   3.212   1.247  1.00  0.00     0.010 A 
ATOM     32  C   UNL     1      -6.134   0.908   0.790  1.00  0.00     0.010 A 
ATOM     33  C   UNL     1      -7.101   1.851   1.159  1.00  0.00    -0.014 A 
BRANCH  33  34
ATOM     34  C   UNL     1      -8.537   1.481   1.230  1.00  0.00     0.031 A 
ATOM     35  C   UNL     1      -9.270   1.850  -0.077  1.00  0.00     0.074 A 
ATOM     36  C   UNL     1      -9.007   0.955   2.402  1.00  0.00     0.049 A 
ATOM     37  N   UNL     1     -10.507   2.185  -0.272  1.00  0.00    -0.248 NA
ATOM     38  C   UNL     1      -8.495   1.921  -1.349  1.00  0.00     0.031 C 
ATOM     39  C   UNL     1      -8.159   0.575   3.554  1.00  0.00     0.029 A 
ATOM     40  N   UNL     1     -10.266   0.637   2.877  1.00  0.00    -0.354 N 
ATOM     41  C   UNL     1     -10.695   2.381  -1.661  1.00  0.00     0.074 A 
ATOM     42  C   UNL     1      -9.400   2.280  -2.262  1.00  0.00     0.031 C 
ATOM     43  C   UNL     1      -8.914   0.165   4.599  1.00  0.00     0.029 A 
ATOM     44  C   UNL     1     -10.317   0.244   4.242  1.00  0.00     0.049 A 
ATOM     45  H   UNL     1     -11.069   0.680   2.310  1.00  0.00     0.167 HD
ATOM     46  C   UNL     1     -11.926   2.507  -2.241  1.00  0.00     0.031 A 
ATOM     47  C   UNL     1     -11.407   0.056   5.051  1.00  0.00     0.031 A 
ATOM     48  C   UNL     1     -12.934   2.548  -1.240  1.00  0.00     0.049 A 
ATOM     49  C   UNL     1     -12.582   0.233   4.189  1.00  0.00     0.074 A 
ATOM     50  C   UNL     1     -13.289   3.492  -0.313  1.00  0.00     0.029 A 
ATOM     51  N   UNL     1     -13.478   1.339  -0.886  1.00  0.00    -0.354 N 
ATOM     52  N   UNL     1     -13.020  -0.638   3.335  1.00  0.00    -0.248 NA
ATOM     53  C   UNL     1     -13.306   1.510   4.244  1.00  0.00     0.031 C 
ATOM     54  C   UNL     1     -13.594   2.718   0.827  1.00  0.00     0.029 A 
ATOM     55  C   UNL     1     -13.629   1.364   0.475  1.00  0.00     0.049 A 
ATOM     56  H   UNL     1     -13.713   0.599  -1.492  1.00  0.00     0.167 HD
ATOM     57  C   UNL     1     -13.793   0.138   2.511  1.00  0.00     0.074 A 
ATOM     58  C   UNL     1     -14.199   1.290   3.284  1.00  0.00     0.031 C 
ATOM     59  C   UNL     1     -13.580   0.105   1.172  1.00  0.00     0.031 A 
BRANCH  46  60
ATOM     60  C   UNL     1     -12.389   2.350  -3.665  1.00  0.00    -0.014 A 
ATOM     61  C   UNL     1     -13.735   2.694  -3.954  1.00  0.00     0.009 A 
ATOM     62  C   UNL     1     -11.709   1.590  -4.621  1.00  0.00     0.009 A 
ATOM     63  C   UNL     1     -14.409   2.186  -5.066  1.00  0.00     0.001 A 
ATOM     64  C   UNL     1     -12.375   1.113  -5.761  1.00  0.00     0.001 A 
ATOM     65  C   UNL     1     -13.730   1.375  -5.962  1.00  0.00     0.000 A 
ENDBRANCH  46  60
BRANCH  47  66
ATOM     66  C   UNL     1     -11.719  -0.178   6.511  1.00  0.00    -0.014 A 
ATOM     67  C   UNL     1     -10.817  -0.576   7.500  1.00  0.00     0.009 A 
ATOM     68  C   UNL     1     -13.054   0.038   6.964  1.00  0.00     0.009 A 
ATOM     69  C   UNL     1     -11.214  -0.665   8.855  1.00  0.00     0.001 A 
ATOM     70  C   UNL     1     -13.444  -0.008   8.304  1.00  0.00     0.001 A 
ATOM     71  C   UNL     1     -12.513  -0.351   9.261  1.00  0.00     0.000 A 
ENDBRANCH  47  66
BRANCH  59  72
ATOM     72  C   UNL     1     -12.911  -1.158   0.657  1.00  0.00    -0.014 A 
ATOM     73  C   UNL     1     -13.555  -2.395   0.814  1.00  0.00     0.009 A 
ATOM     74  C   UNL     1     -11.608  -1.174   0.123  1.00  0.00     0.009 A 
ATOM     75  C   UNL     1     -12.924  -3.596   0.469  1.00  0.00     0.001 A 
ATOM     76  C   UNL     1     -10.973  -2.376  -0.226  1.00  0.00     0.001 A 
ATOM     77  C   UNL     1     -11.632  -3.589  -0.050  1.00  0.00     0.000 A 
ENDBRANCH  59  72
ENDBRANCH  33  34
ENDBRANCH  25  28
ENDBRANCH  23  24
ENDBRANCH  22  23
ENDBRANCH  21  22
ENDBRANCH   3  21
TORSDOF 15
