REMARK SMILES COc1ccc(-c2c(C(=O)NCCCNC(=O)c3ccc(-c4c5nc(c(-c6ccccc6)c6ccc([nH]6)c(-c6ccccc6)c6nc(c(-c7ccccc7)c7ccc4[nH]7)C=C6)C=C5)cc3)sc3c2N=C(O)C[C@H]3c2ccc(OC)c(OC)c2)cc1
REMARK SMILES IDX 13 1 12 2 11 3 9 4 10 5 8 7 7 8 68 9 66 10 67 11 69 12 73 13
REMARK SMILES IDX 70 14 72 15 6 16 3 17 4 18 85 19 5 20 84 21 2 22 1 23 74 24
REMARK SMILES IDX 75 25 83 26 76 27 80 28 77 29 81 30 82 31 78 32 79 33 71 34
REMARK SMILES IDX 14 36 15 37 16 38 17 40 18 41 19 42 65 43 20 44 64 45 21 46
REMARK SMILES IDX 22 47 23 48 58 49 24 50 63 51 57 52 59 53 25 54 62 55 56 56
REMARK SMILES IDX 55 57 26 59 48 60 33 61 47 62 34 63 37 64 46 65 60 66 35 67
REMARK SMILES IDX 36 68 45 70 61 71 38 72 27 73 28 74 32 75 29 76 31 77 30 78
REMARK SMILES IDX 49 79 50 80 54 81 51 82 53 83 52 84 39 85 40 86 44 87 41 88
REMARK SMILES IDX 43 89 42 90
REMARK H PARENT 11 6 71 35 15 39 59 58 37 69
REMARK Flexibility Score: inf
ROOT
ATOM      1  C   UNL     1       0.429   2.373  -2.956  1.00  0.00     0.042 C 
ENDROOT
BRANCH   1   2
ATOM      2  C   UNL     1      -0.485   2.210  -4.162  1.00  0.00     0.118 C 
BRANCH   2   3
ATOM      3  N   UNL     1      -0.086   3.072  -5.236  1.00  0.00    -0.351 N 
ATOM      4  C   UNL     1       0.810   3.014  -6.258  1.00  0.00     0.262 C 
ATOM      5  O   UNL     1       0.762   4.066  -6.918  1.00  0.00    -0.268 OA
ATOM      6  H   UNL     1      -0.588   3.919  -5.233  1.00  0.00     0.163 HD
BRANCH   4   7
ATOM      7  C   UNL     1       1.726   1.915  -6.600  1.00  0.00     0.102 A 
ATOM      8  C   UNL     1       2.160   0.660  -6.137  1.00  0.00     0.031 A 
ATOM      9  C   UNL     1       3.152   0.091  -7.011  1.00  0.00     0.090 A 
ATOM     10  S   UNL     1       2.618   2.313  -8.071  1.00  0.00    -0.131 S 
ATOM     11  C   UNL     1       3.505   0.888  -8.053  1.00  0.00     0.040 A 
ATOM     12  N   UNL     1       3.730  -1.163  -6.778  1.00  0.00    -0.216 NA
ATOM     13  C   UNL     1       4.554   0.580  -9.057  1.00  0.00     0.071 C 
ATOM     14  C   UNL     1       4.724  -1.467  -7.542  1.00  0.00     0.186 C 
ATOM     15  C   UNL     1       5.379  -0.634  -8.616  1.00  0.00     0.111 C 
BRANCH   8  16
ATOM     16  C   UNL     1       1.842  -0.004  -4.878  1.00  0.00    -0.014 A 
ATOM     17  C   UNL     1       1.279  -1.156  -2.384  1.00  0.00     0.118 A 
ATOM     18  C   UNL     1       0.408  -1.348  -3.461  1.00  0.00     0.047 A 
ATOM     19  C   UNL     1       2.511  -0.541  -2.595  1.00  0.00     0.047 A 
ATOM     20  C   UNL     1       0.702  -0.797  -4.716  1.00  0.00     0.012 A 
ATOM     21  C   UNL     1       2.788   0.037  -3.839  1.00  0.00     0.012 A 
BRANCH  17  22
ATOM     22  O   UNL     1       0.835  -1.575  -1.159  1.00  0.00    -0.497 OA
ATOM     23  C   UNL     1       1.206  -0.724  -0.072  1.00  0.00     0.278 C 
ENDBRANCH  17  22
ENDBRANCH   8  16
BRANCH  13  24
ATOM     24  C   UNL     1       3.994   0.415 -10.461  1.00  0.00    -0.035 A 
ATOM     25  C   UNL     1       3.014  -0.533 -10.759  1.00  0.00     0.008 A 
ATOM     26  C   UNL     1       4.466   1.250 -11.489  1.00  0.00     0.054 A 
ATOM     27  C   UNL     1       2.537  -0.648 -12.063  1.00  0.00     0.051 A 
ATOM     28  C   UNL     1       4.001   1.136 -12.809  1.00  0.00     0.161 A 
ATOM     29  C   UNL     1       3.022   0.170 -13.096  1.00  0.00     0.160 A 
BRANCH  28  30
ATOM     30  O   UNL     1       4.475   1.919 -13.827  1.00  0.00    -0.493 OA
ATOM     31  C   UNL     1       5.458   2.902 -13.526  1.00  0.00     0.278 C 
ENDBRANCH  28  30
BRANCH  29  32
ATOM     32  O   UNL     1       2.437  -0.127 -14.299  1.00  0.00    -0.493 OA
ATOM     33  C   UNL     1       2.719   0.697 -15.419  1.00  0.00     0.278 C 
ENDBRANCH  29  32
ENDBRANCH  13  24
BRANCH  14  34
ATOM     34  O   UNL     1       5.330  -2.655  -7.339  1.00  0.00    -0.496 OA
ATOM     35  H   UNL     1       4.998  -3.246  -6.692  1.00  0.00     0.294 HD
ENDBRANCH  14  34
ENDBRANCH   4   7
ENDBRANCH   2   3
ENDBRANCH   1   2
BRANCH   1  36
ATOM     36  C   UNL     1      -0.333   2.432  -1.653  1.00  0.00     0.118 C 
BRANCH  36  37
ATOM     37  N   UNL     1      -1.187   1.267  -1.377  1.00  0.00    -0.352 N 
ATOM     38  C   UNL     1      -2.186   1.142  -0.408  1.00  0.00     0.251 C 
ATOM     39  H   UNL     1      -1.037   0.478  -1.947  1.00  0.00     0.163 HD
ATOM     40  O   UNL     1      -2.599   0.075  -0.031  1.00  0.00    -0.269 OA
BRANCH  38  41
ATOM     41  C   UNL     1      -2.715   2.404   0.147  1.00  0.00     0.039 A 
ATOM     42  C   UNL     1      -2.708   2.680   1.517  1.00  0.00     0.014 A 
ATOM     43  C   UNL     1      -2.930   3.395  -0.789  1.00  0.00     0.014 A 
ATOM     44  C   UNL     1      -2.746   4.015   1.924  1.00  0.00     0.010 A 
ATOM     45  C   UNL     1      -2.642   4.669  -0.396  1.00  0.00     0.010 A 
ATOM     46  C   UNL     1      -2.643   5.017   0.949  1.00  0.00    -0.014 A 
BRANCH  46  47
ATOM     47  C   UNL     1      -2.427   6.428   1.259  1.00  0.00     0.031 A 
ATOM     48  C   UNL     1      -1.379   6.736   2.269  1.00  0.00     0.074 A 
ATOM     49  C   UNL     1      -2.959   7.414   0.500  1.00  0.00     0.049 A 
ATOM     50  N   UNL     1      -1.564   7.212   3.454  1.00  0.00    -0.248 NA
ATOM     51  C   UNL     1       0.024   6.398   1.980  1.00  0.00     0.031 C 
ATOM     52  C   UNL     1      -3.777   7.303  -0.721  1.00  0.00     0.029 A 
ATOM     53  N   UNL     1      -2.747   8.753   0.578  1.00  0.00    -0.354 N 
ATOM     54  C   UNL     1      -0.300   7.429   3.995  1.00  0.00     0.074 A 
ATOM     55  C   UNL     1       0.625   6.749   3.122  1.00  0.00     0.031 C 
ATOM     56  C   UNL     1      -3.741   8.464  -1.404  1.00  0.00     0.029 A 
ATOM     57  C   UNL     1      -3.104   9.457  -0.565  1.00  0.00     0.049 A 
ATOM     58  H   UNL     1      -2.372   9.188   1.377  1.00  0.00     0.167 HD
ATOM     59  C   UNL     1      -0.101   8.350   4.981  1.00  0.00     0.031 A 
ATOM     60  C   UNL     1      -2.904  10.771  -0.812  1.00  0.00     0.031 A 
ATOM     61  C   UNL     1      -1.354   8.832   5.511  1.00  0.00     0.049 A 
ATOM     62  C   UNL     1      -2.719  11.429   0.501  1.00  0.00     0.074 A 
ATOM     63  C   UNL     1      -2.448   8.242   6.112  1.00  0.00     0.029 A 
ATOM     64  N   UNL     1      -1.788  10.060   5.062  1.00  0.00    -0.354 N 
ATOM     65  N   UNL     1      -3.671  11.525   1.385  1.00  0.00    -0.248 NA
ATOM     66  C   UNL     1      -1.368  11.553   1.027  1.00  0.00     0.031 C 
ATOM     67  C   UNL     1      -3.575   8.909   5.546  1.00  0.00     0.029 A 
ATOM     68  C   UNL     1      -3.105   9.923   4.708  1.00  0.00     0.049 A 
ATOM     69  H   UNL     1      -1.252  10.883   5.007  1.00  0.00     0.167 HD
ATOM     70  C   UNL     1      -3.053  11.251   2.598  1.00  0.00     0.074 A 
ATOM     71  C   UNL     1      -1.622  11.401   2.331  1.00  0.00     0.031 C 
ATOM     72  C   UNL     1      -3.731  10.640   3.616  1.00  0.00     0.031 A 
BRANCH  59  73
ATOM     73  C   UNL     1       1.178   9.121   5.200  1.00  0.00    -0.014 A 
ATOM     74  C   UNL     1       1.251  10.005   6.295  1.00  0.00     0.009 A 
ATOM     75  C   UNL     1       2.195   9.228   4.235  1.00  0.00     0.009 A 
ATOM     76  C   UNL     1       2.235  10.997   6.370  1.00  0.00     0.001 A 
ATOM     77  C   UNL     1       3.205  10.191   4.329  1.00  0.00     0.001 A 
ATOM     78  C   UNL     1       3.206  11.096   5.381  1.00  0.00     0.000 A 
ENDBRANCH  59  73
BRANCH  60  79
ATOM     79  C   UNL     1      -2.694  11.449  -2.106  1.00  0.00    -0.014 A 
ATOM     80  C   UNL     1      -2.840  12.838  -2.221  1.00  0.00     0.009 A 
ATOM     81  C   UNL     1      -2.101  10.760  -3.182  1.00  0.00     0.009 A 
ATOM     82  C   UNL     1      -2.366  13.519  -3.350  1.00  0.00     0.001 A 
ATOM     83  C   UNL     1      -1.633  11.439  -4.311  1.00  0.00     0.001 A 
ATOM     84  C   UNL     1      -1.749  12.822  -4.387  1.00  0.00     0.000 A 
ENDBRANCH  60  79
BRANCH  72  85
ATOM     85  C   UNL     1      -5.225  10.454   3.469  1.00  0.00    -0.014 A 
ATOM     86  C   UNL     1      -5.808   9.710   2.427  1.00  0.00     0.009 A 
ATOM     87  C   UNL     1      -6.058  10.895   4.508  1.00  0.00     0.009 A 
ATOM     88  C   UNL     1      -7.181   9.442   2.410  1.00  0.00     0.001 A 
ATOM     89  C   UNL     1      -7.426  10.609   4.504  1.00  0.00     0.001 A 
ATOM     90  C   UNL     1      -7.988   9.888   3.453  1.00  0.00     0.000 A 
ENDBRANCH  72  85
ENDBRANCH  46  47
ENDBRANCH  38  41
ENDBRANCH  36  37
ENDBRANCH   1  36
TORSDOF 16
