REMARK SMILES NS(=O)(=O)c1ccc(-n2nc(C(=O)NCCCNC(=O)c3ccc(-c4c5nc(c(-c6ccccc6)c6ccc([nH]6)c(-c6ccccc6)c6nc(c(-c7ccccc7)c7ccc4[nH]7)C=C6)C=C5)cc3)cc2-c2ccc(Cl)s2)cc1
REMARK SMILES IDX 15 1 14 2 12 3 13 4 11 6 9 7 10 8 70 9 69 10 8 11 5 12 6 13
REMARK SMILES IDX 78 14 7 15 77 16 2 17 3 18 4 19 1 20 71 23 72 24 76 25 73 26
REMARK SMILES IDX 74 27 75 28 16 29 17 30 18 31 19 32 20 34 21 35 22 36 68 37
REMARK SMILES IDX 23 38 67 39 24 40 25 41 26 42 61 43 27 44 66 45 60 46 62 47
REMARK SMILES IDX 28 48 65 49 59 50 58 51 29 53 51 54 36 55 50 56 37 57 40 58
REMARK SMILES IDX 49 59 63 60 38 61 39 62 48 64 64 65 41 66 30 67 31 68 35 69
REMARK SMILES IDX 32 70 34 71 33 72 52 73 53 74 57 75 54 76 56 77 55 78 42 79
REMARK SMILES IDX 43 80 47 81 44 82 46 83 45 84
REMARK H PARENT 14 5 1 21 1 22 18 33 62 52 40 63
REMARK Flexibility Score: inf
ROOT
ATOM      1  C   UNL     1       3.311  -5.288 -10.066  1.00  0.00     0.118 C 
ENDROOT
BRANCH   1   2
ATOM      2  N   UNL     1       4.369  -4.536  -9.413  1.00  0.00    -0.351 N 
ATOM      3  C   UNL     1       4.420  -3.861  -8.210  1.00  0.00     0.271 C 
ATOM      4  O   UNL     1       5.513  -3.365  -7.923  1.00  0.00    -0.267 OA
ATOM      5  H   UNL     1       5.208  -4.502  -9.926  1.00  0.00     0.163 HD
BRANCH   3   6
ATOM      6  C   UNL     1       3.242  -3.763  -7.318  1.00  0.00     0.151 A 
ATOM      7  N   UNL     1       2.157  -3.415  -5.487  1.00  0.00    -0.231 N 
ATOM      8  N   UNL     1       3.357  -3.225  -6.084  1.00  0.00    -0.162 NA
ATOM      9  C   UNL     1       1.220  -3.920  -6.366  1.00  0.00     0.085 A 
ATOM     10  C   UNL     1       1.892  -4.121  -7.547  1.00  0.00     0.066 A 
BRANCH   7  11
ATOM     11  C   UNL     1       1.944  -3.045  -4.139  1.00  0.00     0.065 A 
ATOM     12  C   UNL     1       1.169  -2.148  -1.631  1.00  0.00     0.082 A 
ATOM     13  C   UNL     1       0.868  -3.458  -2.016  1.00  0.00     0.024 A 
ATOM     14  C   UNL     1       1.905  -1.303  -2.470  1.00  0.00     0.024 A 
ATOM     15  C   UNL     1       1.242  -3.905  -3.281  1.00  0.00     0.030 A 
ATOM     16  C   UNL     1       2.322  -1.765  -3.721  1.00  0.00     0.030 A 
BRANCH  12  17
ATOM     17  S   UNL     1       0.570  -1.604  -0.060  1.00  0.00     0.238 S 
ATOM     18  O   UNL     1       1.136  -2.443   0.960  1.00  0.00    -0.207 OA
ATOM     19  O   UNL     1      -0.857  -1.370  -0.183  1.00  0.00    -0.207 OA
BRANCH  17  20
ATOM     20  N   UNL     1       1.254  -0.087   0.165  1.00  0.00    -0.225 NA
ATOM     21  H   UNL     1       0.950   0.293   1.061  1.00  0.00     0.137 HD
ATOM     22  H   UNL     1       0.958   0.535  -0.587  1.00  0.00     0.137 HD
ENDBRANCH  17  20
ENDBRANCH  12  17
ENDBRANCH   7  11
BRANCH   9  23
ATOM     23  C   UNL     1      -0.182  -4.086  -6.136  1.00  0.00     0.054 A 
ATOM     24  C   UNL     1      -0.908  -5.252  -6.285  1.00  0.00     0.024 A 
ATOM     25  S   UNL     1      -1.191  -2.761  -5.725  1.00  0.00    -0.122 S 
ATOM     26  C   UNL     1      -2.298  -5.056  -6.029  1.00  0.00     0.033 A 
ATOM     27  C   UNL     1      -2.562  -3.749  -5.714  1.00  0.00     0.094 A 
ATOM     28  Cl  UNL     1      -4.096  -3.072  -5.348  1.00  0.00    -0.072 Cl
ENDBRANCH   9  23
ENDBRANCH   3   6
ENDBRANCH   1   2
BRANCH   1  29
ATOM     29  C   UNL     1       2.431  -4.398 -10.954  1.00  0.00     0.042 C 
BRANCH  29  30
ATOM     30  C   UNL     1       3.008  -4.255 -12.354  1.00  0.00     0.118 C 
BRANCH  30  31
ATOM     31  N   UNL     1       2.917  -5.504 -13.112  1.00  0.00    -0.352 N 
ATOM     32  C   UNL     1       3.407  -5.795 -14.367  1.00  0.00     0.251 C 
ATOM     33  H   UNL     1       2.440  -6.238 -12.663  1.00  0.00     0.163 HD
ATOM     34  O   UNL     1       2.996  -6.769 -14.987  1.00  0.00    -0.269 OA
BRANCH  32  35
ATOM     35  C   UNL     1       4.414  -4.905 -14.964  1.00  0.00     0.039 A 
ATOM     36  C   UNL     1       4.316  -4.515 -16.302  1.00  0.00     0.014 A 
ATOM     37  C   UNL     1       5.436  -4.419 -14.154  1.00  0.00     0.014 A 
ATOM     38  C   UNL     1       5.194  -3.551 -16.788  1.00  0.00     0.010 A 
ATOM     39  C   UNL     1       6.206  -3.369 -14.591  1.00  0.00     0.010 A 
ATOM     40  C   UNL     1       6.119  -2.953 -15.917  1.00  0.00    -0.014 A 
BRANCH  40  41
ATOM     41  C   UNL     1       6.910  -1.805 -16.355  1.00  0.00     0.031 A 
ATOM     42  C   UNL     1       6.128  -0.685 -16.946  1.00  0.00     0.074 A 
ATOM     43  C   UNL     1       8.220  -1.646 -16.064  1.00  0.00     0.049 A 
ATOM     44  N   UNL     1       6.158  -0.266 -18.168  1.00  0.00    -0.248 NA
ATOM     45  C   UNL     1       5.119  -0.017 -16.109  1.00  0.00     0.031 C 
ATOM     46  C   UNL     1       9.068  -2.510 -15.232  1.00  0.00     0.029 A 
ATOM     47  N   UNL     1       9.047  -0.603 -16.357  1.00  0.00    -0.354 N 
ATOM     48  C   UNL     1       5.318   0.844 -18.214  1.00  0.00     0.074 A 
ATOM     49  C   UNL     1       4.589   0.854 -16.971  1.00  0.00     0.031 C 
ATOM     50  C   UNL     1      10.192  -1.846 -14.887  1.00  0.00     0.029 A 
ATOM     51  C   UNL     1      10.232  -0.604 -15.633  1.00  0.00     0.049 A 
ATOM     52  H   UNL     1       8.825   0.088 -17.022  1.00  0.00     0.167 HD
ATOM     53  C   UNL     1       5.481   1.812 -19.158  1.00  0.00     0.031 A 
ATOM     54  C   UNL     1      11.202   0.337 -15.649  1.00  0.00     0.031 A 
ATOM     55  C   UNL     1       6.385   1.390 -20.196  1.00  0.00     0.049 A 
ATOM     56  C   UNL     1      11.083   1.077 -16.919  1.00  0.00     0.074 A 
ATOM     57  C   UNL     1       6.364   0.500 -21.245  1.00  0.00     0.029 A 
ATOM     58  N   UNL     1       7.697   1.709 -19.957  1.00  0.00    -0.354 N 
ATOM     59  N   UNL     1      11.304   0.532 -18.080  1.00  0.00    -0.248 NA
ATOM     60  C   UNL     1      10.393   2.359 -16.953  1.00  0.00     0.031 C 
ATOM     61  C   UNL     1       7.717   0.082 -21.423  1.00  0.00     0.029 A 
ATOM     62  C   UNL     1       8.518   0.759 -20.502  1.00  0.00     0.049 A 
ATOM     63  H   UNL     1       8.004   2.504 -19.465  1.00  0.00     0.167 HD
ATOM     64  C   UNL     1      10.406   1.153 -18.926  1.00  0.00     0.074 A 
ATOM     65  C   UNL     1      10.026   2.381 -18.238  1.00  0.00     0.031 C 
ATOM     66  C   UNL     1       9.824   0.465 -19.950  1.00  0.00     0.031 A 
BRANCH  53  67
ATOM     67  C   UNL     1       5.248   3.287 -18.908  1.00  0.00    -0.014 A 
ATOM     68  C   UNL     1       5.441   4.188 -19.974  1.00  0.00     0.009 A 
ATOM     69  C   UNL     1       5.163   3.847 -17.620  1.00  0.00     0.009 A 
ATOM     70  C   UNL     1       5.608   5.561 -19.753  1.00  0.00     0.001 A 
ATOM     71  C   UNL     1       5.293   5.222 -17.399  1.00  0.00     0.001 A 
ATOM     72  C   UNL     1       5.543   6.076 -18.463  1.00  0.00     0.000 A 
ENDBRANCH  53  67
BRANCH  54  73
ATOM     73  C   UNL     1      12.152   0.723 -14.592  1.00  0.00    -0.014 A 
ATOM     74  C   UNL     1      13.376   1.330 -14.907  1.00  0.00     0.009 A 
ATOM     75  C   UNL     1      11.729   0.740 -13.251  1.00  0.00     0.009 A 
ATOM     76  C   UNL     1      14.127   1.979 -13.919  1.00  0.00     0.001 A 
ATOM     77  C   UNL     1      12.478   1.390 -12.266  1.00  0.00     0.001 A 
ATOM     78  C   UNL     1      13.669   2.025 -12.604  1.00  0.00     0.000 A 
ENDBRANCH  54  73
BRANCH  66  79
ATOM     79  C   UNL     1      10.482  -0.820 -20.376  1.00  0.00    -0.014 A 
ATOM     80  C   UNL     1      10.548  -1.960 -19.557  1.00  0.00     0.009 A 
ATOM     81  C   UNL     1      10.972  -0.908 -21.686  1.00  0.00     0.009 A 
ATOM     82  C   UNL     1      11.117  -3.147 -20.029  1.00  0.00     0.001 A 
ATOM     83  C   UNL     1      11.521  -2.099 -22.164  1.00  0.00     0.001 A 
ATOM     84  C   UNL     1      11.600  -3.216 -21.334  1.00  0.00     0.000 A 
ENDBRANCH  66  79
ENDBRANCH  40  41
ENDBRANCH  32  35
ENDBRANCH  30  31
ENDBRANCH  29  30
ENDBRANCH   1  29
TORSDOF 14
