REMARK SMILES CC[C@@H]1CCC[C@@H](Oc2cncc(C(=O)NCCCNC(=O)c3ccc(-c4c5nc(c(-c6ccccc6)c6ccc([nH]6)c(-c6ccccc6)c6nc(c(-c7ccccc7)c7ccc4[nH]7)C=C6)C=C5)cc3)n2)C1
REMARK SMILES IDX 17 1 16 2 14 3 15 4 13 6 9 7 10 8 71 9 11 10 12 11 8 12 7 13
REMARK SMILES IDX 3 14 4 15 72 16 5 17 6 18 2 19 1 20 18 21 19 22 20 23 21 24
REMARK SMILES IDX 22 26 23 27 24 28 70 29 25 30 69 31 26 32 27 33 28 34 63 35
REMARK SMILES IDX 29 36 68 37 62 38 64 39 30 40 67 41 61 42 60 43 31 45 53 46
REMARK SMILES IDX 38 47 52 48 39 49 42 50 51 51 65 52 40 53 41 54 50 56 66 57
REMARK SMILES IDX 43 58 32 59 33 60 37 61 34 62 36 63 35 64 54 65 55 66 59 67
REMARK SMILES IDX 56 68 58 69 57 70 44 71 45 72 49 73 46 74 48 75 47 76
REMARK H PARENT 16 5 20 25 64 44 42 55
REMARK Flexibility Score: inf
ROOT
ATOM      1  C   UNL     1       6.910   3.042   4.079  1.00  0.00     0.118 C 
ENDROOT
BRANCH   1   2
ATOM      2  N   UNL     1       7.356   1.772   4.627  1.00  0.00    -0.351 N 
ATOM      3  C   UNL     1       6.648   0.687   5.081  1.00  0.00     0.271 C 
ATOM      4  O   UNL     1       7.288  -0.240   5.583  1.00  0.00    -0.267 OA
ATOM      5  H   UNL     1       8.333   1.674   4.683  1.00  0.00     0.163 HD
BRANCH   3   6
ATOM      6  C   UNL     1       5.169   0.578   4.973  1.00  0.00     0.150 A 
ATOM      7  C   UNL     1       3.109   1.441   4.350  1.00  0.00     0.233 A 
ATOM      8  C   UNL     1       2.546   0.240   4.737  1.00  0.00     0.179 A 
ATOM      9  N   UNL     1       4.441   1.619   4.494  1.00  0.00    -0.205 NA
ATOM     10  N   UNL     1       3.247  -0.814   5.235  1.00  0.00    -0.257 NA
ATOM     11  C   UNL     1       4.577  -0.618   5.340  1.00  0.00     0.145 A 
BRANCH   7  12
ATOM     12  O   UNL     1       2.516   2.542   3.846  1.00  0.00    -0.473 OA
BRANCH  12  13
ATOM     13  C   UNL     1       1.212   2.712   3.288  1.00  0.00     0.175 C 
ATOM     14  C   UNL     1       0.370   0.528   2.249  1.00  0.00    -0.008 C 
ATOM     15  C   UNL     1      -0.779   0.514   3.283  1.00  0.00     0.004 C 
ATOM     16  C   UNL     1       0.893   1.942   2.004  1.00  0.00     0.048 C 
ATOM     17  C   UNL     1      -0.623   1.402   4.524  1.00  0.00     0.004 C 
ATOM     18  C   UNL     1       0.057   2.741   4.283  1.00  0.00     0.045 C 
BRANCH  14  19
ATOM     19  C   UNL     1      -0.083  -0.207   0.968  1.00  0.00     0.000 C 
ATOM     20  C   UNL     1       0.838  -0.034  -0.232  1.00  0.00     0.004 C 
ENDBRANCH  14  19
ENDBRANCH  12  13
ENDBRANCH   7  12
ENDBRANCH   3   6
ENDBRANCH   1   2
BRANCH   1  21
ATOM     21  C   UNL     1       6.847   4.120   5.157  1.00  0.00     0.042 C 
BRANCH  21  22
ATOM     22  C   UNL     1       8.200   4.392   5.814  1.00  0.00     0.118 C 
BRANCH  22  23
ATOM     23  N   UNL     1       9.227   4.756   4.843  1.00  0.00    -0.352 N 
ATOM     24  C   UNL     1       9.927   5.924   4.686  1.00  0.00     0.251 C 
ATOM     25  H   UNL     1       9.453   4.049   4.197  1.00  0.00     0.163 HD
ATOM     26  O   UNL     1      10.566   6.125   3.661  1.00  0.00    -0.269 OA
BRANCH  24  27
ATOM     27  C   UNL     1       9.902   6.943   5.752  1.00  0.00     0.039 A 
ATOM     28  C   UNL     1       9.740   8.285   5.402  1.00  0.00     0.014 A 
ATOM     29  C   UNL     1      10.050   6.574   7.091  1.00  0.00     0.014 A 
ATOM     30  C   UNL     1       9.642   9.250   6.404  1.00  0.00     0.010 A 
ATOM     31  C   UNL     1       9.881   7.525   8.091  1.00  0.00     0.010 A 
ATOM     32  C   UNL     1       9.662   8.869   7.756  1.00  0.00    -0.014 A 
BRANCH  32  33
ATOM     33  C   UNL     1       9.400   9.852   8.835  1.00  0.00     0.031 A 
ATOM     34  C   UNL     1      10.460  10.171   9.849  1.00  0.00     0.074 A 
ATOM     35  C   UNL     1       8.170  10.392   8.942  1.00  0.00     0.049 A 
ATOM     36  N   UNL     1      10.382  10.936  10.908  1.00  0.00    -0.248 NA
ATOM     37  C   UNL     1      11.774   9.534   9.662  1.00  0.00     0.031 C 
ATOM     38  C   UNL     1       7.046  10.129   8.039  1.00  0.00     0.029 A 
ATOM     39  N   UNL     1       7.654  11.265   9.865  1.00  0.00    -0.354 N 
ATOM     40  C   UNL     1      11.628  10.866  11.517  1.00  0.00     0.074 A 
ATOM     41  C   UNL     1      12.430   9.949  10.737  1.00  0.00     0.031 C 
ATOM     42  C   UNL     1       5.983  10.843   8.439  1.00  0.00     0.029 A 
ATOM     43  C   UNL     1       6.332  11.572   9.653  1.00  0.00     0.049 A 
ATOM     44  H   UNL     1       8.181  11.637  10.609  1.00  0.00     0.167 HD
ATOM     45  C   UNL     1      12.068  11.521  12.617  1.00  0.00     0.031 A 
ATOM     46  C   UNL     1       5.487  12.338  10.368  1.00  0.00     0.031 A 
ATOM     47  C   UNL     1      11.265  12.429  13.393  1.00  0.00     0.049 A 
ATOM     48  C   UNL     1       5.991  13.014  11.612  1.00  0.00     0.074 A 
ATOM     49  C   UNL     1      11.636  13.178  14.496  1.00  0.00     0.029 A 
ATOM     50  N   UNL     1       9.929  12.706  13.151  1.00  0.00    -0.354 N 
ATOM     51  N   UNL     1       7.194  12.993  12.134  1.00  0.00    -0.248 NA
ATOM     52  C   UNL     1       5.021  13.822  12.364  1.00  0.00     0.031 C 
ATOM     53  C   UNL     1      10.507  13.863  14.958  1.00  0.00     0.029 A 
ATOM     54  C   UNL     1       9.450  13.588  14.105  1.00  0.00     0.049 A 
ATOM     55  H   UNL     1       9.399  12.331  12.411  1.00  0.00     0.167 HD
ATOM     56  C   UNL     1       7.129  13.800  13.262  1.00  0.00     0.074 A 
ATOM     57  C   UNL     1       5.778  14.316  13.333  1.00  0.00     0.031 C 
ATOM     58  C   UNL     1       8.100  14.085  14.164  1.00  0.00     0.031 A 
BRANCH  45  59
ATOM     59  C   UNL     1      13.485  11.275  13.055  1.00  0.00    -0.014 A 
ATOM     60  C   UNL     1      14.570  11.767  12.312  1.00  0.00     0.009 A 
ATOM     61  C   UNL     1      13.739  10.595  14.257  1.00  0.00     0.009 A 
ATOM     62  C   UNL     1      15.880  11.559  12.749  1.00  0.00     0.001 A 
ATOM     63  C   UNL     1      15.048  10.414  14.706  1.00  0.00     0.001 A 
ATOM     64  C   UNL     1      16.118  10.889  13.948  1.00  0.00     0.000 A 
ENDBRANCH  45  59
BRANCH  46  65
ATOM     65  C   UNL     1       4.073  12.501   9.938  1.00  0.00    -0.014 A 
ATOM     66  C   UNL     1       3.604  13.742   9.482  1.00  0.00     0.009 A 
ATOM     67  C   UNL     1       3.178  11.421  10.003  1.00  0.00     0.009 A 
ATOM     68  C   UNL     1       2.262  13.908   9.134  1.00  0.00     0.001 A 
ATOM     69  C   UNL     1       1.844  11.581   9.623  1.00  0.00     0.001 A 
ATOM     70  C   UNL     1       1.384  12.827   9.201  1.00  0.00     0.000 A 
ENDBRANCH  46  65
BRANCH  58  71
ATOM     71  C   UNL     1       7.738  15.012  15.289  1.00  0.00    -0.014 A 
ATOM     72  C   UNL     1       6.890  14.597  16.328  1.00  0.00     0.009 A 
ATOM     73  C   UNL     1       8.280  16.306  15.329  1.00  0.00     0.009 A 
ATOM     74  C   UNL     1       6.565  15.472  17.366  1.00  0.00     0.001 A 
ATOM     75  C   UNL     1       7.979  17.168  16.384  1.00  0.00     0.001 A 
ATOM     76  C   UNL     1       7.114  16.754  17.396  1.00  0.00     0.000 A 
ENDBRANCH  58  71
ENDBRANCH  32  33
ENDBRANCH  24  27
ENDBRANCH  22  23
ENDBRANCH  21  22
ENDBRANCH   1  21
TORSDOF 13
