REMARK SMILES Cc1cc([C@H](O)CC2(CC(=O)NCCCNC(=O)c3ccc(-c4c5nc(c(-c6ccccc6)c6ccc([nH]6)c(-c6ccccc6)c6nc(c(-c7ccccc7)c7ccc4[nH]7)C=C6)C=C5)cc3)CCCC2)ccc1F
REMARK SMILES IDX 13 1 12 2 10 3 11 4 9 6 8 7 67 8 70 9 68 10 69 11 7 12 5 13
REMARK SMILES IDX 4 14 1 15 2 16 3 17 73 18 72 19 74 20 71 21 6 22 14 24 15 25
REMARK SMILES IDX 16 26 17 27 18 29 19 30 20 31 66 32 21 33 65 34 22 35 23 36
REMARK SMILES IDX 24 37 59 38 25 39 64 40 58 41 60 42 26 43 63 44 57 45 56 46
REMARK SMILES IDX 27 48 49 49 34 50 48 51 35 52 38 53 47 54 61 55 36 56 37 57
REMARK SMILES IDX 46 59 62 60 39 61 28 62 29 63 33 64 30 65 32 66 31 67 50 68
REMARK SMILES IDX 51 69 55 70 52 71 54 72 53 73 40 74 41 75 45 76 42 77 44 78
REMARK SMILES IDX 43 79
REMARK H PARENT 12 5 6 23 16 28 60 47 38 58
REMARK Flexibility Score: inf
ROOT
ATOM      1  C   UNL     1      -5.314   3.690   4.050  1.00  0.00     0.117 C 
ENDROOT
BRANCH   1   2
ATOM      2  N   UNL     1      -6.045   2.508   3.637  1.00  0.00    -0.356 N 
ATOM      3  C   UNL     1      -5.607   1.251   3.368  1.00  0.00     0.220 C 
ATOM      4  O   UNL     1      -6.437   0.430   2.970  1.00  0.00    -0.275 OA
ATOM      5  H   UNL     1      -7.016   2.638   3.534  1.00  0.00     0.163 HD
BRANCH   3   6
ATOM      6  C   UNL     1      -4.155   0.852   3.586  1.00  0.00     0.107 C 
BRANCH   6   7
ATOM      7  C   UNL     1      -3.155   0.976   2.383  1.00  0.00    -0.018 C 
ATOM      8  C   UNL     1      -1.896   0.146   2.753  1.00  0.00     0.007 C 
ATOM      9  C   UNL     1      -2.494   2.362   2.279  1.00  0.00     0.007 C 
ATOM     10  C   UNL     1      -1.110   1.017   3.740  1.00  0.00     0.001 C 
ATOM     11  C   UNL     1      -1.529   2.455   3.455  1.00  0.00     0.001 C 
BRANCH   7  12
ATOM     12  C   UNL     1      -3.824   0.479   1.063  1.00  0.00     0.044 C 
BRANCH  12  13
ATOM     13  C   UNL     1      -3.202   0.913  -0.280  1.00  0.00     0.145 C 
BRANCH  13  14
ATOM     14  C   UNL     1      -3.980   0.409  -1.484  1.00  0.00    -0.019 A 
ATOM     15  C   UNL     1      -4.694  -2.878  -3.298  1.00  0.00     0.047 C 
ATOM     16  C   UNL     1      -4.685  -1.425  -2.937  1.00  0.00    -0.015 A 
ATOM     17  C   UNL     1      -4.008  -0.961  -1.801  1.00  0.00     0.012 A 
ATOM     18  C   UNL     1      -5.335  -0.498  -3.755  1.00  0.00     0.126 A 
ATOM     19  C   UNL     1      -5.329   0.859  -3.454  1.00  0.00     0.040 A 
ATOM     20  F   UNL     1      -5.974  -0.914  -4.857  1.00  0.00    -0.207 F 
ATOM     21  C   UNL     1      -4.654   1.313  -2.321  1.00  0.00     0.009 A 
ENDBRANCH  13  14
BRANCH  13  22
ATOM     22  O   UNL     1      -1.852   0.479  -0.388  1.00  0.00    -0.388 OA
ATOM     23  H   UNL     1      -1.823  -0.490  -0.385  1.00  0.00     0.211 HD
ENDBRANCH  13  22
ENDBRANCH  12  13
ENDBRANCH   7  12
ENDBRANCH   6   7
ENDBRANCH   3   6
ENDBRANCH   1   2
BRANCH   1  24
ATOM     24  C   UNL     1      -5.175   4.672   2.892  1.00  0.00     0.042 C 
BRANCH  24  25
ATOM     25  C   UNL     1      -6.437   5.473   2.619  1.00  0.00     0.118 C 
BRANCH  25  26
ATOM     26  N   UNL     1      -6.607   6.571   3.556  1.00  0.00    -0.352 N 
ATOM     27  C   UNL     1      -6.433   7.925   3.383  1.00  0.00     0.251 C 
ATOM     28  H   UNL     1      -6.893   6.304   4.459  1.00  0.00     0.163 HD
ATOM     29  O   UNL     1      -6.424   8.661   4.364  1.00  0.00    -0.269 OA
BRANCH  27  30
ATOM     30  C   UNL     1      -6.232   8.502   2.033  1.00  0.00     0.039 A 
ATOM     31  C   UNL     1      -5.322   9.554   1.874  1.00  0.00     0.014 A 
ATOM     32  C   UNL     1      -6.958   8.049   0.931  1.00  0.00     0.014 A 
ATOM     33  C   UNL     1      -5.095  10.098   0.606  1.00  0.00     0.010 A 
ATOM     34  C   UNL     1      -6.660   8.522  -0.344  1.00  0.00     0.010 A 
ATOM     35  C   UNL     1      -5.735   9.561  -0.521  1.00  0.00    -0.014 A 
BRANCH  35  36
ATOM     36  C   UNL     1      -5.489  10.081  -1.891  1.00  0.00     0.031 A 
ATOM     37  C   UNL     1      -6.627  10.666  -2.685  1.00  0.00     0.074 A 
ATOM     38  C   UNL     1      -4.273   9.950  -2.458  1.00  0.00     0.049 A 
ATOM     39  N   UNL     1      -6.657  11.038  -3.940  1.00  0.00    -0.248 NA
ATOM     40  C   UNL     1      -7.912  10.824  -1.982  1.00  0.00     0.031 C 
ATOM     41  C   UNL     1      -3.089   9.380  -1.811  1.00  0.00     0.029 A 
ATOM     42  N   UNL     1      -3.837  10.276  -3.719  1.00  0.00    -0.354 N 
ATOM     43  C   UNL     1      -7.965  11.438  -4.183  1.00  0.00     0.074 A 
ATOM     44  C   UNL     1      -8.709  11.223  -2.961  1.00  0.00     0.031 C 
ATOM     45  C   UNL     1      -2.059   9.414  -2.672  1.00  0.00     0.029 A 
ATOM     46  C   UNL     1      -2.519   9.961  -3.945  1.00  0.00     0.049 A 
ATOM     47  H   UNL     1      -4.415  10.696  -4.396  1.00  0.00     0.167 HD
ATOM     48  C   UNL     1      -8.499  11.954  -5.315  1.00  0.00     0.031 A 
ATOM     49  C   UNL     1      -1.768  10.082  -5.056  1.00  0.00     0.031 A 
ATOM     50  C   UNL     1      -7.756  12.197  -6.521  1.00  0.00     0.049 A 
ATOM     51  C   UNL     1      -2.386  10.647  -6.305  1.00  0.00     0.074 A 
ATOM     52  C   UNL     1      -8.192  12.773  -7.701  1.00  0.00     0.029 A 
ATOM     53  N   UNL     1      -6.419  11.879  -6.699  1.00  0.00    -0.354 N 
ATOM     54  N   UNL     1      -3.612  11.065  -6.503  1.00  0.00    -0.248 NA
ATOM     55  C   UNL     1      -1.513  10.761  -7.483  1.00  0.00     0.031 C 
ATOM     56  C   UNL     1      -7.130  12.763  -8.610  1.00  0.00     0.029 A 
ATOM     57  C   UNL     1      -6.019  12.229  -7.977  1.00  0.00     0.049 A 
ATOM     58  H   UNL     1      -5.840  11.467  -6.018  1.00  0.00     0.167 HD
ATOM     59  C   UNL     1      -3.650  11.520  -7.815  1.00  0.00     0.074 A 
ATOM     60  C   UNL     1      -2.322  11.335  -8.363  1.00  0.00     0.031 C 
ATOM     61  C   UNL     1      -4.691  12.047  -8.503  1.00  0.00     0.031 A 
BRANCH  48  62
ATOM     62  C   UNL     1      -9.966  12.286  -5.302  1.00  0.00    -0.014 A 
ATOM     63  C   UNL     1     -10.464  13.362  -4.549  1.00  0.00     0.009 A 
ATOM     64  C   UNL     1     -10.858  11.531  -6.079  1.00  0.00     0.009 A 
ATOM     65  C   UNL     1     -11.830  13.649  -4.544  1.00  0.00     0.001 A 
ATOM     66  C   UNL     1     -12.220  11.839  -6.096  1.00  0.00     0.001 A 
ATOM     67  C   UNL     1     -12.706  12.891  -5.320  1.00  0.00     0.000 A 
ENDBRANCH  48  62
BRANCH  49  68
ATOM     68  C   UNL     1      -0.342   9.665  -5.040  1.00  0.00    -0.014 A 
ATOM     69  C   UNL     1       0.680  10.626  -5.090  1.00  0.00     0.009 A 
ATOM     70  C   UNL     1       0.007   8.306  -4.978  1.00  0.00     0.009 A 
ATOM     71  C   UNL     1       2.021  10.234  -5.104  1.00  0.00     0.001 A 
ATOM     72  C   UNL     1       1.349   7.919  -4.963  1.00  0.00     0.001 A 
ATOM     73  C   UNL     1       2.354   8.882  -5.035  1.00  0.00     0.000 A 
ENDBRANCH  49  68
BRANCH  61  74
ATOM     74  C   UNL     1      -4.431  12.504  -9.910  1.00  0.00    -0.014 A 
ATOM     75  C   UNL     1      -4.273  11.585 -10.958  1.00  0.00     0.009 A 
ATOM     76  C   UNL     1      -4.408  13.878 -10.197  1.00  0.00     0.009 A 
ATOM     77  C   UNL     1      -4.073  12.036 -12.264  1.00  0.00     0.001 A 
ATOM     78  C   UNL     1      -4.235  14.325 -11.507  1.00  0.00     0.001 A 
ATOM     79  C   UNL     1      -4.061  13.403 -12.539  1.00  0.00     0.000 A 
ENDBRANCH  61  74
ENDBRANCH  35  36
ENDBRANCH  27  30
ENDBRANCH  25  26
ENDBRANCH  24  25
ENDBRANCH   1  24
TORSDOF 15
