REMARK SMILES Cc1cc(N(C)[C@H](C)C(=O)NCCCNC(=O)c2ccc(-c3c4nc(c(-c5ccccc5)c5ccc([nH]5)c(-c5ccccc5)c5nc(c(-c6ccccc6)c6ccc3[nH]6)C=C5)C=C4)cc2)ncc1[N+](=O)[O-]
REMARK SMILES IDX 12 1 11 2 9 3 10 4 7 6 8 7 5 8 6 9 4 10 1 11 2 12 3 13 68 14
REMARK SMILES IDX 67 15 66 16 69 17 70 18 71 19 13 20 14 21 15 22 16 23 17 25
REMARK SMILES IDX 18 26 19 27 65 28 20 29 64 30 21 31 22 32 23 33 58 34 24 35
REMARK SMILES IDX 63 36 57 37 59 38 25 39 62 40 56 41 55 42 26 44 48 45 33 46
REMARK SMILES IDX 47 47 34 48 37 49 46 50 60 51 35 52 36 53 45 55 61 56 38 57
REMARK SMILES IDX 27 58 28 59 32 60 29 61 31 62 30 63 49 64 50 65 54 66 51 67
REMARK SMILES IDX 53 68 52 69 39 70 40 71 44 72 41 73 43 74 42 75
REMARK H PARENT 11 5 15 24 59 43 37 54
REMARK Flexibility Score: inf
ROOT
ATOM      1  C   UNL     1       2.246  -0.411  -0.712  1.00  0.00     0.117 C 
ENDROOT
BRANCH   1   2
ATOM      2  N   UNL     1       3.128   0.496  -1.421  1.00  0.00    -0.354 N 
ATOM      3  C   UNL     1       3.767   1.626  -1.003  1.00  0.00     0.242 C 
ATOM      4  O   UNL     1       4.616   2.079  -1.781  1.00  0.00    -0.273 OA
ATOM      5  H   UNL     1       3.292   0.257  -2.362  1.00  0.00     0.163 HD
BRANCH   3   6
ATOM      6  C   UNL     1       3.465   2.327   0.340  1.00  0.00     0.169 C 
ATOM      7  C   UNL     1       2.003   2.770   0.442  1.00  0.00     0.042 C 
BRANCH   6   8
ATOM      8  N   UNL     1       3.929   1.607   1.561  1.00  0.00    -0.348 N 
ATOM      9  C   UNL     1       4.197   0.180   1.574  1.00  0.00     0.146 C 
BRANCH   8  10
ATOM     10  C   UNL     1       4.343   2.376   2.645  1.00  0.00     0.129 A 
ATOM     11  C   UNL     1       5.646   1.728   6.133  1.00  0.00     0.052 C 
ATOM     12  C   UNL     1       5.253   2.532   4.927  1.00  0.00     0.032 A 
ATOM     13  C   UNL     1       4.654   1.801   3.881  1.00  0.00     0.057 A 
ATOM     14  C   UNL     1       5.441   3.899   4.713  1.00  0.00     0.290 A 
ATOM     15  C   UNL     1       5.043   4.431   3.493  1.00  0.00     0.199 A 
ATOM     16  N   UNL     1       4.503   3.703   2.483  1.00  0.00    -0.232 NA
BRANCH  14  17
ATOM     17  N   UNL     1       6.021   4.822   5.684  1.00  0.00     0.064 N 
ATOM     18  O   UNL     1       6.472   5.894   5.255  1.00  0.00    -0.258 OA
ATOM     19  O   UNL     1       6.008   4.508   6.880  1.00  0.00    -0.258 OA
ENDBRANCH  14  17
ENDBRANCH   8  10
ENDBRANCH   6   8
ENDBRANCH   3   6
ENDBRANCH   1   2
BRANCH   1  20
ATOM     20  C   UNL     1       1.110  -0.916  -1.577  1.00  0.00     0.042 C 
BRANCH  20  21
ATOM     21  C   UNL     1       1.586  -1.789  -2.730  1.00  0.00     0.118 C 
BRANCH  21  22
ATOM     22  N   UNL     1       2.259  -3.008  -2.289  1.00  0.00    -0.352 N 
ATOM     23  C   UNL     1       1.857  -4.323  -2.336  1.00  0.00     0.251 C 
ATOM     24  H   UNL     1       3.149  -2.865  -1.892  1.00  0.00     0.163 HD
ATOM     25  O   UNL     1       2.490  -5.179  -1.737  1.00  0.00    -0.269 OA
BRANCH  23  26
ATOM     26  C   UNL     1       0.638  -4.690  -3.088  1.00  0.00     0.039 A 
ATOM     27  C   UNL     1      -0.252  -5.617  -2.542  1.00  0.00     0.014 A 
ATOM     28  C   UNL     1       0.365  -4.102  -4.323  1.00  0.00     0.014 A 
ATOM     29  C   UNL     1      -1.463  -5.872  -3.190  1.00  0.00     0.010 A 
ATOM     30  C   UNL     1      -0.887  -4.258  -4.897  1.00  0.00     0.010 A 
ATOM     31  C   UNL     1      -1.814  -5.152  -4.343  1.00  0.00    -0.014 A 
BRANCH  31  32
ATOM     32  C   UNL     1      -3.132  -5.319  -5.003  1.00  0.00     0.031 A 
ATOM     33  C   UNL     1      -3.198  -5.761  -6.442  1.00  0.00     0.074 A 
ATOM     34  C   UNL     1      -4.261  -4.996  -4.341  1.00  0.00     0.049 A 
ATOM     35  N   UNL     1      -4.240  -5.867  -7.226  1.00  0.00    -0.248 NA
ATOM     36  C   UNL     1      -1.921  -6.092  -7.097  1.00  0.00     0.031 C 
ATOM     37  C   UNL     1      -4.330  -4.509  -2.961  1.00  0.00     0.029 A 
ATOM     38  N   UNL     1      -5.572  -5.022  -4.747  1.00  0.00    -0.354 N 
ATOM     39  C   UNL     1      -3.741  -6.252  -8.464  1.00  0.00     0.074 A 
ATOM     40  C   UNL     1      -2.302  -6.298  -8.348  1.00  0.00     0.031 C 
ATOM     41  C   UNL     1      -5.616  -4.319  -2.624  1.00  0.00     0.029 A 
ATOM     42  C   UNL     1      -6.458  -4.621  -3.776  1.00  0.00     0.049 A 
ATOM     43  H   UNL     1      -5.851  -5.301  -5.648  1.00  0.00     0.167 HD
ATOM     44  C   UNL     1      -4.420  -6.569  -9.592  1.00  0.00     0.031 A 
ATOM     45  C   UNL     1      -7.799  -4.503  -3.813  1.00  0.00     0.031 A 
ATOM     46  C   UNL     1      -5.853  -6.547  -9.700  1.00  0.00     0.049 A 
ATOM     47  C   UNL     1      -8.527  -4.850  -5.082  1.00  0.00     0.074 A 
ATOM     48  C   UNL     1      -6.640  -6.904 -10.781  1.00  0.00     0.029 A 
ATOM     49  N   UNL     1      -6.712  -6.151  -8.688  1.00  0.00    -0.354 N 
ATOM     50  N   UNL     1      -8.043  -5.276  -6.223  1.00  0.00    -0.248 NA
ATOM     51  C   UNL     1      -9.990  -4.709  -5.063  1.00  0.00     0.031 C 
ATOM     52  C   UNL     1      -7.976  -6.676 -10.439  1.00  0.00     0.029 A 
ATOM     53  C   UNL     1      -8.023  -6.235  -9.126  1.00  0.00     0.049 A 
ATOM     54  H   UNL     1      -6.433  -5.853  -7.793  1.00  0.00     0.167 HD
ATOM     55  C   UNL     1      -9.143  -5.486  -7.045  1.00  0.00     0.074 A 
ATOM     56  C   UNL     1     -10.318  -5.157  -6.266  1.00  0.00     0.031 C 
ATOM     57  C   UNL     1      -9.178  -5.912  -8.331  1.00  0.00     0.031 A 
BRANCH  44  58
ATOM     58  C   UNL     1      -3.616  -6.975 -10.795  1.00  0.00    -0.014 A 
ATOM     59  C   UNL     1      -2.918  -8.194 -10.825  1.00  0.00     0.009 A 
ATOM     60  C   UNL     1      -3.587  -6.150 -11.930  1.00  0.00     0.009 A 
ATOM     61  C   UNL     1      -2.180  -8.561 -11.952  1.00  0.00     0.001 A 
ATOM     62  C   UNL     1      -2.875  -6.535 -13.068  1.00  0.00     0.001 A 
ATOM     63  C   UNL     1      -2.165  -7.734 -13.074  1.00  0.00     0.000 A 
ENDBRANCH  44  58
BRANCH  45  64
ATOM     64  C   UNL     1      -8.549  -4.049  -2.611  1.00  0.00    -0.014 A 
ATOM     65  C   UNL     1      -9.394  -4.934  -1.923  1.00  0.00     0.009 A 
ATOM     66  C   UNL     1      -8.448  -2.724  -2.160  1.00  0.00     0.009 A 
ATOM     67  C   UNL     1     -10.149  -4.493  -0.835  1.00  0.00     0.001 A 
ATOM     68  C   UNL     1      -9.180  -2.293  -1.051  1.00  0.00     0.001 A 
ATOM     69  C   UNL     1     -10.040  -3.174  -0.398  1.00  0.00     0.000 A 
ENDBRANCH  45  64
BRANCH  57  70
ATOM     70  C   UNL     1     -10.531  -6.093  -8.959  1.00  0.00    -0.014 A 
ATOM     71  C   UNL     1     -11.328  -4.993  -9.309  1.00  0.00     0.009 A 
ATOM     72  C   UNL     1     -10.993  -7.388  -9.245  1.00  0.00     0.009 A 
ATOM     73  C   UNL     1     -12.578  -5.188  -9.900  1.00  0.00     0.001 A 
ATOM     74  C   UNL     1     -12.227  -7.578  -9.866  1.00  0.00     0.001 A 
ATOM     75  C   UNL     1     -13.023  -6.479 -10.184  1.00  0.00     0.000 A 
ENDBRANCH  57  70
ENDBRANCH  31  32
ENDBRANCH  23  26
ENDBRANCH  21  22
ENDBRANCH  20  21
ENDBRANCH   1  20
TORSDOF 13
