REMARK SMILES CNC(=O)c1cc(S(=O)(=O)N2CCC(C(=O)NCCCNC(=O)c3ccc(-c4c5nc(c(-c6ccccc6)c6ccc([nH]6)c(-c6ccccc6)c6nc(c(-c7ccccc7)c7ccc4[nH]7)C=C6)C=C5)cc3)CC2)ccc1OC
REMARK SMILES IDX 18 1 17 2 15 3 16 4 14 6 11 7 12 8 73 9 13 10 72 11 8 12
REMARK SMILES IDX 9 13 10 14 7 15 5 16 6 17 76 18 75 19 74 20 3 21 1 22 2 23
REMARK SMILES IDX 4 25 77 26 78 27 19 28 20 29 21 30 22 31 23 33 24 34 25 35
REMARK SMILES IDX 71 36 26 37 70 38 27 39 28 40 29 41 64 42 30 43 69 44 63 45
REMARK SMILES IDX 65 46 31 47 68 48 62 49 61 50 32 52 54 53 39 54 53 55 40 56
REMARK SMILES IDX 43 57 52 58 66 59 41 60 42 61 51 63 67 64 44 65 33 66 34 67
REMARK SMILES IDX 38 68 35 69 37 70 36 71 55 72 56 73 60 74 57 75 59 76 58 77
REMARK SMILES IDX 45 78 46 79 50 80 47 81 49 82 48 83
REMARK H PARENT 17 5 2 24 21 32 65 51 43 62
REMARK Flexibility Score: inf
ROOT
ATOM      1  C   UNL     1      -3.815  -5.586  -9.069  1.00  0.00     0.117 C 
ENDROOT
BRANCH   1   2
ATOM      2  N   UNL     1      -4.003  -6.580  -8.021  1.00  0.00    -0.356 N 
ATOM      3  C   UNL     1      -3.699  -6.560  -6.697  1.00  0.00     0.223 C 
ATOM      4  O   UNL     1      -3.942  -7.570  -6.033  1.00  0.00    -0.275 OA
ATOM      5  H   UNL     1      -4.425  -7.415  -8.327  1.00  0.00     0.163 HD
BRANCH   3   6
ATOM      6  C   UNL     1      -3.085  -5.340  -6.036  1.00  0.00     0.081 C 
ATOM      7  N   UNL     1      -1.986  -2.676  -6.054  1.00  0.00    -0.198 NA
ATOM      8  C   UNL     1      -1.085  -3.839  -5.908  1.00  0.00     0.103 C 
ATOM      9  C   UNL     1      -3.403  -2.831  -5.648  1.00  0.00     0.103 C 
ATOM     10  C   UNL     1      -1.684  -5.062  -6.567  1.00  0.00     0.030 C 
ATOM     11  C   UNL     1      -4.027  -4.140  -6.096  1.00  0.00     0.030 C 
BRANCH   7  12
ATOM     12  S   UNL     1      -1.286  -1.151  -5.718  1.00  0.00     0.243 S 
ATOM     13  O   UNL     1      -2.252  -0.141  -6.108  1.00  0.00    -0.207 OA
ATOM     14  O   UNL     1       0.058  -1.153  -6.247  1.00  0.00    -0.207 OA
BRANCH  12  15
ATOM     15  C   UNL     1      -1.126  -1.023  -3.944  1.00  0.00     0.083 A 
ATOM     16  C   UNL     1      -0.483   0.357  -2.061  1.00  0.00     0.083 A 
ATOM     17  C   UNL     1      -0.609   0.176  -3.445  1.00  0.00     0.039 A 
ATOM     18  C   UNL     1      -0.948  -0.623  -1.175  1.00  0.00     0.131 A 
ATOM     19  C   UNL     1      -1.414  -1.834  -1.681  1.00  0.00     0.048 A 
ATOM     20  C   UNL     1      -1.492  -2.038  -3.058  1.00  0.00     0.025 A 
BRANCH  16  21
ATOM     21  C   UNL     1       0.175   1.596  -1.611  1.00  0.00     0.254 C 
ATOM     22  C   UNL     1       2.039   0.334  -0.448  1.00  0.00     0.143 C 
ATOM     23  N   UNL     1       1.322   1.519  -0.863  1.00  0.00    -0.355 N 
ATOM     24  H   UNL     1       1.704   2.378  -0.571  1.00  0.00     0.163 HD
ATOM     25  O   UNL     1      -0.295   2.680  -1.939  1.00  0.00    -0.269 OA
ENDBRANCH  16  21
BRANCH  18  26
ATOM     26  O   UNL     1      -0.944  -0.532   0.190  1.00  0.00    -0.496 OA
ATOM     27  C   UNL     1      -1.638   0.617   0.678  1.00  0.00     0.278 C 
ENDBRANCH  18  26
ENDBRANCH  12  15
ENDBRANCH   7  12
ENDBRANCH   3   6
ENDBRANCH   1   2
BRANCH   1  28
ATOM     28  C   UNL     1      -2.773  -6.016 -10.088  1.00  0.00     0.042 C 
BRANCH  28  29
ATOM     29  C   UNL     1      -3.176  -7.249 -10.880  1.00  0.00     0.118 C 
BRANCH  29  30
ATOM     30  N   UNL     1      -4.357  -7.021 -11.700  1.00  0.00    -0.352 N 
ATOM     31  C   UNL     1      -4.490  -6.966 -13.065  1.00  0.00     0.251 C 
ATOM     32  H   UNL     1      -5.192  -6.885 -11.196  1.00  0.00     0.163 HD
ATOM     33  O   UNL     1      -5.533  -6.551 -13.560  1.00  0.00    -0.269 OA
BRANCH  31  34
ATOM     34  C   UNL     1      -3.375  -7.387 -13.939  1.00  0.00     0.039 A 
ATOM     35  C   UNL     1      -3.082  -6.629 -15.075  1.00  0.00     0.014 A 
ATOM     36  C   UNL     1      -2.632  -8.534 -13.651  1.00  0.00     0.014 A 
ATOM     37  C   UNL     1      -1.998  -6.981 -15.881  1.00  0.00     0.010 A 
ATOM     38  C   UNL     1      -1.500  -8.831 -14.400  1.00  0.00     0.010 A 
ATOM     39  C   UNL     1      -1.175  -8.063 -15.527  1.00  0.00    -0.014 A 
BRANCH  39  40
ATOM     40  C   UNL     1       0.027  -8.416 -16.321  1.00  0.00     0.031 A 
ATOM     41  C   UNL     1       0.115  -9.755 -17.000  1.00  0.00     0.074 A 
ATOM     42  C   UNL     1       1.074  -7.570 -16.357  1.00  0.00     0.049 A 
ATOM     43  N   UNL     1       1.117 -10.285 -17.653  1.00  0.00    -0.248 NA
ATOM     44  C   UNL     1      -1.069 -10.626 -16.907  1.00  0.00     0.031 C 
ATOM     45  C   UNL     1       1.135  -6.262 -15.699  1.00  0.00     0.029 A 
ATOM     46  N   UNL     1       2.298  -7.692 -16.966  1.00  0.00    -0.354 N 
ATOM     47  C   UNL     1       0.698 -11.558 -18.019  1.00  0.00     0.074 A 
ATOM     48  C   UNL     1      -0.633 -11.737 -17.483  1.00  0.00     0.031 C 
ATOM     49  C   UNL     1       2.325  -5.695 -15.958  1.00  0.00     0.029 A 
ATOM     50  C   UNL     1       3.123  -6.612 -16.764  1.00  0.00     0.049 A 
ATOM     51  H   UNL     1       2.560  -8.479 -17.497  1.00  0.00     0.167 HD
ATOM     52  C   UNL     1       1.354 -12.488 -18.751  1.00  0.00     0.031 A 
ATOM     53  C   UNL     1       4.386  -6.390 -17.173  1.00  0.00     0.031 A 
ATOM     54  C   UNL     1       2.664 -12.299 -19.312  1.00  0.00     0.049 A 
ATOM     55  C   UNL     1       5.086  -7.432 -17.998  1.00  0.00     0.074 A 
ATOM     56  C   UNL     1       3.380 -13.151 -20.135  1.00  0.00     0.029 A 
ATOM     57  N   UNL     1       3.454 -11.179 -19.108  1.00  0.00    -0.354 N 
ATOM     58  N   UNL     1       4.647  -8.600 -18.397  1.00  0.00    -0.248 NA
ATOM     59  C   UNL     1       6.454  -7.119 -18.436  1.00  0.00     0.031 C 
ATOM     60  C   UNL     1       4.622 -12.564 -20.395  1.00  0.00     0.029 A 
ATOM     61  C   UNL     1       4.660 -11.327 -19.771  1.00  0.00     0.049 A 
ATOM     62  H   UNL     1       3.195 -10.395 -18.572  1.00  0.00     0.167 HD
ATOM     63  C   UNL     1       5.673  -9.152 -19.151  1.00  0.00     0.074 A 
ATOM     64  C   UNL     1       6.751  -8.184 -19.166  1.00  0.00     0.031 C 
ATOM     65  C   UNL     1       5.720 -10.354 -19.775  1.00  0.00     0.031 A 
BRANCH  52  66
ATOM     66  C   UNL     1       0.661 -13.801 -18.983  1.00  0.00    -0.014 A 
ATOM     67  C   UNL     1      -0.442 -13.900 -19.846  1.00  0.00     0.009 A 
ATOM     68  C   UNL     1       1.141 -14.962 -18.358  1.00  0.00     0.009 A 
ATOM     69  C   UNL     1      -1.072 -15.129 -20.050  1.00  0.00     0.001 A 
ATOM     70  C   UNL     1       0.526 -16.195 -18.585  1.00  0.00     0.001 A 
ATOM     71  C   UNL     1      -0.585 -16.276 -19.423  1.00  0.00     0.000 A 
ENDBRANCH  52  66
BRANCH  53  72
ATOM     72  C   UNL     1       5.068  -5.119 -16.819  1.00  0.00    -0.014 A 
ATOM     73  C   UNL     1       5.295  -4.139 -17.797  1.00  0.00     0.009 A 
ATOM     74  C   UNL     1       5.497  -4.880 -15.504  1.00  0.00     0.009 A 
ATOM     75  C   UNL     1       5.960  -2.955 -17.471  1.00  0.00     0.001 A 
ATOM     76  C   UNL     1       6.139  -3.684 -15.176  1.00  0.00     0.001 A 
ATOM     77  C   UNL     1       6.378  -2.727 -16.160  1.00  0.00     0.000 A 
ENDBRANCH  53  72
BRANCH  65  78
ATOM     78  C   UNL     1       6.965 -10.677 -20.548  1.00  0.00    -0.014 A 
ATOM     79  C   UNL     1       8.156 -11.023 -19.893  1.00  0.00     0.009 A 
ATOM     80  C   UNL     1       6.931 -10.675 -21.951  1.00  0.00     0.009 A 
ATOM     81  C   UNL     1       9.300 -11.334 -20.631  1.00  0.00     0.001 A 
ATOM     82  C   UNL     1       8.069 -11.011 -22.686  1.00  0.00     0.001 A 
ATOM     83  C   UNL     1       9.254 -11.333 -22.025  1.00  0.00     0.000 A 
ENDBRANCH  65  78
ENDBRANCH  39  40
ENDBRANCH  31  34
ENDBRANCH  29  30
ENDBRANCH  28  29
ENDBRANCH   1  28
TORSDOF 14
