REMARK SMILES C[C@@H](C(=O)NCCCNC(=O)c1ccc(-c2c3nc(c(-c4ccccc4)c4ccc([nH]4)c(-c4ccccc4)c4nc(c(-c5ccccc5)c5ccc2[nH]5)C=C4)C=C3)cc1)c1ccc2c(c1)[nH]c1ccc(Cl)cc12
REMARK SMILES IDX 7 1 6 2 5 3 3 4 4 5 2 7 1 8 60 9 61 10 65 11 62 12 64 13
REMARK SMILES IDX 63 14 66 15 73 16 67 17 72 19 68 20 70 21 69 22 71 23 8 24
REMARK SMILES IDX 9 25 10 26 11 28 12 29 13 30 59 31 14 32 58 33 15 34 16 35
REMARK SMILES IDX 17 36 52 37 18 38 57 39 51 40 53 41 19 42 56 43 50 44 49 45
REMARK SMILES IDX 20 47 42 48 27 49 41 50 28 51 31 52 40 53 54 54 29 55 30 56
REMARK SMILES IDX 39 58 55 59 32 60 21 61 22 62 26 63 23 64 25 65 24 66 43 67
REMARK SMILES IDX 44 68 48 69 45 70 47 71 46 72 33 73 34 74 38 75 35 76 37 77
REMARK SMILES IDX 36 78
REMARK H PARENT 5 6 66 18 9 27 53 46 31 57
REMARK Flexibility Score: inf
ROOT
ATOM      1  C   UNL     1       4.234   1.205  -0.920  1.00  0.00     0.042 C 
ENDROOT
BRANCH   1   2
ATOM      2  C   UNL     1       3.296   2.167  -0.179  1.00  0.00     0.117 C 
BRANCH   2   3
ATOM      3  N   UNL     1       2.168   2.582  -1.002  1.00  0.00    -0.356 N 
ATOM      4  C   UNL     1       0.855   2.184  -1.016  1.00  0.00     0.227 C 
ATOM      5  O   UNL     1       0.147   2.703  -1.881  1.00  0.00    -0.274 OA
ATOM      6  H   UNL     1       2.388   3.272  -1.669  1.00  0.00     0.163 HD
BRANCH   4   7
ATOM      7  C   UNL     1       0.329   1.181   0.032  1.00  0.00     0.105 C 
ATOM      8  C   UNL     1       1.061  -0.164  -0.126  1.00  0.00     0.023 C 
BRANCH   7   9
ATOM      9  C   UNL     1      -1.203   0.960   0.070  1.00  0.00    -0.034 A 
ATOM     10  C   UNL     1      -2.139   1.991  -0.118  1.00  0.00     0.005 A 
ATOM     11  C   UNL     1      -1.705  -0.308   0.417  1.00  0.00     0.031 A 
ATOM     12  C   UNL     1      -3.536   1.766  -0.023  1.00  0.00     0.011 A 
ATOM     13  C   UNL     1      -3.076  -0.499   0.576  1.00  0.00     0.047 A 
ATOM     14  C   UNL     1      -4.019   0.491   0.344  1.00  0.00     0.007 A 
ATOM     15  N   UNL     1      -3.735  -1.624   0.993  1.00  0.00    -0.355 N 
ATOM     16  C   UNL     1      -5.307  -0.106   0.584  1.00  0.00     0.009 A 
ATOM     17  C   UNL     1      -5.080  -1.392   1.081  1.00  0.00     0.047 A 
ATOM     18  H   UNL     1      -3.300  -2.482   1.200  1.00  0.00     0.167 HD
ATOM     19  C   UNL     1      -6.646   0.323   0.466  1.00  0.00     0.031 A 
ATOM     20  C   UNL     1      -6.088  -2.234   1.558  1.00  0.00     0.028 A 
ATOM     21  C   UNL     1      -7.673  -0.531   0.895  1.00  0.00     0.041 A 
ATOM     22  C   UNL     1      -7.399  -1.774   1.461  1.00  0.00     0.022 A 
ATOM     23  Cl  UNL     1      -9.315  -0.038   0.722  1.00  0.00    -0.084 Cl
ENDBRANCH   7   9
ENDBRANCH   4   7
ENDBRANCH   2   3
ENDBRANCH   1   2
BRANCH   1  24
ATOM     24  C   UNL     1       5.011   1.829  -2.074  1.00  0.00     0.118 C 
BRANCH  24  25
ATOM     25  N   UNL     1       6.012   2.780  -1.623  1.00  0.00    -0.352 N 
ATOM     26  C   UNL     1       7.380   2.763  -1.757  1.00  0.00     0.251 C 
ATOM     27  H   UNL     1       5.653   3.562  -1.145  1.00  0.00     0.163 HD
ATOM     28  O   UNL     1       8.054   3.575  -1.133  1.00  0.00    -0.269 OA
BRANCH  26  29
ATOM     29  C   UNL     1       8.052   1.761  -2.617  1.00  0.00     0.039 A 
ATOM     30  C   UNL     1       9.219   1.154  -2.143  1.00  0.00     0.014 A 
ATOM     31  C   UNL     1       7.566   1.433  -3.886  1.00  0.00     0.014 A 
ATOM     32  C   UNL     1       9.845   0.158  -2.898  1.00  0.00     0.010 A 
ATOM     33  C   UNL     1       8.153   0.394  -4.610  1.00  0.00     0.010 A 
ATOM     34  C   UNL     1       9.286  -0.270  -4.113  1.00  0.00    -0.014 A 
BRANCH  34  35
ATOM     35  C   UNL     1       9.823  -1.457  -4.829  1.00  0.00     0.031 A 
ATOM     36  C   UNL     1      10.425  -1.331  -6.201  1.00  0.00     0.074 A 
ATOM     37  C   UNL     1       9.690  -2.675  -4.263  1.00  0.00     0.049 A 
ATOM     38  N   UNL     1      10.863  -2.275  -6.996  1.00  0.00    -0.248 NA
ATOM     39  C   UNL     1      10.537   0.026  -6.760  1.00  0.00     0.031 C 
ATOM     40  C   UNL     1       9.094  -2.938  -2.950  1.00  0.00     0.029 A 
ATOM     41  N   UNL     1      10.031  -3.923  -4.724  1.00  0.00    -0.354 N 
ATOM     42  C   UNL     1      11.286  -1.631  -8.153  1.00  0.00     0.074 A 
ATOM     43  C   UNL     1      11.028  -0.219  -7.968  1.00  0.00     0.031 C 
ATOM     44  C   UNL     1       9.123  -4.258  -2.708  1.00  0.00     0.029 A 
ATOM     45  C   UNL     1       9.688  -4.941  -3.866  1.00  0.00     0.049 A 
ATOM     46  H   UNL     1      10.479  -4.074  -5.588  1.00  0.00     0.167 HD
ATOM     47  C   UNL     1      11.844  -2.170  -9.263  1.00  0.00     0.031 A 
ATOM     48  C   UNL     1       9.789  -6.277  -4.004  1.00  0.00     0.031 A 
ATOM     49  C   UNL     1      12.110  -3.574  -9.442  1.00  0.00     0.049 A 
ATOM     50  C   UNL     1      10.372  -6.843  -5.269  1.00  0.00     0.074 A 
ATOM     51  C   UNL     1      12.746  -4.199 -10.502  1.00  0.00     0.029 A 
ATOM     52  N   UNL     1      11.743  -4.570  -8.553  1.00  0.00    -0.354 N 
ATOM     53  N   UNL     1      10.858  -6.212  -6.309  1.00  0.00    -0.248 NA
ATOM     54  C   UNL     1      10.421  -8.309  -5.379  1.00  0.00     0.031 C 
ATOM     55  C   UNL     1      12.698  -5.579 -10.288  1.00  0.00     0.029 A 
ATOM     56  C   UNL     1      12.092  -5.809  -9.065  1.00  0.00     0.049 A 
ATOM     57  H   UNL     1      11.300  -4.420  -7.686  1.00  0.00     0.167 HD
ATOM     58  C   UNL     1      11.285  -7.201  -7.186  1.00  0.00     0.074 A 
ATOM     59  C   UNL     1      11.031  -8.472  -6.543  1.00  0.00     0.031 C 
ATOM     60  C   UNL     1      11.832  -7.067  -8.418  1.00  0.00     0.031 A 
BRANCH  47  61
ATOM     61  C   UNL     1      12.203  -1.250 -10.397  1.00  0.00    -0.014 A 
ATOM     62  C   UNL     1      13.304  -0.385 -10.314  1.00  0.00     0.009 A 
ATOM     63  C   UNL     1      11.491  -1.331 -11.605  1.00  0.00     0.009 A 
ATOM     64  C   UNL     1      13.677   0.391 -11.415  1.00  0.00     0.001 A 
ATOM     65  C   UNL     1      11.881  -0.574 -12.711  1.00  0.00     0.001 A 
ATOM     66  C   UNL     1      12.971   0.289 -12.614  1.00  0.00     0.000 A 
ENDBRANCH  47  61
BRANCH  48  67
ATOM     67  C   UNL     1       9.290  -7.187  -2.936  1.00  0.00    -0.014 A 
ATOM     68  C   UNL     1      10.177  -8.005  -2.219  1.00  0.00     0.009 A 
ATOM     69  C   UNL     1       7.915  -7.279  -2.666  1.00  0.00     0.009 A 
ATOM     70  C   UNL     1       9.693  -8.925  -1.286  1.00  0.00     0.001 A 
ATOM     71  C   UNL     1       7.438  -8.174  -1.706  1.00  0.00     0.001 A 
ATOM     72  C   UNL     1       8.325  -9.008  -1.029  1.00  0.00     0.000 A 
ENDBRANCH  48  67
BRANCH  60  73
ATOM     73  C   UNL     1      12.208  -8.327  -9.146  1.00  0.00    -0.014 A 
ATOM     74  C   UNL     1      11.225  -9.180  -9.673  1.00  0.00     0.009 A 
ATOM     75  C   UNL     1      13.561  -8.642  -9.347  1.00  0.00     0.009 A 
ATOM     76  C   UNL     1      11.591 -10.337 -10.362  1.00  0.00     0.001 A 
ATOM     77  C   UNL     1      13.924  -9.782 -10.064  1.00  0.00     0.001 A 
ATOM     78  C   UNL     1      12.939 -10.633 -10.563  1.00  0.00     0.000 A 
ENDBRANCH  60  73
ENDBRANCH  34  35
ENDBRANCH  26  29
ENDBRANCH  24  25
ENDBRANCH   1  24
TORSDOF 11
