REMARK SMILES CC1=Nc2c(c(C)nn2-c2ccc(F)cc2)[C@H](c2ccc(C(=O)NCCCNC(=O)c3ccc(-c4c5nc(c(-c6ccccc6)c6ccc([nH]6)c(-c6ccccc6)c6nc(c(-c7ccccc7)c7ccc4[nH]7)C=C6)C=C5)cc3)cc2)S1
REMARK SMILES IDX 26 1 25 2 24 3 22 4 23 5 21 7 18 8 19 9 80 10 20 11 79 12
REMARK SMILES IDX 17 13 1 14 2 15 3 16 81 17 4 18 5 19 9 20 6 21 8 22 7 23
REMARK SMILES IDX 10 24 11 25 16 26 12 27 15 28 13 29 14 30 27 31 28 32 29 33
REMARK SMILES IDX 30 35 31 36 32 37 78 38 33 39 77 40 34 41 35 42 36 43 71 44
REMARK SMILES IDX 37 45 76 46 70 47 72 48 38 49 75 50 69 51 68 52 39 54 61 55
REMARK SMILES IDX 46 56 60 57 47 58 50 59 59 60 73 61 48 62 49 63 58 65 74 66
REMARK SMILES IDX 51 67 40 68 41 69 45 70 42 71 44 72 43 73 62 74 63 75 67 76
REMARK SMILES IDX 64 77 66 78 65 79 52 80 53 81 57 82 54 83 56 84 55 85
REMARK H PARENT 24 6 28 34 72 53 50 64
REMARK Flexibility Score: inf
ROOT
ATOM      1  C   UNL     1       5.491  -3.482   4.845  1.00  0.00     0.042 C 
ENDROOT
BRANCH   1   2
ATOM      2  C   UNL     1       4.310  -4.100   5.603  1.00  0.00     0.118 C 
BRANCH   2   3
ATOM      3  N   UNL     1       4.097  -3.462   6.894  1.00  0.00    -0.352 N 
ATOM      4  C   UNL     1       3.175  -2.526   7.291  1.00  0.00     0.251 C 
ATOM      5  O   UNL     1       3.125  -2.215   8.480  1.00  0.00    -0.269 OA
ATOM      6  H   UNL     1       4.719  -3.751   7.601  1.00  0.00     0.163 HD
BRANCH   4   7
ATOM      7  C   UNL     1       2.210  -1.918   6.340  1.00  0.00     0.039 A 
ATOM      8  C   UNL     1       0.292  -0.738   4.626  1.00  0.00    -0.030 A 
ATOM      9  C   UNL     1      -0.031  -1.071   5.954  1.00  0.00     0.006 A 
ATOM     10  C   UNL     1       1.598  -0.996   4.182  1.00  0.00     0.006 A 
ATOM     11  C   UNL     1       0.921  -1.640   6.805  1.00  0.00     0.014 A 
ATOM     12  C   UNL     1       2.546  -1.563   5.034  1.00  0.00     0.014 A 
BRANCH   8  13
ATOM     13  C   UNL     1      -0.740  -0.031   3.759  1.00  0.00     0.119 C 
ATOM     14  C   UNL     1       0.809  -0.167  -0.097  1.00  0.00     0.075 C 
ATOM     15  C   UNL     1       0.240   0.380   1.187  1.00  0.00     0.074 C 
ATOM     16  N   UNL     1       0.595   1.578   1.524  1.00  0.00    -0.227 NA
ATOM     17  S   UNL     1      -0.848  -0.690   2.059  1.00  0.00    -0.098 SA
ATOM     18  C   UNL     1       0.188   2.060   2.722  1.00  0.00     0.161 A 
ATOM     19  C   UNL     1      -0.367   1.403   3.794  1.00  0.00     0.038 A 
ATOM     20  N   UNL     1       0.400   3.365   3.133  1.00  0.00    -0.215 N 
ATOM     21  C   UNL     1      -0.409   2.372   4.832  1.00  0.00     0.067 A 
ATOM     22  N   UNL     1       0.155   3.529   4.456  1.00  0.00    -0.171 NA
ATOM     23  C   UNL     1      -0.927   2.224   6.217  1.00  0.00     0.069 C 
BRANCH  20  24
ATOM     24  C   UNL     1       0.821   4.434   2.314  1.00  0.00     0.067 A 
ATOM     25  C   UNL     1       0.230   4.597   1.052  1.00  0.00     0.031 A 
ATOM     26  C   UNL     1       1.854   5.274   2.739  1.00  0.00     0.031 A 
ATOM     27  C   UNL     1       0.689   5.597   0.201  1.00  0.00     0.041 A 
ATOM     28  C   UNL     1       2.343   6.239   1.856  1.00  0.00     0.041 A 
ATOM     29  C   UNL     1       1.756   6.393   0.601  1.00  0.00     0.123 A 
ATOM     30  F   UNL     1       2.233   7.318  -0.242  1.00  0.00    -0.207 F 
ENDBRANCH  20  24
ENDBRANCH   8  13
ENDBRANCH   4   7
ENDBRANCH   2   3
ENDBRANCH   1   2
BRANCH   1  31
ATOM     31  C   UNL     1       6.831  -4.004   5.331  1.00  0.00     0.118 C 
BRANCH  31  32
ATOM     32  N   UNL     1       7.044  -5.407   4.971  1.00  0.00    -0.352 N 
ATOM     33  C   UNL     1       8.091  -6.244   5.312  1.00  0.00     0.251 C 
ATOM     34  H   UNL     1       6.345  -5.810   4.407  1.00  0.00     0.163 HD
ATOM     35  O   UNL     1       8.313  -7.259   4.678  1.00  0.00    -0.269 OA
BRANCH  33  36
ATOM     36  C   UNL     1       8.936  -5.882   6.464  1.00  0.00     0.039 A 
ATOM     37  C   UNL     1      10.319  -6.093   6.452  1.00  0.00     0.014 A 
ATOM     38  C   UNL     1       8.315  -5.300   7.562  1.00  0.00     0.014 A 
ATOM     39  C   UNL     1      11.077  -5.638   7.529  1.00  0.00     0.010 A 
ATOM     40  C   UNL     1       9.073  -4.683   8.517  1.00  0.00     0.010 A 
ATOM     41  C   UNL     1      10.442  -4.920   8.551  1.00  0.00    -0.014 A 
BRANCH  41  42
ATOM     42  C   UNL     1      11.187  -4.310   9.643  1.00  0.00     0.031 A 
ATOM     43  C   UNL     1      12.176  -3.287   9.219  1.00  0.00     0.074 A 
ATOM     44  C   UNL     1      10.793  -4.449  10.928  1.00  0.00     0.049 A 
ATOM     45  N   UNL     1      13.461  -3.334   9.331  1.00  0.00    -0.248 NA
ATOM     46  C   UNL     1      11.686  -2.126   8.455  1.00  0.00     0.031 C 
ATOM     47  C   UNL     1       9.607  -5.159  11.433  1.00  0.00     0.029 A 
ATOM     48  N   UNL     1      11.281  -3.856  12.049  1.00  0.00    -0.354 N 
ATOM     49  C   UNL     1      13.928  -2.115   8.849  1.00  0.00     0.074 A 
ATOM     50  C   UNL     1      12.828  -1.515   8.139  1.00  0.00     0.031 C 
ATOM     51  C   UNL     1       9.334  -4.748  12.690  1.00  0.00     0.029 A 
ATOM     52  C   UNL     1      10.418  -3.896  13.139  1.00  0.00     0.049 A 
ATOM     53  H   UNL     1      12.170  -3.435  12.087  1.00  0.00     0.167 HD
ATOM     54  C   UNL     1      15.081  -1.563   9.321  1.00  0.00     0.031 A 
ATOM     55  C   UNL     1      10.565  -3.251  14.320  1.00  0.00     0.031 A 
ATOM     56  C   UNL     1      15.848  -2.520  10.080  1.00  0.00     0.049 A 
ATOM     57  C   UNL     1      11.986  -2.861  14.433  1.00  0.00     0.074 A 
ATOM     58  C   UNL     1      16.445  -3.734   9.813  1.00  0.00     0.029 A 
ATOM     59  N   UNL     1      15.730  -2.438  11.447  1.00  0.00    -0.354 N 
ATOM     60  N   UNL     1      12.957  -3.720  14.555  1.00  0.00    -0.248 NA
ATOM     61  C   UNL     1      12.379  -1.539  13.973  1.00  0.00     0.031 C 
ATOM     62  C   UNL     1      16.254  -4.507  10.997  1.00  0.00     0.029 A 
ATOM     63  C   UNL     1      15.617  -3.707  11.948  1.00  0.00     0.049 A 
ATOM     64  H   UNL     1      15.728  -1.608  11.976  1.00  0.00     0.167 HD
ATOM     65  C   UNL     1      13.978  -3.207  13.769  1.00  0.00     0.074 A 
ATOM     66  C   UNL     1      13.619  -1.807  13.553  1.00  0.00     0.031 C 
ATOM     67  C   UNL     1      14.852  -4.042  13.132  1.00  0.00     0.031 A 
BRANCH  54  68
ATOM     68  C   UNL     1      15.288  -0.075   9.502  1.00  0.00    -0.014 A 
ATOM     69  C   UNL     1      16.523   0.373  10.008  1.00  0.00     0.009 A 
ATOM     70  C   UNL     1      14.242   0.868   9.476  1.00  0.00     0.009 A 
ATOM     71  C   UNL     1      16.672   1.661  10.538  1.00  0.00     0.001 A 
ATOM     72  C   UNL     1      14.400   2.168   9.964  1.00  0.00     0.001 A 
ATOM     73  C   UNL     1      15.607   2.555  10.524  1.00  0.00     0.000 A 
ENDBRANCH  54  68
BRANCH  55  74
ATOM     74  C   UNL     1       9.533  -2.750  15.250  1.00  0.00    -0.014 A 
ATOM     75  C   UNL     1       9.838  -2.490  16.595  1.00  0.00     0.009 A 
ATOM     76  C   UNL     1       8.308  -2.270  14.750  1.00  0.00     0.009 A 
ATOM     77  C   UNL     1       8.967  -1.742  17.398  1.00  0.00     0.001 A 
ATOM     78  C   UNL     1       7.439  -1.522  15.552  1.00  0.00     0.001 A 
ATOM     79  C   UNL     1       7.776  -1.245  16.873  1.00  0.00     0.000 A 
ENDBRANCH  55  74
BRANCH  67  80
ATOM     80  C   UNL     1      14.848  -5.498  13.535  1.00  0.00    -0.014 A 
ATOM     81  C   UNL     1      13.740  -6.346  13.358  1.00  0.00     0.009 A 
ATOM     82  C   UNL     1      16.053  -6.062  13.977  1.00  0.00     0.009 A 
ATOM     83  C   UNL     1      13.831  -7.713  13.642  1.00  0.00     0.001 A 
ATOM     84  C   UNL     1      16.150  -7.430  14.239  1.00  0.00     0.001 A 
ATOM     85  C   UNL     1      15.039  -8.255  14.077  1.00  0.00     0.000 A 
ENDBRANCH  67  80
ENDBRANCH  41  42
ENDBRANCH  33  36
ENDBRANCH  31  32
ENDBRANCH   1  31
TORSDOF 12
