REMARK SMILES O=C(NCCCNC(=O)c1cc(Cl)c2c(c1)[C@H]1C=CC[C@H]1[C@H](c1ccc(S(=O)(=O)N3CCOCC3)cc1)N2)c1ccc(-c2c3nc(c(-c4ccccc4)c4ccc([nH]4)c(-c4ccccc4)c4nc(c(-c5ccccc5)c5ccc2[nH]5)C=C4)C=C3)cc1
REMARK SMILES IDX 5 1 4 2 3 3 1 4 2 5 39 7 40 8 86 9 41 10 85 11 42 12 43 13
REMARK SMILES IDX 44 14 79 15 45 16 84 17 78 18 80 19 46 20 83 21 77 22 76 23
REMARK SMILES IDX 47 25 69 26 54 27 68 28 55 29 58 30 67 31 81 32 56 33 57 34
REMARK SMILES IDX 66 36 82 37 59 38 48 39 49 40 53 41 50 42 52 43 51 44 70 45
REMARK SMILES IDX 71 46 75 47 72 48 74 49 73 50 60 51 61 52 65 53 62 54 64 55
REMARK SMILES IDX 63 56 6 57 7 58 8 59 9 61 10 62 11 63 16 64 12 65 15 66
REMARK SMILES IDX 13 67 14 68 17 69 38 70 18 71 21 72 22 73 19 75 20 76 23 77
REMARK SMILES IDX 24 78 37 79 25 80 36 81 26 82 27 83 28 84 29 85 30 86 31 87
REMARK SMILES IDX 35 88 32 89 34 90 33 91
REMARK H PARENT 3 6 80 24 58 35 7 60 38 74
REMARK Flexibility Score: inf
ROOT
ATOM      1  C   UNL     1       4.948  -2.107  -0.224  1.00  0.00     0.042 C 
ENDROOT
BRANCH   1   2
ATOM      2  C   UNL     1       4.464  -0.769  -0.763  1.00  0.00     0.118 C 
BRANCH   2   3
ATOM      3  N   UNL     1       3.014  -0.642  -0.711  1.00  0.00    -0.352 N 
ATOM      4  O   UNL     1       1.027   0.087   0.064  1.00  0.00    -0.269 OA
ATOM      5  C   UNL     1       2.239   0.257  -0.022  1.00  0.00     0.251 C 
ATOM      6  H   UNL     1       2.516  -1.298  -1.250  1.00  0.00     0.163 HD
BRANCH   5   7
ATOM      7  C   UNL     1       2.871   1.421   0.629  1.00  0.00     0.039 A 
ATOM      8  C   UNL     1       3.807   2.197  -0.059  1.00  0.00     0.014 A 
ATOM      9  C   UNL     1       2.508   1.746   1.939  1.00  0.00     0.014 A 
ATOM     10  C   UNL     1       4.476   3.219   0.605  1.00  0.00     0.010 A 
ATOM     11  C   UNL     1       3.138   2.810   2.587  1.00  0.00     0.010 A 
ATOM     12  C   UNL     1       4.151   3.529   1.935  1.00  0.00    -0.014 A 
BRANCH  12  13
ATOM     13  C   UNL     1       4.878   4.624   2.617  1.00  0.00     0.031 A 
ATOM     14  C   UNL     1       5.876   4.323   3.698  1.00  0.00     0.074 A 
ATOM     15  C   UNL     1       4.668   5.893   2.219  1.00  0.00     0.049 A 
ATOM     16  N   UNL     1       6.658   5.152   4.341  1.00  0.00    -0.248 NA
ATOM     17  C   UNL     1       6.023   2.917   4.109  1.00  0.00     0.031 C 
ATOM     18  C   UNL     1       3.722   6.305   1.180  1.00  0.00     0.029 A 
ATOM     19  N   UNL     1       5.251   7.065   2.627  1.00  0.00    -0.354 N 
ATOM     20  C   UNL     1       7.386   4.372   5.230  1.00  0.00     0.074 A 
ATOM     21  C   UNL     1       6.938   3.007   5.066  1.00  0.00     0.031 C 
ATOM     22  C   UNL     1       3.810   7.633   1.011  1.00  0.00     0.029 A 
ATOM     23  C   UNL     1       4.793   8.168   1.949  1.00  0.00     0.049 A 
ATOM     24  H   UNL     1       5.931   7.112   3.336  1.00  0.00     0.167 HD
ATOM     25  C   UNL     1       8.351   4.762   6.093  1.00  0.00     0.031 A 
ATOM     26  C   UNL     1       5.123   9.467   2.069  1.00  0.00     0.031 A 
ATOM     27  C   UNL     1       8.807   6.116   6.245  1.00  0.00     0.049 A 
ATOM     28  C   UNL     1       6.170   9.874   3.064  1.00  0.00     0.074 A 
ATOM     29  C   UNL     1       9.819   6.590   7.062  1.00  0.00     0.029 A 
ATOM     30  N   UNL     1       8.282   7.208   5.576  1.00  0.00    -0.354 N 
ATOM     31  N   UNL     1       6.887   9.116   3.856  1.00  0.00    -0.248 NA
ATOM     32  C   UNL     1       6.453  11.312   3.185  1.00  0.00     0.031 C 
ATOM     33  C   UNL     1       9.877   7.978   6.920  1.00  0.00     0.029 A 
ATOM     34  C   UNL     1       8.927   8.360   5.986  1.00  0.00     0.049 A 
ATOM     35  H   UNL     1       7.559   7.170   4.909  1.00  0.00     0.167 HD
ATOM     36  C   UNL     1       7.709   9.981   4.565  1.00  0.00     0.074 A 
ATOM     37  C   UNL     1       7.415  11.320   4.099  1.00  0.00     0.031 C 
ATOM     38  C   UNL     1       8.622   9.685   5.519  1.00  0.00     0.031 A 
BRANCH  25  39
ATOM     39  C   UNL     1       9.004   3.718   6.948  1.00  0.00    -0.014 A 
ATOM     40  C   UNL     1      10.021   2.903   6.430  1.00  0.00     0.009 A 
ATOM     41  C   UNL     1       8.693   3.643   8.315  1.00  0.00     0.009 A 
ATOM     42  C   UNL     1      10.718   2.031   7.268  1.00  0.00     0.001 A 
ATOM     43  C   UNL     1       9.402   2.780   9.152  1.00  0.00     0.001 A 
ATOM     44  C   UNL     1      10.415   1.977   8.629  1.00  0.00     0.000 A 
ENDBRANCH  25  39
BRANCH  26  45
ATOM     45  C   UNL     1       4.441  10.474   1.219  1.00  0.00    -0.014 A 
ATOM     46  C   UNL     1       5.109  11.068   0.139  1.00  0.00     0.009 A 
ATOM     47  C   UNL     1       3.102  10.816   1.467  1.00  0.00     0.009 A 
ATOM     48  C   UNL     1       4.450  11.994  -0.672  1.00  0.00     0.001 A 
ATOM     49  C   UNL     1       2.441  11.726   0.641  1.00  0.00     0.001 A 
ATOM     50  C   UNL     1       3.116  12.318  -0.425  1.00  0.00     0.000 A 
ENDBRANCH  26  45
BRANCH  38  51
ATOM     51  C   UNL     1       9.377  10.819   6.144  1.00  0.00    -0.014 A 
ATOM     52  C   UNL     1       8.789  11.593   7.155  1.00  0.00     0.009 A 
ATOM     53  C   UNL     1      10.725  11.028   5.814  1.00  0.00     0.009 A 
ATOM     54  C   UNL     1       9.541  12.558   7.827  1.00  0.00     0.001 A 
ATOM     55  C   UNL     1      11.478  11.981   6.501  1.00  0.00     0.001 A 
ATOM     56  C   UNL     1      10.886  12.744   7.507  1.00  0.00     0.000 A 
ENDBRANCH  38  51
ENDBRANCH  12  13
ENDBRANCH   5   7
ENDBRANCH   2   3
ENDBRANCH   1   2
BRANCH   1  57
ATOM     57  C   UNL     1       4.428  -3.309  -0.996  1.00  0.00     0.118 C 
BRANCH  57  58
ATOM     58  N   UNL     1       4.894  -3.336  -2.377  1.00  0.00    -0.352 N 
ATOM     59  C   UNL     1       5.616  -4.312  -3.017  1.00  0.00     0.251 C 
ATOM     60  H   UNL     1       4.660  -2.551  -2.923  1.00  0.00     0.163 HD
ATOM     61  O   UNL     1       6.063  -4.138  -4.144  1.00  0.00    -0.269 OA
BRANCH  59  62
ATOM     62  C   UNL     1       5.882  -5.567  -2.296  1.00  0.00     0.041 A 
ATOM     63  C   UNL     1       4.827  -6.313  -1.776  1.00  0.00     0.036 A 
ATOM     64  C   UNL     1       7.204  -5.949  -2.082  1.00  0.00     0.020 A 
ATOM     65  C   UNL     1       5.110  -7.362  -0.912  1.00  0.00     0.065 A 
ATOM     66  C   UNL     1       7.487  -7.037  -1.244  1.00  0.00    -0.015 A 
ATOM     67  Cl  UNL     1       3.781  -8.194  -0.179  1.00  0.00    -0.082 Cl
ATOM     68  C   UNL     1       6.439  -7.704  -0.591  1.00  0.00     0.057 A 
ATOM     69  C   UNL     1       8.910  -7.490  -1.084  1.00  0.00     0.049 C 
ATOM     70  N   UNL     1       6.707  -8.730   0.300  1.00  0.00    -0.376 N 
ATOM     71  C   UNL     1       9.798  -6.558  -0.301  1.00  0.00    -0.023 C 
ATOM     72  C   UNL     1       9.092  -8.823  -0.323  1.00  0.00     0.031 C 
ATOM     73  C   UNL     1       8.049  -8.934   0.820  1.00  0.00     0.114 C 
ATOM     74  H   UNL     1       5.979  -9.329   0.585  1.00  0.00     0.161 HD
ATOM     75  C   UNL     1      10.722  -7.245   0.381  1.00  0.00    -0.030 C 
ATOM     76  C   UNL     1      10.555  -8.716   0.158  1.00  0.00     0.034 C 
BRANCH  73  77
ATOM     77  C   UNL     1       8.094 -10.277   1.538  1.00  0.00    -0.025 A 
ATOM     78  C   UNL     1       7.241 -11.355   1.225  1.00  0.00     0.007 A 
ATOM     79  C   UNL     1       9.028 -10.454   2.561  1.00  0.00     0.007 A 
ATOM     80  C   UNL     1       7.335 -12.575   1.906  1.00  0.00     0.022 A 
ATOM     81  C   UNL     1       9.155 -11.679   3.201  1.00  0.00     0.022 A 
ATOM     82  C   UNL     1       8.313 -12.738   2.887  1.00  0.00     0.082 A 
BRANCH  82  83
ATOM     83  S   UNL     1       8.472 -14.309   3.705  1.00  0.00     0.243 S 
ATOM     84  O   UNL     1       7.426 -14.349   4.708  1.00  0.00    -0.207 OA
ATOM     85  O   UNL     1       8.569 -15.304   2.662  1.00  0.00    -0.207 OA
BRANCH  83  86
ATOM     86  N   UNL     1       9.950 -14.246   4.494  1.00  0.00    -0.193 NA
ATOM     87  C   UNL     1      10.093 -13.737   5.874  1.00  0.00     0.131 C 
ATOM     88  C   UNL     1      11.204 -14.646   3.832  1.00  0.00     0.131 C 
ATOM     89  C   UNL     1      11.268 -12.751   6.000  1.00  0.00     0.177 C 
ATOM     90  C   UNL     1      12.260 -13.550   3.995  1.00  0.00     0.177 C 
ATOM     91  O   UNL     1      12.468 -13.228   5.377  1.00  0.00    -0.379 OA
ENDBRANCH  83  86
ENDBRANCH  82  83
ENDBRANCH  73  77
ENDBRANCH  59  62
ENDBRANCH  57  58
ENDBRANCH   1  57
TORSDOF 13
