REMARK SMILES Cc1cccc(C(=O)N2CCC[C@H]2c2nnc(SCC(=O)Nc3ccc(C(=O)NCCCNC(=O)c4ccc(-c5c6nc(c(-c7ccccc7)c7ccc([nH]7)c(-c7ccccc7)c7nc(c(-c8ccccc8)c8ccc5[nH]8)C=C7)C=C6)cc4)cc3)n2C)c1
REMARK SMILES IDX 23 1 24 2 25 3 26 4 84 5 85 6 22 7 20 8 21 9 19 11 18 12
REMARK SMILES IDX 17 13 14 14 15 15 86 16 16 17 87 18 13 19 9 20 10 21 11 22
REMARK SMILES IDX 12 23 7 24 8 25 6 26 1 27 2 28 3 29 88 30 4 31 5 32 27 33
REMARK SMILES IDX 28 34 29 35 30 37 31 38 32 39 33 40 34 41 35 43 36 44 37 45
REMARK SMILES IDX 83 46 38 47 82 48 39 49 40 50 41 51 76 52 42 53 81 54 75 55
REMARK SMILES IDX 77 56 43 57 80 58 74 59 73 60 44 62 66 63 51 64 65 65 52 66
REMARK SMILES IDX 55 67 64 68 78 69 53 70 54 71 63 73 79 74 56 75 45 76 46 77
REMARK SMILES IDX 50 78 47 79 49 80 48 81 67 82 68 83 72 84 69 85 71 86 70 87
REMARK SMILES IDX 57 88 58 89 62 90 59 91 61 92 60 93
REMARK H PARENT 22 10 29 36 33 42 77 61 55 72
REMARK Flexibility Score: inf
ROOT
ATOM      1  C   UNL     1      -7.249   3.133   3.230  1.00  0.00     0.041 A 
ATOM      2  C   UNL     1      -7.329   4.160   2.305  1.00  0.00     0.027 A 
ATOM      3  C   UNL     1      -8.564   4.599   1.850  1.00  0.00     0.016 A 
ATOM      4  C   UNL     1      -9.749   4.046   2.321  1.00  0.00     0.039 A 
ATOM      5  C   UNL     1      -9.654   2.922   3.160  1.00  0.00     0.016 A 
ATOM      6  C   UNL     1      -8.404   2.448   3.595  1.00  0.00     0.027 A 
ENDROOT
BRANCH   1   7
ATOM      7  N   UNL     1      -6.007   2.784   3.765  1.00  0.00    -0.325 N 
ATOM      8  C   UNL     1      -5.049   3.657   4.231  1.00  0.00     0.234 C 
ATOM      9  O   UNL     1      -3.911   3.242   4.465  1.00  0.00    -0.274 OA
ATOM     10  H   UNL     1      -5.796   1.824   3.813  1.00  0.00     0.169 HD
BRANCH   8  11
ATOM     11  C   UNL     1      -5.481   5.042   4.697  1.00  0.00     0.178 C 
BRANCH  11  12
ATOM     12  S   UNL     1      -5.063   6.497   3.726  1.00  0.00    -0.076 SA
BRANCH  12  13
ATOM     13  C   UNL     1      -4.057   5.992   2.426  1.00  0.00     0.191 A 
ATOM     14  C   UNL     1      -2.315   5.401   1.247  1.00  0.00     0.156 A 
ATOM     15  N   UNL     1      -3.261   5.791   0.412  1.00  0.00    -0.132 NA
ATOM     16  N   UNL     1      -2.771   5.557   2.539  1.00  0.00    -0.307 N 
ATOM     17  N   UNL     1      -4.354   6.168   1.158  1.00  0.00    -0.123 NA
ATOM     18  C   UNL     1      -1.986   5.345   3.727  1.00  0.00     0.154 C 
BRANCH  14  19
ATOM     19  C   UNL     1      -0.965   4.867   0.916  1.00  0.00     0.154 C 
ATOM     20  N   UNL     1      -1.002   3.734   0.002  1.00  0.00    -0.328 N 
ATOM     21  C   UNL     1      -0.205   4.005  -1.187  1.00  0.00     0.120 C 
ATOM     22  C   UNL     1       0.794   5.044  -0.701  1.00  0.00     0.024 C 
ATOM     23  C   UNL     1      -0.060   5.899   0.234  1.00  0.00     0.035 C 
BRANCH  20  24
ATOM     24  C   UNL     1      -1.550   2.538   0.430  1.00  0.00     0.254 C 
ATOM     25  O   UNL     1      -2.443   2.470   1.272  1.00  0.00    -0.269 OA
BRANCH  24  26
ATOM     26  C   UNL     1      -0.921   1.263   0.019  1.00  0.00     0.040 A 
ATOM     27  C   UNL     1       2.568  -0.254   0.002  1.00  0.00     0.044 C 
ATOM     28  C   UNL     1       1.079  -0.116  -0.098  1.00  0.00    -0.050 A 
ATOM     29  C   UNL     1       0.269  -1.239  -0.301  1.00  0.00     0.003 A 
ATOM     30  C   UNL     1       0.472   1.131   0.083  1.00  0.00     0.017 A 
ATOM     31  C   UNL     1      -1.123  -1.115  -0.343  1.00  0.00     0.001 A 
ATOM     32  C   UNL     1      -1.720   0.135  -0.182  1.00  0.00     0.014 A 
ENDBRANCH  24  26
ENDBRANCH  20  24
ENDBRANCH  14  19
ENDBRANCH  12  13
ENDBRANCH  11  12
ENDBRANCH   8  11
ENDBRANCH   1   7
BRANCH   4  33
ATOM     33  C   UNL     1     -11.102   4.539   1.923  1.00  0.00     0.251 C 
ATOM     34  O   UNL     1     -12.049   3.753   1.962  1.00  0.00    -0.269 OA
ATOM     35  N   UNL     1     -11.354   5.841   1.543  1.00  0.00    -0.352 N 
ATOM     36  H   UNL     1     -12.265   5.990   1.201  1.00  0.00     0.163 HD
BRANCH  35  37
ATOM     37  C   UNL     1     -10.518   7.037   1.557  1.00  0.00     0.118 C 
BRANCH  37  38
ATOM     38  C   UNL     1      -9.749   7.228   0.247  1.00  0.00     0.042 C 
BRANCH  38  39
ATOM     39  C   UNL     1     -10.426   8.130  -0.766  1.00  0.00     0.118 C 
BRANCH  39  40
ATOM     40  N   UNL     1      -9.751   9.411  -0.973  1.00  0.00    -0.352 N 
ATOM     41  C   UNL     1     -10.107  10.418  -1.858  1.00  0.00     0.251 C 
ATOM     42  H   UNL     1      -8.953   9.578  -0.421  1.00  0.00     0.163 HD
ATOM     43  O   UNL     1      -9.513  11.481  -1.899  1.00  0.00    -0.269 OA
BRANCH  41  44
ATOM     44  C   UNL     1     -11.329  10.203  -2.667  1.00  0.00     0.039 A 
ATOM     45  C   UNL     1     -12.420  11.031  -2.396  1.00  0.00     0.014 A 
ATOM     46  C   UNL     1     -11.483   9.007  -3.363  1.00  0.00     0.014 A 
ATOM     47  C   UNL     1     -13.701  10.524  -2.575  1.00  0.00     0.010 A 
ATOM     48  C   UNL     1     -12.751   8.462  -3.439  1.00  0.00     0.010 A 
ATOM     49  C   UNL     1     -13.847   9.191  -2.963  1.00  0.00    -0.014 A 
BRANCH  49  50
ATOM     50  C   UNL     1     -15.092   8.457  -2.763  1.00  0.00     0.031 A 
ATOM     51  C   UNL     1     -15.988   8.205  -3.904  1.00  0.00     0.074 A 
ATOM     52  C   UNL     1     -15.453   8.033  -1.530  1.00  0.00     0.049 A 
ATOM     53  N   UNL     1     -17.274   8.115  -3.817  1.00  0.00    -0.248 NA
ATOM     54  C   UNL     1     -15.490   8.125  -5.271  1.00  0.00     0.031 C 
ATOM     55  C   UNL     1     -16.559   7.139  -1.195  1.00  0.00     0.029 A 
ATOM     56  N   UNL     1     -15.036   8.530  -0.293  1.00  0.00    -0.354 N 
ATOM     57  C   UNL     1     -17.731   7.663  -5.033  1.00  0.00     0.074 A 
ATOM     58  C   UNL     1     -16.606   7.806  -5.929  1.00  0.00     0.031 C 
ATOM     59  C   UNL     1     -16.939   7.385   0.069  1.00  0.00     0.029 A 
ATOM     60  C   UNL     1     -16.166   8.521   0.541  1.00  0.00     0.049 A 
ATOM     61  H   UNL     1     -14.128   8.828  -0.054  1.00  0.00     0.167 HD
ATOM     62  C   UNL     1     -18.955   7.068  -5.116  1.00  0.00     0.031 A 
ATOM     63  C   UNL     1     -16.670   9.631   1.152  1.00  0.00     0.031 A 
ATOM     64  C   UNL     1     -19.697   7.161  -3.858  1.00  0.00     0.049 A 
ATOM     65  C   UNL     1     -18.121   9.897   0.812  1.00  0.00     0.074 A 
ATOM     66  C   UNL     1     -19.952   6.257  -2.839  1.00  0.00     0.029 A 
ATOM     67  N   UNL     1     -20.070   8.410  -3.375  1.00  0.00    -0.354 N 
ATOM     68  N   UNL     1     -18.762   9.308  -0.157  1.00  0.00    -0.248 NA
ATOM     69  C   UNL     1     -18.930  10.922   1.472  1.00  0.00     0.031 C 
ATOM     70  C   UNL     1     -20.415   6.984  -1.711  1.00  0.00     0.029 A 
ATOM     71  C   UNL     1     -20.464   8.324  -2.053  1.00  0.00     0.049 A 
ATOM     72  H   UNL     1     -20.056   9.242  -3.902  1.00  0.00     0.167 HD
ATOM     73  C   UNL     1     -19.999   9.880  -0.302  1.00  0.00     0.074 A 
ATOM     74  C   UNL     1     -20.070  10.863   0.763  1.00  0.00     0.031 C 
ATOM     75  C   UNL     1     -20.840   9.525  -1.317  1.00  0.00     0.031 A 
BRANCH  62  76
ATOM     76  C   UNL     1     -19.346   6.133  -6.244  1.00  0.00    -0.014 A 
ATOM     77  C   UNL     1     -20.322   5.143  -6.021  1.00  0.00     0.009 A 
ATOM     78  C   UNL     1     -18.745   6.112  -7.515  1.00  0.00     0.009 A 
ATOM     79  C   UNL     1     -20.600   4.141  -6.962  1.00  0.00     0.001 A 
ATOM     80  C   UNL     1     -18.990   5.096  -8.449  1.00  0.00     0.001 A 
ATOM     81  C   UNL     1     -19.910   4.100  -8.166  1.00  0.00     0.000 A 
ENDBRANCH  62  76
BRANCH  63  82
ATOM     82  C   UNL     1     -15.669  10.704   1.393  1.00  0.00    -0.014 A 
ATOM     83  C   UNL     1     -14.628  10.453   2.308  1.00  0.00     0.009 A 
ATOM     84  C   UNL     1     -15.525  11.758   0.480  1.00  0.00     0.009 A 
ATOM     85  C   UNL     1     -13.425  11.158   2.228  1.00  0.00     0.001 A 
ATOM     86  C   UNL     1     -14.322  12.470   0.414  1.00  0.00     0.001 A 
ATOM     87  C   UNL     1     -13.261  12.145   1.260  1.00  0.00     0.000 A 
ENDBRANCH  63  82
BRANCH  75  88
ATOM     88  C   UNL     1     -22.114  10.238  -1.692  1.00  0.00    -0.014 A 
ATOM     89  C   UNL     1     -22.375  11.588  -1.418  1.00  0.00     0.009 A 
ATOM     90  C   UNL     1     -23.068   9.557  -2.482  1.00  0.00     0.009 A 
ATOM     91  C   UNL     1     -23.552  12.209  -1.861  1.00  0.00     0.001 A 
ATOM     92  C   UNL     1     -24.220  10.185  -2.964  1.00  0.00     0.001 A 
ATOM     93  C   UNL     1     -24.469  11.511  -2.640  1.00  0.00     0.000 A 
ENDBRANCH  75  88
ENDBRANCH  49  50
ENDBRANCH  41  44
ENDBRANCH  39  40
ENDBRANCH  38  39
ENDBRANCH  37  38
ENDBRANCH  35  37
ENDBRANCH   4  33
TORSDOF 17
