REMARK SMILES C[C@H](C(=O)NCCCNC(=O)c1ccc(-c2c3nc(c(-c4ccccc4)c4ccc([nH]4)c(-c4ccccc4)c4nc(c(-c5ccccc5)c5ccc2[nH]5)C=C4)C=C3)cc1)[C@H](C)[N@@H+]1CC[C@H]([NH+]2CCCCC2)C1
REMARK SMILES IDX 6 1 5 2 3 3 4 4 2 6 1 7 60 8 61 9 62 10 63 11 72 12 64 14
REMARK SMILES IDX 65 15 66 16 67 17 71 18 68 20 70 21 69 22 7 23 8 24 9 25
REMARK SMILES IDX 10 26 11 28 12 29 13 30 59 31 14 32 58 33 15 34 16 35 17 36
REMARK SMILES IDX 52 37 18 38 57 39 51 40 53 41 19 42 56 43 50 44 49 45 20 47
REMARK SMILES IDX 42 48 27 49 41 50 28 51 31 52 40 53 54 54 29 55 30 56 39 58
REMARK SMILES IDX 55 59 32 60 21 61 22 62 26 63 23 64 25 65 24 66 43 67 44 68
REMARK SMILES IDX 48 69 45 70 47 71 46 72 33 73 34 74 38 75 35 76 37 77 36 78
REMARK H PARENT 5 5 62 13 66 19 9 27 53 46 31 57
REMARK Flexibility Score: inf
ROOT
ATOM      1  C   UNL     1      -2.595  -1.904  -3.300  1.00  0.00     0.117 C 
ENDROOT
BRANCH   1   2
ATOM      2  N   UNL     1      -1.585  -2.387  -2.383  1.00  0.00    -0.356 N 
ATOM      3  C   UNL     1      -0.951  -1.655  -1.428  1.00  0.00     0.228 C 
ATOM      4  O   UNL     1       0.278  -1.603  -1.524  1.00  0.00    -0.275 OA
ATOM      5  H   UNL     1      -1.333  -3.336  -2.458  1.00  0.00     0.163 HD
BRANCH   3   6
ATOM      6  C   UNL     1      -1.723  -0.980  -0.284  1.00  0.00     0.133 C 
ATOM      7  C   UNL     1      -3.236  -1.224  -0.242  1.00  0.00     0.024 C 
BRANCH   6   8
ATOM      8  C   UNL     1      -1.070  -1.264   1.130  1.00  0.00     0.193 C 
ATOM      9  C   UNL     1       0.431  -0.906   1.157  1.00  0.00     0.076 C 
BRANCH   8  10
ATOM     10  N   UNL     1      -1.481  -2.489   1.867  1.00  0.00    -0.327 N 
ATOM     11  C   UNL     1      -0.672  -2.861   3.033  1.00  0.00     0.269 C 
ATOM     12  C   UNL     1      -1.682  -3.741   1.125  1.00  0.00     0.328 C 
ATOM     13  H   UNL     1      -2.391  -2.117   2.137  1.00  0.00     0.348 HD
ATOM     14  C   UNL     1       0.279  -3.941   2.533  1.00  0.00     0.132 C 
ATOM     15  C   UNL     1      -0.583  -4.747   1.556  1.00  0.00     0.245 C 
BRANCH  15  16
ATOM     16  N   UNL     1       0.101  -5.483   0.468  1.00  0.00    -0.328 N 
ATOM     17  C   UNL     1       0.697  -4.599  -0.540  1.00  0.00     0.262 C 
ATOM     18  C   UNL     1       1.083  -6.447   0.981  1.00  0.00     0.262 C 
ATOM     19  H   UNL     1      -0.631  -6.012  -0.007  1.00  0.00     0.348 HD
ATOM     20  C   UNL     1       1.358  -5.345  -1.695  1.00  0.00     0.062 C 
ATOM     21  C   UNL     1       1.733  -7.251  -0.151  1.00  0.00     0.062 C 
ATOM     22  C   UNL     1       2.386  -6.333  -1.177  1.00  0.00     0.012 C 
ENDBRANCH  15  16
ENDBRANCH   8  10
ENDBRANCH   6   8
ENDBRANCH   3   6
ENDBRANCH   1   2
BRANCH   1  23
ATOM     23  C   UNL     1      -1.962  -1.451  -4.615  1.00  0.00     0.042 C 
BRANCH  23  24
ATOM     24  C   UNL     1      -1.214  -2.548  -5.368  1.00  0.00     0.118 C 
BRANCH  24  25
ATOM     25  N   UNL     1      -2.087  -3.623  -5.817  1.00  0.00    -0.352 N 
ATOM     26  C   UNL     1      -2.467  -3.974  -7.091  1.00  0.00     0.251 C 
ATOM     27  H   UNL     1      -2.462  -4.184  -5.100  1.00  0.00     0.163 HD
ATOM     28  O   UNL     1      -3.371  -4.782  -7.263  1.00  0.00    -0.269 OA
BRANCH  26  29
ATOM     29  C   UNL     1      -1.801  -3.355  -8.257  1.00  0.00     0.039 A 
ATOM     30  C   UNL     1      -2.582  -2.908  -9.325  1.00  0.00     0.014 A 
ATOM     31  C   UNL     1      -0.411  -3.218  -8.299  1.00  0.00     0.014 A 
ATOM     32  C   UNL     1      -1.974  -2.256 -10.400  1.00  0.00     0.010 A 
ATOM     33  C   UNL     1       0.181  -2.488  -9.323  1.00  0.00     0.010 A 
ATOM     34  C   UNL     1      -0.592  -2.004 -10.389  1.00  0.00    -0.014 A 
BRANCH  34  35
ATOM     35  C   UNL     1       0.063  -1.239 -11.481  1.00  0.00     0.031 A 
ATOM     36  C   UNL     1       1.126  -1.887 -12.327  1.00  0.00     0.074 A 
ATOM     37  C   UNL     1      -0.250   0.058 -11.670  1.00  0.00     0.049 A 
ATOM     38  N   UNL     1       1.850  -1.365 -13.285  1.00  0.00    -0.248 NA
ATOM     39  C   UNL     1       1.433  -3.298 -12.043  1.00  0.00     0.031 C 
ATOM     40  C   UNL     1      -1.233   0.816 -10.894  1.00  0.00     0.029 A 
ATOM     41  N   UNL     1       0.232   0.971 -12.575  1.00  0.00    -0.354 N 
ATOM     42  C   UNL     1       2.707  -2.377 -13.702  1.00  0.00     0.074 A 
ATOM     43  C   UNL     1       2.453  -3.522 -12.857  1.00  0.00     0.031 C 
ATOM     44  C   UNL     1      -1.305   2.067 -11.377  1.00  0.00     0.029 A 
ATOM     45  C   UNL     1      -0.341   2.214 -12.462  1.00  0.00     0.049 A 
ATOM     46  H   UNL     1       0.923   0.754 -13.242  1.00  0.00     0.167 HD
ATOM     47  C   UNL     1       3.611  -2.362 -14.711  1.00  0.00     0.031 A 
ATOM     48  C   UNL     1      -0.111   3.350 -13.148  1.00  0.00     0.031 A 
ATOM     49  C   UNL     1       3.861  -1.224 -15.554  1.00  0.00     0.049 A 
ATOM     50  C   UNL     1       0.917   3.349 -14.246  1.00  0.00     0.074 A 
ATOM     51  C   UNL     1       4.717  -1.127 -16.638  1.00  0.00     0.029 A 
ATOM     52  N   UNL     1       3.261   0.017 -15.404  1.00  0.00    -0.354 N 
ATOM     53  N   UNL     1       1.668   2.363 -14.675  1.00  0.00    -0.248 NA
ATOM     54  C   UNL     1       1.120   4.616 -14.961  1.00  0.00     0.031 C 
ATOM     55  C   UNL     1       4.681   0.191 -17.105  1.00  0.00     0.029 A 
ATOM     56  C   UNL     1       3.751   0.895 -16.356  1.00  0.00     0.049 A 
ATOM     57  H   UNL     1       2.587   0.240 -14.722  1.00  0.00     0.167 HD
ATOM     58  C   UNL     1       2.410   2.882 -15.728  1.00  0.00     0.074 A 
ATOM     59  C   UNL     1       2.005   4.264 -15.884  1.00  0.00     0.031 C 
ATOM     60  C   UNL     1       3.341   2.269 -16.498  1.00  0.00     0.031 A 
BRANCH  47  61
ATOM     61  C   UNL     1       4.405  -3.619 -14.947  1.00  0.00    -0.014 A 
ATOM     62  C   UNL     1       3.797  -4.788 -15.432  1.00  0.00     0.009 A 
ATOM     63  C   UNL     1       5.788  -3.626 -14.707  1.00  0.00     0.009 A 
ATOM     64  C   UNL     1       4.548  -5.948 -15.630  1.00  0.00     0.001 A 
ATOM     65  C   UNL     1       6.543  -4.777 -14.938  1.00  0.00     0.001 A 
ATOM     66  C   UNL     1       5.921  -5.940 -15.388  1.00  0.00     0.000 A 
ENDBRANCH  47  61
BRANCH  48  67
ATOM     67  C   UNL     1      -0.876   4.584 -12.826  1.00  0.00    -0.014 A 
ATOM     68  C   UNL     1      -1.819   5.095 -13.732  1.00  0.00     0.009 A 
ATOM     69  C   UNL     1      -0.664   5.261 -11.615  1.00  0.00     0.009 A 
ATOM     70  C   UNL     1      -2.512   6.273 -13.444  1.00  0.00     0.001 A 
ATOM     71  C   UNL     1      -1.382   6.421 -11.316  1.00  0.00     0.001 A 
ATOM     72  C   UNL     1      -2.297   6.932 -12.234  1.00  0.00     0.000 A 
ENDBRANCH  48  67
BRANCH  60  73
ATOM     73  C   UNL     1       3.961   3.077 -17.605  1.00  0.00    -0.014 A 
ATOM     74  C   UNL     1       4.857   4.123 -17.337  1.00  0.00     0.009 A 
ATOM     75  C   UNL     1       3.672   2.756 -18.941  1.00  0.00     0.009 A 
ATOM     76  C   UNL     1       5.423   4.854 -18.383  1.00  0.00     0.001 A 
ATOM     77  C   UNL     1       4.266   3.466 -19.986  1.00  0.00     0.001 A 
ATOM     78  C   UNL     1       5.132   4.521 -19.706  1.00  0.00     0.000 A 
ENDBRANCH  60  73
ENDBRANCH  34  35
ENDBRANCH  26  29
ENDBRANCH  24  25
ENDBRANCH  23  24
ENDBRANCH   1  23
TORSDOF 13
