REMARK SMILES O=C(C[C@@H](C(=O)NCCCNC(=O)c1ccc(-c2c3nc(c(-c4ccccc4)c4ccc([nH]4)c(-c4ccccc4)c4nc(c(-c5ccccc5)c5ccc2[nH]5)C=C4)C=C3)cc1)[NH+]1CCN(c2cccc(Cl)c2)CC1)c1ccc(F)cc1
REMARK SMILES IDX 8 1 7 2 5 3 6 4 4 6 3 7 2 8 1 9 75 10 76 11 81 12 77 13
REMARK SMILES IDX 80 14 78 15 79 16 62 17 63 18 74 19 64 21 73 22 65 23 66 24
REMARK SMILES IDX 67 25 72 26 68 27 70 28 69 29 71 30 9 31 10 32 11 33 12 34
REMARK SMILES IDX 13 36 14 37 15 38 61 39 16 40 60 41 17 42 18 43 19 44 54 45
REMARK SMILES IDX 20 46 59 47 53 48 55 49 21 50 58 51 52 52 51 53 22 55 44 56
REMARK SMILES IDX 29 57 43 58 30 59 33 60 42 61 56 62 31 63 32 64 41 66 57 67
REMARK SMILES IDX 34 68 23 69 24 70 28 71 25 72 27 73 26 74 45 75 46 76 50 77
REMARK SMILES IDX 47 78 49 79 48 80 35 81 36 82 40 83 37 84 39 85 38 86
REMARK H PARENT 7 5 62 20 11 35 55 54 33 65
REMARK Flexibility Score: inf
ROOT
ATOM      1  C   UNL     1       2.348  -1.577   2.149  1.00  0.00     0.118 C 
ENDROOT
BRANCH   1   2
ATOM      2  N   UNL     1       3.751  -1.288   1.914  1.00  0.00    -0.351 N 
ATOM      3  C   UNL     1       4.442  -0.141   1.661  1.00  0.00     0.278 C 
ATOM      4  O   UNL     1       5.664  -0.232   1.840  1.00  0.00    -0.268 OA
ATOM      5  H   UNL     1       4.323  -2.088   1.944  1.00  0.00     0.163 HD
BRANCH   3   6
ATOM      6  C   UNL     1       3.778   1.180   1.159  1.00  0.00     0.282 C 
BRANCH   6   7
ATOM      7  C   UNL     1       2.892   1.118  -0.086  1.00  0.00     0.156 C 
BRANCH   7   8
ATOM      8  C   UNL     1       2.566  -0.120  -0.900  1.00  0.00     0.169 C 
ATOM      9  O   UNL     1       1.373  -0.325  -1.162  1.00  0.00    -0.294 OA
BRANCH   8  10
ATOM     10  C   UNL     1       3.562  -1.050  -1.533  1.00  0.00     0.018 A 
ATOM     11  C   UNL     1       4.911  -1.157  -1.194  1.00  0.00     0.015 A 
ATOM     12  C   UNL     1       3.062  -1.952  -2.490  1.00  0.00     0.015 A 
ATOM     13  C   UNL     1       5.713  -2.186  -1.702  1.00  0.00     0.040 A 
ATOM     14  C   UNL     1       3.869  -2.955  -3.033  1.00  0.00     0.040 A 
ATOM     15  C   UNL     1       5.181  -3.085  -2.608  1.00  0.00     0.123 A 
ATOM     16  F   UNL     1       5.929  -4.100  -3.056  1.00  0.00    -0.207 F 
ENDBRANCH   8  10
ENDBRANCH   7   8
ENDBRANCH   6   7
BRANCH   6  17
ATOM     17  N   UNL     1       4.816   2.248   1.065  1.00  0.00    -0.321 N 
ATOM     18  C   UNL     1       5.663   2.349  -0.132  1.00  0.00     0.284 C 
ATOM     19  C   UNL     1       4.542   3.573   1.644  1.00  0.00     0.284 C 
ATOM     20  H   UNL     1       5.400   1.766   1.749  1.00  0.00     0.348 HD
ATOM     21  C   UNL     1       5.251   3.400  -1.186  1.00  0.00     0.178 C 
ATOM     22  C   UNL     1       4.189   4.724   0.658  1.00  0.00     0.178 C 
ATOM     23  N   UNL     1       5.021   4.685  -0.544  1.00  0.00    -0.360 N 
BRANCH  23  24
ATOM     24  C   UNL     1       5.577   5.792  -1.144  1.00  0.00     0.038 A 
ATOM     25  C   UNL     1       5.186   6.182  -2.434  1.00  0.00     0.026 A 
ATOM     26  C   UNL     1       6.667   6.439  -0.557  1.00  0.00     0.046 A 
ATOM     27  C   UNL     1       5.887   7.164  -3.138  1.00  0.00     0.004 A 
ATOM     28  C   UNL     1       7.382   7.404  -1.268  1.00  0.00     0.043 A 
ATOM     29  C   UNL     1       7.002   7.764  -2.559  1.00  0.00     0.020 A 
ATOM     30  Cl  UNL     1       8.787   8.112  -0.568  1.00  0.00    -0.084 Cl
ENDBRANCH  23  24
ENDBRANCH   6  17
ENDBRANCH   3   6
ENDBRANCH   1   2
BRANCH   1  31
ATOM     31  C   UNL     1       1.701  -2.626   1.223  1.00  0.00     0.042 C 
BRANCH  31  32
ATOM     32  C   UNL     1       2.579  -3.727   0.610  1.00  0.00     0.118 C 
BRANCH  32  33
ATOM     33  N   UNL     1       2.425  -5.015   1.264  1.00  0.00    -0.352 N 
ATOM     34  C   UNL     1       2.076  -6.238   0.737  1.00  0.00     0.251 C 
ATOM     35  H   UNL     1       2.596  -5.012   2.234  1.00  0.00     0.163 HD
ATOM     36  O   UNL     1       1.868  -7.181   1.496  1.00  0.00    -0.269 OA
BRANCH  34  37
ATOM     37  C   UNL     1       1.924  -6.453  -0.727  1.00  0.00     0.039 A 
ATOM     38  C   UNL     1       0.773  -7.102  -1.189  1.00  0.00     0.014 A 
ATOM     39  C   UNL     1       2.935  -6.133  -1.636  1.00  0.00     0.014 A 
ATOM     40  C   UNL     1       0.611  -7.379  -2.554  1.00  0.00     0.010 A 
ATOM     41  C   UNL     1       2.759  -6.390  -3.007  1.00  0.00     0.010 A 
ATOM     42  C   UNL     1       1.591  -7.005  -3.488  1.00  0.00    -0.014 A 
BRANCH  42  43
ATOM     43  C   UNL     1       1.382  -7.235  -4.951  1.00  0.00     0.031 A 
ATOM     44  C   UNL     1       2.243  -8.200  -5.729  1.00  0.00     0.074 A 
ATOM     45  C   UNL     1       0.422  -6.555  -5.612  1.00  0.00     0.049 A 
ATOM     46  N   UNL     1       2.192  -8.510  -7.003  1.00  0.00    -0.248 NA
ATOM     47  C   UNL     1       3.301  -8.897  -4.985  1.00  0.00     0.031 C 
ATOM     48  C   UNL     1      -0.482  -5.571  -5.016  1.00  0.00     0.029 A 
ATOM     49  N   UNL     1       0.046  -6.589  -6.936  1.00  0.00    -0.354 N 
ATOM     50  C   UNL     1       3.214  -9.428  -7.215  1.00  0.00     0.074 A 
ATOM     51  C   UNL     1       3.891  -9.597  -5.946  1.00  0.00     0.031 C 
ATOM     52  C   UNL     1      -1.320  -5.114  -5.962  1.00  0.00     0.029 A 
ATOM     53  C   UNL     1      -0.994  -5.742  -7.239  1.00  0.00     0.049 A 
ATOM     54  H   UNL     1       0.482  -7.166  -7.604  1.00  0.00     0.167 HD
ATOM     55  C   UNL     1       3.555 -10.084  -8.352  1.00  0.00     0.031 A 
ATOM     56  C   UNL     1      -1.617  -5.488  -8.407  1.00  0.00     0.031 A 
ATOM     57  C   UNL     1       2.893  -9.941  -9.624  1.00  0.00     0.049 A 
ATOM     58  C   UNL     1      -1.199  -6.203  -9.662  1.00  0.00     0.074 A 
ATOM     59  C   UNL     1       3.144 -10.620 -10.806  1.00  0.00     0.029 A 
ATOM     60  N   UNL     1       1.858  -9.060  -9.885  1.00  0.00    -0.354 N 
ATOM     61  N   UNL     1      -0.275  -7.117  -9.822  1.00  0.00    -0.248 NA
ATOM     62  C   UNL     1      -1.918  -5.853 -10.898  1.00  0.00     0.031 C 
ATOM     63  C   UNL     1       2.296 -10.113 -11.796  1.00  0.00     0.029 A 
ATOM     64  C   UNL     1       1.482  -9.155 -11.216  1.00  0.00     0.049 A 
ATOM     65  H   UNL     1       1.450  -8.455  -9.225  1.00  0.00     0.167 HD
ATOM     66  C   UNL     1      -0.321  -7.470 -11.166  1.00  0.00     0.074 A 
ATOM     67  C   UNL     1      -1.369  -6.681 -11.776  1.00  0.00     0.031 C 
ATOM     68  C   UNL     1       0.440  -8.373 -11.829  1.00  0.00     0.031 A 
BRANCH  55  69
ATOM     69  C   UNL     1       4.722 -11.031  -8.283  1.00  0.00    -0.014 A 
ATOM     70  C   UNL     1       4.612 -12.271  -7.634  1.00  0.00     0.009 A 
ATOM     71  C   UNL     1       5.923 -10.707  -8.933  1.00  0.00     0.009 A 
ATOM     72  C   UNL     1       5.694 -13.153  -7.609  1.00  0.00     0.001 A 
ATOM     73  C   UNL     1       6.995 -11.602  -8.928  1.00  0.00     0.001 A 
ATOM     74  C   UNL     1       6.883 -12.820  -8.259  1.00  0.00     0.000 A 
ENDBRANCH  55  69
BRANCH  56  75
ATOM     75  C   UNL     1      -2.725  -4.498  -8.454  1.00  0.00    -0.014 A 
ATOM     76  C   UNL     1      -4.051  -4.920  -8.636  1.00  0.00     0.009 A 
ATOM     77  C   UNL     1      -2.458  -3.125  -8.339  1.00  0.00     0.009 A 
ATOM     78  C   UNL     1      -5.085  -3.986  -8.724  1.00  0.00     0.001 A 
ATOM     79  C   UNL     1      -3.498  -2.195  -8.400  1.00  0.00     0.001 A 
ATOM     80  C   UNL     1      -4.808  -2.625  -8.602  1.00  0.00     0.000 A 
ENDBRANCH  56  75
BRANCH  68  81
ATOM     81  C   UNL     1       0.154  -8.589 -13.289  1.00  0.00    -0.014 A 
ATOM     82  C   UNL     1       0.526  -7.640 -14.253  1.00  0.00     0.009 A 
ATOM     83  C   UNL     1      -0.456  -9.782 -13.710  1.00  0.00     0.009 A 
ATOM     84  C   UNL     1       0.270  -7.870 -15.607  1.00  0.00     0.001 A 
ATOM     85  C   UNL     1      -0.688 -10.020 -15.066  1.00  0.00     0.001 A 
ATOM     86  C   UNL     1      -0.331  -9.062 -16.013  1.00  0.00     0.000 A 
ENDBRANCH  68  81
ENDBRANCH  42  43
ENDBRANCH  34  37
ENDBRANCH  32  33
ENDBRANCH  31  32
ENDBRANCH   1  31
TORSDOF 15
