REMARK SMILES C#Cc1cccc(N(C)S(=O)(=O)c2cc(F)c(F)c(C(=O)NCCCNC(=O)c3ccc(-c4c5nc(c(-c6ccccc6)c6ccc([nH]6)c(-c6ccccc6)c6nc(c(-c7ccccc7)c7ccc4[nH]7)C=C6)C=C5)cc3)c2)c1
REMARK SMILES IDX 23 1 22 2 20 3 21 4 19 6 13 7 14 8 77 9 15 10 16 11 17 12
REMARK SMILES IDX 18 13 10 14 11 15 12 16 8 17 9 18 7 19 3 20 4 21 78 22 5 23
REMARK SMILES IDX 6 24 2 25 1 26 24 27 25 28 26 29 27 30 28 32 29 33 30 34
REMARK SMILES IDX 76 35 31 36 75 37 32 38 33 39 34 40 69 41 35 42 74 43 68 44
REMARK SMILES IDX 70 45 36 46 73 47 67 48 66 49 37 51 59 52 44 53 58 54 45 55
REMARK SMILES IDX 48 56 57 57 71 58 46 59 47 60 56 62 72 63 49 64 38 65 39 66
REMARK SMILES IDX 43 67 40 68 42 69 41 70 60 71 61 72 65 73 62 74 64 75 63 76
REMARK SMILES IDX 50 77 51 78 55 79 52 80 54 81 53 82
REMARK H PARENT 22 5 26 31 70 50 48 61
REMARK Flexibility Score: inf
ROOT
ATOM      1  C   UNL     1       6.538  -3.479  -0.242  1.00  0.00     0.118 C 
ENDROOT
BRANCH   1   2
ATOM      2  N   UNL     1       6.922  -4.868  -0.190  1.00  0.00    -0.352 N 
ATOM      3  C   UNL     1       6.249  -6.061  -0.322  1.00  0.00     0.254 C 
ATOM      4  O   UNL     1       6.968  -7.056  -0.401  1.00  0.00    -0.269 OA
ATOM      5  H   UNL     1       7.884  -4.991  -0.022  1.00  0.00     0.163 HD
BRANCH   3   6
ATOM      6  C   UNL     1       4.758  -6.218  -0.282  1.00  0.00     0.079 A 
ATOM      7  C   UNL     1       2.472  -5.326  -0.216  1.00  0.00     0.091 A 
ATOM      8  C   UNL     1       1.997  -6.570   0.205  1.00  0.00     0.064 A 
ATOM      9  C   UNL     1       3.821  -5.218  -0.596  1.00  0.00     0.039 A 
ATOM     10  C   UNL     1       2.885  -7.637   0.311  1.00  0.00     0.161 A 
ATOM     11  F   UNL     1       2.411  -8.852   0.619  1.00  0.00    -0.204 F 
ATOM     12  C   UNL     1       4.253  -7.459   0.123  1.00  0.00     0.171 A 
ATOM     13  F   UNL     1       5.057  -8.512   0.336  1.00  0.00    -0.203 F 
BRANCH   7  14
ATOM     14  S   UNL     1       1.288  -3.958  -0.363  1.00  0.00     0.264 S 
ATOM     15  O   UNL     1       0.205  -4.307   0.538  1.00  0.00    -0.201 OA
ATOM     16  O   UNL     1       1.062  -3.814  -1.784  1.00  0.00    -0.201 OA
BRANCH  14  17
ATOM     17  N   UNL     1       1.956  -2.476   0.247  1.00  0.00    -0.269 N 
ATOM     18  C   UNL     1       3.401  -2.330   0.201  1.00  0.00     0.164 C 
BRANCH  17  19
ATOM     19  C   UNL     1       1.192  -1.229   0.019  1.00  0.00     0.053 A 
ATOM     20  C   UNL     1      -0.911   0.010  -0.021  1.00  0.00     0.026 A 
ATOM     21  C   UNL     1      -0.235   1.229  -0.062  1.00  0.00     0.017 A 
ATOM     22  C   UNL     1      -0.205  -1.206   0.032  1.00  0.00     0.044 A 
ATOM     23  C   UNL     1       1.149   1.238  -0.071  1.00  0.00     0.003 A 
ATOM     24  C   UNL     1       1.846   0.026  -0.035  1.00  0.00     0.027 A 
BRANCH  20  25
ATOM     25  C   UNL     1      -2.338   0.009  -0.003  1.00  0.00    -0.070 C 
ATOM     26  C   UNL     1      -3.541   0.023   0.018  1.00  0.00     0.010 C 
ENDBRANCH  20  25
ENDBRANCH  17  19
ENDBRANCH  14  17
ENDBRANCH   7  14
ENDBRANCH   3   6
ENDBRANCH   1   2
BRANCH   1  27
ATOM     27  C   UNL     1       6.667  -2.736   1.079  1.00  0.00     0.042 C 
BRANCH  27  28
ATOM     28  C   UNL     1       7.986  -1.998   1.219  1.00  0.00     0.118 C 
BRANCH  28  29
ATOM     29  N   UNL     1       8.174  -1.010   0.157  1.00  0.00    -0.352 N 
ATOM     30  C   UNL     1       8.269   0.357   0.182  1.00  0.00     0.251 C 
ATOM     31  H   UNL     1       8.245  -1.399  -0.744  1.00  0.00     0.163 HD
ATOM     32  O   UNL     1       8.176   0.978  -0.874  1.00  0.00    -0.269 OA
BRANCH  30  33
ATOM     33  C   UNL     1       8.469   1.086   1.451  1.00  0.00     0.039 A 
ATOM     34  C   UNL     1       7.967   2.385   1.571  1.00  0.00     0.014 A 
ATOM     35  C   UNL     1       9.183   0.520   2.507  1.00  0.00     0.014 A 
ATOM     36  C   UNL     1       8.137   3.083   2.767  1.00  0.00     0.010 A 
ATOM     37  C   UNL     1       9.226   1.156   3.739  1.00  0.00     0.010 A 
ATOM     38  C   UNL     1       8.734   2.457   3.874  1.00  0.00    -0.014 A 
BRANCH  38  39
ATOM     39  C   UNL     1       8.880   3.165   5.168  1.00  0.00     0.031 A 
ATOM     40  C   UNL     1      10.246   3.396   5.758  1.00  0.00     0.074 A 
ATOM     41  C   UNL     1       7.777   3.568   5.828  1.00  0.00     0.049 A 
ATOM     42  N   UNL     1      10.570   4.002   6.872  1.00  0.00    -0.248 NA
ATOM     43  C   UNL     1      11.399   2.852   5.018  1.00  0.00     0.031 C 
ATOM     44  C   UNL     1       6.397   3.356   5.384  1.00  0.00     0.029 A 
ATOM     45  N   UNL     1       7.644   4.253   7.008  1.00  0.00    -0.354 N 
ATOM     46  C   UNL     1      11.953   3.902   6.967  1.00  0.00     0.074 A 
ATOM     47  C   UNL     1      12.401   3.115   5.842  1.00  0.00     0.031 C 
ATOM     48  C   UNL     1       5.561   3.950   6.249  1.00  0.00     0.029 A 
ATOM     49  C   UNL     1       6.340   4.535   7.334  1.00  0.00     0.049 A 
ATOM     50  H   UNL     1       8.409   4.518   7.567  1.00  0.00     0.167 HD
ATOM     51  C   UNL     1      12.782   4.442   7.891  1.00  0.00     0.031 A 
ATOM     52  C   UNL     1       5.829   5.191   8.392  1.00  0.00     0.031 A 
ATOM     53  C   UNL     1      12.333   5.223   9.012  1.00  0.00     0.049 A 
ATOM     54  C   UNL     1       6.770   5.754   9.419  1.00  0.00     0.074 A 
ATOM     55  C   UNL     1      13.091   5.856   9.980  1.00  0.00     0.029 A 
ATOM     56  N   UNL     1      11.003   5.469   9.319  1.00  0.00    -0.354 N 
ATOM     57  N   UNL     1       8.080   5.721   9.451  1.00  0.00    -0.248 NA
ATOM     58  C   UNL     1       6.156   6.464  10.549  1.00  0.00     0.031 C 
ATOM     59  C   UNL     1      12.218   6.420  10.916  1.00  0.00     0.029 A 
ATOM     60  C   UNL     1      10.918   6.215  10.483  1.00  0.00     0.049 A 
ATOM     61  H   UNL     1      10.234   5.160   8.788  1.00  0.00     0.167 HD
ATOM     62  C   UNL     1       8.449   6.430  10.587  1.00  0.00     0.074 A 
ATOM     63  C   UNL     1       7.224   6.907  11.196  1.00  0.00     0.031 C 
ATOM     64  C   UNL     1       9.689   6.668  11.084  1.00  0.00     0.031 A 
BRANCH  51  65
ATOM     65  C   UNL     1      14.258   4.190   7.731  1.00  0.00    -0.014 A 
ATOM     66  C   UNL     1      14.982   4.725   6.651  1.00  0.00     0.009 A 
ATOM     67  C   UNL     1      14.944   3.429   8.690  1.00  0.00     0.009 A 
ATOM     68  C   UNL     1      16.347   4.466   6.514  1.00  0.00     0.001 A 
ATOM     69  C   UNL     1      16.316   3.204   8.572  1.00  0.00     0.001 A 
ATOM     70  C   UNL     1      17.015   3.712   7.478  1.00  0.00     0.000 A 
ENDBRANCH  51  65
BRANCH  52  71
ATOM     71  C   UNL     1       4.357   5.361   8.528  1.00  0.00    -0.014 A 
ATOM     72  C   UNL     1       3.772   6.635   8.448  1.00  0.00     0.009 A 
ATOM     73  C   UNL     1       3.530   4.250   8.758  1.00  0.00     0.009 A 
ATOM     74  C   UNL     1       2.397   6.795   8.636  1.00  0.00     0.001 A 
ATOM     75  C   UNL     1       2.151   4.410   8.906  1.00  0.00     0.001 A 
ATOM     76  C   UNL     1       1.588   5.683   8.860  1.00  0.00     0.000 A 
ENDBRANCH  52  71
BRANCH  64  77
ATOM     77  C   UNL     1       9.775   7.515  12.326  1.00  0.00    -0.014 A 
ATOM     78  C   UNL     1       9.278   7.067  13.560  1.00  0.00     0.009 A 
ATOM     79  C   UNL     1      10.371   8.784  12.257  1.00  0.00     0.009 A 
ATOM     80  C   UNL     1       9.318   7.898  14.682  1.00  0.00     0.001 A 
ATOM     81  C   UNL     1      10.450   9.595  13.389  1.00  0.00     0.001 A 
ATOM     82  C   UNL     1       9.907   9.159  14.596  1.00  0.00     0.000 A 
ENDBRANCH  64  77
ENDBRANCH  38  39
ENDBRANCH  30  33
ENDBRANCH  28  29
ENDBRANCH  27  28
ENDBRANCH   1  27
TORSDOF 14
