REMARK SMILES O=C(NCCCNC(=O)[C@H]1CCC[C@@H]1C[NH2+][C@@H]1CCOC2(CCC2)C1)c1ccc(-c2c3nc(c(-c4ccccc4)c4ccc([nH]4)c(-c4ccccc4)c4nc(c(-c5ccccc5)c5ccc2[nH]5)C=C4)C=C3)cc1
REMARK SMILES IDX 5 1 4 2 3 3 1 4 2 5 26 7 27 8 73 9 28 10 72 11 29 12 30 13
REMARK SMILES IDX 31 14 66 15 32 16 71 17 65 18 67 19 33 20 70 21 64 22 63 23
REMARK SMILES IDX 34 25 56 26 41 27 55 28 42 29 45 30 54 31 68 32 43 33 44 34
REMARK SMILES IDX 53 36 69 37 46 38 35 39 36 40 40 41 37 42 39 43 38 44 57 45
REMARK SMILES IDX 58 46 62 47 59 48 61 49 60 50 47 51 48 52 52 53 49 54 51 55
REMARK SMILES IDX 50 56 6 57 7 58 8 59 9 61 10 62 11 63 14 64 12 65 13 66
REMARK SMILES IDX 15 67 16 68 17 71 18 72 25 73 19 74 21 75 20 76 22 77 24 78
REMARK SMILES IDX 23 79
REMARK H PARENT 3 6 67 24 45 35 7 60 16 69 16 70
REMARK Flexibility Score: inf
ROOT
ATOM      1  C   UNL     1       7.277  -1.590  -1.841  1.00  0.00     0.042 C 
ENDROOT
BRANCH   1   2
ATOM      2  C   UNL     1       7.131  -1.059  -0.421  1.00  0.00     0.118 C 
BRANCH   2   3
ATOM      3  N   UNL     1       8.415  -0.861   0.241  1.00  0.00    -0.352 N 
ATOM      4  O   UNL     1      10.198   0.260   1.034  1.00  0.00    -0.269 OA
ATOM      5  C   UNL     1       9.027   0.290   0.678  1.00  0.00     0.251 C 
ATOM      6  H   UNL     1       8.927  -1.686   0.401  1.00  0.00     0.163 HD
BRANCH   5   7
ATOM      7  C   UNL     1       8.281   1.566   0.696  1.00  0.00     0.039 A 
ATOM      8  C   UNL     1       6.952   1.610   1.116  1.00  0.00     0.014 A 
ATOM      9  C   UNL     1       8.929   2.740   0.300  1.00  0.00     0.014 A 
ATOM     10  C   UNL     1       6.220   2.780   0.963  1.00  0.00     0.010 A 
ATOM     11  C   UNL     1       8.218   3.943   0.249  1.00  0.00     0.010 A 
ATOM     12  C   UNL     1       6.844   3.963   0.534  1.00  0.00    -0.014 A 
BRANCH  12  13
ATOM     13  C   UNL     1       6.035   5.203   0.423  1.00  0.00     0.031 A 
ATOM     14  C   UNL     1       5.822   5.876  -0.906  1.00  0.00     0.074 A 
ATOM     15  C   UNL     1       5.439   5.690   1.528  1.00  0.00     0.049 A 
ATOM     16  N   UNL     1       5.080   6.919  -1.189  1.00  0.00    -0.248 NA
ATOM     17  C   UNL     1       6.535   5.318  -2.065  1.00  0.00     0.031 C 
ATOM     18  C   UNL     1       5.573   5.129   2.876  1.00  0.00     0.029 A 
ATOM     19  N   UNL     1       4.573   6.740   1.691  1.00  0.00    -0.354 N 
ATOM     20  C   UNL     1       5.259   7.157  -2.546  1.00  0.00     0.074 A 
ATOM     21  C   UNL     1       6.197   6.166  -3.027  1.00  0.00     0.031 C 
ATOM     22  C   UNL     1       4.763   5.795   3.712  1.00  0.00     0.029 A 
ATOM     23  C   UNL     1       4.104   6.867   2.976  1.00  0.00     0.049 A 
ATOM     24  H   UNL     1       4.314   7.345   0.959  1.00  0.00     0.167 HD
ATOM     25  C   UNL     1       4.691   8.111  -3.322  1.00  0.00     0.031 A 
ATOM     26  C   UNL     1       3.240   7.750   3.508  1.00  0.00     0.031 A 
ATOM     27  C   UNL     1       3.747   9.089  -2.846  1.00  0.00     0.049 A 
ATOM     28  C   UNL     1       2.634   8.802   2.627  1.00  0.00     0.074 A 
ATOM     29  C   UNL     1       3.087  10.072  -3.566  1.00  0.00     0.029 A 
ATOM     30  N   UNL     1       3.331   9.211  -1.530  1.00  0.00    -0.354 N 
ATOM     31  N   UNL     1       2.787   8.987   1.339  1.00  0.00    -0.248 NA
ATOM     32  C   UNL     1       1.735   9.764   3.276  1.00  0.00     0.031 C 
ATOM     33  C   UNL     1       2.309  10.819  -2.674  1.00  0.00     0.029 A 
ATOM     34  C   UNL     1       2.442  10.266  -1.411  1.00  0.00     0.049 A 
ATOM     35  H   UNL     1       3.625   8.633  -0.789  1.00  0.00     0.167 HD
ATOM     36  C   UNL     1       1.986  10.074   1.018  1.00  0.00     0.074 A 
ATOM     37  C   UNL     1       1.335  10.492   2.243  1.00  0.00     0.031 C 
ATOM     38  C   UNL     1       1.806  10.672  -0.185  1.00  0.00     0.031 A 
BRANCH  25  39
ATOM     39  C   UNL     1       5.098   8.164  -4.769  1.00  0.00    -0.014 A 
ATOM     40  C   UNL     1       4.673   7.191  -5.687  1.00  0.00     0.009 A 
ATOM     41  C   UNL     1       5.888   9.230  -5.228  1.00  0.00     0.009 A 
ATOM     42  C   UNL     1       5.059   7.268  -7.028  1.00  0.00     0.001 A 
ATOM     43  C   UNL     1       6.250   9.319  -6.573  1.00  0.00     0.001 A 
ATOM     44  C   UNL     1       5.842   8.334  -7.471  1.00  0.00     0.000 A 
ENDBRANCH  25  39
BRANCH  26  45
ATOM     45  C   UNL     1       2.894   7.669   4.950  1.00  0.00    -0.014 A 
ATOM     46  C   UNL     1       1.612   7.267   5.354  1.00  0.00     0.009 A 
ATOM     47  C   UNL     1       3.848   7.986   5.930  1.00  0.00     0.009 A 
ATOM     48  C   UNL     1       1.287   7.205   6.711  1.00  0.00     0.001 A 
ATOM     49  C   UNL     1       3.529   7.894   7.285  1.00  0.00     0.001 A 
ATOM     50  C   UNL     1       2.247   7.513   7.675  1.00  0.00     0.000 A 
ENDBRANCH  26  45
BRANCH  38  51
ATOM     51  C   UNL     1       0.838  11.820  -0.234  1.00  0.00    -0.014 A 
ATOM     52  C   UNL     1       1.153  13.066   0.330  1.00  0.00     0.009 A 
ATOM     53  C   UNL     1      -0.403  11.653  -0.868  1.00  0.00     0.009 A 
ATOM     54  C   UNL     1       0.227  14.110   0.295  1.00  0.00     0.001 A 
ATOM     55  C   UNL     1      -1.315  12.707  -0.926  1.00  0.00     0.001 A 
ATOM     56  C   UNL     1      -1.004  13.931  -0.336  1.00  0.00     0.000 A 
ENDBRANCH  38  51
ENDBRANCH  12  13
ENDBRANCH   5   7
ENDBRANCH   2   3
ENDBRANCH   1   2
BRANCH   1  57
ATOM     57  C   UNL     1       7.938  -2.959  -1.905  1.00  0.00     0.117 C 
BRANCH  57  58
ATOM     58  N   UNL     1       7.124  -3.973  -1.257  1.00  0.00    -0.356 N 
ATOM     59  C   UNL     1       6.399  -4.977  -1.831  1.00  0.00     0.223 C 
ATOM     60  H   UNL     1       7.090  -3.929  -0.274  1.00  0.00     0.163 HD
ATOM     61  O   UNL     1       5.665  -5.654  -1.113  1.00  0.00    -0.275 OA
BRANCH  59  62
ATOM     62  C   UNL     1       6.551  -5.201  -3.329  1.00  0.00     0.087 C 
ATOM     63  C   UNL     1       7.914  -5.815  -3.656  1.00  0.00     0.014 C 
ATOM     64  C   UNL     1       5.551  -6.218  -3.895  1.00  0.00     0.056 C 
ATOM     65  C   UNL     1       7.706  -7.328  -3.665  1.00  0.00     0.001 C 
ATOM     66  C   UNL     1       6.202  -7.567  -3.577  1.00  0.00     0.010 C 
BRANCH  64  67
ATOM     67  C   UNL     1       5.334  -6.053  -5.413  1.00  0.00     0.265 C 
BRANCH  67  68
ATOM     68  N   UNL     1       4.850  -4.704  -5.697  1.00  0.00    -0.343 N 
ATOM     69  H   UNL     1       5.610  -4.049  -5.515  1.00  0.00     0.346 HD
ATOM     70  H   UNL     1       4.039  -4.556  -5.096  1.00  0.00     0.346 HD
BRANCH  68  71
ATOM     71  C   UNL     1       4.387  -4.495  -7.075  1.00  0.00     0.187 C 
ATOM     72  C   UNL     1       4.090  -2.999  -7.273  1.00  0.00     0.093 C 
ATOM     73  C   UNL     1       3.136  -5.302  -7.459  1.00  0.00     0.100 C 
ATOM     74  C   UNL     1       2.830  -2.564  -6.534  1.00  0.00     0.167 C 
ATOM     75  C   UNL     1       1.914  -4.831  -6.670  1.00  0.00     0.074 C 
ATOM     76  O   UNL     1       1.729  -3.405  -6.875  1.00  0.00    -0.375 OA
ATOM     77  C   UNL     1       0.645  -5.684  -6.974  1.00  0.00     0.036 C 
ATOM     78  C   UNL     1       1.772  -5.336  -5.197  1.00  0.00     0.036 C 
ATOM     79  C   UNL     1       0.285  -5.590  -5.481  1.00  0.00     0.006 C 
ENDBRANCH  68  71
ENDBRANCH  67  68
ENDBRANCH  64  67
ENDBRANCH  59  62
ENDBRANCH  57  58
ENDBRANCH   1  57
TORSDOF 13
