REMARK SMILES C[C@H]1N=c2ccc(OC(F)(F)F)cc2=C1CCN1C(=O)c2ccc(C(=O)NCCCNC(=O)c3ccc(-c4c5nc(c(-c6ccccc6)c6ccc([nH]6)c(-c6ccccc6)c6nc(c(-c7ccccc7)c7ccc4[nH]7)C=C6)C=C5)cc3)cc2C1=O
REMARK SMILES IDX 25 1 26 2 27 3 24 5 18 6 19 7 84 8 20 9 21 10 83 11 85 12
REMARK SMILES IDX 22 13 82 14 23 15 17 16 16 17 15 18 1 19 2 20 3 21 4 22
REMARK SMILES IDX 14 23 5 24 13 25 6 26 7 27 8 28 9 29 10 30 11 31 12 32 28 33
REMARK SMILES IDX 29 34 30 35 31 36 32 37 33 39 34 40 35 41 81 42 36 43 80 44
REMARK SMILES IDX 37 45 38 46 39 47 74 48 40 49 79 50 73 51 75 52 41 53 78 54
REMARK SMILES IDX 72 55 71 56 42 58 64 59 49 60 63 61 50 62 53 63 62 64 76 65
REMARK SMILES IDX 51 66 52 67 61 69 77 70 54 71 43 72 44 73 48 74 45 75 47 76
REMARK SMILES IDX 46 77 65 78 66 79 70 80 67 81 69 82 68 83 55 84 56 85 60 86
REMARK SMILES IDX 57 87 59 88 58 89
REMARK H PARENT 27 4 31 38 75 57 53 68
REMARK Flexibility Score: inf
ROOT
ATOM      1  C   UNL     1      -1.258   5.282  -0.380  1.00  0.00     0.251 C 
ATOM      2  O   UNL     1      -1.016   6.475  -0.222  1.00  0.00    -0.269 OA
ATOM      3  N   UNL     1      -2.473   4.893  -0.876  1.00  0.00    -0.352 N 
ATOM      4  H   UNL     1      -3.136   5.617  -0.943  1.00  0.00     0.163 HD
ENDROOT
BRANCH   1   5
ATOM      5  C   UNL     1      -0.200   4.302  -0.072  1.00  0.00     0.040 A 
ATOM      6  N   UNL     1       2.017   0.717   1.715  1.00  0.00    -0.274 N 
ATOM      7  C   UNL     1       2.755   1.487   0.851  1.00  0.00     0.261 C 
ATOM      8  C   UNL     1       0.826   1.316   2.024  1.00  0.00     0.261 C 
ATOM      9  O   UNL     1       3.881   1.318   0.438  1.00  0.00    -0.269 OA
ATOM     10  C   UNL     1       1.897   2.603   0.457  1.00  0.00     0.053 A 
ATOM     11  C   UNL     1       0.708   2.492   1.159  1.00  0.00     0.054 A 
ATOM     12  O   UNL     1      -0.034   0.972   2.814  1.00  0.00    -0.269 OA
ATOM     13  C   UNL     1       2.100   3.579  -0.499  1.00  0.00     0.015 A 
ATOM     14  C   UNL     1      -0.371   3.326   0.918  1.00  0.00     0.028 A 
ATOM     15  C   UNL     1       1.033   4.445  -0.755  1.00  0.00     0.015 A 
BRANCH   6  16
ATOM     16  C   UNL     1       2.518  -0.529   2.271  1.00  0.00     0.134 C 
BRANCH  16  17
ATOM     17  C   UNL     1       1.526  -1.706   2.327  1.00  0.00     0.056 C 
BRANCH  17  18
ATOM     18  C   UNL     1       0.986  -2.288   1.043  1.00  0.00    -0.035 C 
ATOM     19  C   UNL     1       0.398  -0.516  -0.726  1.00  0.00     0.038 C 
ATOM     20  C   UNL     1      -0.096  -1.602   0.232  1.00  0.00     0.129 C 
ATOM     21  N   UNL     1      -0.653  -2.658  -0.650  1.00  0.00    -0.277 NA
ATOM     22  C   UNL     1       0.155  -3.651  -0.469  1.00  0.00     0.066 A 
ATOM     23  C   UNL     1       1.187  -3.525   0.572  1.00  0.00     0.005 A 
ATOM     24  C   UNL     1       0.105  -4.918  -1.213  1.00  0.00     0.032 A 
ATOM     25  C   UNL     1       2.003  -4.649   0.925  1.00  0.00     0.057 A 
ATOM     26  C   UNL     1       0.951  -5.905  -0.881  1.00  0.00     0.049 A 
ATOM     27  C   UNL     1       1.893  -5.801   0.232  1.00  0.00     0.130 A 
BRANCH  27  28
ATOM     28  O   UNL     1       2.692  -6.867   0.594  1.00  0.00    -0.406 OA
BRANCH  28  29
ATOM     29  C   UNL     1       2.447  -8.153   0.045  1.00  0.00     0.573 C 
ATOM     30  F   UNL     1       1.157  -8.519   0.202  1.00  0.00    -0.132 F 
ATOM     31  F   UNL     1       2.767  -8.179  -1.266  1.00  0.00    -0.132 F 
ATOM     32  F   UNL     1       3.222  -9.056   0.685  1.00  0.00    -0.132 F 
ENDBRANCH  28  29
ENDBRANCH  27  28
ENDBRANCH  17  18
ENDBRANCH  16  17
ENDBRANCH   6  16
ENDBRANCH   1   5
BRANCH   3  33
ATOM     33  C   UNL     1      -2.952   3.593  -1.320  1.00  0.00     0.118 C 
BRANCH  33  34
ATOM     34  C   UNL     1      -4.185   3.134  -0.547  1.00  0.00     0.042 C 
BRANCH  34  35
ATOM     35  C   UNL     1      -5.389   4.075  -0.611  1.00  0.00     0.118 C 
BRANCH  35  36
ATOM     36  N   UNL     1      -6.071   4.097  -1.899  1.00  0.00    -0.352 N 
ATOM     37  C   UNL     1      -7.413   3.972  -2.191  1.00  0.00     0.251 C 
ATOM     38  H   UNL     1      -5.484   4.219  -2.679  1.00  0.00     0.163 HD
ATOM     39  O   UNL     1      -7.780   3.947  -3.363  1.00  0.00    -0.269 OA
BRANCH  37  40
ATOM     40  C   UNL     1      -8.415   3.811  -1.109  1.00  0.00     0.039 A 
ATOM     41  C   UNL     1      -8.368   4.586   0.050  1.00  0.00     0.014 A 
ATOM     42  C   UNL     1      -9.415   2.842  -1.251  1.00  0.00     0.014 A 
ATOM     43  C   UNL     1      -9.177   4.257   1.136  1.00  0.00     0.010 A 
ATOM     44  C   UNL     1     -10.286   2.570  -0.188  1.00  0.00     0.010 A 
ATOM     45  C   UNL     1     -10.127   3.226   1.041  1.00  0.00    -0.014 A 
BRANCH  45  46
ATOM     46  C   UNL     1     -10.902   2.828   2.250  1.00  0.00     0.031 A 
ATOM     47  C   UNL     1     -10.712   1.467   2.873  1.00  0.00     0.074 A 
ATOM     48  C   UNL     1     -11.720   3.719   2.844  1.00  0.00     0.049 A 
ATOM     49  N   UNL     1     -11.230   0.989   3.979  1.00  0.00    -0.248 NA
ATOM     50  C   UNL     1      -9.832   0.520   2.171  1.00  0.00     0.031 C 
ATOM     51  C   UNL     1     -11.988   5.072   2.354  1.00  0.00     0.029 A 
ATOM     52  N   UNL     1     -12.447   3.635   4.006  1.00  0.00    -0.354 N 
ATOM     53  C   UNL     1     -10.749  -0.310   4.095  1.00  0.00     0.074 A 
ATOM     54  C   UNL     1      -9.927  -0.561   2.933  1.00  0.00     0.031 C 
ATOM     55  C   UNL     1     -12.767   5.711   3.239  1.00  0.00     0.029 A 
ATOM     56  C   UNL     1     -13.097   4.801   4.332  1.00  0.00     0.049 A 
ATOM     57  H   UNL     1     -12.498   2.818   4.552  1.00  0.00     0.167 HD
ATOM     58  C   UNL     1     -10.958  -1.209   5.086  1.00  0.00     0.031 A 
ATOM     59  C   UNL     1     -13.870   5.112   5.391  1.00  0.00     0.031 A 
ATOM     60  C   UNL     1     -11.762  -0.964   6.254  1.00  0.00     0.049 A 
ATOM     61  C   UNL     1     -14.111   4.088   6.463  1.00  0.00     0.074 A 
ATOM     62  C   UNL     1     -12.007  -1.814   7.320  1.00  0.00     0.029 A 
ATOM     63  N   UNL     1     -12.449   0.210   6.512  1.00  0.00    -0.354 N 
ATOM     64  N   UNL     1     -13.628   2.874   6.565  1.00  0.00    -0.248 NA
ATOM     65  C   UNL     1     -14.999   4.477   7.569  1.00  0.00     0.031 C 
ATOM     66  C   UNL     1     -12.885  -1.173   8.197  1.00  0.00     0.029 A 
ATOM     67  C   UNL     1     -13.137   0.099   7.709  1.00  0.00     0.049 A 
ATOM     68  H   UNL     1     -12.449   1.005   5.931  1.00  0.00     0.167 HD
ATOM     69  C   UNL     1     -14.140   2.360   7.750  1.00  0.00     0.074 A 
ATOM     70  C   UNL     1     -14.955   3.400   8.342  1.00  0.00     0.031 C 
ATOM     71  C   UNL     1     -13.950   1.134   8.292  1.00  0.00     0.031 A 
BRANCH  58  72
ATOM     72  C   UNL     1     -10.309  -2.561   4.962  1.00  0.00    -0.014 A 
ATOM     73  C   UNL     1     -11.104  -3.697   4.741  1.00  0.00     0.009 A 
ATOM     74  C   UNL     1      -8.929  -2.724   5.157  1.00  0.00     0.009 A 
ATOM     75  C   UNL     1     -10.532  -4.971   4.728  1.00  0.00     0.001 A 
ATOM     76  C   UNL     1      -8.356  -3.997   5.117  1.00  0.00     0.001 A 
ATOM     77  C   UNL     1      -9.159  -5.120   4.912  1.00  0.00     0.000 A 
ENDBRANCH  58  72
BRANCH  59  78
ATOM     78  C   UNL     1     -14.452   6.476   5.490  1.00  0.00    -0.014 A 
ATOM     79  C   UNL     1     -15.456   6.888   4.599  1.00  0.00     0.009 A 
ATOM     80  C   UNL     1     -13.975   7.388   6.443  1.00  0.00     0.009 A 
ATOM     81  C   UNL     1     -15.951   8.193   4.642  1.00  0.00     0.001 A 
ATOM     82  C   UNL     1     -14.494   8.684   6.503  1.00  0.00     0.001 A 
ATOM     83  C   UNL     1     -15.473   9.088   5.597  1.00  0.00     0.000 A 
ENDBRANCH  59  78
BRANCH  71  84
ATOM     84  C   UNL     1     -14.620   0.832   9.603  1.00  0.00    -0.014 A 
ATOM     85  C   UNL     1     -13.844   0.679  10.764  1.00  0.00     0.009 A 
ATOM     86  C   UNL     1     -16.002   0.600   9.673  1.00  0.00     0.009 A 
ATOM     87  C   UNL     1     -14.436   0.289  11.966  1.00  0.00     0.001 A 
ATOM     88  C   UNL     1     -16.595   0.235  10.884  1.00  0.00     0.001 A 
ATOM     89  C   UNL     1     -15.812   0.071  12.026  1.00  0.00     0.000 A 
ENDBRANCH  71  84
ENDBRANCH  45  46
ENDBRANCH  37  40
ENDBRANCH  35  36
ENDBRANCH  34  35
ENDBRANCH  33  34
ENDBRANCH   3  33
TORSDOF 15
