REMARK SMILES O=C(/C=C/c1ccc(NC(=O)[C@@H]2COc3ccccc3C2)cc1)NCCCNC(=O)c1ccc(-c2c3nc(c(-c4ccccc4)c4ccc([nH]4)c(-c4ccccc4)c4nc(c(-c5ccccc5)c5ccc2[nH]5)C=C4)C=C3)cc1
REMARK SMILES IDX 25 1 24 2 1 3 2 4 3 6 4 7 5 8 6 9 23 10 7 11 22 12 8 13 9 14
REMARK SMILES IDX 10 15 11 17 12 18 13 19 21 20 14 21 20 22 15 23 19 24 16 25
REMARK SMILES IDX 18 26 17 27 26 28 27 29 28 30 29 31 30 33 31 34 32 35 78 36
REMARK SMILES IDX 33 37 77 38 34 39 35 40 36 41 71 42 37 43 76 44 70 45 72 46
REMARK SMILES IDX 38 47 75 48 69 49 68 50 39 52 61 53 46 54 60 55 47 56 50 57
REMARK SMILES IDX 59 58 73 59 48 60 49 61 58 63 74 64 51 65 40 66 41 67 45 68
REMARK SMILES IDX 42 69 44 70 43 71 62 72 63 73 67 74 64 75 66 76 65 77 52 78
REMARK SMILES IDX 53 79 57 80 54 81 56 82 55 83
REMARK H PARENT 24 5 9 16 28 32 72 51 50 62
REMARK Flexibility Score: inf
ROOT
ATOM      1  C   UNL     1       6.771  11.449   8.376  1.00  0.00     0.118 C 
ENDROOT
BRANCH   1   2
ATOM      2  N   UNL     1       7.432  10.939   7.188  1.00  0.00    -0.352 N 
ATOM      3  O   UNL     1       7.549  12.939   6.066  1.00  0.00    -0.270 OA
ATOM      4  C   UNL     1       7.802  11.742   6.135  1.00  0.00     0.244 C 
ATOM      5  H   UNL     1       7.625   9.975   7.135  1.00  0.00     0.163 HD
BRANCH   4   6
ATOM      6  C   UNL     1       8.625  11.101   5.062  1.00  0.00     0.072 C 
ATOM      7  C   UNL     1       8.705   9.777   4.858  1.00  0.00     0.014 C 
BRANCH   7   8
ATOM      8  C   UNL     1       9.493   9.041   3.851  1.00  0.00    -0.025 A 
ATOM      9  C   UNL     1       9.324   7.652   3.844  1.00  0.00     0.010 A 
ATOM     10  C   UNL     1      10.398   9.594   2.932  1.00  0.00     0.010 A 
ATOM     11  C   UNL     1       9.982   6.851   2.916  1.00  0.00     0.027 A 
ATOM     12  C   UNL     1      11.044   8.780   1.973  1.00  0.00     0.027 A 
ATOM     13  C   UNL     1      10.763   7.415   1.917  1.00  0.00     0.041 A 
BRANCH  13  14
ATOM     14  N   UNL     1      11.259   6.578   0.901  1.00  0.00    -0.326 N 
ATOM     15  C   UNL     1      10.507   5.656   0.166  1.00  0.00     0.231 C 
ATOM     16  H   UNL     1      12.218   6.648   0.689  1.00  0.00     0.169 HD
ATOM     17  O   UNL     1      11.043   4.689  -0.371  1.00  0.00    -0.274 OA
BRANCH  15  18
ATOM     18  C   UNL     1       9.104   6.122  -0.207  1.00  0.00     0.121 C 
ATOM     19  C   UNL     1       7.906   6.029   0.725  1.00  0.00     0.243 C 
ATOM     20  C   UNL     1       8.514   5.647  -1.543  1.00  0.00     0.056 C 
ATOM     21  O   UNL     1       7.092   7.199   0.502  1.00  0.00    -0.492 OA
ATOM     22  C   UNL     1       7.511   6.743  -1.878  1.00  0.00    -0.005 A 
ATOM     23  C   UNL     1       6.997   7.544  -0.832  1.00  0.00     0.122 A 
ATOM     24  C   UNL     1       7.314   7.129  -3.203  1.00  0.00     0.007 A 
ATOM     25  C   UNL     1       6.541   8.828  -1.104  1.00  0.00     0.047 A 
ATOM     26  C   UNL     1       6.816   8.403  -3.471  1.00  0.00     0.001 A 
ATOM     27  C   UNL     1       6.494   9.272  -2.424  1.00  0.00     0.004 A 
ENDBRANCH  15  18
ENDBRANCH  13  14
ENDBRANCH   7   8
ENDBRANCH   4   6
ENDBRANCH   1   2
BRANCH   1  28
ATOM     28  C   UNL     1       5.287  11.101   8.449  1.00  0.00     0.042 C 
BRANCH  28  29
ATOM     29  C   UNL     1       4.967   9.608   8.479  1.00  0.00     0.118 C 
BRANCH  29  30
ATOM     30  N   UNL     1       5.477   8.921   9.660  1.00  0.00    -0.352 N 
ATOM     31  C   UNL     1       4.829   8.156  10.599  1.00  0.00     0.251 C 
ATOM     32  H   UNL     1       6.444   9.023   9.809  1.00  0.00     0.163 HD
ATOM     33  O   UNL     1       5.450   7.762  11.588  1.00  0.00    -0.269 OA
BRANCH  31  34
ATOM     34  C   UNL     1       3.393   7.822  10.464  1.00  0.00     0.039 A 
ATOM     35  C   UNL     1       2.578   7.894  11.599  1.00  0.00     0.014 A 
ATOM     36  C   UNL     1       2.846   7.418   9.245  1.00  0.00     0.014 A 
ATOM     37  C   UNL     1       1.206   7.645  11.493  1.00  0.00     0.010 A 
ATOM     38  C   UNL     1       1.467   7.242   9.124  1.00  0.00     0.010 A 
ATOM     39  C   UNL     1       0.630   7.363  10.244  1.00  0.00    -0.014 A 
BRANCH  39  40
ATOM     40  C   UNL     1      -0.843   7.222  10.086  1.00  0.00     0.031 A 
ATOM     41  C   UNL     1      -1.444   5.922   9.625  1.00  0.00     0.074 A 
ATOM     42  C   UNL     1      -1.639   8.291  10.289  1.00  0.00     0.049 A 
ATOM     43  N   UNL     1      -2.695   5.639   9.360  1.00  0.00    -0.248 NA
ATOM     44  C   UNL     1      -0.516   4.800   9.413  1.00  0.00     0.031 C 
ATOM     45  C   UNL     1      -1.186   9.619  10.708  1.00  0.00     0.029 A 
ATOM     46  N   UNL     1      -3.000   8.431  10.160  1.00  0.00    -0.354 N 
ATOM     47  C   UNL     1      -2.702   4.315   8.937  1.00  0.00     0.074 A 
ATOM     48  C   UNL     1      -1.326   3.867   8.935  1.00  0.00     0.031 C 
ATOM     49  C   UNL     1      -2.249  10.430  10.825  1.00  0.00     0.029 A 
ATOM     50  C   UNL     1      -3.452   9.698  10.443  1.00  0.00     0.049 A 
ATOM     51  H   UNL     1      -3.595   7.694   9.891  1.00  0.00     0.167 HD
ATOM     52  C   UNL     1      -3.758   3.537   8.596  1.00  0.00     0.031 A 
ATOM     53  C   UNL     1      -4.693  10.220  10.387  1.00  0.00     0.031 A 
ATOM     54  C   UNL     1      -5.128   3.981   8.596  1.00  0.00     0.049 A 
ATOM     55  C   UNL     1      -5.842   9.347   9.966  1.00  0.00     0.074 A 
ATOM     56  C   UNL     1      -6.269   3.250   8.315  1.00  0.00     0.029 A 
ATOM     57  N   UNL     1      -5.541   5.273   8.883  1.00  0.00    -0.354 N 
ATOM     58  N   UNL     1      -5.839   8.079   9.635  1.00  0.00    -0.248 NA
ATOM     59  C   UNL     1      -7.170   9.977   9.921  1.00  0.00     0.031 C 
ATOM     60  C   UNL     1      -7.367   4.115   8.369  1.00  0.00     0.029 A 
ATOM     61  C   UNL     1      -6.917   5.367   8.753  1.00  0.00     0.049 A 
ATOM     62  H   UNL     1      -4.945   6.013   9.140  1.00  0.00     0.167 HD
ATOM     63  C   UNL     1      -7.163   7.752   9.373  1.00  0.00     0.074 A 
ATOM     64  C   UNL     1      -7.944   8.951   9.599  1.00  0.00     0.031 C 
ATOM     65  C   UNL     1      -7.685   6.564   8.980  1.00  0.00     0.031 A 
BRANCH  52  66
ATOM     66  C   UNL     1      -3.470   2.120   8.177  1.00  0.00    -0.014 A 
ATOM     67  C   UNL     1      -3.012   1.165   9.098  1.00  0.00     0.009 A 
ATOM     68  C   UNL     1      -3.702   1.724   6.850  1.00  0.00     0.009 A 
ATOM     69  C   UNL     1      -2.754  -0.146   8.691  1.00  0.00     0.001 A 
ATOM     70  C   UNL     1      -3.475   0.405   6.453  1.00  0.00     0.001 A 
ATOM     71  C   UNL     1      -2.991  -0.526   7.371  1.00  0.00     0.000 A 
ENDBRANCH  52  66
BRANCH  53  72
ATOM     72  C   UNL     1      -4.919  11.648  10.741  1.00  0.00    -0.014 A 
ATOM     73  C   UNL     1      -5.631  11.991  11.900  1.00  0.00     0.009 A 
ATOM     74  C   UNL     1      -4.435  12.674   9.914  1.00  0.00     0.009 A 
ATOM     75  C   UNL     1      -5.881  13.331  12.207  1.00  0.00     0.001 A 
ATOM     76  C   UNL     1      -4.657  14.014  10.242  1.00  0.00     0.001 A 
ATOM     77  C   UNL     1      -5.389  14.341  11.382  1.00  0.00     0.000 A 
ENDBRANCH  53  72
BRANCH  65  78
ATOM     78  C   UNL     1      -9.178   6.487   8.809  1.00  0.00    -0.014 A 
ATOM     79  C   UNL     1      -9.828   7.130   7.745  1.00  0.00     0.009 A 
ATOM     80  C   UNL     1      -9.939   5.721   9.707  1.00  0.00     0.009 A 
ATOM     81  C   UNL     1     -11.215   7.033   7.603  1.00  0.00     0.001 A 
ATOM     82  C   UNL     1     -11.319   5.600   9.544  1.00  0.00     0.001 A 
ATOM     83  C   UNL     1     -11.957   6.264   8.498  1.00  0.00     0.000 A 
ENDBRANCH  65  78
ENDBRANCH  39  40
ENDBRANCH  31  34
ENDBRANCH  29  30
ENDBRANCH  28  29
ENDBRANCH   1  28
TORSDOF 13
