REMARK SMILES COc1ccc(-c2ccc3n(c2=O)C[C@H]2C[C@@H]3CN(C(=O)CCCC(=O)NCCCNC(=O)c3ccc(-c4c5nc(c(-c6ccccc6)c6ccc([nH]6)c(-c6ccccc6)c6nc(c(-c7ccccc7)c7ccc4[nH]7)C=C6)C=C5)cc3)C2)cc1
REMARK SMILES IDX 25 1 26 2 27 3 24 5 23 6 22 7 20 8 21 9 19 10 7 11 8 12
REMARK SMILES IDX 12 13 9 14 11 15 13 16 10 17 14 18 17 19 15 20 16 21 18 22
REMARK SMILES IDX 82 23 6 24 3 25 4 26 84 27 5 28 83 29 2 30 1 31 28 32 29 33
REMARK SMILES IDX 30 34 31 35 32 36 33 38 34 39 35 40 81 41 36 42 80 43 37 44
REMARK SMILES IDX 38 45 39 46 74 47 40 48 79 49 73 50 75 51 41 52 78 53 72 54
REMARK SMILES IDX 71 55 42 57 64 58 49 59 63 60 50 61 53 62 62 63 76 64 51 65
REMARK SMILES IDX 52 66 61 68 77 69 54 70 43 71 44 72 48 73 45 74 47 75 46 76
REMARK SMILES IDX 65 77 66 78 70 79 67 80 69 81 68 82 55 83 56 84 60 85 57 86
REMARK SMILES IDX 59 87 58 88
REMARK H PARENT 27 4 31 37 75 56 53 67
REMARK Flexibility Score: inf
ROOT
ATOM      1  C   UNL     1      -2.123   9.622  -6.617  1.00  0.00     0.220 C 
ATOM      2  O   UNL     1      -3.094   9.888  -5.898  1.00  0.00    -0.275 OA
ATOM      3  N   UNL     1      -1.644  10.659  -7.349  1.00  0.00    -0.356 N 
ATOM      4  H   UNL     1      -2.210  11.464  -7.319  1.00  0.00     0.163 HD
ENDROOT
BRANCH   1   5
ATOM      5  C   UNL     1      -1.504   8.225  -6.556  1.00  0.00     0.100 C 
BRANCH   5   6
ATOM      6  C   UNL     1      -1.347   7.374  -7.811  1.00  0.00     0.020 C 
BRANCH   6   7
ATOM      7  C   UNL     1      -0.165   7.525  -8.767  1.00  0.00     0.101 C 
BRANCH   7   8
ATOM      8  C   UNL     1       1.263   7.093  -8.408  1.00  0.00     0.222 C 
ATOM      9  O   UNL     1       1.653   6.022  -8.895  1.00  0.00    -0.275 OA
BRANCH   8  10
ATOM     10  N   UNL     1       2.156   7.913  -7.725  1.00  0.00    -0.342 N 
ATOM     11  C   UNL     1       2.389   4.265  -4.334  1.00  0.00     0.047 A 
ATOM     12  C   UNL     1       3.383   4.047  -5.210  1.00  0.00     0.016 A 
ATOM     13  C   UNL     1       1.911   5.673  -4.114  1.00  0.00     0.258 A 
ATOM     14  C   UNL     1       4.019   5.128  -5.905  1.00  0.00     0.023 A 
ATOM     15  N   UNL     1       2.590   6.678  -4.820  1.00  0.00    -0.311 N 
ATOM     16  O   UNL     1       0.986   5.911  -3.338  1.00  0.00    -0.269 OA
ATOM     17  C   UNL     1       3.639   6.398  -5.699  1.00  0.00     0.026 A 
ATOM     18  C   UNL     1       2.180   8.050  -4.538  1.00  0.00     0.131 C 
ATOM     19  C   UNL     1       4.281   7.522  -6.494  1.00  0.00     0.056 C 
ATOM     20  C   UNL     1       2.672   9.099  -5.536  1.00  0.00     0.029 C 
ATOM     21  C   UNL     1       4.153   8.868  -5.782  1.00  0.00     0.019 C 
ATOM     22  C   UNL     1       3.588   7.618  -7.865  1.00  0.00     0.129 C 
ATOM     23  C   UNL     1       1.891   9.062  -6.863  1.00  0.00     0.125 C 
BRANCH  11  24
ATOM     24  C   UNL     1       1.837   3.139  -3.568  1.00  0.00    -0.013 A 
ATOM     25  C   UNL     1       0.830   1.033  -2.016  1.00  0.00     0.118 A 
ATOM     26  C   UNL     1      -0.016   1.744  -2.868  1.00  0.00     0.047 A 
ATOM     27  C   UNL     1       2.187   1.344  -1.967  1.00  0.00     0.047 A 
ATOM     28  C   UNL     1       0.481   2.803  -3.633  1.00  0.00     0.013 A 
ATOM     29  C   UNL     1       2.686   2.396  -2.735  1.00  0.00     0.013 A 
BRANCH  25  30
ATOM     30  O   UNL     1       0.254   0.024  -1.293  1.00  0.00    -0.497 OA
ATOM     31  C   UNL     1       0.741  -0.075   0.043  1.00  0.00     0.278 C 
ENDBRANCH  25  30
ENDBRANCH  11  24
ENDBRANCH   8  10
ENDBRANCH   7   8
ENDBRANCH   6   7
ENDBRANCH   5   6
ENDBRANCH   1   5
BRANCH   3  32
ATOM     32  C   UNL     1      -0.466  10.805  -8.162  1.00  0.00     0.117 C 
BRANCH  32  33
ATOM     33  C   UNL     1      -0.753  11.099  -9.619  1.00  0.00     0.042 C 
BRANCH  33  34
ATOM     34  C   UNL     1      -0.608  12.573  -9.924  1.00  0.00     0.118 C 
BRANCH  34  35
ATOM     35  N   UNL     1       0.788  13.016  -9.938  1.00  0.00    -0.352 N 
ATOM     36  C   UNL     1       1.471  13.709 -10.912  1.00  0.00     0.251 C 
ATOM     37  H   UNL     1       1.312  12.785  -9.137  1.00  0.00     0.163 HD
ATOM     38  O   UNL     1       2.681  13.889 -10.814  1.00  0.00    -0.269 OA
BRANCH  36  39
ATOM     39  C   UNL     1       0.735  14.190 -12.098  1.00  0.00     0.039 A 
ATOM     40  C   UNL     1       1.274  13.996 -13.372  1.00  0.00     0.014 A 
ATOM     41  C   UNL     1      -0.536  14.743 -11.947  1.00  0.00     0.014 A 
ATOM     42  C   UNL     1       0.487  14.260 -14.495  1.00  0.00     0.010 A 
ATOM     43  C   UNL     1      -1.360  14.863 -13.053  1.00  0.00     0.010 A 
ATOM     44  C   UNL     1      -0.857  14.638 -14.342  1.00  0.00    -0.014 A 
BRANCH  44  45
ATOM     45  C   UNL     1      -1.764  14.833 -15.499  1.00  0.00     0.031 A 
ATOM     46  C   UNL     1      -2.450  16.162 -15.685  1.00  0.00     0.074 A 
ATOM     47  C   UNL     1      -2.054  13.800 -16.314  1.00  0.00     0.049 A 
ATOM     48  N   UNL     1      -3.374  16.503 -16.545  1.00  0.00    -0.248 NA
ATOM     49  C   UNL     1      -2.083  17.234 -14.743  1.00  0.00     0.031 C 
ATOM     50  C   UNL     1      -1.504  12.446 -16.209  1.00  0.00     0.029 A 
ATOM     51  N   UNL     1      -2.895  13.730 -17.396  1.00  0.00    -0.354 N 
ATOM     52  C   UNL     1      -3.728  17.805 -16.214  1.00  0.00     0.074 A 
ATOM     53  C   UNL     1      -2.971  18.169 -15.039  1.00  0.00     0.031 C 
ATOM     54  C   UNL     1      -1.982  11.697 -17.216  1.00  0.00     0.029 A 
ATOM     55  C   UNL     1      -2.908  12.499 -18.007  1.00  0.00     0.049 A 
ATOM     56  H   UNL     1      -3.439  14.491 -17.706  1.00  0.00     0.167 HD
ATOM     57  C   UNL     1      -4.585  18.639 -16.848  1.00  0.00     0.031 A 
ATOM     58  C   UNL     1      -3.589  12.069 -19.085  1.00  0.00     0.031 A 
ATOM     59  C   UNL     1      -5.297  18.293 -18.047  1.00  0.00     0.049 A 
ATOM     60  C   UNL     1      -4.518  13.019 -19.788  1.00  0.00     0.074 A 
ATOM     61  C   UNL     1      -6.117  19.091 -18.824  1.00  0.00     0.029 A 
ATOM     62  N   UNL     1      -5.263  17.044 -18.645  1.00  0.00    -0.354 N 
ATOM     63  N   UNL     1      -4.786  14.272 -19.509  1.00  0.00    -0.248 NA
ATOM     64  C   UNL     1      -5.235  12.495 -20.959  1.00  0.00     0.031 C 
ATOM     65  C   UNL     1      -6.615  18.309 -19.871  1.00  0.00     0.029 A 
ATOM     66  C   UNL     1      -6.066  17.040 -19.772  1.00  0.00     0.049 A 
ATOM     67  H   UNL     1      -4.745  16.273 -18.318  1.00  0.00     0.167 HD
ATOM     68  C   UNL     1      -5.678  14.695 -20.485  1.00  0.00     0.074 A 
ATOM     69  C   UNL     1      -5.895  13.568 -21.370  1.00  0.00     0.031 C 
ATOM     70  C   UNL     1      -6.263  15.907 -20.638  1.00  0.00     0.031 A 
BRANCH  57  71
ATOM     71  C   UNL     1      -4.790  20.003 -16.248  1.00  0.00    -0.014 A 
ATOM     72  C   UNL     1      -3.762  20.961 -16.242  1.00  0.00     0.009 A 
ATOM     73  C   UNL     1      -6.027  20.334 -15.676  1.00  0.00     0.009 A 
ATOM     74  C   UNL     1      -3.953  22.200 -15.628  1.00  0.00     0.001 A 
ATOM     75  C   UNL     1      -6.226  21.587 -15.094  1.00  0.00     0.001 A 
ATOM     76  C   UNL     1      -5.185  22.513 -15.057  1.00  0.00     0.000 A 
ENDBRANCH  57  71
BRANCH  58  77
ATOM     77  C   UNL     1      -3.385  10.689 -19.597  1.00  0.00    -0.014 A 
ATOM     78  C   UNL     1      -2.685  10.480 -20.796  1.00  0.00     0.009 A 
ATOM     79  C   UNL     1      -3.882   9.577 -18.900  1.00  0.00     0.009 A 
ATOM     80  C   UNL     1      -2.507   9.189 -21.298  1.00  0.00     0.001 A 
ATOM     81  C   UNL     1      -3.680   8.285 -19.392  1.00  0.00     0.001 A 
ATOM     82  C   UNL     1      -3.001   8.093 -20.594  1.00  0.00     0.000 A 
ENDBRANCH  58  77
BRANCH  70  83
ATOM     83  C   UNL     1      -7.164  16.088 -21.825  1.00  0.00    -0.014 A 
ATOM     84  C   UNL     1      -8.441  15.507 -21.865  1.00  0.00     0.009 A 
ATOM     85  C   UNL     1      -6.746  16.893 -22.896  1.00  0.00     0.009 A 
ATOM     86  C   UNL     1      -9.270  15.706 -22.970  1.00  0.00     0.001 A 
ATOM     87  C   UNL     1      -7.588  17.113 -23.986  1.00  0.00     0.001 A 
ATOM     88  C   UNL     1      -8.845  16.513 -24.026  1.00  0.00     0.000 A 
ENDBRANCH  70  83
ENDBRANCH  44  45
ENDBRANCH  36  39
ENDBRANCH  34  35
ENDBRANCH  33  34
ENDBRANCH  32  33
ENDBRANCH   3  32
TORSDOF 16
