REMARK SMILES N#Cc1ccc(C(=O)N2CCC(Oc3ccccc3)(C(=O)NCCCNC(=O)c3ccc(-c4c5nc(c(-c6ccccc6)c6ccc([nH]6)c(-c6ccccc6)c6nc(c(-c7ccccc7)c7ccc4[nH]7)C=C6)C=C5)cc3)CC2)cc1
REMARK SMILES IDX 24 1 23 2 22 3 20 4 21 5 12 7 7 8 8 9 9 10 10 11 78 12 11 13
REMARK SMILES IDX 77 14 6 15 3 16 4 17 80 18 5 19 79 20 2 21 1 22 13 23 14 24
REMARK SMILES IDX 15 25 19 26 16 27 18 28 17 29 25 30 26 31 27 32 28 34 29 35
REMARK SMILES IDX 30 36 76 37 31 38 75 39 32 40 33 41 34 42 69 43 35 44 74 45
REMARK SMILES IDX 68 46 70 47 36 48 73 49 67 50 66 51 37 53 59 54 44 55 58 56
REMARK SMILES IDX 45 57 48 58 57 59 71 60 46 61 47 62 56 64 72 65 49 66 38 67
REMARK SMILES IDX 39 68 43 69 40 70 42 71 41 72 60 73 61 74 65 75 62 76 64 77
REMARK SMILES IDX 63 78 50 79 51 80 55 81 52 82 54 83 53 84
REMARK H PARENT 22 6 26 33 70 52 48 63
REMARK Flexibility Score: inf
ROOT
ATOM      1  C   UNL     1       7.318  -5.274   3.119  1.00  0.00     0.042 C 
ENDROOT
BRANCH   1   2
ATOM      2  C   UNL     1       7.615  -5.400   1.631  1.00  0.00     0.118 C 
BRANCH   2   3
ATOM      3  N   UNL     1       6.394  -5.497   0.852  1.00  0.00    -0.353 N 
ATOM      4  C   UNL     1       5.853  -4.639  -0.061  1.00  0.00     0.264 C 
ATOM      5  O   UNL     1       4.814  -5.027  -0.607  1.00  0.00    -0.270 OA
ATOM      6  H   UNL     1       5.871  -6.316   1.008  1.00  0.00     0.163 HD
BRANCH   4   7
ATOM      7  C   UNL     1       6.492  -3.252  -0.365  1.00  0.00     0.190 C 
ATOM      8  C   UNL     1       3.677  -0.205   0.338  1.00  0.00     0.253 C 
ATOM      9  O   UNL     1       4.235   0.741   0.888  1.00  0.00    -0.269 OA
ATOM     10  N   UNL     1       4.301  -1.426   0.145  1.00  0.00    -0.338 N 
ATOM     11  C   UNL     1       5.010  -2.015   1.261  1.00  0.00     0.124 C 
ATOM     12  C   UNL     1       4.299  -2.147  -1.126  1.00  0.00     0.124 C 
ATOM     13  C   UNL     1       6.434  -2.342   0.876  1.00  0.00     0.080 C 
ATOM     14  C   UNL     1       5.716  -2.583  -1.527  1.00  0.00     0.080 C 
BRANCH   8  15
ATOM     15  C   UNL     1       2.216  -0.125   0.053  1.00  0.00     0.040 A 
ATOM     16  C   UNL     1      -0.578   0.085  -0.094  1.00  0.00     0.052 A 
ATOM     17  C   UNL     1       0.215   1.238  -0.108  1.00  0.00     0.020 A 
ATOM     18  C   UNL     1       0.026  -1.173  -0.016  1.00  0.00     0.020 A 
ATOM     19  C   UNL     1       1.609   1.134  -0.033  1.00  0.00     0.015 A 
ATOM     20  C   UNL     1       1.416  -1.276   0.068  1.00  0.00     0.015 A 
BRANCH  16  21
ATOM     21  C   UNL     1      -2.009   0.184  -0.118  1.00  0.00     0.099 C 
ATOM     22  N   UNL     1      -3.166   0.247  -0.127  1.00  0.00    -0.192 NA
ENDBRANCH  16  21
ENDBRANCH   8  15
BRANCH   7  23
ATOM     23  O   UNL     1       7.827  -3.640  -0.783  1.00  0.00    -0.477 OA
BRANCH  23  24
ATOM     24  C   UNL     1       8.735  -2.669  -1.080  1.00  0.00     0.120 A 
ATOM     25  C   UNL     1       9.194  -2.606  -2.393  1.00  0.00     0.046 A 
ATOM     26  C   UNL     1       9.316  -1.860  -0.105  1.00  0.00     0.046 A 
ATOM     27  C   UNL     1      10.161  -1.666  -2.749  1.00  0.00     0.004 A 
ATOM     28  C   UNL     1      10.258  -0.897  -0.464  1.00  0.00     0.004 A 
ATOM     29  C   UNL     1      10.675  -0.795  -1.789  1.00  0.00     0.000 A 
ENDBRANCH  23  24
ENDBRANCH   7  23
ENDBRANCH   4   7
ENDBRANCH   2   3
ENDBRANCH   1   2
BRANCH   1  30
ATOM     30  C   UNL     1       6.651  -6.505   3.716  1.00  0.00     0.118 C 
BRANCH  30  31
ATOM     31  N   UNL     1       7.501  -7.684   3.654  1.00  0.00    -0.352 N 
ATOM     32  C   UNL     1       8.019  -8.457   4.662  1.00  0.00     0.251 C 
ATOM     33  H   UNL     1       7.744  -7.972   2.745  1.00  0.00     0.163 HD
ATOM     34  O   UNL     1       8.889  -9.284   4.404  1.00  0.00    -0.269 OA
BRANCH  32  35
ATOM     35  C   UNL     1       7.551  -8.293   6.055  1.00  0.00     0.039 A 
ATOM     36  C   UNL     1       8.485  -8.384   7.090  1.00  0.00     0.014 A 
ATOM     37  C   UNL     1       6.201  -8.082   6.350  1.00  0.00     0.014 A 
ATOM     38  C   UNL     1       8.073  -8.209   8.411  1.00  0.00     0.010 A 
ATOM     39  C   UNL     1       5.809  -7.811   7.658  1.00  0.00     0.010 A 
ATOM     40  C   UNL     1       6.738  -7.883   8.705  1.00  0.00    -0.014 A 
BRANCH  40  41
ATOM     41  C   UNL     1       6.307  -7.617  10.101  1.00  0.00     0.031 A 
ATOM     42  C   UNL     1       5.275  -8.489  10.763  1.00  0.00     0.074 A 
ATOM     43  C   UNL     1       6.823  -6.562  10.764  1.00  0.00     0.049 A 
ATOM     44  N   UNL     1       4.772  -8.400  11.969  1.00  0.00    -0.248 NA
ATOM     45  C   UNL     1       4.718  -9.590   9.961  1.00  0.00     0.031 C 
ATOM     46  C   UNL     1       7.805  -5.620  10.223  1.00  0.00     0.029 A 
ATOM     47  N   UNL     1       6.596  -6.109  12.039  1.00  0.00    -0.354 N 
ATOM     48  C   UNL     1       3.839  -9.425  12.066  1.00  0.00     0.074 A 
ATOM     49  C   UNL     1       3.799 -10.083  10.779  1.00  0.00     0.031 C 
ATOM     50  C   UNL     1       8.128  -4.729  11.174  1.00  0.00     0.029 A 
ATOM     51  C   UNL     1       7.339  -5.002  12.370  1.00  0.00     0.049 A 
ATOM     52  H   UNL     1       5.961  -6.537  12.658  1.00  0.00     0.167 HD
ATOM     53  C   UNL     1       3.097  -9.801  13.136  1.00  0.00     0.031 A 
ATOM     54  C   UNL     1       7.376  -4.279  13.505  1.00  0.00     0.031 A 
ATOM     55  C   UNL     1       3.131  -9.139  14.414  1.00  0.00     0.049 A 
ATOM     56  C   UNL     1       6.506  -4.689  14.662  1.00  0.00     0.074 A 
ATOM     57  C   UNL     1       2.448  -9.470  15.572  1.00  0.00     0.029 A 
ATOM     58  N   UNL     1       3.877  -8.007  14.699  1.00  0.00    -0.354 N 
ATOM     59  N   UNL     1       5.682  -5.704  14.760  1.00  0.00    -0.248 NA
ATOM     60  C   UNL     1       6.583  -3.857  15.870  1.00  0.00     0.031 C 
ATOM     61  C   UNL     1       2.724  -8.494  16.534  1.00  0.00     0.029 A 
ATOM     62  C   UNL     1       3.644  -7.604  16.005  1.00  0.00     0.049 A 
ATOM     63  H   UNL     1       4.483  -7.555  14.068  1.00  0.00     0.167 HD
ATOM     64  C   UNL     1       5.170  -5.652  16.050  1.00  0.00     0.074 A 
ATOM     65  C   UNL     1       5.793  -4.520  16.702  1.00  0.00     0.031 C 
ATOM     66  C   UNL     1       4.266  -6.471  16.642  1.00  0.00     0.031 A 
BRANCH  53  67
ATOM     67  C   UNL     1       2.170 -10.974  12.961  1.00  0.00    -0.014 A 
ATOM     68  C   UNL     1       2.662 -12.274  12.759  1.00  0.00     0.009 A 
ATOM     69  C   UNL     1       0.781 -10.784  13.039  1.00  0.00     0.009 A 
ATOM     70  C   UNL     1       1.784 -13.349  12.597  1.00  0.00     0.001 A 
ATOM     71  C   UNL     1      -0.093 -11.865  12.913  1.00  0.00     0.001 A 
ATOM     72  C   UNL     1       0.408 -13.144  12.681  1.00  0.00     0.000 A 
ENDBRANCH  53  67
BRANCH  54  73
ATOM     73  C   UNL     1       8.270  -3.095  13.610  1.00  0.00    -0.014 A 
ATOM     74  C   UNL     1       9.358  -3.094  14.496  1.00  0.00     0.009 A 
ATOM     75  C   UNL     1       8.029  -1.949  12.836  1.00  0.00     0.009 A 
ATOM     76  C   UNL     1      10.162  -1.959  14.632  1.00  0.00     0.001 A 
ATOM     77  C   UNL     1       8.856  -0.829  12.945  1.00  0.00     0.001 A 
ATOM     78  C   UNL     1       9.913  -0.830  13.853  1.00  0.00     0.000 A 
ENDBRANCH  54  73
BRANCH  66  79
ATOM     79  C   UNL     1       3.931  -6.199  18.085  1.00  0.00    -0.014 A 
ATOM     80  C   UNL     1       3.222  -5.052  18.475  1.00  0.00     0.009 A 
ATOM     81  C   UNL     1       4.310  -7.127  19.069  1.00  0.00     0.009 A 
ATOM     82  C   UNL     1       2.943  -4.818  19.823  1.00  0.00     0.001 A 
ATOM     83  C   UNL     1       3.995  -6.910  20.410  1.00  0.00     0.001 A 
ATOM     84  C   UNL     1       3.324  -5.749  20.788  1.00  0.00     0.000 A 
ENDBRANCH  66  79
ENDBRANCH  40  41
ENDBRANCH  32  35
ENDBRANCH  30  31
ENDBRANCH   1  30
TORSDOF 14
