REMARK SMILES O=C(NCCCNC(=O)[C@@]12CCC[C@@H](C[NH2+]1)C2)c1ccc(-c2c3nc(c(-c4ccccc4)c4ccc([nH]4)c(-c4ccccc4)c4nc(c(-c5ccccc5)c5ccc2[nH]5)C=C4)C=C3)cc1
REMARK SMILES IDX 4 1 3 2 1 3 2 4 18 6 19 7 65 8 20 9 64 10 21 11 22 12 23 13
REMARK SMILES IDX 58 14 24 15 63 16 57 17 59 18 25 19 62 20 56 21 55 22 26 24
REMARK SMILES IDX 48 25 33 26 47 27 34 28 37 29 46 30 60 31 35 32 36 33 45 35
REMARK SMILES IDX 61 36 38 37 27 38 28 39 32 40 29 41 31 42 30 43 49 44 50 45
REMARK SMILES IDX 54 46 51 47 53 48 52 49 39 50 40 51 44 52 41 53 43 54 42 55
REMARK SMILES IDX 5 56 6 57 7 58 8 59 9 61 10 62 11 63 16 64 17 65 12 66 15 67
REMARK SMILES IDX 14 70 13 71
REMARK H PARENT 3 5 59 23 37 34 7 60 16 68 16 69
REMARK Flexibility Score: inf
ROOT
ATOM      1  C   UNL     1       4.322   0.230  -1.289  1.00  0.00     0.118 C 
ENDROOT
BRANCH   1   2
ATOM      2  N   UNL     1       2.907   0.383  -0.975  1.00  0.00    -0.352 N 
ATOM      3  O   UNL     1       1.016   0.136   0.221  1.00  0.00    -0.269 OA
ATOM      4  C   UNL     1       2.246   0.173   0.207  1.00  0.00     0.251 C 
ATOM      5  H   UNL     1       2.342   0.681  -1.724  1.00  0.00     0.163 HD
BRANCH   4   6
ATOM      6  C   UNL     1       3.003  -0.018   1.461  1.00  0.00     0.039 A 
ATOM      7  C   UNL     1       4.147   0.738   1.725  1.00  0.00     0.014 A 
ATOM      8  C   UNL     1       2.541  -0.939   2.406  1.00  0.00     0.014 A 
ATOM      9  C   UNL     1       4.907   0.475   2.856  1.00  0.00     0.010 A 
ATOM     10  C   UNL     1       3.247  -1.125   3.597  1.00  0.00     0.010 A 
ATOM     11  C   UNL     1       4.447  -0.433   3.822  1.00  0.00    -0.014 A 
BRANCH  11  12
ATOM     12  C   UNL     1       5.194  -0.564   5.096  1.00  0.00     0.031 A 
ATOM     13  C   UNL     1       5.840  -1.860   5.493  1.00  0.00     0.074 A 
ATOM     14  C   UNL     1       5.302   0.521   5.888  1.00  0.00     0.049 A 
ATOM     15  N   UNL     1       6.543  -2.131   6.564  1.00  0.00    -0.248 NA
ATOM     16  C   UNL     1       5.674  -3.000   4.579  1.00  0.00     0.031 C 
ATOM     17  C   UNL     1       4.713   1.834   5.605  1.00  0.00     0.029 A 
ATOM     18  N   UNL     1       5.958   0.704   7.076  1.00  0.00    -0.354 N 
ATOM     19  C   UNL     1       6.893  -3.470   6.460  1.00  0.00     0.074 A 
ATOM     20  C   UNL     1       6.297  -3.967   5.238  1.00  0.00     0.031 C 
ATOM     21  C   UNL     1       5.078   2.697   6.563  1.00  0.00     0.029 A 
ATOM     22  C   UNL     1       5.860   1.984   7.564  1.00  0.00     0.049 A 
ATOM     23  H   UNL     1       6.453  -0.013   7.536  1.00  0.00     0.167 HD
ATOM     24  C   UNL     1       7.648  -4.215   7.304  1.00  0.00     0.031 A 
ATOM     25  C   UNL     1       6.327   2.524   8.704  1.00  0.00     0.031 A 
ATOM     26  C   UNL     1       8.224  -3.716   8.528  1.00  0.00     0.049 A 
ATOM     27  C   UNL     1       7.106   1.657   9.648  1.00  0.00     0.074 A 
ATOM     28  C   UNL     1       9.018  -4.387   9.443  1.00  0.00     0.029 A 
ATOM     29  N   UNL     1       8.060  -2.427   9.012  1.00  0.00    -0.354 N 
ATOM     30  N   UNL     1       7.459   0.402   9.517  1.00  0.00    -0.248 NA
ATOM     31  C   UNL     1       7.553   2.285  10.898  1.00  0.00     0.031 C 
ATOM     32  C   UNL     1       9.283  -3.522  10.509  1.00  0.00     0.029 A 
ATOM     33  C   UNL     1       8.714  -2.291  10.226  1.00  0.00     0.049 A 
ATOM     34  H   UNL     1       7.554  -1.714   8.559  1.00  0.00     0.167 HD
ATOM     35  C   UNL     1       8.191   0.095  10.655  1.00  0.00     0.074 A 
ATOM     36  C   UNL     1       8.250   1.304  11.452  1.00  0.00     0.031 C 
ATOM     37  C   UNL     1       8.761  -1.082  11.009  1.00  0.00     0.031 A 
BRANCH  24  38
ATOM     38  C   UNL     1       7.872  -5.660   6.948  1.00  0.00    -0.014 A 
ATOM     39  C   UNL     1       8.685  -6.028   5.863  1.00  0.00     0.009 A 
ATOM     40  C   UNL     1       7.299  -6.670   7.737  1.00  0.00     0.009 A 
ATOM     41  C   UNL     1       8.890  -7.375   5.557  1.00  0.00     0.001 A 
ATOM     42  C   UNL     1       7.530  -8.016   7.446  1.00  0.00     0.001 A 
ATOM     43  C   UNL     1       8.317  -8.368   6.351  1.00  0.00     0.000 A 
ENDBRANCH  24  38
BRANCH  25  44
ATOM     44  C   UNL     1       6.047   3.949   9.022  1.00  0.00    -0.014 A 
ATOM     45  C   UNL     1       7.085   4.891   9.067  1.00  0.00     0.009 A 
ATOM     46  C   UNL     1       4.734   4.372   9.289  1.00  0.00     0.009 A 
ATOM     47  C   UNL     1       6.818   6.220   9.403  1.00  0.00     0.001 A 
ATOM     48  C   UNL     1       4.466   5.708   9.589  1.00  0.00     0.001 A 
ATOM     49  C   UNL     1       5.510   6.628   9.659  1.00  0.00     0.000 A 
ENDBRANCH  25  44
BRANCH  37  50
ATOM     50  C   UNL     1       9.534  -1.103  12.298  1.00  0.00    -0.014 A 
ATOM     51  C   UNL     1       8.887  -1.019  13.541  1.00  0.00     0.009 A 
ATOM     52  C   UNL     1      10.931  -1.232  12.266  1.00  0.00     0.009 A 
ATOM     53  C   UNL     1       9.630  -1.022  14.724  1.00  0.00     0.001 A 
ATOM     54  C   UNL     1      11.667  -1.270  13.450  1.00  0.00     0.001 A 
ATOM     55  C   UNL     1      11.018  -1.153  14.677  1.00  0.00     0.000 A 
ENDBRANCH  37  50
ENDBRANCH  11  12
ENDBRANCH   4   6
ENDBRANCH   1   2
BRANCH   1  56
ATOM     56  C   UNL     1       4.551  -0.841  -2.337  1.00  0.00     0.042 C 
BRANCH  56  57
ATOM     57  C   UNL     1       4.113  -0.393  -3.726  1.00  0.00     0.118 C 
BRANCH  57  58
ATOM     58  N   UNL     1       5.142   0.405  -4.376  1.00  0.00    -0.351 N 
ATOM     59  C   UNL     1       6.114   0.015  -5.263  1.00  0.00     0.281 C 
ATOM     60  H   UNL     1       5.141   1.363  -4.147  1.00  0.00     0.163 HD
ATOM     61  O   UNL     1       6.920   0.864  -5.646  1.00  0.00    -0.268 OA
BRANCH  59  62
ATOM     62  C   UNL     1       6.136  -1.446  -5.780  1.00  0.00     0.176 C 
ATOM     63  C   UNL     1       6.421  -2.463  -4.647  1.00  0.00     0.079 C 
ATOM     64  N   UNL     1       4.822  -1.740  -6.457  1.00  0.00    -0.333 N 
ATOM     65  C   UNL     1       7.163  -1.715  -6.885  1.00  0.00     0.088 C 
ATOM     66  C   UNL     1       6.968  -3.807  -5.143  1.00  0.00     0.008 C 
ATOM     67  C   UNL     1       5.124  -2.400  -7.734  1.00  0.00     0.265 C 
ATOM     68  H   UNL     1       4.316  -0.871  -6.626  1.00  0.00     0.347 HD
ATOM     69  H   UNL     1       4.241  -2.338  -5.871  1.00  0.00     0.347 HD
ATOM     70  C   UNL     1       6.525  -2.952  -7.520  1.00  0.00     0.051 C 
ATOM     71  C   UNL     1       6.465  -4.155  -6.541  1.00  0.00     0.010 C 
ENDBRANCH  59  62
ENDBRANCH  57  58
ENDBRANCH  56  57
ENDBRANCH   1  56
TORSDOF 10
