REMARK SMILES Nc1ccc(-c2cc(Cl)cc3c2O[C@H](C(F)(F)F)C(C(=O)NCCCNC(=O)c2ccc(-c4c5nc(c(-c6ccccc6)c6ccc([nH]6)c(-c6ccccc6)c6nc(c(-c7ccccc7)c7ccc4[nH]7)C=C6)C=C5)cc2)=C3)cc1
REMARK SMILES IDX 24 1 23 2 22 3 20 4 21 5 19 7 6 8 7 9 12 10 8 11 11 12 13 13
REMARK SMILES IDX 9 14 10 15 77 16 14 17 5 18 2 19 3 20 79 21 4 22 78 23 1 24
REMARK SMILES IDX 15 27 16 28 17 29 18 30 25 31 26 32 27 33 28 35 29 36 30 37
REMARK SMILES IDX 76 38 31 39 75 40 32 41 33 42 34 43 69 44 35 45 74 46 68 47
REMARK SMILES IDX 70 48 36 49 73 50 67 51 66 52 37 54 59 55 44 56 58 57 45 58
REMARK SMILES IDX 48 59 57 60 71 61 46 62 47 63 56 65 72 66 49 67 38 68 39 69
REMARK SMILES IDX 43 70 40 71 42 72 41 73 60 74 61 75 65 76 62 77 64 78 63 79
REMARK SMILES IDX 50 80 51 81 55 82 52 83 54 84 53 85
REMARK H PARENT 22 6 1 25 1 26 26 34 70 53 48 64
REMARK Flexibility Score: inf
ROOT
ATOM      1  C   UNL     1      -3.637  -2.844   6.514  1.00  0.00     0.042 C 
ENDROOT
BRANCH   1   2
ATOM      2  C   UNL     1      -4.289  -3.642   5.396  1.00  0.00     0.118 C 
BRANCH   2   3
ATOM      3  N   UNL     1      -5.611  -3.137   5.058  1.00  0.00    -0.352 N 
ATOM      4  C   UNL     1      -6.164  -2.385   4.077  1.00  0.00     0.251 C 
ATOM      5  O   UNL     1      -7.381  -2.202   4.178  1.00  0.00    -0.270 OA
ATOM      6  H   UNL     1      -6.284  -3.416   5.721  1.00  0.00     0.163 HD
BRANCH   4   7
ATOM      7  C   UNL     1      -5.420  -1.787   2.932  1.00  0.00     0.067 C 
ATOM      8  C   UNL     1      -3.361   0.146  -0.188  1.00  0.00     0.026 A 
ATOM      9  C   UNL     1      -4.102   0.698  -1.242  1.00  0.00     0.033 A 
ATOM     10  C   UNL     1      -4.069  -0.417   0.891  1.00  0.00     0.135 A 
ATOM     11  C   UNL     1      -5.499   0.681  -1.210  1.00  0.00     0.042 A 
ATOM     12  C   UNL     1      -5.470  -0.446   0.922  1.00  0.00     0.019 A 
ATOM     13  O   UNL     1      -3.339  -0.890   1.953  1.00  0.00    -0.475 OA
ATOM     14  Cl  UNL     1      -6.386   1.367  -2.516  1.00  0.00    -0.084 Cl
ATOM     15  C   UNL     1      -6.186   0.113  -0.136  1.00  0.00     0.032 A 
ATOM     16  C   UNL     1      -6.144  -1.043   2.072  1.00  0.00     0.025 C 
ATOM     17  C   UNL     1      -3.951  -1.974   2.694  1.00  0.00     0.314 C 
BRANCH   8  18
ATOM     18  C   UNL     1      -1.890   0.132  -0.220  1.00  0.00    -0.014 A 
ATOM     19  C   UNL     1       0.942   0.078  -0.121  1.00  0.00     0.031 A 
ATOM     20  C   UNL     1       0.211  -1.107  -0.169  1.00  0.00     0.026 A 
ATOM     21  C   UNL     1       0.248   1.290  -0.104  1.00  0.00     0.026 A 
ATOM     22  C   UNL     1      -1.185  -1.083  -0.236  1.00  0.00     0.011 A 
ATOM     23  C   UNL     1      -1.151   1.320  -0.165  1.00  0.00     0.011 A 
BRANCH  19  24
ATOM     24  N   UNL     1       2.317   0.050   0.040  1.00  0.00    -0.399 N 
ATOM     25  H   UNL     1       2.796  -0.810   0.026  1.00  0.00     0.156 HD
ATOM     26  H   UNL     1       2.815   0.889   0.168  1.00  0.00     0.156 HD
ENDBRANCH  19  24
ENDBRANCH   8  18
BRANCH  17  27
ATOM     27  C   UNL     1      -3.611  -3.321   2.025  1.00  0.00     0.429 C 
ATOM     28  F   UNL     1      -2.295  -3.611   2.186  1.00  0.00    -0.167 F 
ATOM     29  F   UNL     1      -4.300  -4.355   2.564  1.00  0.00    -0.167 F 
ATOM     30  F   UNL     1      -3.867  -3.333   0.698  1.00  0.00    -0.167 F 
ENDBRANCH  17  27
ENDBRANCH   4   7
ENDBRANCH   2   3
ENDBRANCH   1   2
BRANCH   1  31
ATOM     31  C   UNL     1      -4.108  -3.280   7.894  1.00  0.00     0.118 C 
BRANCH  31  32
ATOM     32  N   UNL     1      -3.675  -4.635   8.232  1.00  0.00    -0.352 N 
ATOM     33  C   UNL     1      -2.959  -5.100   9.310  1.00  0.00     0.251 C 
ATOM     34  H   UNL     1      -3.939  -5.327   7.583  1.00  0.00     0.163 HD
ATOM     35  O   UNL     1      -2.552  -6.258   9.319  1.00  0.00    -0.269 OA
BRANCH  33  36
ATOM     36  C   UNL     1      -2.655  -4.201  10.441  1.00  0.00     0.039 A 
ATOM     37  C   UNL     1      -3.608  -3.293  10.897  1.00  0.00     0.014 A 
ATOM     38  C   UNL     1      -1.394  -4.253  11.044  1.00  0.00     0.014 A 
ATOM     39  C   UNL     1      -3.236  -2.304  11.795  1.00  0.00     0.010 A 
ATOM     40  C   UNL     1      -1.060  -3.329  12.039  1.00  0.00     0.010 A 
ATOM     41  C   UNL     1      -1.958  -2.308  12.380  1.00  0.00    -0.014 A 
BRANCH  41  42
ATOM     42  C   UNL     1      -1.613  -1.223  13.335  1.00  0.00     0.031 A 
ATOM     43  C   UNL     1      -0.514  -0.241  13.031  1.00  0.00     0.074 A 
ATOM     44  C   UNL     1      -2.378  -1.062  14.434  1.00  0.00     0.049 A 
ATOM     45  N   UNL     1      -0.170   0.834  13.696  1.00  0.00    -0.248 NA
ATOM     46  C   UNL     1       0.309  -0.490  11.836  1.00  0.00     0.031 C 
ATOM     47  C   UNL     1      -3.477  -1.949  14.828  1.00  0.00     0.029 A 
ATOM     48  N   UNL     1      -2.396  -0.072  15.382  1.00  0.00    -0.354 N 
ATOM     49  C   UNL     1       0.917   1.371  13.017  1.00  0.00     0.074 A 
ATOM     50  C   UNL     1       1.196   0.494  11.902  1.00  0.00     0.031 C 
ATOM     51  C   UNL     1      -4.122  -1.410  15.871  1.00  0.00     0.029 A 
ATOM     52  C   UNL     1      -3.440  -0.184  16.269  1.00  0.00     0.049 A 
ATOM     53  H   UNL     1      -1.726   0.649  15.424  1.00  0.00     0.167 HD
ATOM     54  C   UNL     1       1.612   2.500  13.292  1.00  0.00     0.031 A 
ATOM     55  C   UNL     1      -3.820   0.613  17.286  1.00  0.00     0.031 A 
ATOM     56  C   UNL     1       1.319   3.382  14.391  1.00  0.00     0.049 A 
ATOM     57  C   UNL     1      -3.033   1.859  17.568  1.00  0.00     0.074 A 
ATOM     58  C   UNL     1       1.969   4.550  14.750  1.00  0.00     0.029 A 
ATOM     59  N   UNL     1       0.287   3.201  15.298  1.00  0.00    -0.354 N 
ATOM     60  N   UNL     1      -2.007   2.348  16.915  1.00  0.00    -0.248 NA
ATOM     61  C   UNL     1      -3.454   2.663  18.723  1.00  0.00     0.031 C 
ATOM     62  C   UNL     1       1.360   5.051  15.902  1.00  0.00     0.029 A 
ATOM     63  C   UNL     1       0.290   4.231  16.223  1.00  0.00     0.049 A 
ATOM     64  H   UNL     1      -0.352   2.452  15.286  1.00  0.00     0.167 HD
ATOM     65  C   UNL     1      -1.667   3.523  17.570  1.00  0.00     0.074 A 
ATOM     66  C   UNL     1      -2.610   3.685  18.657  1.00  0.00     0.031 C 
ATOM     67  C   UNL     1      -0.659   4.384  17.295  1.00  0.00     0.031 A 
BRANCH  54  68
ATOM     68  C   UNL     1       2.772   2.853  12.402  1.00  0.00    -0.014 A 
ATOM     69  C   UNL     1       4.082   2.783  12.906  1.00  0.00     0.009 A 
ATOM     70  C   UNL     1       2.571   3.344  11.103  1.00  0.00     0.009 A 
ATOM     71  C   UNL     1       5.163   3.210  12.134  1.00  0.00     0.001 A 
ATOM     72  C   UNL     1       3.658   3.745  10.323  1.00  0.00     0.001 A 
ATOM     73  C   UNL     1       4.951   3.687  10.842  1.00  0.00     0.000 A 
ENDBRANCH  54  68
BRANCH  55  74
ATOM     74  C   UNL     1      -5.020   0.253  18.086  1.00  0.00    -0.014 A 
ATOM     75  C   UNL     1      -5.017  -0.893  18.899  1.00  0.00     0.009 A 
ATOM     76  C   UNL     1      -6.194   1.014  17.995  1.00  0.00     0.009 A 
ATOM     77  C   UNL     1      -6.171  -1.285  19.580  1.00  0.00     0.001 A 
ATOM     78  C   UNL     1      -7.338   0.638  18.704  1.00  0.00     0.001 A 
ATOM     79  C   UNL     1      -7.329  -0.517  19.486  1.00  0.00     0.000 A 
ENDBRANCH  55  74
BRANCH  67  80
ATOM     80  C   UNL     1      -0.523   5.602  18.163  1.00  0.00    -0.014 A 
ATOM     81  C   UNL     1      -0.799   6.870  17.626  1.00  0.00     0.009 A 
ATOM     82  C   UNL     1      -0.029   5.509  19.473  1.00  0.00     0.009 A 
ATOM     83  C   UNL     1      -0.571   8.022  18.379  1.00  0.00     0.001 A 
ATOM     84  C   UNL     1       0.172   6.662  20.233  1.00  0.00     0.001 A 
ATOM     85  C   UNL     1      -0.090   7.917  19.683  1.00  0.00     0.000 A 
ENDBRANCH  67  80
ENDBRANCH  41  42
ENDBRANCH  33  36
ENDBRANCH  31  32
ENDBRANCH   1  31
TORSDOF 13
