REMARK SMILES C[NH2+][C@@]1(C(=O)NCCCNC(=O)c2ccc(-c3c4nc(c(-c5ccccc5)c5ccc([nH]5)c(-c5ccccc5)c5nc(c(-c6ccccc6)c6ccc3[nH]6)C=C5)C=C4)cc2)CC[C@H](Sc2ccc(C)c(C)c2)C1
REMARK SMILES IDX 8 1 7 2 6 3 4 4 5 5 3 7 61 8 73 9 62 10 63 11 2 12 1 13
REMARK SMILES IDX 64 16 65 17 66 18 72 19 67 20 70 21 68 22 71 23 69 24 9 25
REMARK SMILES IDX 10 26 11 27 12 29 13 30 14 31 60 32 15 33 59 34 16 35 17 36
REMARK SMILES IDX 18 37 53 38 19 39 58 40 52 41 54 42 20 43 57 44 51 45 50 46
REMARK SMILES IDX 21 48 43 49 28 50 42 51 29 52 32 53 41 54 55 55 30 56 31 57
REMARK SMILES IDX 40 59 56 60 33 61 22 62 23 63 27 64 24 65 26 66 25 67 44 68
REMARK SMILES IDX 45 69 49 70 46 71 48 72 47 73 34 74 35 75 39 76 36 77 38 78
REMARK SMILES IDX 37 79
REMARK H PARENT 6 6 2 14 2 15 10 28 54 47 32 58
REMARK Flexibility Score: inf
ROOT
ATOM      1  C   UNL     1      -4.607  -1.470   3.222  1.00  0.00     0.042 C 
ENDROOT
BRANCH   1   2
ATOM      2  C   UNL     1      -3.851  -0.224   2.792  1.00  0.00     0.118 C 
BRANCH   2   3
ATOM      3  N   UNL     1      -2.491  -0.217   3.276  1.00  0.00    -0.351 N 
ATOM      4  C   UNL     1      -1.299  -0.364   2.640  1.00  0.00     0.281 C 
ATOM      5  O   UNL     1      -0.333  -0.529   3.400  1.00  0.00    -0.268 OA
ATOM      6  H   UNL     1      -2.412  -0.079   4.248  1.00  0.00     0.163 HD
BRANCH   4   7
ATOM      7  C   UNL     1      -1.113  -0.406   1.058  1.00  0.00     0.176 C 
ATOM      8  C   UNL     1      -1.805   0.761   0.331  1.00  0.00     0.080 C 
ATOM      9  C   UNL     1      -1.735  -1.701   0.503  1.00  0.00     0.094 C 
ATOM     10  C   UNL     1      -2.953   0.188  -0.504  1.00  0.00     0.022 C 
ATOM     11  C   UNL     1      -2.710  -1.311  -0.624  1.00  0.00     0.058 C 
BRANCH   7  12
ATOM     12  N   UNL     1       0.362  -0.350   0.875  1.00  0.00    -0.336 N 
ATOM     13  C   UNL     1       0.921  -0.329  -0.458  1.00  0.00     0.331 C 
ATOM     14  H   UNL     1       0.686   0.495   1.344  1.00  0.00     0.346 HD
ATOM     15  H   UNL     1       0.680  -1.244   1.249  1.00  0.00     0.346 HD
ENDBRANCH   7  12
BRANCH  11  16
ATOM     16  S   UNL     1      -4.106  -2.533  -0.639  1.00  0.00    -0.122 SA
BRANCH  16  17
ATOM     17  C   UNL     1      -5.664  -1.665  -0.583  1.00  0.00     0.008 A 
ATOM     18  C   UNL     1      -5.974  -0.562  -1.371  1.00  0.00     0.015 A 
ATOM     19  C   UNL     1      -6.688  -2.221   0.203  1.00  0.00     0.018 A 
ATOM     20  C   UNL     1      -7.253   0.009  -1.326  1.00  0.00     0.005 A 
ATOM     21  C   UNL     1      -7.982  -1.663   0.257  1.00  0.00    -0.047 A 
ATOM     22  C   UNL     1      -8.268  -0.527  -0.516  1.00  0.00    -0.048 A 
ATOM     23  C   UNL     1      -9.029  -2.334   1.101  1.00  0.00     0.044 C 
ATOM     24  C   UNL     1      -9.632   0.108  -0.575  1.00  0.00     0.044 C 
ENDBRANCH  16  17
ENDBRANCH  11  16
ENDBRANCH   4   7
ENDBRANCH   2   3
ENDBRANCH   1   2
BRANCH   1  25
ATOM     25  C   UNL     1      -5.159  -1.386   4.634  1.00  0.00     0.118 C 
BRANCH  25  26
ATOM     26  N   UNL     1      -6.259  -0.435   4.757  1.00  0.00    -0.352 N 
ATOM     27  C   UNL     1      -7.621  -0.575   4.862  1.00  0.00     0.251 C 
ATOM     28  H   UNL     1      -5.963   0.504   4.767  1.00  0.00     0.163 HD
ATOM     29  O   UNL     1      -8.315   0.442   4.808  1.00  0.00    -0.269 OA
BRANCH  27  30
ATOM     30  C   UNL     1      -8.290  -1.892   5.001  1.00  0.00     0.039 A 
ATOM     31  C   UNL     1      -9.599  -2.032   4.512  1.00  0.00     0.014 A 
ATOM     32  C   UNL     1      -7.696  -2.978   5.639  1.00  0.00     0.014 A 
ATOM     33  C   UNL     1     -10.254  -3.267   4.565  1.00  0.00     0.010 A 
ATOM     34  C   UNL     1      -8.301  -4.230   5.610  1.00  0.00     0.010 A 
ATOM     35  C   UNL     1      -9.591  -4.383   5.085  1.00  0.00    -0.014 A 
BRANCH  35  36
ATOM     36  C   UNL     1     -10.250  -5.703   5.204  1.00  0.00     0.031 A 
ATOM     37  C   UNL     1     -10.576  -6.229   6.573  1.00  0.00     0.074 A 
ATOM     38  C   UNL     1     -10.474  -6.456   4.111  1.00  0.00     0.049 A 
ATOM     39  N   UNL     1     -11.056  -7.395   6.920  1.00  0.00    -0.248 NA
ATOM     40  C   UNL     1     -10.295  -5.331   7.707  1.00  0.00     0.031 C 
ATOM     41  C   UNL     1     -10.172  -6.066   2.733  1.00  0.00     0.029 A 
ATOM     42  N   UNL     1     -10.992  -7.721   3.994  1.00  0.00    -0.354 N 
ATOM     43  C   UNL     1     -11.112  -7.376   8.308  1.00  0.00     0.074 A 
ATOM     44  C   UNL     1     -10.569  -6.109   8.742  1.00  0.00     0.031 C 
ATOM     45  C   UNL     1     -10.519  -7.069   1.907  1.00  0.00     0.029 A 
ATOM     46  C   UNL     1     -11.037  -8.179   2.700  1.00  0.00     0.049 A 
ATOM     47  H   UNL     1     -11.301  -8.250   4.764  1.00  0.00     0.167 HD
ATOM     48  C   UNL     1     -11.594  -8.320   9.149  1.00  0.00     0.031 A 
ATOM     49  C   UNL     1     -11.447  -9.366   2.214  1.00  0.00     0.031 A 
ATOM     50  C   UNL     1     -12.140  -9.575   8.716  1.00  0.00     0.049 A 
ATOM     51  C   UNL     1     -11.962 -10.409   3.170  1.00  0.00     0.074 A 
ATOM     52  C   UNL     1     -12.699 -10.584   9.479  1.00  0.00     0.029 A 
ATOM     53  N   UNL     1     -12.192  -9.992   7.395  1.00  0.00    -0.354 N 
ATOM     54  N   UNL     1     -12.077 -10.349   4.475  1.00  0.00    -0.248 NA
ATOM     55  C   UNL     1     -12.418 -11.677   2.582  1.00  0.00     0.031 C 
ATOM     56  C   UNL     1     -13.053 -11.631   8.622  1.00  0.00     0.029 A 
ATOM     57  C   UNL     1     -12.758 -11.252   7.321  1.00  0.00     0.049 A 
ATOM     58  H   UNL     1     -11.874  -9.469   6.624  1.00  0.00     0.167 HD
ATOM     59  C   UNL     1     -12.650 -11.555   4.860  1.00  0.00     0.074 A 
ATOM     60  C   UNL     1     -12.866 -12.322   3.650  1.00  0.00     0.031 C 
ATOM     61  C   UNL     1     -12.972 -11.989   6.103  1.00  0.00     0.031 A 
BRANCH  48  62
ATOM     62  C   UNL     1     -11.536  -8.016  10.619  1.00  0.00    -0.014 A 
ATOM     63  C   UNL     1     -12.363  -7.034  11.189  1.00  0.00     0.009 A 
ATOM     64  C   UNL     1     -10.637  -8.710  11.442  1.00  0.00     0.009 A 
ATOM     65  C   UNL     1     -12.256  -6.720  12.545  1.00  0.00     0.001 A 
ATOM     66  C   UNL     1     -10.553  -8.415  12.803  1.00  0.00     0.001 A 
ATOM     67  C   UNL     1     -11.353  -7.412  13.351  1.00  0.00     0.000 A 
ENDBRANCH  48  62
BRANCH  49  68
ATOM     68  C   UNL     1     -11.415  -9.632   0.752  1.00  0.00    -0.014 A 
ATOM     69  C   UNL     1     -12.611  -9.701   0.019  1.00  0.00     0.009 A 
ATOM     70  C   UNL     1     -10.198  -9.838   0.085  1.00  0.00     0.009 A 
ATOM     71  C   UNL     1     -12.590 -10.002  -1.345  1.00  0.00     0.001 A 
ATOM     72  C   UNL     1     -10.179 -10.114  -1.285  1.00  0.00     0.001 A 
ATOM     73  C   UNL     1     -11.375 -10.206  -1.996  1.00  0.00     0.000 A 
ENDBRANCH  49  68
BRANCH  61  74
ATOM     74  C   UNL     1     -13.633 -13.332   6.212  1.00  0.00    -0.014 A 
ATOM     75  C   UNL     1     -12.907 -14.519   6.036  1.00  0.00     0.009 A 
ATOM     76  C   UNL     1     -14.994 -13.406   6.550  1.00  0.00     0.009 A 
ATOM     77  C   UNL     1     -13.539 -15.756   6.171  1.00  0.00     0.001 A 
ATOM     78  C   UNL     1     -15.616 -14.644   6.711  1.00  0.00     0.001 A 
ATOM     79  C   UNL     1     -14.890 -15.818   6.514  1.00  0.00     0.000 A 
ENDBRANCH  61  74
ENDBRANCH  35  36
ENDBRANCH  27  30
ENDBRANCH  25  26
ENDBRANCH   1  25
TORSDOF 13
