REMARK SMILES COc1ccc2c(c1)[C@H]([NH2+][C@@H](C(=O)NCCCNC(=O)c1ccc(-c3c4nc(c(-c5ccccc5)c5ccc([nH]5)c(-c5ccccc5)c5nc(c(-c6ccccc6)c6ccc3[nH]6)C=C5)C=C4)cc1)C1CC1)CC2
REMARK SMILES IDX 15 1 14 2 12 3 13 4 11 6 10 7 9 10 3 11 4 12 8 13 5 14 7 15
REMARK SMILES IDX 6 16 73 17 72 18 2 19 1 20 69 21 70 22 71 23 16 24 17 25
REMARK SMILES IDX 18 26 19 27 20 29 21 30 22 31 68 32 23 33 67 34 24 35 25 36
REMARK SMILES IDX 26 37 61 38 27 39 66 40 60 41 62 42 28 43 65 44 59 45 58 46
REMARK SMILES IDX 29 48 51 49 36 50 50 51 37 52 40 53 49 54 63 55 38 56 39 57
REMARK SMILES IDX 48 59 64 60 41 61 30 62 31 63 35 64 32 65 34 66 33 67 52 68
REMARK SMILES IDX 53 69 57 70 54 71 56 72 55 73 42 74 43 75 47 76 44 77 46 78
REMARK SMILES IDX 45 79
REMARK H PARENT 14 5 10 8 10 9 18 28 62 47 40 58
REMARK Flexibility Score: inf
ROOT
ATOM      1  C   UNL     1      -3.067   4.590   0.574  1.00  0.00     0.118 C 
ENDROOT
BRANCH   1   2
ATOM      2  N   UNL     1      -3.128   5.997   0.898  1.00  0.00    -0.351 N 
ATOM      3  C   UNL     1      -2.472   6.656   1.900  1.00  0.00     0.278 C 
ATOM      4  O   UNL     1      -2.898   7.774   2.207  1.00  0.00    -0.268 OA
ATOM      5  H   UNL     1      -3.713   6.547   0.329  1.00  0.00     0.163 HD
BRANCH   3   6
ATOM      6  C   UNL     1      -1.219   6.005   2.576  1.00  0.00     0.276 C 
BRANCH   6   7
ATOM      7  N   UNL     1      -1.700   5.013   3.564  1.00  0.00    -0.330 N 
ATOM      8  H   UNL     1      -2.131   5.537   4.326  1.00  0.00     0.347 HD
ATOM      9  H   UNL     1      -2.311   4.406   3.018  1.00  0.00     0.347 HD
BRANCH   7  10
ATOM     10  C   UNL     1      -0.745   4.082   4.174  1.00  0.00     0.214 C 
ATOM     11  C   UNL     1       0.937   1.967   1.436  1.00  0.00     0.119 A 
ATOM     12  C   UNL     1       2.241   1.981   1.948  1.00  0.00     0.047 A 
ATOM     13  C   UNL     1      -0.089   2.642   2.099  1.00  0.00     0.056 A 
ATOM     14  C   UNL     1       2.509   2.604   3.170  1.00  0.00     0.008 A 
ATOM     15  C   UNL     1       0.193   3.331   3.269  1.00  0.00     0.016 A 
ATOM     16  C   UNL     1       1.473   3.256   3.825  1.00  0.00    -0.038 A 
ATOM     17  C   UNL     1       1.504   3.839   5.202  1.00  0.00     0.042 C 
ATOM     18  C   UNL     1       0.216   4.670   5.235  1.00  0.00     0.075 C 
BRANCH  11  19
ATOM     19  O   UNL     1       0.592   1.357   0.260  1.00  0.00    -0.497 OA
ATOM     20  C   UNL     1       1.086   0.025   0.147  1.00  0.00     0.278 C 
ENDBRANCH  11  19
ENDBRANCH   7  10
ENDBRANCH   6   7
BRANCH   6  21
ATOM     21  C   UNL     1      -0.367   7.081   3.216  1.00  0.00     0.057 C 
ATOM     22  C   UNL     1       1.081   7.230   2.796  1.00  0.00     0.011 C 
ATOM     23  C   UNL     1       0.099   8.308   2.459  1.00  0.00     0.011 C 
ENDBRANCH   6  21
ENDBRANCH   3   6
ENDBRANCH   1   2
BRANCH   1  24
ATOM     24  C   UNL     1      -4.282   3.844   1.116  1.00  0.00     0.042 C 
BRANCH  24  25
ATOM     25  C   UNL     1      -5.595   4.272   0.467  1.00  0.00     0.118 C 
BRANCH  25  26
ATOM     26  N   UNL     1      -5.636   3.984  -0.961  1.00  0.00    -0.352 N 
ATOM     27  C   UNL     1      -6.586   3.326  -1.697  1.00  0.00     0.251 C 
ATOM     28  H   UNL     1      -4.864   4.313  -1.475  1.00  0.00     0.163 HD
ATOM     29  O   UNL     1      -6.359   3.037  -2.871  1.00  0.00    -0.269 OA
BRANCH  27  30
ATOM     30  C   UNL     1      -7.872   2.940  -1.082  1.00  0.00     0.039 A 
ATOM     31  C   UNL     1      -8.392   1.672  -1.353  1.00  0.00     0.014 A 
ATOM     32  C   UNL     1      -8.574   3.824  -0.257  1.00  0.00     0.014 A 
ATOM     33  C   UNL     1      -9.582   1.267  -0.746  1.00  0.00     0.010 A 
ATOM     34  C   UNL     1      -9.719   3.391   0.406  1.00  0.00     0.010 A 
ATOM     35  C   UNL     1     -10.236   2.109   0.168  1.00  0.00    -0.014 A 
BRANCH  35  36
ATOM     36  C   UNL     1     -11.461   1.666   0.880  1.00  0.00     0.031 A 
ATOM     37  C   UNL     1     -12.767   2.378   0.657  1.00  0.00     0.074 A 
ATOM     38  C   UNL     1     -11.388   0.649   1.763  1.00  0.00     0.049 A 
ATOM     39  N   UNL     1     -13.927   2.174   1.231  1.00  0.00    -0.248 NA
ATOM     40  C   UNL     1     -12.769   3.474  -0.326  1.00  0.00     0.031 C 
ATOM     41  C   UNL     1     -10.178  -0.110   2.088  1.00  0.00     0.029 A 
ATOM     42  N   UNL     1     -12.357   0.080   2.551  1.00  0.00    -0.354 N 
ATOM     43  C   UNL     1     -14.790   3.114   0.681  1.00  0.00     0.074 A 
ATOM     44  C   UNL     1     -14.010   3.927  -0.226  1.00  0.00     0.031 C 
ATOM     45  C   UNL     1     -10.484  -1.063   2.983  1.00  0.00     0.029 A 
ATOM     46  C   UNL     1     -11.896  -0.954   3.331  1.00  0.00     0.049 A 
ATOM     47  H   UNL     1     -13.294   0.384   2.558  1.00  0.00     0.167 HD
ATOM     48  C   UNL     1     -16.119   3.270   0.890  1.00  0.00     0.031 A 
ATOM     49  C   UNL     1     -12.538  -1.720   4.233  1.00  0.00     0.031 A 
ATOM     50  C   UNL     1     -16.898   2.465   1.792  1.00  0.00     0.049 A 
ATOM     51  C   UNL     1     -14.002  -1.483   4.488  1.00  0.00     0.074 A 
ATOM     52  C   UNL     1     -18.255   2.537   2.059  1.00  0.00     0.029 A 
ATOM     53  N   UNL     1     -16.390   1.439   2.572  1.00  0.00    -0.354 N 
ATOM     54  N   UNL     1     -14.813  -0.622   3.922  1.00  0.00    -0.248 NA
ATOM     55  C   UNL     1     -14.642  -2.335   5.500  1.00  0.00     0.031 C 
ATOM     56  C   UNL     1     -18.559   1.584   3.035  1.00  0.00     0.029 A 
ATOM     57  C   UNL     1     -17.404   0.879   3.331  1.00  0.00     0.049 A 
ATOM     58  H   UNL     1     -15.449   1.150   2.584  1.00  0.00     0.167 HD
ATOM     59  C   UNL     1     -16.063  -0.856   4.481  1.00  0.00     0.074 A 
ATOM     60  C   UNL     1     -15.907  -1.951   5.415  1.00  0.00     0.031 C 
ATOM     61  C   UNL     1     -17.236  -0.221   4.244  1.00  0.00     0.031 A 
BRANCH  48  62
ATOM     62  C   UNL     1     -16.821   4.352   0.116  1.00  0.00    -0.014 A 
ATOM     63  C   UNL     1     -17.026   4.230  -1.268  1.00  0.00     0.009 A 
ATOM     64  C   UNL     1     -17.330   5.478   0.781  1.00  0.00     0.009 A 
ATOM     65  C   UNL     1     -17.703   5.226  -1.974  1.00  0.00     0.001 A 
ATOM     66  C   UNL     1     -18.033   6.458   0.077  1.00  0.00     0.001 A 
ATOM     67  C   UNL     1     -18.212   6.335  -1.300  1.00  0.00     0.000 A 
ENDBRANCH  48  62
BRANCH  49  68
ATOM     68  C   UNL     1     -11.815  -2.790   4.972  1.00  0.00    -0.014 A 
ATOM     69  C   UNL     1     -12.137  -4.141   4.767  1.00  0.00     0.009 A 
ATOM     70  C   UNL     1     -10.838  -2.466   5.926  1.00  0.00     0.009 A 
ATOM     71  C   UNL     1     -11.531  -5.139   5.534  1.00  0.00     0.001 A 
ATOM     72  C   UNL     1     -10.208  -3.469   6.667  1.00  0.00     0.001 A 
ATOM     73  C   UNL     1     -10.567  -4.803   6.482  1.00  0.00     0.000 A 
ENDBRANCH  49  68
BRANCH  61  74
ATOM     74  C   UNL     1     -18.454  -0.734   4.960  1.00  0.00    -0.014 A 
ATOM     75  C   UNL     1     -18.626  -0.547   6.340  1.00  0.00     0.009 A 
ATOM     76  C   UNL     1     -19.460  -1.388   4.231  1.00  0.00     0.009 A 
ATOM     77  C   UNL     1     -19.765  -1.039   6.982  1.00  0.00     0.001 A 
ATOM     78  C   UNL     1     -20.612  -1.849   4.870  1.00  0.00     0.001 A 
ATOM     79  C   UNL     1     -20.758  -1.684   6.246  1.00  0.00     0.000 A 
ENDBRANCH  61  74
ENDBRANCH  35  36
ENDBRANCH  27  30
ENDBRANCH  25  26
ENDBRANCH  24  25
ENDBRANCH   1  24
TORSDOF 14
