REMARK SMILES C[C@@H](C(=O)NCCCNC(=O)c1ccc(-c2c3nc(c(-c4ccccc4)c4ccc([nH]4)c(-c4ccccc4)c4nc(c(-c5ccccc5)c5ccc2[nH]5)C=C4)C=C3)cc1)c1ccc(-c2ccccc2)cc1
REMARK SMILES IDX 7 1 6 2 5 3 3 4 4 5 2 7 1 8 60 9 61 10 71 11 62 12 70 13
REMARK SMILES IDX 63 14 64 15 65 16 69 17 66 18 68 19 67 20 8 21 9 22 10 23
REMARK SMILES IDX 11 25 12 26 13 27 59 28 14 29 58 30 15 31 16 32 17 33 52 34
REMARK SMILES IDX 18 35 57 36 51 37 53 38 19 39 56 40 50 41 49 42 20 44 42 45
REMARK SMILES IDX 27 46 41 47 28 48 31 49 40 50 54 51 29 52 30 53 39 55 55 56
REMARK SMILES IDX 32 57 21 58 22 59 26 60 23 61 25 62 24 63 43 64 44 65 48 66
REMARK SMILES IDX 45 67 47 68 46 69 33 70 34 71 38 72 35 73 37 74 36 75
REMARK H PARENT 5 6 9 24 53 43 31 54
REMARK Flexibility Score: inf
ROOT
ATOM      1  C   UNL     1       4.423  -1.330   0.167  1.00  0.00     0.042 C 
ENDROOT
BRANCH   1   2
ATOM      2  C   UNL     1       3.422  -2.036  -0.751  1.00  0.00     0.117 C 
BRANCH   2   3
ATOM      3  N   UNL     1       2.381  -2.711   0.003  1.00  0.00    -0.356 N 
ATOM      4  C   UNL     1       1.089  -2.348   0.265  1.00  0.00     0.227 C 
ATOM      5  O   UNL     1       0.498  -3.018   1.114  1.00  0.00    -0.274 OA
ATOM      6  H   UNL     1       2.651  -3.575   0.391  1.00  0.00     0.163 HD
BRANCH   4   7
ATOM      7  C   UNL     1       0.450  -1.162  -0.483  1.00  0.00     0.105 C 
ATOM      8  C   UNL     1       0.956   0.134   0.167  1.00  0.00     0.023 C 
BRANCH   7   9
ATOM      9  C   UNL     1      -1.083  -1.219  -0.566  1.00  0.00    -0.036 A 
ATOM     10  C   UNL     1      -1.864  -0.052  -0.552  1.00  0.00     0.005 A 
ATOM     11  C   UNL     1      -1.763  -2.441  -0.703  1.00  0.00     0.005 A 
ATOM     12  C   UNL     1      -3.261  -0.109  -0.577  1.00  0.00     0.009 A 
ATOM     13  C   UNL     1      -3.164  -2.499  -0.715  1.00  0.00     0.009 A 
ATOM     14  C   UNL     1      -3.935  -1.333  -0.630  1.00  0.00    -0.018 A 
BRANCH  14  15
ATOM     15  C   UNL     1      -5.401  -1.375  -0.557  1.00  0.00    -0.018 A 
ATOM     16  C   UNL     1      -6.193  -0.692  -1.493  1.00  0.00     0.009 A 
ATOM     17  C   UNL     1      -6.047  -2.054   0.489  1.00  0.00     0.009 A 
ATOM     18  C   UNL     1      -7.585  -0.677  -1.381  1.00  0.00     0.001 A 
ATOM     19  C   UNL     1      -7.439  -2.039   0.604  1.00  0.00     0.001 A 
ATOM     20  C   UNL     1      -8.207  -1.348  -0.330  1.00  0.00     0.000 A 
ENDBRANCH  14  15
ENDBRANCH   7   9
ENDBRANCH   4   7
ENDBRANCH   2   3
ENDBRANCH   1   2
BRANCH   1  21
ATOM     21  C   UNL     1       5.171  -2.249   1.127  1.00  0.00     0.118 C 
BRANCH  21  22
ATOM     22  N   UNL     1       6.117  -3.118   0.450  1.00  0.00    -0.352 N 
ATOM     23  C   UNL     1       7.449  -3.325   0.698  1.00  0.00     0.251 C 
ATOM     24  H   UNL     1       5.746  -3.635  -0.301  1.00  0.00     0.163 HD
ATOM     25  O   UNL     1       8.114  -3.982  -0.104  1.00  0.00    -0.269 OA
BRANCH  23  26
ATOM     26  C   UNL     1       8.108  -2.762   1.900  1.00  0.00     0.039 A 
ATOM     27  C   UNL     1       9.409  -2.265   1.772  1.00  0.00     0.014 A 
ATOM     28  C   UNL     1       7.493  -2.775   3.156  1.00  0.00     0.014 A 
ATOM     29  C   UNL     1      10.079  -1.756   2.888  1.00  0.00     0.010 A 
ATOM     30  C   UNL     1       8.136  -2.206   4.257  1.00  0.00     0.010 A 
ATOM     31  C   UNL     1       9.442  -1.709   4.138  1.00  0.00    -0.014 A 
BRANCH  31  32
ATOM     32  C   UNL     1      10.149  -1.179   5.332  1.00  0.00     0.031 A 
ATOM     33  C   UNL     1      10.508  -2.096   6.471  1.00  0.00     0.074 A 
ATOM     34  C   UNL     1      10.446   0.132   5.411  1.00  0.00     0.049 A 
ATOM     35  N   UNL     1      11.109  -1.816   7.600  1.00  0.00    -0.248 NA
ATOM     36  C   UNL     1      10.121  -3.509   6.331  1.00  0.00     0.031 C 
ATOM     37  C   UNL     1      10.124   1.138   4.397  1.00  0.00     0.029 A 
ATOM     38  N   UNL     1      11.087   0.843   6.395  1.00  0.00    -0.354 N 
ATOM     39  C   UNL     1      11.154  -3.009   8.310  1.00  0.00     0.074 A 
ATOM     40  C   UNL     1      10.483  -4.006   7.505  1.00  0.00     0.031 C 
ATOM     41  C   UNL     1      10.592   2.331   4.800  1.00  0.00     0.029 A 
ATOM     42  C   UNL     1      11.221   2.180   6.109  1.00  0.00     0.049 A 
ATOM     43  H   UNL     1      11.420   0.434   7.226  1.00  0.00     0.167 HD
ATOM     44  C   UNL     1      11.717  -3.261   9.516  1.00  0.00     0.031 A 
ATOM     45  C   UNL     1      11.790   3.172   6.817  1.00  0.00     0.031 A 
ATOM     46  C   UNL     1      12.403  -2.281  10.314  1.00  0.00     0.049 A 
ATOM     47  C   UNL     1      12.428   2.865   8.143  1.00  0.00     0.074 A 
ATOM     48  C   UNL     1      13.048  -2.453  11.527  1.00  0.00     0.029 A 
ATOM     49  N   UNL     1      12.536  -0.944   9.976  1.00  0.00    -0.354 N 
ATOM     50  N   UNL     1      12.511   1.719   8.773  1.00  0.00    -0.248 NA
ATOM     51  C   UNL     1      13.065   3.988   8.845  1.00  0.00     0.031 C 
ATOM     52  C   UNL     1      13.545  -1.211  11.938  1.00  0.00     0.029 A 
ATOM     53  C   UNL     1      13.244  -0.276  10.961  1.00  0.00     0.049 A 
ATOM     54  H   UNL     1      12.180  -0.530   9.157  1.00  0.00     0.167 HD
ATOM     55  C   UNL     1      13.230   1.977   9.932  1.00  0.00     0.074 A 
ATOM     56  C   UNL     1      13.572   3.384   9.911  1.00  0.00     0.031 C 
ATOM     57  C   UNL     1      13.578   1.123  10.925  1.00  0.00     0.031 A 
BRANCH  44  58
ATOM     58  C   UNL     1      11.609  -4.663  10.046  1.00  0.00    -0.014 A 
ATOM     59  C   UNL     1      12.357  -5.710   9.483  1.00  0.00     0.009 A 
ATOM     60  C   UNL     1      10.767  -4.937  11.135  1.00  0.00     0.009 A 
ATOM     61  C   UNL     1      12.234  -7.010   9.977  1.00  0.00     0.001 A 
ATOM     62  C   UNL     1      10.667  -6.233  11.643  1.00  0.00     0.001 A 
ATOM     63  C   UNL     1      11.393  -7.270  11.058  1.00  0.00     0.000 A 
ENDBRANCH  44  58
BRANCH  45  64
ATOM     64  C   UNL     1      11.812   4.553   6.272  1.00  0.00    -0.014 A 
ATOM     65  C   UNL     1      13.004   5.101   5.774  1.00  0.00     0.009 A 
ATOM     66  C   UNL     1      10.643   5.329   6.248  1.00  0.00     0.009 A 
ATOM     67  C   UNL     1      13.030   6.408   5.284  1.00  0.00     0.001 A 
ATOM     68  C   UNL     1      10.668   6.628   5.735  1.00  0.00     0.001 A 
ATOM     69  C   UNL     1      11.862   7.169   5.261  1.00  0.00     0.000 A 
ENDBRANCH  45  64
BRANCH  57  70
ATOM     70  C   UNL     1      14.398   1.681  12.052  1.00  0.00    -0.014 A 
ATOM     71  C   UNL     1      13.824   2.507  13.030  1.00  0.00     0.009 A 
ATOM     72  C   UNL     1      15.758   1.349  12.151  1.00  0.00     0.009 A 
ATOM     73  C   UNL     1      14.605   3.016  14.069  1.00  0.00     0.001 A 
ATOM     74  C   UNL     1      16.531   1.840  13.204  1.00  0.00     0.001 A 
ATOM     75  C   UNL     1      15.956   2.680  14.157  1.00  0.00     0.000 A 
ENDBRANCH  57  70
ENDBRANCH  31  32
ENDBRANCH  23  26
ENDBRANCH  21  22
ENDBRANCH   1  21
TORSDOF 12
