REMARK SMILES NS(=O)(=O)c1ccc(N2N=C(C(=O)NCCCNC(=O)c3ccc(-c4c5nc(c(-c6ccccc6)c6ccc([nH]6)c(-c6ccccc6)c6nc(c(-c7ccccc7)c7ccc4[nH]7)C=C6)C=C5)cc3)C[C@H]2c2ccco2)cc1
REMARK SMILES IDX 15 1 14 2 12 3 13 4 11 6 9 7 10 8 70 9 69 10 8 11 5 12 6 13
REMARK SMILES IDX 77 14 7 15 76 16 2 17 3 18 4 19 1 20 71 23 72 24 75 25 73 26
REMARK SMILES IDX 74 27 16 28 17 29 18 30 19 31 20 33 21 34 22 35 68 36 23 37
REMARK SMILES IDX 67 38 24 39 25 40 26 41 61 42 27 43 66 44 60 45 62 46 28 47
REMARK SMILES IDX 65 48 59 49 58 50 29 52 51 53 36 54 50 55 37 56 40 57 49 58
REMARK SMILES IDX 63 59 38 60 39 61 48 63 64 64 41 65 30 66 31 67 35 68 32 69
REMARK SMILES IDX 34 70 33 71 52 72 53 73 57 74 54 75 56 76 55 77 42 78 43 79
REMARK SMILES IDX 47 80 44 81 46 82 45 83
REMARK H PARENT 14 5 1 21 1 22 18 32 62 51 40 62
REMARK Flexibility Score: inf
ROOT
ATOM      1  C   UNL     1       3.868  10.884  -2.882  1.00  0.00     0.118 C 
ENDROOT
BRANCH   1   2
ATOM      2  N   UNL     1       4.210   9.882  -3.875  1.00  0.00    -0.351 N 
ATOM      3  C   UNL     1       4.034   8.525  -3.981  1.00  0.00     0.267 C 
ATOM      4  O   UNL     1       4.579   7.960  -4.927  1.00  0.00    -0.268 OA
ATOM      5  H   UNL     1       4.676  10.264  -4.654  1.00  0.00     0.163 HD
BRANCH   3   6
ATOM      6  C   UNL     1       3.175   7.700  -3.037  1.00  0.00     0.128 C 
ATOM      7  N   UNL     1       1.981   6.062  -2.371  1.00  0.00    -0.254 N 
ATOM      8  N   UNL     1       2.879   6.465  -3.310  1.00  0.00    -0.171 NA
ATOM      9  C   UNL     1       1.817   7.013  -1.267  1.00  0.00     0.180 C 
ATOM     10  C   UNL     1       2.594   8.232  -1.774  1.00  0.00     0.099 C 
BRANCH   7  11
ATOM     11  C   UNL     1       1.668   4.713  -2.239  1.00  0.00     0.060 A 
ATOM     12  C   UNL     1       0.993   2.004  -1.935  1.00  0.00     0.082 A 
ATOM     13  C   UNL     1       2.334   2.374  -2.066  1.00  0.00     0.024 A 
ATOM     14  C   UNL     1      -0.015   2.964  -1.988  1.00  0.00     0.024 A 
ATOM     15  C   UNL     1       2.663   3.725  -2.225  1.00  0.00     0.029 A 
ATOM     16  C   UNL     1       0.330   4.307  -2.141  1.00  0.00     0.029 A 
BRANCH  12  17
ATOM     17  S   UNL     1       0.571   0.300  -1.750  1.00  0.00     0.238 S 
ATOM     18  O   UNL     1       1.353  -0.486  -2.673  1.00  0.00    -0.207 OA
ATOM     19  O   UNL     1      -0.864   0.168  -1.636  1.00  0.00    -0.207 OA
BRANCH  17  20
ATOM     20  N   UNL     1       1.166  -0.048  -0.217  1.00  0.00    -0.225 NA
ATOM     21  H   UNL     1       0.977  -1.025   0.007  1.00  0.00     0.137 HD
ATOM     22  H   UNL     1       0.709   0.553   0.469  1.00  0.00     0.137 HD
ENDBRANCH  17  20
ENDBRANCH  12  17
ENDBRANCH   7  11
BRANCH   9  23
ATOM     23  C   UNL     1       0.417   7.368  -0.849  1.00  0.00     0.128 A 
ATOM     24  C   UNL     1      -0.480   6.782   0.024  1.00  0.00     0.048 A 
ATOM     25  O   UNL     1      -0.152   8.485  -1.396  1.00  0.00    -0.467 OA
ATOM     26  C   UNL     1      -1.656   7.570  -0.011  1.00  0.00     0.042 A 
ATOM     27  C   UNL     1      -1.398   8.604  -0.878  1.00  0.00     0.195 A 
ENDBRANCH   9  23
ENDBRANCH   3   6
ENDBRANCH   1   2
BRANCH   1  28
ATOM     28  C   UNL     1       5.101  11.347  -2.117  1.00  0.00     0.042 C 
BRANCH  28  29
ATOM     29  C   UNL     1       6.012  12.243  -2.947  1.00  0.00     0.118 C 
BRANCH  29  30
ATOM     30  N   UNL     1       5.373  13.511  -3.281  1.00  0.00    -0.352 N 
ATOM     31  C   UNL     1       5.664  14.788  -2.873  1.00  0.00     0.251 C 
ATOM     32  H   UNL     1       4.610  13.439  -3.898  1.00  0.00     0.163 HD
ATOM     33  O   UNL     1       4.853  15.687  -3.072  1.00  0.00    -0.269 OA
BRANCH  31  34
ATOM     34  C   UNL     1       6.940  15.087  -2.189  1.00  0.00     0.039 A 
ATOM     35  C   UNL     1       6.944  16.006  -1.135  1.00  0.00     0.014 A 
ATOM     36  C   UNL     1       8.135  14.498  -2.606  1.00  0.00     0.014 A 
ATOM     37  C   UNL     1       8.136  16.283  -0.462  1.00  0.00     0.010 A 
ATOM     38  C   UNL     1       9.303  14.706  -1.879  1.00  0.00     0.010 A 
ATOM     39  C   UNL     1       9.318  15.608  -0.806  1.00  0.00    -0.014 A 
BRANCH  39  40
ATOM     40  C   UNL     1      10.583  15.833  -0.063  1.00  0.00     0.031 A 
ATOM     41  C   UNL     1      11.784  16.398  -0.771  1.00  0.00     0.074 A 
ATOM     42  C   UNL     1      10.672  15.459   1.229  1.00  0.00     0.049 A 
ATOM     43  N   UNL     1      12.997  16.586  -0.316  1.00  0.00    -0.248 NA
ATOM     44  C   UNL     1      11.610  16.775  -2.184  1.00  0.00     0.031 C 
ATOM     45  C   UNL     1       9.593  14.857   2.017  1.00  0.00     0.029 A 
ATOM     46  N   UNL     1      11.726  15.520   2.105  1.00  0.00    -0.354 N 
ATOM     47  C   UNL     1      13.732  17.076  -1.389  1.00  0.00     0.074 A 
ATOM     48  C   UNL     1      12.843  17.116  -2.529  1.00  0.00     0.031 C 
ATOM     49  C   UNL     1      10.035  14.626   3.263  1.00  0.00     0.029 A 
ATOM     50  C   UNL     1      11.436  15.022   3.352  1.00  0.00     0.049 A 
ATOM     51  H   UNL     1      12.608  15.885   1.863  1.00  0.00     0.167 HD
ATOM     52  C   UNL     1      15.025  17.474  -1.418  1.00  0.00     0.031 A 
ATOM     53  C   UNL     1      12.214  14.889   4.443  1.00  0.00     0.031 A 
ATOM     54  C   UNL     1      15.901  17.460  -0.278  1.00  0.00     0.049 A 
ATOM     55  C   UNL     1      13.645  15.345   4.382  1.00  0.00     0.074 A 
ATOM     56  C   UNL     1      17.207  17.910  -0.191  1.00  0.00     0.029 A 
ATOM     57  N   UNL     1      15.559  16.974   0.973  1.00  0.00    -0.354 N 
ATOM     58  N   UNL     1      14.302  15.876   3.379  1.00  0.00    -0.248 NA
ATOM     59  C   UNL     1      14.440  15.194   5.609  1.00  0.00     0.031 C 
ATOM     60  C   UNL     1      17.672  17.650   1.101  1.00  0.00     0.029 A 
ATOM     61  C   UNL     1      16.637  17.091   1.833  1.00  0.00     0.049 A 
ATOM     62  H   UNL     1      14.681  16.601   1.215  1.00  0.00     0.167 HD
ATOM     63  C   UNL     1      15.574  16.149   3.863  1.00  0.00     0.074 A 
ATOM     64  C   UNL     1      15.592  15.743   5.253  1.00  0.00     0.031 C 
ATOM     65  C   UNL     1      16.634  16.689   3.215  1.00  0.00     0.031 A 
BRANCH  52  66
ATOM     66  C   UNL     1      15.578  17.961  -2.729  1.00  0.00    -0.014 A 
ATOM     67  C   UNL     1      15.186  19.196  -3.269  1.00  0.00     0.009 A 
ATOM     68  C   UNL     1      16.549  17.202  -3.401  1.00  0.00     0.009 A 
ATOM     69  C   UNL     1      15.737  19.648  -4.471  1.00  0.00     0.001 A 
ATOM     70  C   UNL     1      17.117  17.670  -4.587  1.00  0.00     0.001 A 
ATOM     71  C   UNL     1      16.706  18.888  -5.124  1.00  0.00     0.000 A 
ENDBRANCH  52  66
BRANCH  53  72
ATOM     72  C   UNL     1      11.661  14.302   5.692  1.00  0.00    -0.014 A 
ATOM     73  C   UNL     1      11.469  15.100   6.830  1.00  0.00     0.009 A 
ATOM     74  C   UNL     1      11.349  12.935   5.761  1.00  0.00     0.009 A 
ATOM     75  C   UNL     1      11.011  14.534   8.023  1.00  0.00     0.001 A 
ATOM     76  C   UNL     1      10.861  12.379   6.946  1.00  0.00     0.001 A 
ATOM     77  C   UNL     1      10.705  13.175   8.079  1.00  0.00     0.000 A 
ENDBRANCH  53  72
BRANCH  65  78
ATOM     78  C   UNL     1      17.888  16.910   4.013  1.00  0.00    -0.014 A 
ATOM     79  C   UNL     1      18.698  15.836   4.412  1.00  0.00     0.009 A 
ATOM     80  C   UNL     1      18.282  18.218   4.333  1.00  0.00     0.009 A 
ATOM     81  C   UNL     1      19.862  16.067   5.147  1.00  0.00     0.001 A 
ATOM     82  C   UNL     1      19.462  18.448   5.042  1.00  0.00     0.001 A 
ATOM     83  C   UNL     1      20.245  17.372   5.456  1.00  0.00     0.000 A 
ENDBRANCH  65  78
ENDBRANCH  39  40
ENDBRANCH  31  34
ENDBRANCH  29  30
ENDBRANCH  28  29
ENDBRANCH   1  28
TORSDOF 14
