REMARK SMILES O=C(NCCCNC(=O)[C@H]1CC[C@@H]2CCCC[C@H]2N1C(=O)N1CCSCC1)c1ccc(-c2c3nc(c(-c4ccccc4)c4ccc([nH]4)c(-c4ccccc4)c4nc(c(-c5ccccc5)c5ccc2[nH]5)C=C4)C=C3)cc1
REMARK SMILES IDX 4 1 3 2 1 3 2 4 28 6 29 7 75 8 30 9 74 10 31 11 32 12 33 13
REMARK SMILES IDX 68 14 34 15 73 16 67 17 69 18 35 19 72 20 66 21 65 22 36 24
REMARK SMILES IDX 58 25 43 26 57 27 44 28 47 29 56 30 70 31 45 32 46 33 55 35
REMARK SMILES IDX 71 36 48 37 37 38 38 39 42 40 39 41 41 42 40 43 59 44 60 45
REMARK SMILES IDX 64 46 61 47 63 48 62 49 49 50 50 51 54 52 51 53 53 54 52 55
REMARK SMILES IDX 5 56 6 57 7 58 8 59 9 61 10 62 11 63 19 64 12 65 18 66 13 67
REMARK SMILES IDX 17 68 14 69 16 70 15 71 20 72 21 73 22 74 23 75 27 76 24 77
REMARK SMILES IDX 26 78 25 79
REMARK H PARENT 3 5 69 23 47 34 7 60
REMARK Flexibility Score: inf
ROOT
ATOM      1  C   UNL     1       9.279   5.172  -1.646  1.00  0.00     0.118 C 
ENDROOT
BRANCH   1   2
ATOM      2  N   UNL     1       9.678   6.516  -1.252  1.00  0.00    -0.352 N 
ATOM      3  O   UNL     1      10.455   8.179   0.043  1.00  0.00    -0.269 OA
ATOM      4  C   UNL     1      10.352   6.969  -0.145  1.00  0.00     0.251 C 
ATOM      5  H   UNL     1       9.419   7.221  -1.889  1.00  0.00     0.163 HD
BRANCH   4   6
ATOM      6  C   UNL     1      10.934   6.025   0.835  1.00  0.00     0.039 A 
ATOM      7  C   UNL     1      11.596   4.870   0.421  1.00  0.00     0.014 A 
ATOM      8  C   UNL     1      10.855   6.328   2.199  1.00  0.00     0.014 A 
ATOM      9  C   UNL     1      12.031   3.946   1.364  1.00  0.00     0.010 A 
ATOM     10  C   UNL     1      11.383   5.444   3.147  1.00  0.00     0.010 A 
ATOM     11  C   UNL     1      11.946   4.227   2.739  1.00  0.00    -0.014 A 
BRANCH  11  12
ATOM     12  C   UNL     1      12.523   3.257   3.704  1.00  0.00     0.031 A 
ATOM     13  C   UNL     1      11.660   2.517   4.689  1.00  0.00     0.074 A 
ATOM     14  C   UNL     1      13.844   2.996   3.638  1.00  0.00     0.049 A 
ATOM     15  N   UNL     1      12.000   1.566   5.524  1.00  0.00    -0.248 NA
ATOM     16  C   UNL     1      10.239   2.891   4.754  1.00  0.00     0.031 C 
ATOM     17  C   UNL     1      14.791   3.664   2.740  1.00  0.00     0.029 A 
ATOM     18  N   UNL     1      14.613   2.077   4.304  1.00  0.00    -0.354 N 
ATOM     19  C   UNL     1      10.842   1.232   6.215  1.00  0.00     0.074 A 
ATOM     20  C   UNL     1       9.795   2.104   5.726  1.00  0.00     0.031 C 
ATOM     21  C   UNL     1      15.995   3.088   2.862  1.00  0.00     0.029 A 
ATOM     22  C   UNL     1      15.921   2.053   3.885  1.00  0.00     0.049 A 
ATOM     23  H   UNL     1      14.262   1.491   5.014  1.00  0.00     0.167 HD
ATOM     24  C   UNL     1      10.665   0.280   7.163  1.00  0.00     0.031 A 
ATOM     25  C   UNL     1      16.954   1.286   4.281  1.00  0.00     0.031 A 
ATOM     26  C   UNL     1      11.707  -0.583   7.656  1.00  0.00     0.049 A 
ATOM     27  C   UNL     1      16.728   0.249   5.340  1.00  0.00     0.074 A 
ATOM     28  C   UNL     1      11.620  -1.584   8.610  1.00  0.00     0.029 A 
ATOM     29  N   UNL     1      13.027  -0.549   7.234  1.00  0.00    -0.354 N 
ATOM     30  N   UNL     1      15.618  -0.071   5.958  1.00  0.00    -0.248 NA
ATOM     31  C   UNL     1      17.899  -0.536   5.752  1.00  0.00     0.031 C 
ATOM     32  C   UNL     1      12.896  -2.126   8.796  1.00  0.00     0.029 A 
ATOM     33  C   UNL     1      13.767  -1.498   7.921  1.00  0.00     0.049 A 
ATOM     34  H   UNL     1      13.386   0.060   6.549  1.00  0.00     0.167 HD
ATOM     35  C   UNL     1      15.955  -1.096   6.830  1.00  0.00     0.074 A 
ATOM     36  C   UNL     1      17.364  -1.369   6.632  1.00  0.00     0.031 C 
ATOM     37  C   UNL     1      15.171  -1.746   7.724  1.00  0.00     0.031 A 
BRANCH  24  38
ATOM     38  C   UNL     1       9.287   0.124   7.746  1.00  0.00    -0.014 A 
ATOM     39  C   UNL     1       8.253  -0.474   7.011  1.00  0.00     0.009 A 
ATOM     40  C   UNL     1       9.039   0.518   9.071  1.00  0.00     0.009 A 
ATOM     41  C   UNL     1       6.991  -0.656   7.583  1.00  0.00     0.001 A 
ATOM     42  C   UNL     1       7.784   0.314   9.648  1.00  0.00     0.001 A 
ATOM     43  C   UNL     1       6.760  -0.268   8.902  1.00  0.00     0.000 A 
ENDBRANCH  24  38
BRANCH  25  44
ATOM     44  C   UNL     1      18.298   1.487   3.682  1.00  0.00    -0.014 A 
ATOM     45  C   UNL     1      18.868   0.513   2.848  1.00  0.00     0.009 A 
ATOM     46  C   UNL     1      19.021   2.661   3.947  1.00  0.00     0.009 A 
ATOM     47  C   UNL     1      20.145   0.701   2.314  1.00  0.00     0.001 A 
ATOM     48  C   UNL     1      20.282   2.861   3.385  1.00  0.00     0.001 A 
ATOM     49  C   UNL     1      20.848   1.875   2.578  1.00  0.00     0.000 A 
ENDBRANCH  25  44
BRANCH  37  50
ATOM     50  C   UNL     1      15.830  -2.818   8.542  1.00  0.00    -0.014 A 
ATOM     51  C   UNL     1      16.736  -2.494   9.564  1.00  0.00     0.009 A 
ATOM     52  C   UNL     1      15.541  -4.168   8.288  1.00  0.00     0.009 A 
ATOM     53  C   UNL     1      17.375  -3.504  10.287  1.00  0.00     0.001 A 
ATOM     54  C   UNL     1      16.160  -5.174   9.031  1.00  0.00     0.001 A 
ATOM     55  C   UNL     1      17.085  -4.842  10.021  1.00  0.00     0.000 A 
ENDBRANCH  37  50
ENDBRANCH  11  12
ENDBRANCH   4   6
ENDBRANCH   1   2
BRANCH   1  56
ATOM     56  C   UNL     1       7.767   4.980  -1.714  1.00  0.00     0.042 C 
BRANCH  56  57
ATOM     57  C   UNL     1       7.073   5.864  -2.742  1.00  0.00     0.117 C 
BRANCH  57  58
ATOM     58  N   UNL     1       7.580   5.673  -4.091  1.00  0.00    -0.354 N 
ATOM     59  C   UNL     1       7.146   4.853  -5.101  1.00  0.00     0.242 C 
ATOM     60  H   UNL     1       8.364   6.224  -4.317  1.00  0.00     0.163 HD
ATOM     61  O   UNL     1       7.671   5.004  -6.207  1.00  0.00    -0.273 OA
BRANCH  59  62
ATOM     62  C   UNL     1       5.985   3.863  -4.842  1.00  0.00     0.176 C 
ATOM     63  C   UNL     1       4.862   4.411  -5.746  1.00  0.00     0.036 C 
ATOM     64  N   UNL     1       6.061   2.380  -4.990  1.00  0.00    -0.309 N 
ATOM     65  C   UNL     1       3.525   3.773  -5.427  1.00  0.00     0.008 C 
ATOM     66  C   UNL     1       4.767   1.693  -4.648  1.00  0.00     0.091 C 
ATOM     67  C   UNL     1       3.620   2.251  -5.536  1.00  0.00     0.012 C 
ATOM     68  C   UNL     1       4.732   0.149  -4.684  1.00  0.00     0.025 C 
ATOM     69  C   UNL     1       2.253   1.647  -5.186  1.00  0.00     0.006 C 
ATOM     70  C   UNL     1       3.358  -0.429  -4.343  1.00  0.00     0.002 C 
ATOM     71  C   UNL     1       2.273   0.129  -5.249  1.00  0.00     0.000 C 
BRANCH  64  72
ATOM     72  C   UNL     1       7.224   1.651  -5.207  1.00  0.00     0.321 C 
ATOM     73  O   UNL     1       7.319   0.430  -5.092  1.00  0.00    -0.248 OA
ATOM     74  N   UNL     1       8.329   2.346  -5.662  1.00  0.00    -0.323 N 
ATOM     75  C   UNL     1       8.813   1.882  -6.966  1.00  0.00     0.132 C 
ATOM     76  C   UNL     1       9.388   2.571  -4.681  1.00  0.00     0.132 C 
ATOM     77  C   UNL     1       9.786   2.831  -7.659  1.00  0.00     0.091 C 
ATOM     78  C   UNL     1      10.451   3.582  -5.115  1.00  0.00     0.091 C 
ATOM     79  S   UNL     1      11.285   3.102  -6.658  1.00  0.00    -0.158 SA
ENDBRANCH  64  72
ENDBRANCH  59  62
ENDBRANCH  57  58
ENDBRANCH  56  57
ENDBRANCH   1  56
TORSDOF 11
