REMARK SMILES O=C(NCc1ccc(C(=O)NCCCNC(=O)c2ccc(-c3c4nc(c(-c5ccccc5)c5ccc([nH]5)c(-c5ccccc5)c5nc(c(-c6ccccc6)c6ccc3[nH]6)C=C5)C=C4)cc2)cc1)Nc1ccccc1Br
REMARK SMILES IDX 12 1 11 2 9 3 10 4 8 6 5 7 6 8 67 9 7 10 66 11 4 12 3 13
REMARK SMILES IDX 1 14 2 15 68 16 69 19 70 20 74 21 71 22 73 23 75 24 72 25
REMARK SMILES IDX 13 26 14 27 15 28 16 29 17 31 18 32 19 33 65 34 20 35 64 36
REMARK SMILES IDX 21 37 22 38 23 39 58 40 24 41 63 42 57 43 59 44 25 45 62 46
REMARK SMILES IDX 56 47 55 48 26 50 48 51 33 52 47 53 34 54 37 55 46 56 60 57
REMARK SMILES IDX 35 58 36 59 45 61 61 62 38 63 27 64 28 65 32 66 29 67 31 68
REMARK SMILES IDX 30 69 49 70 50 71 54 72 51 73 53 74 52 75 39 76 40 77 44 78
REMARK SMILES IDX 41 79 43 80 42 81
REMARK H PARENT 11 5 3 17 68 18 15 30 59 49 37 60
REMARK Flexibility Score: inf
ROOT
ATOM      1  C   UNL     1       4.046   7.211  -0.326  1.00  0.00     0.118 C 
ENDROOT
BRANCH   1   2
ATOM      2  N   UNL     1       5.493   7.119  -0.417  1.00  0.00    -0.352 N 
ATOM      3  C   UNL     1       6.341   6.044  -0.312  1.00  0.00     0.251 C 
ATOM      4  O   UNL     1       7.535   6.217  -0.554  1.00  0.00    -0.269 OA
ATOM      5  H   UNL     1       5.945   7.977  -0.582  1.00  0.00     0.163 HD
BRANCH   3   6
ATOM      6  C   UNL     1       5.865   4.682   0.040  1.00  0.00     0.039 A 
ATOM      7  C   UNL     1       5.075   2.034   0.633  1.00  0.00    -0.029 A 
ATOM      8  C   UNL     1       6.093   2.285  -0.299  1.00  0.00     0.006 A 
ATOM      9  C   UNL     1       4.500   3.125   1.302  1.00  0.00     0.006 A 
ATOM     10  C   UNL     1       6.484   3.596  -0.592  1.00  0.00     0.014 A 
ATOM     11  C   UNL     1       4.899   4.435   1.014  1.00  0.00     0.014 A 
BRANCH   7  12
ATOM     12  C   UNL     1       4.678   0.612   0.953  1.00  0.00     0.153 C 
BRANCH  12  13
ATOM     13  N   UNL     1       3.241   0.443   1.036  1.00  0.00    -0.334 N 
ATOM     14  O   UNL     1       1.180  -0.166   0.501  1.00  0.00    -0.248 OA
ATOM     15  C   UNL     1       2.381  -0.280   0.274  1.00  0.00     0.319 C 
ATOM     16  N   UNL     1       2.939  -1.133  -0.634  1.00  0.00    -0.307 N 
ATOM     17  H   UNL     1       2.815   0.938   1.772  1.00  0.00     0.165 HD
ATOM     18  H   UNL     1       3.914  -1.261  -0.602  1.00  0.00     0.171 HD
BRANCH  16  19
ATOM     19  C   UNL     1       2.215  -1.848  -1.618  1.00  0.00     0.057 A 
ATOM     20  C   UNL     1       2.602  -3.184  -1.810  1.00  0.00     0.027 A 
ATOM     21  C   UNL     1       1.175  -1.328  -2.408  1.00  0.00     0.041 A 
ATOM     22  C   UNL     1       1.915  -4.010  -2.703  1.00  0.00     0.002 A 
ATOM     23  C   UNL     1       0.488  -2.163  -3.301  1.00  0.00     0.018 A 
ATOM     24  Br  UNL     1       0.756   0.527  -2.519  1.00  0.00    -0.049 Br
ATOM     25  C   UNL     1       0.848  -3.504  -3.437  1.00  0.00     0.001 A 
ENDBRANCH  16  19
ENDBRANCH  12  13
ENDBRANCH   7  12
ENDBRANCH   3   6
ENDBRANCH   1   2
BRANCH   1  26
ATOM     26  C   UNL     1       3.603   7.861   0.985  1.00  0.00     0.042 C 
BRANCH  26  27
ATOM     27  C   UNL     1       3.894   9.359   1.066  1.00  0.00     0.118 C 
BRANCH  27  28
ATOM     28  N   UNL     1       3.022  10.137   0.201  1.00  0.00    -0.352 N 
ATOM     29  C   UNL     1       2.199  11.196   0.491  1.00  0.00     0.251 C 
ATOM     30  H   UNL     1       3.022   9.860  -0.744  1.00  0.00     0.163 HD
ATOM     31  O   UNL     1       1.401  11.583  -0.359  1.00  0.00    -0.269 OA
BRANCH  29  32
ATOM     32  C   UNL     1       2.245  11.877   1.807  1.00  0.00     0.039 A 
ATOM     33  C   UNL     1       1.040  12.314   2.369  1.00  0.00     0.014 A 
ATOM     34  C   UNL     1       3.453  12.165   2.450  1.00  0.00     0.014 A 
ATOM     35  C   UNL     1       1.041  13.005   3.584  1.00  0.00     0.010 A 
ATOM     36  C   UNL     1       3.449  12.808   3.691  1.00  0.00     0.010 A 
ATOM     37  C   UNL     1       2.245  13.246   4.263  1.00  0.00    -0.014 A 
BRANCH  37  38
ATOM     38  C   UNL     1       2.255  13.969   5.560  1.00  0.00     0.031 A 
ATOM     39  C   UNL     1       2.873  15.337   5.666  1.00  0.00     0.074 A 
ATOM     40  C   UNL     1       1.749  13.377   6.659  1.00  0.00     0.049 A 
ATOM     41  N   UNL     1       3.000  16.105   6.720  1.00  0.00    -0.248 NA
ATOM     42  C   UNL     1       3.441  15.909   4.435  1.00  0.00     0.031 C 
ATOM     43  C   UNL     1       1.161  12.036   6.704  1.00  0.00     0.029 A 
ATOM     44  N   UNL     1       1.658  13.825   7.953  1.00  0.00    -0.354 N 
ATOM     45  C   UNL     1       3.684  17.234   6.285  1.00  0.00     0.074 A 
ATOM     46  C   UNL     1       3.969  17.041   4.880  1.00  0.00     0.031 C 
ATOM     47  C   UNL     1       0.759  11.777   7.960  1.00  0.00     0.029 A 
ATOM     48  C   UNL     1       1.082  12.918   8.810  1.00  0.00     0.049 A 
ATOM     49  H   UNL     1       1.974  14.712   8.240  1.00  0.00     0.167 HD
ATOM     50  C   UNL     1       4.033  18.338   6.988  1.00  0.00     0.031 A 
ATOM     51  C   UNL     1       0.844  12.994  10.132  1.00  0.00     0.031 A 
ATOM     52  C   UNL     1       3.722  18.552   8.376  1.00  0.00     0.049 A 
ATOM     53  C   UNL     1       1.211  14.244  10.881  1.00  0.00     0.074 A 
ATOM     54  C   UNL     1       3.961  19.676   9.149  1.00  0.00     0.029 A 
ATOM     55  N   UNL     1       3.107  17.623   9.198  1.00  0.00    -0.354 N 
ATOM     56  N   UNL     1       1.781  15.336  10.434  1.00  0.00    -0.248 NA
ATOM     57  C   UNL     1       0.887  14.276  12.315  1.00  0.00     0.031 C 
ATOM     58  C   UNL     1       3.523  19.412  10.451  1.00  0.00     0.029 A 
ATOM     59  C   UNL     1       2.978  18.139  10.476  1.00  0.00     0.049 A 
ATOM     60  H   UNL     1       2.806  16.729   8.916  1.00  0.00     0.167 HD
ATOM     61  C   UNL     1       1.864  16.192  11.524  1.00  0.00     0.074 A 
ATOM     62  C   UNL     1       1.273  15.499  12.650  1.00  0.00     0.031 C 
ATOM     63  C   UNL     1       2.386  17.440  11.586  1.00  0.00     0.031 A 
BRANCH  50  64
ATOM     64  C   UNL     1       4.801  19.408   6.266  1.00  0.00    -0.014 A 
ATOM     65  C   UNL     1       4.173  20.254   5.339  1.00  0.00     0.009 A 
ATOM     66  C   UNL     1       6.159  19.607   6.559  1.00  0.00     0.009 A 
ATOM     67  C   UNL     1       4.898  21.261   4.698  1.00  0.00     0.001 A 
ATOM     68  C   UNL     1       6.876  20.628   5.933  1.00  0.00     0.001 A 
ATOM     69  C   UNL     1       6.247  21.450   4.999  1.00  0.00     0.000 A 
ENDBRANCH  50  64
BRANCH  51  70
ATOM     70  C   UNL     1       0.212  11.851  10.839  1.00  0.00    -0.014 A 
ATOM     71  C   UNL     1      -1.123  11.927  11.264  1.00  0.00     0.009 A 
ATOM     72  C   UNL     1       0.945  10.683  11.098  1.00  0.00     0.009 A 
ATOM     73  C   UNL     1      -1.704  10.864  11.958  1.00  0.00     0.001 A 
ATOM     74  C   UNL     1       0.353   9.612  11.771  1.00  0.00     0.001 A 
ATOM     75  C   UNL     1      -0.967   9.707  12.208  1.00  0.00     0.000 A 
ENDBRANCH  51  70
BRANCH  63  76
ATOM     76  C   UNL     1       2.317  18.147  12.908  1.00  0.00    -0.014 A 
ATOM     77  C   UNL     1       3.180  17.802  13.959  1.00  0.00     0.009 A 
ATOM     78  C   UNL     1       1.403  19.197  13.089  1.00  0.00     0.009 A 
ATOM     79  C   UNL     1       3.110  18.479  15.178  1.00  0.00     0.001 A 
ATOM     80  C   UNL     1       1.351  19.885  14.302  1.00  0.00     0.001 A 
ATOM     81  C   UNL     1       2.199  19.521  15.347  1.00  0.00     0.000 A 
ENDBRANCH  63  76
ENDBRANCH  37  38
ENDBRANCH  29  32
ENDBRANCH  27  28
ENDBRANCH  26  27
ENDBRANCH   1  26
TORSDOF 13
