REMARK SMILES Cc1ccc(-c2cccc(F)c2C(=O)NCCCNC(=O)c2ccc(-c3c4nc(c(-c5ccccc5)c5ccc([nH]5)c(-c5ccccc5)c5nc(c(-c6ccccc6)c6ccc3[nH]6)C=C5)C=C4)cc2)c(C)c1
REMARK SMILES IDX 17 1 16 2 15 3 13 4 14 5 12 7 6 8 7 9 8 10 10 11 9 12 11 13
REMARK SMILES IDX 5 14 1 15 2 16 3 17 72 18 4 19 70 20 71 21 18 22 19 23 20 24
REMARK SMILES IDX 21 26 22 27 23 28 69 29 24 30 68 31 25 32 26 33 27 34 62 35
REMARK SMILES IDX 28 36 67 37 61 38 63 39 29 40 66 41 60 42 59 43 30 45 52 46
REMARK SMILES IDX 37 47 51 48 38 49 41 50 50 51 64 52 39 53 40 54 49 56 65 57
REMARK SMILES IDX 42 58 31 59 32 60 36 61 33 62 35 63 34 64 53 65 54 66 58 67
REMARK SMILES IDX 55 68 57 69 56 70 43 71 44 72 48 73 45 74 47 75 46 76
REMARK H PARENT 15 6 19 25 63 44 41 55
REMARK Flexibility Score: inf
ROOT
ATOM      1  C   UNL     1      -6.419  -0.133  -3.414  1.00  0.00     0.042 C 
ENDROOT
BRANCH   1   2
ATOM      2  C   UNL     1      -5.475  -1.323  -3.316  1.00  0.00     0.118 C 
BRANCH   2   3
ATOM      3  N   UNL     1      -4.066  -0.980  -3.190  1.00  0.00    -0.352 N 
ATOM      4  C   UNL     1      -3.057  -1.410  -2.354  1.00  0.00     0.254 C 
ATOM      5  O   UNL     1      -1.915  -1.112  -2.704  1.00  0.00    -0.269 OA
ATOM      6  H   UNL     1      -3.772  -0.299  -3.838  1.00  0.00     0.163 HD
BRANCH   4   7
ATOM      7  C   UNL     1      -3.280  -2.129  -1.064  1.00  0.00     0.083 A 
ATOM      8  C   UNL     1      -2.471  -1.852   0.072  1.00  0.00    -0.002 A 
ATOM      9  C   UNL     1      -2.773  -2.491   1.300  1.00  0.00     0.010 A 
ATOM     10  C   UNL     1      -3.815  -3.406   1.410  1.00  0.00     0.004 A 
ATOM     11  C   UNL     1      -4.234  -3.145  -0.949  1.00  0.00     0.136 A 
ATOM     12  C   UNL     1      -4.533  -3.748   0.275  1.00  0.00     0.040 A 
ATOM     13  F   UNL     1      -4.844  -3.654  -2.030  1.00  0.00    -0.206 F 
BRANCH   8  14
ATOM     14  C   UNL     1      -1.245  -1.025   0.052  1.00  0.00    -0.015 A 
ATOM     15  C   UNL     1       2.513   1.138   0.040  1.00  0.00     0.044 C 
ATOM     16  C   UNL     1       1.219   0.379   0.065  1.00  0.00    -0.051 A 
ATOM     17  C   UNL     1       1.207  -1.012  -0.012  1.00  0.00     0.004 A 
ATOM     18  C   UNL     1      -0.002   1.063   0.138  1.00  0.00     0.007 A 
ATOM     19  C   UNL     1      -0.007  -1.700  -0.018  1.00  0.00     0.009 A 
ATOM     20  C   UNL     1      -1.236   0.379   0.144  1.00  0.00    -0.043 A 
ATOM     21  C   UNL     1      -2.491   1.204   0.200  1.00  0.00     0.045 C 
ENDBRANCH   8  14
ENDBRANCH   4   7
ENDBRANCH   2   3
ENDBRANCH   1   2
BRANCH   1  22
ATOM     22  C   UNL     1      -6.226   0.777  -4.619  1.00  0.00     0.118 C 
BRANCH  22  23
ATOM     23  N   UNL     1      -6.447   0.111  -5.896  1.00  0.00    -0.352 N 
ATOM     24  C   UNL     1      -7.475   0.197  -6.805  1.00  0.00     0.251 C 
ATOM     25  H   UNL     1      -5.731  -0.514  -6.154  1.00  0.00     0.163 HD
ATOM     26  O   UNL     1      -7.519  -0.598  -7.740  1.00  0.00    -0.269 OA
BRANCH  24  27
ATOM     27  C   UNL     1      -8.545   1.213  -6.669  1.00  0.00     0.039 A 
ATOM     28  C   UNL     1      -9.860   0.858  -6.991  1.00  0.00     0.014 A 
ATOM     29  C   UNL     1      -8.266   2.521  -6.271  1.00  0.00     0.014 A 
ATOM     30  C   UNL     1     -10.895   1.785  -6.835  1.00  0.00     0.010 A 
ATOM     31  C   UNL     1      -9.306   3.412  -6.019  1.00  0.00     0.010 A 
ATOM     32  C   UNL     1     -10.633   3.057  -6.301  1.00  0.00    -0.014 A 
BRANCH  32  33
ATOM     33  C   UNL     1     -11.727   4.028  -6.032  1.00  0.00     0.031 A 
ATOM     34  C   UNL     1     -11.743   5.367  -6.723  1.00  0.00     0.074 A 
ATOM     35  C   UNL     1     -12.663   3.737  -5.105  1.00  0.00     0.049 A 
ATOM     36  N   UNL     1     -12.567   6.371  -6.558  1.00  0.00    -0.248 NA
ATOM     37  C   UNL     1     -10.677   5.626  -7.707  1.00  0.00     0.031 C 
ATOM     38  C   UNL     1     -12.730   2.499  -4.324  1.00  0.00     0.029 A 
ATOM     39  N   UNL     1     -13.733   4.469  -4.651  1.00  0.00    -0.354 N 
ATOM     40  C   UNL     1     -12.103   7.383  -7.390  1.00  0.00     0.074 A 
ATOM     41  C   UNL     1     -10.903   6.892  -8.028  1.00  0.00     0.031 C 
ATOM     42  C   UNL     1     -13.795   2.548  -3.507  1.00  0.00     0.029 A 
ATOM     43  C   UNL     1     -14.460   3.836  -3.671  1.00  0.00     0.049 A 
ATOM     44  H   UNL     1     -13.958   5.364  -4.995  1.00  0.00     0.167 HD
ATOM     45  C   UNL     1     -12.638   8.607  -7.615  1.00  0.00     0.031 A 
ATOM     46  C   UNL     1     -15.533   4.250  -2.970  1.00  0.00     0.031 A 
ATOM     47  C   UNL     1     -13.850   9.083  -7.005  1.00  0.00     0.049 A 
ATOM     48  C   UNL     1     -16.110   5.610  -3.253  1.00  0.00     0.074 A 
ATOM     49  C   UNL     1     -14.518  10.273  -7.237  1.00  0.00     0.029 A 
ATOM     50  N   UNL     1     -14.572   8.397  -6.044  1.00  0.00    -0.354 N 
ATOM     51  N   UNL     1     -15.712   6.515  -4.114  1.00  0.00    -0.248 NA
ATOM     52  C   UNL     1     -17.295   6.002  -2.475  1.00  0.00     0.031 C 
ATOM     53  C   UNL     1     -15.612  10.335  -6.370  1.00  0.00     0.029 A 
ATOM     54  C   UNL     1     -15.662   9.154  -5.647  1.00  0.00     0.049 A 
ATOM     55  H   UNL     1     -14.346   7.505  -5.694  1.00  0.00     0.167 HD
ATOM     56  C   UNL     1     -16.613   7.566  -4.003  1.00  0.00     0.074 A 
ATOM     57  C   UNL     1     -17.591   7.178  -3.008  1.00  0.00     0.031 C 
ATOM     58  C   UNL     1     -16.629   8.749  -4.662  1.00  0.00     0.031 A 
BRANCH  45  59
ATOM     59  C   UNL     1     -11.919   9.529  -8.562  1.00  0.00    -0.014 A 
ATOM     60  C   UNL     1     -11.901   9.289  -9.944  1.00  0.00     0.009 A 
ATOM     61  C   UNL     1     -11.323  10.701  -8.068  1.00  0.00     0.009 A 
ATOM     62  C   UNL     1     -11.281  10.192 -10.810  1.00  0.00     0.001 A 
ATOM     63  C   UNL     1     -10.729  11.616  -8.939  1.00  0.00     0.001 A 
ATOM     64  C   UNL     1     -10.703  11.358 -10.309  1.00  0.00     0.000 A 
ENDBRANCH  45  59
BRANCH  46  65
ATOM     65  C   UNL     1     -16.135   3.379  -1.923  1.00  0.00    -0.014 A 
ATOM     66  C   UNL     1     -17.423   2.845  -2.087  1.00  0.00     0.009 A 
ATOM     67  C   UNL     1     -15.440   3.113  -0.733  1.00  0.00     0.009 A 
ATOM     68  C   UNL     1     -18.018   2.102  -1.064  1.00  0.00     0.001 A 
ATOM     69  C   UNL     1     -16.023   2.339   0.273  1.00  0.00     0.001 A 
ATOM     70  C   UNL     1     -17.317   1.848   0.113  1.00  0.00     0.000 A 
ENDBRANCH  46  65
BRANCH  58  71
ATOM     71  C   UNL     1     -17.761   9.691  -4.362  1.00  0.00    -0.014 A 
ATOM     72  C   UNL     1     -17.845  10.366  -3.135  1.00  0.00     0.009 A 
ATOM     73  C   UNL     1     -18.737   9.935  -5.342  1.00  0.00     0.009 A 
ATOM     74  C   UNL     1     -18.905  11.239  -2.882  1.00  0.00     0.001 A 
ATOM     75  C   UNL     1     -19.775  10.833  -5.099  1.00  0.00     0.001 A 
ATOM     76  C   UNL     1     -19.865  11.476  -3.865  1.00  0.00     0.000 A 
ENDBRANCH  58  71
ENDBRANCH  32  33
ENDBRANCH  24  27
ENDBRANCH  22  23
ENDBRANCH   1  22
TORSDOF 11
