REMARK SMILES C[C@@H]1CCCN(c2cc(Br)ccc2/C=C/C(=O)NCCCNC(=O)c2ccc(-c3c4nc(c(-c5ccccc5)c5ccc([nH]5)c(-c5ccccc5)c5nc(c(-c6ccccc6)c6ccc3[nH]6)C=C5)C=C4)cc2)C1
REMARK SMILES IDX 20 1 19 2 18 3 16 4 17 5 15 7 14 8 13 9 7 10 8 11 9 12 12 13
REMARK SMILES IDX 10 14 11 15 6 16 1 17 2 18 3 19 73 20 4 21 5 22 21 23 22 24
REMARK SMILES IDX 23 25 24 27 25 28 26 29 72 30 27 31 71 32 28 33 29 34 30 35
REMARK SMILES IDX 65 36 31 37 70 38 64 39 66 40 32 41 69 42 63 43 62 44 33 46
REMARK SMILES IDX 55 47 40 48 54 49 41 50 44 51 53 52 67 53 42 54 43 55 52 57
REMARK SMILES IDX 68 58 45 59 34 60 35 61 39 62 36 63 38 64 37 65 56 66 57 67
REMARK SMILES IDX 61 68 58 69 60 70 59 71 46 72 47 73 51 74 48 75 50 76 49 77
REMARK H PARENT 18 6 22 26 66 45 44 56
REMARK Flexibility Score: inf
ROOT
ATOM      1  C   UNL     1       0.003   2.556   3.677  1.00  0.00     0.042 C 
ENDROOT
BRANCH   1   2
ATOM      2  C   UNL     1      -0.532   3.775   2.929  1.00  0.00     0.118 C 
BRANCH   2   3
ATOM      3  N   UNL     1       0.268   4.956   3.186  1.00  0.00    -0.352 N 
ATOM      4  C   UNL     1       1.111   5.629   2.359  1.00  0.00     0.244 C 
ATOM      5  O   UNL     1       1.599   6.696   2.723  1.00  0.00    -0.270 OA
ATOM      6  H   UNL     1       0.189   5.325   4.096  1.00  0.00     0.163 HD
BRANCH   4   7
ATOM      7  C   UNL     1       1.375   5.136   0.990  1.00  0.00     0.072 C 
ATOM      8  C   UNL     1       1.813   3.899   0.709  1.00  0.00     0.016 C 
BRANCH   8   9
ATOM      9  C   UNL     1       2.153   3.433  -0.652  1.00  0.00    -0.002 A 
ATOM     10  C   UNL     1       1.902   2.097  -1.058  1.00  0.00     0.045 A 
ATOM     11  C   UNL     1       2.332   1.693  -2.335  1.00  0.00     0.042 A 
ATOM     12  C   UNL     1       2.996   2.574  -3.185  1.00  0.00     0.020 A 
ATOM     13  C   UNL     1       2.846   4.300  -1.520  1.00  0.00     0.011 A 
ATOM     14  Br  UNL     1       3.552   1.991  -4.895  1.00  0.00    -0.051 Br
ATOM     15  C   UNL     1       3.258   3.877  -2.783  1.00  0.00     0.016 A 
BRANCH  10  16
ATOM     16  N   UNL     1       1.244   1.179  -0.253  1.00  0.00    -0.371 N 
ATOM     17  C   UNL     1      -2.406   0.124  -0.071  1.00  0.00     0.009 C 
ATOM     18  C   UNL     1      -0.936   0.057  -0.487  1.00  0.00     0.005 C 
ATOM     19  C   UNL     1      -0.282  -1.216   0.070  1.00  0.00     0.007 C 
ATOM     20  C   UNL     1      -0.186   1.312  -0.012  1.00  0.00     0.119 C 
ATOM     21  C   UNL     1       1.202  -1.267  -0.287  1.00  0.00     0.022 C 
ATOM     22  C   UNL     1       1.931  -0.021   0.206  1.00  0.00     0.116 C 
ENDBRANCH  10  16
ENDBRANCH   8   9
ENDBRANCH   4   7
ENDBRANCH   2   3
ENDBRANCH   1   2
BRANCH   1  23
ATOM     23  C   UNL     1      -0.329   2.559   5.165  1.00  0.00     0.118 C 
BRANCH  23  24
ATOM     24  N   UNL     1      -1.755   2.380   5.399  1.00  0.00    -0.352 N 
ATOM     25  C   UNL     1      -2.432   1.438   6.130  1.00  0.00     0.251 C 
ATOM     26  H   UNL     1      -2.329   3.048   4.960  1.00  0.00     0.163 HD
ATOM     27  O   UNL     1      -3.650   1.348   5.998  1.00  0.00    -0.269 OA
BRANCH  25  28
ATOM     28  C   UNL     1      -1.729   0.529   7.064  1.00  0.00     0.039 A 
ATOM     29  C   UNL     1      -2.220  -0.772   7.213  1.00  0.00     0.014 A 
ATOM     30  C   UNL     1      -0.652   0.957   7.846  1.00  0.00     0.014 A 
ATOM     31  C   UNL     1      -1.612  -1.649   8.113  1.00  0.00     0.010 A 
ATOM     32  C   UNL     1      -0.000   0.059   8.691  1.00  0.00     0.010 A 
ATOM     33  C   UNL     1      -0.483  -1.248   8.845  1.00  0.00    -0.014 A 
BRANCH  33  34
ATOM     34  C   UNL     1       0.190  -2.195   9.766  1.00  0.00     0.031 A 
ATOM     35  C   UNL     1       0.173  -1.968  11.252  1.00  0.00     0.074 A 
ATOM     36  C   UNL     1       0.836  -3.261   9.257  1.00  0.00     0.049 A 
ATOM     37  N   UNL     1       0.653  -2.727  12.207  1.00  0.00    -0.248 NA
ATOM     38  C   UNL     1      -0.441  -0.720  11.728  1.00  0.00     0.031 C 
ATOM     39  C   UNL     1       0.966  -3.569   7.831  1.00  0.00     0.029 A 
ATOM     40  N   UNL     1       1.490  -4.291   9.883  1.00  0.00    -0.354 N 
ATOM     41  C   UNL     1       0.410  -2.042  13.391  1.00  0.00     0.074 A 
ATOM     42  C   UNL     1      -0.215  -0.787  13.031  1.00  0.00     0.031 C 
ATOM     43  C   UNL     1       1.610  -4.738   7.694  1.00  0.00     0.029 A 
ATOM     44  C   UNL     1       1.960  -5.246   9.016  1.00  0.00     0.049 A 
ATOM     45  H   UNL     1       1.611  -4.340  10.859  1.00  0.00     0.167 HD
ATOM     46  C   UNL     1       0.665  -2.429  14.665  1.00  0.00     0.031 A 
ATOM     47  C   UNL     1       2.584  -6.412   9.259  1.00  0.00     0.031 A 
ATOM     48  C   UNL     1       1.283  -3.677  15.025  1.00  0.00     0.049 A 
ATOM     49  C   UNL     1       2.846  -6.827  10.677  1.00  0.00     0.074 A 
ATOM     50  C   UNL     1       1.529  -4.188  16.288  1.00  0.00     0.029 A 
ATOM     51  N   UNL     1       1.758  -4.611  14.118  1.00  0.00    -0.354 N 
ATOM     52  N   UNL     1       2.541  -6.204  11.789  1.00  0.00    -0.248 NA
ATOM     53  C   UNL     1       3.524  -8.116  10.869  1.00  0.00     0.031 C 
ATOM     54  C   UNL     1       2.194  -5.413  16.144  1.00  0.00     0.029 A 
ATOM     55  C   UNL     1       2.318  -5.685  14.791  1.00  0.00     0.049 A 
ATOM     56  H   UNL     1       1.706  -4.524  13.139  1.00  0.00     0.167 HD
ATOM     57  C   UNL     1       2.973  -7.033  12.816  1.00  0.00     0.074 A 
ATOM     58  C   UNL     1       3.543  -8.211  12.191  1.00  0.00     0.031 C 
ATOM     59  C   UNL     1       2.900  -6.839  14.156  1.00  0.00     0.031 A 
BRANCH  46  60
ATOM     60  C   UNL     1       0.283  -1.469  15.758  1.00  0.00    -0.014 A 
ATOM     61  C   UNL     1      -1.063  -1.220  16.071  1.00  0.00     0.009 A 
ATOM     62  C   UNL     1       1.282  -0.805  16.486  1.00  0.00     0.009 A 
ATOM     63  C   UNL     1      -1.401  -0.289  17.056  1.00  0.00     0.001 A 
ATOM     64  C   UNL     1       0.942   0.104  17.490  1.00  0.00     0.001 A 
ATOM     65  C   UNL     1      -0.399   0.371  17.765  1.00  0.00     0.000 A 
ENDBRANCH  46  60
BRANCH  47  66
ATOM     66  C   UNL     1       2.946  -7.301   8.127  1.00  0.00    -0.014 A 
ATOM     67  C   UNL     1       2.199  -8.462   7.878  1.00  0.00     0.009 A 
ATOM     68  C   UNL     1       4.016  -6.983   7.277  1.00  0.00     0.009 A 
ATOM     69  C   UNL     1       2.526  -9.297   6.809  1.00  0.00     0.001 A 
ATOM     70  C   UNL     1       4.327  -7.809   6.195  1.00  0.00     0.001 A 
ATOM     71  C   UNL     1       3.585  -8.967   5.965  1.00  0.00     0.000 A 
ENDBRANCH  47  66
BRANCH  59  72
ATOM     72  C   UNL     1       3.442  -7.936  15.027  1.00  0.00    -0.014 A 
ATOM     73  C   UNL     1       4.824  -8.158  15.140  1.00  0.00     0.009 A 
ATOM     74  C   UNL     1       2.559  -8.757  15.744  1.00  0.00     0.009 A 
ATOM     75  C   UNL     1       5.308  -9.208  15.922  1.00  0.00     0.001 A 
ATOM     76  C   UNL     1       3.047  -9.790  16.546  1.00  0.00     0.001 A 
ATOM     77  C   UNL     1       4.420 -10.022  16.625  1.00  0.00     0.000 A 
ENDBRANCH  59  72
ENDBRANCH  33  34
ENDBRANCH  25  28
ENDBRANCH  23  24
ENDBRANCH   1  23
TORSDOF 12
