REMARK SMILES [NH3+][C@H]1CN(C(=O)OCC2c3ccccc3-c3ccccc32)C[C@@H]1C(=O)NCCCNC(=O)c1ccc(-c2c3nc(c(-c4ccccc4)c4ccc([nH]4)c(-c4ccccc4)c4nc(c(-c5ccccc5)c5ccc2[nH]5)C=C4)C=C3)cc1
REMARK SMILES IDX 27 1 26 2 24 3 25 4 23 6 2 7 3 8 4 9 22 10 1 11 5 15 6 16
REMARK SMILES IDX 7 17 8 18 9 19 10 20 21 21 11 22 15 23 16 24 20 25 12 26
REMARK SMILES IDX 14 27 17 28 19 29 13 30 18 31 28 32 29 33 30 34 31 35 32 37
REMARK SMILES IDX 33 38 34 39 80 40 35 41 79 42 36 43 37 44 38 45 73 46 39 47
REMARK SMILES IDX 78 48 72 49 74 50 40 51 77 52 71 53 70 54 41 56 63 57 48 58
REMARK SMILES IDX 62 59 49 60 52 61 61 62 75 63 50 64 51 65 60 67 76 68 53 69
REMARK SMILES IDX 42 70 43 71 47 72 44 73 46 74 45 75 64 76 65 77 69 78 66 79
REMARK SMILES IDX 68 80 67 81 54 82 55 83 59 84 56 85 58 86 57 87
REMARK H PARENT 26 5 1 12 1 13 1 14 30 36 74 55 52 66
REMARK Flexibility Score: inf
ROOT
ATOM      1  C   UNL     1       3.442  -1.804   0.837  1.00  0.00     0.117 C 
ENDROOT
BRANCH   1   2
ATOM      2  N   UNL     1       3.044  -2.083  -0.523  1.00  0.00    -0.356 N 
ATOM      3  C   UNL     1       1.832  -2.249  -1.104  1.00  0.00     0.231 C 
ATOM      4  O   UNL     1       1.851  -2.412  -2.332  1.00  0.00    -0.274 OA
ATOM      5  H   UNL     1       3.799  -2.169  -1.148  1.00  0.00     0.163 HD
BRANCH   3   6
ATOM      6  C   UNL     1       0.497  -2.343  -0.369  1.00  0.00     0.158 C 
ATOM      7  C   UNL     1       0.112  -1.264   0.662  1.00  0.00     0.215 C 
ATOM      8  C   UNL     1       0.250  -1.952   2.053  1.00  0.00     0.188 C 
ATOM      9  N   UNL     1       0.615  -3.321   1.764  1.00  0.00    -0.301 N 
ATOM     10  C   UNL     1       0.375  -3.655   0.378  1.00  0.00     0.143 C 
BRANCH   7  11
ATOM     11  N   UNL     1      -1.266  -0.791   0.429  1.00  0.00    -0.353 N 
ATOM     12  H   UNL     1      -1.502  -0.079   1.119  1.00  0.00     0.344 HD
ATOM     13  H   UNL     1      -1.913  -1.575   0.513  1.00  0.00     0.344 HD
ATOM     14  H   UNL     1      -1.335  -0.393  -0.508  1.00  0.00     0.344 HD
ENDBRANCH   7  11
BRANCH   9  15
ATOM     15  C   UNL     1       1.183  -4.248   2.594  1.00  0.00     0.410 C 
ATOM     16  O   UNL     1       1.433  -5.375   2.202  1.00  0.00    -0.224 OA
BRANCH  15  17
ATOM     17  O   UNL     1       1.510  -3.784   3.832  1.00  0.00    -0.448 OA
BRANCH  17  18
ATOM     18  C   UNL     1       2.264  -4.734   4.646  1.00  0.00     0.248 C 
BRANCH  18  19
ATOM     19  C   UNL     1       1.333  -5.793   5.260  1.00  0.00     0.088 C 
ATOM     20  C   UNL     1       1.617  -7.266   4.944  1.00  0.00    -0.029 A 
ATOM     21  C   UNL     1       1.287  -5.821   6.790  1.00  0.00    -0.029 A 
ATOM     22  C   UNL     1       1.898  -7.886   3.735  1.00  0.00     0.005 A 
ATOM     23  C   UNL     1       1.457  -8.043   6.110  1.00  0.00    -0.014 A 
ATOM     24  C   UNL     1       1.286  -7.160   7.242  1.00  0.00    -0.014 A 
ATOM     25  C   UNL     1       1.200  -4.768   7.689  1.00  0.00     0.005 A 
ATOM     26  C   UNL     1       1.946  -9.280   3.678  1.00  0.00     0.000 A 
ATOM     27  C   UNL     1       1.495  -9.429   6.056  1.00  0.00     0.009 A 
ATOM     28  C   UNL     1       1.181  -7.456   8.592  1.00  0.00     0.009 A 
ATOM     29  C   UNL     1       1.113  -5.067   9.052  1.00  0.00     0.000 A 
ATOM     30  C   UNL     1       1.725 -10.048   4.825  1.00  0.00     0.001 A 
ATOM     31  C   UNL     1       1.094  -6.398   9.499  1.00  0.00     0.001 A 
ENDBRANCH  18  19
ENDBRANCH  17  18
ENDBRANCH  15  17
ENDBRANCH   9  15
ENDBRANCH   3   6
ENDBRANCH   1   2
BRANCH   1  32
ATOM     32  C   UNL     1       4.072  -3.006   1.528  1.00  0.00     0.042 C 
BRANCH  32  33
ATOM     33  C   UNL     1       5.571  -3.115   1.290  1.00  0.00     0.118 C 
BRANCH  33  34
ATOM     34  N   UNL     1       6.297  -1.989   1.872  1.00  0.00    -0.352 N 
ATOM     35  C   UNL     1       7.164  -1.929   2.933  1.00  0.00     0.251 C 
ATOM     36  H   UNL     1       6.136  -1.126   1.426  1.00  0.00     0.163 HD
ATOM     37  O   UNL     1       7.445  -0.836   3.418  1.00  0.00    -0.269 OA
BRANCH  35  38
ATOM     38  C   UNL     1       7.758  -3.158   3.497  1.00  0.00     0.039 A 
ATOM     39  C   UNL     1       8.005  -3.225   4.871  1.00  0.00     0.014 A 
ATOM     40  C   UNL     1       8.111  -4.229   2.675  1.00  0.00     0.014 A 
ATOM     41  C   UNL     1       8.545  -4.388   5.422  1.00  0.00     0.010 A 
ATOM     42  C   UNL     1       8.540  -5.425   3.237  1.00  0.00     0.010 A 
ATOM     43  C   UNL     1       8.778  -5.513   4.615  1.00  0.00    -0.014 A 
BRANCH  43  44
ATOM     44  C   UNL     1       9.278  -6.787   5.187  1.00  0.00     0.031 A 
ATOM     45  C   UNL     1      10.589  -7.363   4.724  1.00  0.00     0.074 A 
ATOM     46  C   UNL     1       8.517  -7.457   6.074  1.00  0.00     0.049 A 
ATOM     47  N   UNL     1      11.163  -8.489   5.066  1.00  0.00    -0.248 NA
ATOM     48  C   UNL     1      11.341  -6.589   3.721  1.00  0.00     0.031 C 
ATOM     49  C   UNL     1       7.203  -7.028   6.561  1.00  0.00     0.029 A 
ATOM     50  N   UNL     1       8.739  -8.645   6.723  1.00  0.00    -0.354 N 
ATOM     51  C   UNL     1      12.326  -8.565   4.308  1.00  0.00     0.074 A 
ATOM     52  C   UNL     1      12.346  -7.406   3.445  1.00  0.00     0.031 C 
ATOM     53  C   UNL     1       6.755  -7.918   7.460  1.00  0.00     0.029 A 
ATOM     54  C   UNL     1       7.723  -9.003   7.576  1.00  0.00     0.049 A 
ATOM     55  H   UNL     1       9.548  -9.189   6.590  1.00  0.00     0.167 HD
ATOM     56  C   UNL     1      13.302  -9.502   4.344  1.00  0.00     0.031 A 
ATOM     57  C   UNL     1       7.584 -10.089   8.359  1.00  0.00     0.031 A 
ATOM     58  C   UNL     1      13.281 -10.650   5.210  1.00  0.00     0.049 A 
ATOM     59  C   UNL     1       8.675 -11.124   8.368  1.00  0.00     0.074 A 
ATOM     60  C   UNL     1      14.246 -11.630   5.367  1.00  0.00     0.029 A 
ATOM     61  N   UNL     1      12.237 -10.975   6.063  1.00  0.00    -0.354 N 
ATOM     62  N   UNL     1       9.806 -11.141   7.705  1.00  0.00    -0.248 NA
ATOM     63  C   UNL     1       8.474 -12.285   9.246  1.00  0.00     0.031 C 
ATOM     64  C   UNL     1      13.758 -12.581   6.268  1.00  0.00     0.029 A 
ATOM     65  C   UNL     1      12.521 -12.156   6.727  1.00  0.00     0.049 A 
ATOM     66  H   UNL     1      11.416 -10.444   6.180  1.00  0.00     0.167 HD
ATOM     67  C   UNL     1      10.463 -12.298   8.105  1.00  0.00     0.074 A 
ATOM     68  C   UNL     1       9.614 -12.942   9.085  1.00  0.00     0.031 C 
ATOM     69  C   UNL     1      11.661 -12.785   7.697  1.00  0.00     0.031 A 
BRANCH  56  70
ATOM     70  C   UNL     1      14.470  -9.327   3.410  1.00  0.00    -0.014 A 
ATOM     71  C   UNL     1      15.388  -8.276   3.577  1.00  0.00     0.009 A 
ATOM     72  C   UNL     1      14.674 -10.243   2.367  1.00  0.00     0.009 A 
ATOM     73  C   UNL     1      16.460  -8.124   2.695  1.00  0.00     0.001 A 
ATOM     74  C   UNL     1      15.767 -10.109   1.508  1.00  0.00     0.001 A 
ATOM     75  C   UNL     1      16.652  -9.044   1.665  1.00  0.00     0.000 A 
ENDBRANCH  56  70
BRANCH  57  76
ATOM     76  C   UNL     1       6.374 -10.246   9.209  1.00  0.00    -0.014 A 
ATOM     77  C   UNL     1       6.472 -10.177  10.608  1.00  0.00     0.009 A 
ATOM     78  C   UNL     1       5.115 -10.470   8.630  1.00  0.00     0.009 A 
ATOM     79  C   UNL     1       5.342 -10.363  11.409  1.00  0.00     0.001 A 
ATOM     80  C   UNL     1       3.982 -10.622   9.432  1.00  0.00     0.001 A 
ATOM     81  C   UNL     1       4.098 -10.581  10.820  1.00  0.00     0.000 A 
ENDBRANCH  57  76
BRANCH  69  82
ATOM     82  C   UNL     1      12.139 -14.058   8.339  1.00  0.00    -0.014 A 
ATOM     83  C   UNL     1      11.522 -15.290   8.072  1.00  0.00     0.009 A 
ATOM     84  C   UNL     1      13.251 -14.026   9.196  1.00  0.00     0.009 A 
ATOM     85  C   UNL     1      11.984 -16.457   8.683  1.00  0.00     0.001 A 
ATOM     86  C   UNL     1      13.732 -15.199   9.777  1.00  0.00     0.001 A 
ATOM     87  C   UNL     1      13.091 -16.412   9.530  1.00  0.00     0.000 A 
ENDBRANCH  69  82
ENDBRANCH  43  44
ENDBRANCH  35  38
ENDBRANCH  33  34
ENDBRANCH  32  33
ENDBRANCH   1  32
TORSDOF 15
