REMARK SMILES COc1cc2c(CC(=O)NCCCNC(=O)c3ccc(-c4c5nc(c(-c6ccccc6)c6ccc([nH]6)c(-c6ccccc6)c6nc(c(-c7ccccc7)c7ccc4[nH]7)C=C6)C=C5)cc3)c(C)n(C(=O)c3ccc(Cl)cc3)c2cc1Cl
REMARK SMILES IDX 11 1 10 2 8 3 9 4 7 6 6 7 3 8 4 9 79 10 5 11 78 12 80 13
REMARK SMILES IDX 77 14 65 15 67 16 66 17 2 18 1 19 68 20 69 21 70 22 71 23
REMARK SMILES IDX 76 24 72 25 75 26 73 27 74 28 12 29 13 30 14 31 15 32 16 34
REMARK SMILES IDX 17 35 18 36 64 37 19 38 63 39 20 40 21 41 22 42 57 43 23 44
REMARK SMILES IDX 62 45 56 46 58 47 24 48 61 49 55 50 54 51 25 53 47 54 32 55
REMARK SMILES IDX 46 56 33 57 36 58 45 59 59 60 34 61 35 62 44 64 60 65 37 66
REMARK SMILES IDX 26 67 27 68 31 69 28 70 30 71 29 72 48 73 49 74 53 75 50 76
REMARK SMILES IDX 52 77 51 78 38 79 39 80 43 81 40 82 42 83 41 84
REMARK H PARENT 10 5 14 33 58 52 36 63
REMARK Flexibility Score: inf
ROOT
ATOM      1  C   UNL     1      -0.271   7.995   1.713  1.00  0.00     0.117 C 
ENDROOT
BRANCH   1   2
ATOM      2  N   UNL     1      -1.253   7.077   1.165  1.00  0.00    -0.356 N 
ATOM      3  C   UNL     1      -1.829   5.980   1.736  1.00  0.00     0.224 C 
ATOM      4  O   UNL     1      -2.655   5.349   1.073  1.00  0.00    -0.275 OA
ATOM      5  H   UNL     1      -1.546   7.275   0.246  1.00  0.00     0.163 HD
BRANCH   3   6
ATOM      6  C   UNL     1      -1.498   5.586   3.166  1.00  0.00     0.138 C 
BRANCH   6   7
ATOM      7  C   UNL     1      -0.085   5.106   3.351  1.00  0.00    -0.009 A 
ATOM      8  C   UNL     1       0.972   2.170   1.111  1.00  0.00     0.138 A 
ATOM      9  C   UNL     1       0.125   3.174   1.608  1.00  0.00     0.058 A 
ATOM     10  C   UNL     1       2.229   2.004   1.681  1.00  0.00     0.085 A 
ATOM     11  C   UNL     1       0.544   4.042   2.645  1.00  0.00     0.008 A 
ATOM     12  C   UNL     1       2.635   2.814   2.751  1.00  0.00     0.051 A 
ATOM     13  Cl  UNL     1       3.430   0.911   1.085  1.00  0.00    -0.080 Cl
ATOM     14  C   UNL     1       1.824   3.885   3.179  1.00  0.00     0.058 A 
ATOM     15  C   UNL     1       0.827   5.574   4.293  1.00  0.00     0.028 A 
ATOM     16  N   UNL     1       2.061   4.954   4.060  1.00  0.00    -0.280 N 
ATOM     17  C   UNL     1       0.575   6.598   5.357  1.00  0.00     0.065 C 
BRANCH   8  18
ATOM     18  O   UNL     1       0.466   1.501   0.028  1.00  0.00    -0.495 OA
ATOM     19  C   UNL     1       0.629   0.086   0.034  1.00  0.00     0.278 C 
ENDBRANCH   8  18
BRANCH  16  20
ATOM     20  C   UNL     1       3.327   5.360   4.587  1.00  0.00     0.262 C 
ATOM     21  O   UNL     1       3.388   6.339   5.314  1.00  0.00    -0.268 OA
BRANCH  20  22
ATOM     22  C   UNL     1       4.607   4.684   4.298  1.00  0.00     0.040 A 
ATOM     23  C   UNL     1       5.159   4.717   3.012  1.00  0.00     0.015 A 
ATOM     24  C   UNL     1       5.212   3.947   5.321  1.00  0.00     0.015 A 
ATOM     25  C   UNL     1       6.273   3.924   2.728  1.00  0.00     0.021 A 
ATOM     26  C   UNL     1       6.333   3.167   5.033  1.00  0.00     0.021 A 
ATOM     27  C   UNL     1       6.844   3.141   3.734  1.00  0.00     0.041 A 
ATOM     28  Cl  UNL     1       8.168   2.108   3.362  1.00  0.00    -0.084 Cl
ENDBRANCH  20  22
ENDBRANCH  16  20
ENDBRANCH   6   7
ENDBRANCH   3   6
ENDBRANCH   1   2
BRANCH   1  29
ATOM     29  C   UNL     1       1.115   7.815   1.091  1.00  0.00     0.042 C 
BRANCH  29  30
ATOM     30  C   UNL     1       1.173   8.172  -0.396  1.00  0.00     0.118 C 
BRANCH  30  31
ATOM     31  N   UNL     1       0.719   9.516  -0.695  1.00  0.00    -0.352 N 
ATOM     32  C   UNL     1       1.291  10.754  -0.758  1.00  0.00     0.251 C 
ATOM     33  H   UNL     1      -0.243   9.543  -0.905  1.00  0.00     0.163 HD
ATOM     34  O   UNL     1       0.558  11.660  -1.165  1.00  0.00    -0.269 OA
BRANCH  32  35
ATOM     35  C   UNL     1       2.671  11.103  -0.325  1.00  0.00     0.039 A 
ATOM     36  C   UNL     1       3.633  10.213   0.151  1.00  0.00     0.014 A 
ATOM     37  C   UNL     1       2.986  12.478  -0.350  1.00  0.00     0.014 A 
ATOM     38  C   UNL     1       4.830  10.694   0.683  1.00  0.00     0.010 A 
ATOM     39  C   UNL     1       4.181  12.961   0.169  1.00  0.00     0.010 A 
ATOM     40  C   UNL     1       5.082  12.070   0.736  1.00  0.00    -0.014 A 
BRANCH  40  41
ATOM     41  C   UNL     1       6.351  12.522   1.306  1.00  0.00     0.031 A 
ATOM     42  C   UNL     1       7.566  12.041   0.589  1.00  0.00     0.074 A 
ATOM     43  C   UNL     1       6.456  13.387   2.335  1.00  0.00     0.049 A 
ATOM     44  N   UNL     1       8.516  11.295   1.048  1.00  0.00    -0.248 NA
ATOM     45  C   UNL     1       7.685  12.352  -0.844  1.00  0.00     0.031 C 
ATOM     46  C   UNL     1       5.399  14.180   2.969  1.00  0.00     0.029 A 
ATOM     47  N   UNL     1       7.582  13.817   2.977  1.00  0.00    -0.354 N 
ATOM     48  C   UNL     1       9.439  11.159   0.013  1.00  0.00     0.074 A 
ATOM     49  C   UNL     1       8.822  11.729  -1.158  1.00  0.00     0.031 C 
ATOM     50  C   UNL     1       5.960  15.153   3.725  1.00  0.00     0.029 A 
ATOM     51  C   UNL     1       7.399  14.955   3.754  1.00  0.00     0.049 A 
ATOM     52  H   UNL     1       8.450  13.360   2.896  1.00  0.00     0.167 HD
ATOM     53  C   UNL     1      10.717  10.746   0.233  1.00  0.00     0.031 A 
ATOM     54  C   UNL     1       8.371  15.707   4.328  1.00  0.00     0.031 A 
ATOM     55  C   UNL     1      10.859  10.096   1.508  1.00  0.00     0.049 A 
ATOM     56  C   UNL     1       9.593  14.879   4.414  1.00  0.00     0.074 A 
ATOM     57  C   UNL     1      10.325   8.959   2.081  1.00  0.00     0.029 A 
ATOM     58  N   UNL     1      11.382  10.830   2.544  1.00  0.00    -0.354 N 
ATOM     59  N   UNL     1       9.720  13.852   5.200  1.00  0.00    -0.248 NA
ATOM     60  C   UNL     1      10.546  14.958   3.321  1.00  0.00     0.031 C 
ATOM     61  C   UNL     1      10.116   9.303   3.447  1.00  0.00     0.029 A 
ATOM     62  C   UNL     1      10.600  10.598   3.644  1.00  0.00     0.049 A 
ATOM     63  H   UNL     1      12.174  11.414   2.503  1.00  0.00     0.167 HD
ATOM     64  C   UNL     1      10.451  12.937   4.459  1.00  0.00     0.074 A 
ATOM     65  C   UNL     1      11.019  13.710   3.357  1.00  0.00     0.031 C 
ATOM     66  C   UNL     1      10.299  11.594   4.650  1.00  0.00     0.031 A 
BRANCH  53  67
ATOM     67  C   UNL     1      11.907  11.240  -0.553  1.00  0.00    -0.014 A 
ATOM     68  C   UNL     1      11.859  12.362  -1.401  1.00  0.00     0.009 A 
ATOM     69  C   UNL     1      13.186  10.742  -0.240  1.00  0.00     0.009 A 
ATOM     70  C   UNL     1      13.017  12.971  -1.894  1.00  0.00     0.001 A 
ATOM     71  C   UNL     1      14.349  11.375  -0.698  1.00  0.00     0.001 A 
ATOM     72  C   UNL     1      14.263  12.493  -1.521  1.00  0.00     0.000 A 
ENDBRANCH  53  67
BRANCH  54  73
ATOM     73  C   UNL     1       8.450  17.180   4.460  1.00  0.00    -0.014 A 
ATOM     74  C   UNL     1       7.821  18.006   3.512  1.00  0.00     0.009 A 
ATOM     75  C   UNL     1       9.417  17.764   5.299  1.00  0.00     0.009 A 
ATOM     76  C   UNL     1       8.191  19.346   3.361  1.00  0.00     0.001 A 
ATOM     77  C   UNL     1       9.790  19.106   5.144  1.00  0.00     0.001 A 
ATOM     78  C   UNL     1       9.191  19.890   4.161  1.00  0.00     0.000 A 
ENDBRANCH  54  73
BRANCH  66  79
ATOM     79  C   UNL     1       9.524  11.116   5.858  1.00  0.00    -0.014 A 
ATOM     80  C   UNL     1      10.098  10.109   6.650  1.00  0.00     0.009 A 
ATOM     81  C   UNL     1       8.200  11.499   6.134  1.00  0.00     0.009 A 
ATOM     82  C   UNL     1       9.375   9.496   7.676  1.00  0.00     0.001 A 
ATOM     83  C   UNL     1       7.485  10.907   7.182  1.00  0.00     0.001 A 
ATOM     84  C   UNL     1       8.070   9.898   7.944  1.00  0.00     0.000 A 
ENDBRANCH  66  79
ENDBRANCH  40  41
ENDBRANCH  32  35
ENDBRANCH  30  31
ENDBRANCH  29  30
ENDBRANCH   1  29
TORSDOF 14
