REMARK SMILES COc1cnc(F)c(C(=O)NCCCNC(=O)c2ccc(-c3c4nc(c(-c5ccccc5)c5ccc([nH]5)c(-c5ccccc5)c5nc(c(-c6ccccc6)c6ccc3[nH]6)C=C5)C=C4)cc2)c1
REMARK SMILES IDX 13 1 12 2 11 3 9 4 10 5 8 7 3 8 4 9 66 10 5 11 6 12 7 13
REMARK SMILES IDX 2 14 1 15 14 16 15 17 16 18 17 20 18 21 19 22 65 23 20 24
REMARK SMILES IDX 64 25 21 26 22 27 23 28 58 29 24 30 63 31 57 32 59 33 25 34
REMARK SMILES IDX 62 35 56 36 55 37 26 39 48 40 33 41 47 42 34 43 37 44 46 45
REMARK SMILES IDX 60 46 35 47 36 48 45 50 61 51 38 52 27 53 28 54 32 55 29 56
REMARK SMILES IDX 31 57 30 58 49 59 50 60 54 61 51 62 53 63 52 64 39 65 40 66
REMARK SMILES IDX 44 67 41 68 43 69 42 70
REMARK H PARENT 11 6 15 19 59 38 37 49
REMARK Flexibility Score: inf
ROOT
ATOM      1  C   UNL     1       2.494   6.603   4.371  1.00  0.00     0.042 C 
ENDROOT
BRANCH   1   2
ATOM      2  C   UNL     1       2.912   6.459   2.906  1.00  0.00     0.118 C 
BRANCH   2   3
ATOM      3  N   UNL     1       3.644   5.224   2.690  1.00  0.00    -0.352 N 
ATOM      4  C   UNL     1       3.290   4.007   2.172  1.00  0.00     0.256 C 
ATOM      5  O   UNL     1       4.174   3.149   2.120  1.00  0.00    -0.269 OA
ATOM      6  H   UNL     1       4.586   5.271   2.973  1.00  0.00     0.163 HD
BRANCH   4   7
ATOM      7  C   UNL     1       1.962   3.665   1.619  1.00  0.00     0.098 A 
ATOM      8  C   UNL     1       0.711   2.252   0.104  1.00  0.00     0.138 A 
ATOM      9  C   UNL     1      -0.446   2.867   0.549  1.00  0.00     0.160 A 
ATOM     10  C   UNL     1       1.930   2.683   0.616  1.00  0.00     0.066 A 
ATOM     11  N   UNL     1      -0.461   3.797   1.527  1.00  0.00    -0.224 NA
ATOM     12  C   UNL     1       0.739   4.145   2.059  1.00  0.00     0.225 A 
ATOM     13  F   UNL     1       0.660   4.955   3.120  1.00  0.00    -0.184 F 
BRANCH   8  14
ATOM     14  O   UNL     1       0.620   1.263  -0.830  1.00  0.00    -0.495 OA
ATOM     15  C   UNL     1       1.050   0.012  -0.284  1.00  0.00     0.278 C 
ENDBRANCH   8  14
ENDBRANCH   4   7
ENDBRANCH   2   3
ENDBRANCH   1   2
BRANCH   1  16
ATOM     16  C   UNL     1       3.646   6.940   5.314  1.00  0.00     0.118 C 
BRANCH  16  17
ATOM     17  N   UNL     1       4.111   8.307   5.147  1.00  0.00    -0.352 N 
ATOM     18  C   UNL     1       4.199   9.330   6.058  1.00  0.00     0.251 C 
ATOM     19  H   UNL     1       4.409   8.536   4.237  1.00  0.00     0.163 HD
ATOM     20  O   UNL     1       4.422  10.470   5.658  1.00  0.00    -0.269 OA
BRANCH  18  21
ATOM     21  C   UNL     1       4.028   9.088   7.510  1.00  0.00     0.039 A 
ATOM     22  C   UNL     1       3.359  10.054   8.269  1.00  0.00     0.014 A 
ATOM     23  C   UNL     1       4.579   7.970   8.142  1.00  0.00     0.014 A 
ATOM     24  C   UNL     1       3.214   9.885   9.649  1.00  0.00     0.010 A 
ATOM     25  C   UNL     1       4.379   7.770   9.509  1.00  0.00     0.010 A 
ATOM     26  C   UNL     1       3.707   8.731  10.278  1.00  0.00    -0.014 A 
BRANCH  26  27
ATOM     27  C   UNL     1       3.542   8.532  11.741  1.00  0.00     0.031 A 
ATOM     28  C   UNL     1       4.742   8.522  12.649  1.00  0.00     0.074 A 
ATOM     29  C   UNL     1       2.314   8.321  12.251  1.00  0.00     0.049 A 
ATOM     30  N   UNL     1       4.796   8.335  13.944  1.00  0.00    -0.248 NA
ATOM     31  C   UNL     1       6.055   8.728  12.017  1.00  0.00     0.031 C 
ATOM     32  C   UNL     1       1.072   8.273  11.477  1.00  0.00     0.029 A 
ATOM     33  N   UNL     1       1.909   8.105  13.545  1.00  0.00    -0.354 N 
ATOM     34  C   UNL     1       6.145   8.383  14.278  1.00  0.00     0.074 A 
ATOM     35  C   UNL     1       6.877   8.574  13.045  1.00  0.00     0.031 C 
ATOM     36  C   UNL     1       0.042   8.069  12.314  1.00  0.00     0.029 A 
ATOM     37  C   UNL     1       0.552   7.938  13.675  1.00  0.00     0.049 A 
ATOM     38  H   UNL     1       2.532   8.073  14.306  1.00  0.00     0.167 HD
ATOM     39  C   UNL     1       6.722   8.293  15.500  1.00  0.00     0.031 A 
ATOM     40  C   UNL     1      -0.199   7.705  14.768  1.00  0.00     0.031 A 
ATOM     41  C   UNL     1       5.996   8.118  16.730  1.00  0.00     0.049 A 
ATOM     42  C   UNL     1       0.465   7.610  16.113  1.00  0.00     0.074 A 
ATOM     43  C   UNL     1       6.488   8.069  18.023  1.00  0.00     0.029 A 
ATOM     44  N   UNL     1       4.622   7.962  16.819  1.00  0.00    -0.354 N 
ATOM     45  N   UNL     1       1.735   7.719  16.416  1.00  0.00    -0.248 NA
ATOM     46  C   UNL     1      -0.414   7.373  17.267  1.00  0.00     0.031 C 
ATOM     47  C   UNL     1       5.415   7.842  18.892  1.00  0.00     0.029 A 
ATOM     48  C   UNL     1       4.250   7.798  18.143  1.00  0.00     0.049 A 
ATOM     49  H   UNL     1       4.002   7.967  16.054  1.00  0.00     0.167 HD
ATOM     50  C   UNL     1       1.806   7.590  17.797  1.00  0.00     0.074 A 
ATOM     51  C   UNL     1       0.449   7.410  18.272  1.00  0.00     0.031 C 
ATOM     52  C   UNL     1       2.897   7.618  18.600  1.00  0.00     0.031 A 
BRANCH  39  53
ATOM     53  C   UNL     1       8.222   8.377  15.564  1.00  0.00    -0.014 A 
ATOM     54  C   UNL     1       8.893   9.587  15.327  1.00  0.00     0.009 A 
ATOM     55  C   UNL     1       8.972   7.238  15.895  1.00  0.00     0.009 A 
ATOM     56  C   UNL     1      10.287   9.646  15.385  1.00  0.00     0.001 A 
ATOM     57  C   UNL     1      10.364   7.306  15.979  1.00  0.00     0.001 A 
ATOM     58  C   UNL     1      11.021   8.507  15.714  1.00  0.00     0.000 A 
ENDBRANCH  39  53
BRANCH  40  59
ATOM     59  C   UNL     1      -1.672   7.567  14.640  1.00  0.00    -0.014 A 
ATOM     60  C   UNL     1      -2.523   8.581  15.104  1.00  0.00     0.009 A 
ATOM     61  C   UNL     1      -2.235   6.422  14.054  1.00  0.00     0.009 A 
ATOM     62  C   UNL     1      -3.910   8.441  15.007  1.00  0.00     0.001 A 
ATOM     63  C   UNL     1      -3.620   6.297  13.934  1.00  0.00     0.001 A 
ATOM     64  C   UNL     1      -4.456   7.302  14.419  1.00  0.00     0.000 A 
ENDBRANCH  40  59
BRANCH  52  65
ATOM     65  C   UNL     1       2.663   7.483  20.077  1.00  0.00    -0.014 A 
ATOM     66  C   UNL     1       2.309   6.251  20.649  1.00  0.00     0.009 A 
ATOM     67  C   UNL     1       2.829   8.599  20.912  1.00  0.00     0.009 A 
ATOM     68  C   UNL     1       2.092   6.149  22.024  1.00  0.00     0.001 A 
ATOM     69  C   UNL     1       2.637   8.488  22.289  1.00  0.00     0.001 A 
ATOM     70  C   UNL     1       2.260   7.265  22.843  1.00  0.00     0.000 A 
ENDBRANCH  52  65
ENDBRANCH  26  27
ENDBRANCH  18  21
ENDBRANCH  16  17
ENDBRANCH   1  16
TORSDOF 11
