REMARK SMILES CCc1ccsc1CNC(=O)N1[C@H]2CC[C@@H]1[C@H](C(=O)NCCCNC(=O)c1ccc(-c3c4nc(c(-c5ccccc5)c5ccc([nH]5)c(-c5ccccc5)c5nc(c(-c6ccccc6)c6ccc3[nH]6)C=C5)C=C4)cc1)C2
REMARK SMILES IDX 21 1 20 2 18 3 19 4 17 6 12 7 13 8 16 9 14 10 75 11 15 12
REMARK SMILES IDX 10 13 9 14 11 16 8 17 7 18 3 19 4 20 5 21 6 22 2 23 1 24
REMARK SMILES IDX 22 25 23 26 24 27 25 28 26 30 27 31 28 32 74 33 29 34 73 35
REMARK SMILES IDX 30 36 31 37 32 38 67 39 33 40 72 41 66 42 68 43 34 44 71 45
REMARK SMILES IDX 65 46 64 47 35 49 57 50 42 51 56 52 43 53 46 54 55 55 69 56
REMARK SMILES IDX 44 57 45 58 54 60 70 61 47 62 36 63 37 64 41 65 38 66 40 67
REMARK SMILES IDX 39 68 58 69 59 70 63 71 60 72 62 73 61 74 48 75 49 76 53 77
REMARK SMILES IDX 50 78 52 79 51 80
REMARK H PARENT 20 5 9 15 24 29 68 48 46 59
REMARK Flexibility Score: inf
ROOT
ATOM      1  C   UNL     1      -1.832   7.887  -6.413  1.00  0.00     0.117 C 
ENDROOT
BRANCH   1   2
ATOM      2  N   UNL     1      -1.228   6.923  -7.306  1.00  0.00    -0.356 N 
ATOM      3  C   UNL     1      -0.318   5.939  -7.125  1.00  0.00     0.225 C 
ATOM      4  O   UNL     1       0.102   5.407  -8.160  1.00  0.00    -0.275 OA
ATOM      5  H   UNL     1      -1.543   6.999  -8.235  1.00  0.00     0.163 HD
BRANCH   3   6
ATOM      6  C   UNL     1       0.208   5.463  -5.784  1.00  0.00     0.103 C 
ATOM      7  N   UNL     1       1.533   5.524  -3.946  1.00  0.00    -0.318 N 
ATOM      8  C   UNL     1       0.270   6.041  -3.458  1.00  0.00     0.088 C 
ATOM      9  C   UNL     1       1.532   6.082  -5.284  1.00  0.00     0.099 C 
ATOM     10  C   UNL     1       0.493   7.546  -3.690  1.00  0.00     0.027 C 
ATOM     11  C   UNL     1      -0.675   5.440  -4.513  1.00  0.00     0.040 C 
ATOM     12  C   UNL     1       1.407   7.565  -4.932  1.00  0.00     0.028 C 
BRANCH   7  13
ATOM     13  C   UNL     1       2.628   5.134  -3.257  1.00  0.00     0.318 C 
ATOM     14  N   UNL     1       2.452   4.276  -2.224  1.00  0.00    -0.333 N 
ATOM     15  H   UNL     1       3.201   4.207  -1.588  1.00  0.00     0.165 HD
ATOM     16  O   UNL     1       3.766   5.476  -3.569  1.00  0.00    -0.249 OA
BRANCH  14  17
ATOM     17  C   UNL     1       1.302   3.451  -1.939  1.00  0.00     0.165 C 
BRANCH  17  18
ATOM     18  C   UNL     1       1.444   2.056  -2.483  1.00  0.00     0.027 A 
ATOM     19  C   UNL     1       1.052   0.867  -1.877  1.00  0.00    -0.033 A 
ATOM     20  C   UNL     1       1.232  -0.246  -2.769  1.00  0.00     0.016 A 
ATOM     21  C   UNL     1       1.744   0.121  -3.991  1.00  0.00     0.065 A 
ATOM     22  S   UNL     1       1.994   1.800  -4.093  1.00  0.00    -0.147 S 
BRANCH  19  23
ATOM     23  C   UNL     1       0.447   0.760  -0.501  1.00  0.00     0.033 C 
ATOM     24  C   UNL     1       0.982  -0.400   0.322  1.00  0.00     0.009 C 
ENDBRANCH  19  23
ENDBRANCH  17  18
ENDBRANCH  14  17
ENDBRANCH   7  13
ENDBRANCH   3   6
ENDBRANCH   1   2
BRANCH   1  25
ATOM     25  C   UNL     1      -1.240   9.270  -6.615  1.00  0.00     0.042 C 
BRANCH  25  26
ATOM     26  C   UNL     1      -1.928  10.034  -7.722  1.00  0.00     0.118 C 
BRANCH  26  27
ATOM     27  N   UNL     1      -3.239  10.516  -7.313  1.00  0.00    -0.352 N 
ATOM     28  C   UNL     1      -3.667  11.802  -7.094  1.00  0.00     0.251 C 
ATOM     29  H   UNL     1      -3.918   9.817  -7.173  1.00  0.00     0.163 HD
ATOM     30  O   UNL     1      -4.736  12.001  -6.527  1.00  0.00    -0.269 OA
BRANCH  28  31
ATOM     31  C   UNL     1      -2.829  12.943  -7.523  1.00  0.00     0.039 A 
ATOM     32  C   UNL     1      -2.763  14.084  -6.719  1.00  0.00     0.014 A 
ATOM     33  C   UNL     1      -2.112  12.892  -8.720  1.00  0.00     0.014 A 
ATOM     34  C   UNL     1      -1.937  15.146  -7.094  1.00  0.00     0.010 A 
ATOM     35  C   UNL     1      -1.192  13.885  -9.021  1.00  0.00     0.010 A 
ATOM     36  C   UNL     1      -1.122  15.041  -8.233  1.00  0.00    -0.014 A 
BRANCH  36  37
ATOM     37  C   UNL     1      -0.240  16.148  -8.674  1.00  0.00     0.031 A 
ATOM     38  C   UNL     1      -0.455  16.766 -10.031  1.00  0.00     0.074 A 
ATOM     39  C   UNL     1       0.786  16.548  -7.898  1.00  0.00     0.049 A 
ATOM     40  N   UNL     1       0.262  17.667 -10.653  1.00  0.00    -0.248 NA
ATOM     41  C   UNL     1      -1.607  16.279 -10.810  1.00  0.00     0.031 C 
ATOM     42  C   UNL     1       1.120  16.005  -6.580  1.00  0.00     0.029 A 
ATOM     43  N   UNL     1       1.744  17.506  -8.115  1.00  0.00    -0.354 N 
ATOM     44  C   UNL     1      -0.335  17.826 -11.898  1.00  0.00     0.074 A 
ATOM     45  C   UNL     1      -1.429  16.887 -11.971  1.00  0.00     0.031 C 
ATOM     46  C   UNL     1       2.186  16.660  -6.092  1.00  0.00     0.029 A 
ATOM     47  C   UNL     1       2.640  17.631  -7.081  1.00  0.00     0.049 A 
ATOM     48  H   UNL     1       1.786  18.051  -8.934  1.00  0.00     0.167 HD
ATOM     49  C   UNL     1      -0.019  18.697 -12.885  1.00  0.00     0.031 A 
ATOM     50  C   UNL     1       3.713  18.434  -6.952  1.00  0.00     0.031 A 
ATOM     51  C   UNL     1       1.054  19.648 -12.799  1.00  0.00     0.049 A 
ATOM     52  C   UNL     1       4.053  19.385  -8.067  1.00  0.00     0.074 A 
ATOM     53  C   UNL     1       1.424  20.614 -13.716  1.00  0.00     0.029 A 
ATOM     54  N   UNL     1       1.927  19.753 -11.727  1.00  0.00    -0.354 N 
ATOM     55  N   UNL     1       3.442  19.567  -9.213  1.00  0.00    -0.248 NA
ATOM     56  C   UNL     1       5.224  20.249  -7.866  1.00  0.00     0.031 C 
ATOM     57  C   UNL     1       2.557  21.268 -13.224  1.00  0.00     0.029 A 
ATOM     58  C   UNL     1       2.850  20.754 -11.970  1.00  0.00     0.049 A 
ATOM     59  H   UNL     1       1.896  19.197 -10.915  1.00  0.00     0.167 HD
ATOM     60  C   UNL     1       4.130  20.591  -9.851  1.00  0.00     0.074 A 
ATOM     61  C   UNL     1       5.198  20.996  -8.961  1.00  0.00     0.031 C 
ATOM     62  C   UNL     1       3.896  21.150 -11.064  1.00  0.00     0.031 A 
BRANCH  49  63
ATOM     63  C   UNL     1      -0.844  18.651 -14.142  1.00  0.00    -0.014 A 
ATOM     64  C   UNL     1      -2.193  19.045 -14.146  1.00  0.00     0.009 A 
ATOM     65  C   UNL     1      -0.259  18.232 -15.346  1.00  0.00     0.009 A 
ATOM     66  C   UNL     1      -2.948  18.977 -15.318  1.00  0.00     0.001 A 
ATOM     67  C   UNL     1      -1.006  18.198 -16.525  1.00  0.00     0.001 A 
ATOM     68  C   UNL     1      -2.352  18.560 -16.508  1.00  0.00     0.000 A 
ENDBRANCH  49  63
BRANCH  50  69
ATOM     69  C   UNL     1       4.535  18.389  -5.713  1.00  0.00    -0.014 A 
ATOM     70  C   UNL     1       4.534  19.470  -4.817  1.00  0.00     0.009 A 
ATOM     71  C   UNL     1       5.331  17.270  -5.422  1.00  0.00     0.009 A 
ATOM     72  C   UNL     1       5.335  19.444  -3.674  1.00  0.00     0.001 A 
ATOM     73  C   UNL     1       6.107  17.233  -4.261  1.00  0.00     0.001 A 
ATOM     74  C   UNL     1       6.118  18.325  -3.394  1.00  0.00     0.000 A 
ENDBRANCH  50  69
BRANCH  62  75
ATOM     75  C   UNL     1       4.772  22.299 -11.477  1.00  0.00    -0.014 A 
ATOM     76  C   UNL     1       6.111  22.107 -11.847  1.00  0.00     0.009 A 
ATOM     77  C   UNL     1       4.220  23.588 -11.558  1.00  0.00     0.009 A 
ATOM     78  C   UNL     1       6.889  23.190 -12.262  1.00  0.00     0.001 A 
ATOM     79  C   UNL     1       4.990  24.662 -12.004  1.00  0.00     0.001 A 
ATOM     80  C   UNL     1       6.326  24.464 -12.347  1.00  0.00     0.000 A 
ENDBRANCH  62  75
ENDBRANCH  36  37
ENDBRANCH  28  31
ENDBRANCH  26  27
ENDBRANCH  25  26
ENDBRANCH   1  25
TORSDOF 14
