REMARK SMILES O=C1C[C@H](c2cn[nH]c2C(=O)NCCCNC(=O)c2ccc(-c3c4nc(c(-c5ccccc5)c5ccc([nH]5)c(-c5ccccc5)c5nc(c(-c6ccccc6)c6ccc3[nH]6)C=C5)C=C4)cc2)c2c(-c3cccs3)n[nH]c2N1
REMARK SMILES IDX 14 1 13 2 12 3 10 4 11 5 9 7 5 8 6 9 7 10 8 11 4 13 1 14
REMARK SMILES IDX 2 15 3 16 77 17 76 18 67 20 75 21 68 22 74 23 69 25 70 26
REMARK SMILES IDX 73 27 71 28 72 29 15 30 16 31 17 32 18 34 19 35 20 36 66 37
REMARK SMILES IDX 21 38 65 39 22 40 23 41 24 42 59 43 25 44 64 45 58 46 60 47
REMARK SMILES IDX 26 48 63 49 57 50 56 51 27 53 49 54 34 55 48 56 35 57 38 58
REMARK SMILES IDX 47 59 61 60 36 61 37 62 46 64 62 65 39 66 28 67 29 68 33 69
REMARK SMILES IDX 30 70 32 71 31 72 50 73 51 74 55 75 52 76 54 77 53 78 40 79
REMARK SMILES IDX 41 80 45 81 42 82 44 83 43 84
REMARK H PARENT 12 6 8 12 77 19 75 24 16 33 60 52 38 63
REMARK Flexibility Score: inf
ROOT
ATOM      1  C   UNL     1       3.749  -1.572   1.343  1.00  0.00     0.042 C 
ENDROOT
BRANCH   1   2
ATOM      2  C   UNL     1       5.164  -0.935   0.568  1.00  0.00     0.118 C 
BRANCH   2   3
ATOM      3  N   UNL     1       5.584  -0.478  -1.524  1.00  0.00    -0.351 N 
ATOM      4  C   UNL     1       5.594   0.302  -2.709  1.00  0.00     0.269 C 
ATOM      5  O   UNL     1       6.193  -0.199  -3.667  1.00  0.00    -0.268 OA
ATOM      6  H   UNL     1       6.034  -1.301  -1.822  1.00  0.00     0.163 HD
BRANCH   4   7
ATOM      7  C   UNL     1       5.033   1.630  -2.816  1.00  0.00     0.126 A 
ATOM      8  C   UNL     1       4.366   2.428  -1.902  1.00  0.00     0.011 A 
ATOM      9  C   UNL     1       4.149   3.647  -2.569  1.00  0.00     0.140 A 
ATOM     10  N   UNL     1       4.609   3.626  -3.820  1.00  0.00    -0.183 NA
ATOM     11  N   UNL     1       5.141   2.396  -3.945  1.00  0.00    -0.273 N 
ATOM     12  H   UNL     1       5.569   2.076  -4.772  1.00  0.00     0.190 HD
BRANCH   8  13
ATOM     13  C   UNL     1       4.025   2.024  -0.518  1.00  0.00     0.069 C 
ATOM     14  O   UNL     1       0.570   0.400  -0.727  1.00  0.00    -0.275 OA
ATOM     15  C   UNL     1       1.799   0.498  -0.819  1.00  0.00     0.226 C 
ATOM     16  C   UNL     1       2.504   1.797  -0.327  1.00  0.00     0.114 C 
ATOM     17  N   UNL     1       2.496  -0.612  -1.236  1.00  0.00    -0.311 N 
ATOM     18  C   UNL     1       3.813  -0.675  -0.895  1.00  0.00     0.132 A 
ATOM     19  H   UNL     1       2.063  -1.327  -1.756  1.00  0.00     0.171 HD
ATOM     20  C   UNL     1       4.701   0.742  -0.325  1.00  0.00     0.031 A 
ATOM     21  N   UNL     1       4.989  -2.101  -0.934  1.00  0.00    -0.262 N 
ATOM     22  C   UNL     1       6.580   0.214  -0.110  1.00  0.00     0.108 A 
ATOM     23  N   UNL     1       6.724  -1.498  -0.495  1.00  0.00    -0.173 NA
ATOM     24  H   UNL     1       4.748  -3.031  -1.150  1.00  0.00     0.192 HD
BRANCH  22  25
ATOM     25  C   UNL     1       7.690   1.179   0.028  1.00  0.00     0.055 A 
ATOM     26  C   UNL     1       8.785   1.188  -0.801  1.00  0.00     0.022 A 
ATOM     27  S   UNL     1       7.683   2.457   1.144  1.00  0.00    -0.142 S 
ATOM     28  C   UNL     1       9.606   2.327  -0.552  1.00  0.00     0.012 A 
ATOM     29  C   UNL     1       9.161   3.061   0.527  1.00  0.00     0.065 A 
ENDBRANCH  22  25
ENDBRANCH   8  13
ENDBRANCH   4   7
ENDBRANCH   2   3
ENDBRANCH   1   2
BRANCH   1  30
ATOM     30  C   UNL     1       3.912  -3.009   1.778  1.00  0.00     0.118 C 
BRANCH  30  31
ATOM     31  N   UNL     1       4.986  -3.222   2.735  1.00  0.00    -0.352 N 
ATOM     32  C   UNL     1       5.287  -4.439   3.315  1.00  0.00     0.251 C 
ATOM     33  H   UNL     1       5.536  -2.445   2.987  1.00  0.00     0.163 HD
ATOM     34  O   UNL     1       5.842  -4.542   4.397  1.00  0.00    -0.269 OA
BRANCH  32  35
ATOM     35  C   UNL     1       5.021  -5.612   2.467  1.00  0.00     0.039 A 
ATOM     36  C   UNL     1       4.268  -6.711   2.860  1.00  0.00     0.014 A 
ATOM     37  C   UNL     1       5.440  -5.463   1.148  1.00  0.00     0.014 A 
ATOM     38  C   UNL     1       4.004  -7.683   1.888  1.00  0.00     0.010 A 
ATOM     39  C   UNL     1       4.758  -6.176   0.210  1.00  0.00     0.010 A 
ATOM     40  C   UNL     1       4.308  -7.427   0.528  1.00  0.00    -0.014 A 
BRANCH  40  41
ATOM     41  C   UNL     1       3.819  -8.206  -0.616  1.00  0.00     0.031 A 
ATOM     42  C   UNL     1       2.400  -8.560  -0.377  1.00  0.00     0.074 A 
ATOM     43  C   UNL     1       4.514  -8.520  -1.752  1.00  0.00     0.049 A 
ATOM     44  N   UNL     1       2.058  -9.630   0.250  1.00  0.00    -0.248 NA
ATOM     45  C   UNL     1       1.308  -7.574  -0.468  1.00  0.00     0.031 C 
ATOM     46  C   UNL     1       5.856  -8.125  -2.216  1.00  0.00     0.029 A 
ATOM     47  N   UNL     1       4.130  -9.366  -2.771  1.00  0.00    -0.354 N 
ATOM     48  C   UNL     1       0.682  -9.614   0.338  1.00  0.00     0.074 A 
ATOM     49  C   UNL     1       0.289  -8.254   0.077  1.00  0.00     0.031 C 
ATOM     50  C   UNL     1       6.071  -8.547  -3.496  1.00  0.00     0.029 A 
ATOM     51  C   UNL     1       4.957  -9.382  -3.919  1.00  0.00     0.049 A 
ATOM     52  H   UNL     1       3.324  -9.928  -2.703  1.00  0.00     0.167 HD
ATOM     53  C   UNL     1       0.035 -10.809   0.301  1.00  0.00     0.031 A 
ATOM     54  C   UNL     1       4.850 -10.193  -5.027  1.00  0.00     0.031 A 
ATOM     55  C   UNL     1       0.977 -11.890   0.527  1.00  0.00     0.049 A 
ATOM     56  C   UNL     1       4.057 -11.375  -4.603  1.00  0.00     0.074 A 
ATOM     57  C   UNL     1       1.811 -12.244   1.571  1.00  0.00     0.029 A 
ATOM     58  N   UNL     1       1.532 -12.427  -0.613  1.00  0.00    -0.354 N 
ATOM     59  N   UNL     1       4.536 -12.252  -3.768  1.00  0.00    -0.248 NA
ATOM     60  C   UNL     1       2.609 -11.225  -4.628  1.00  0.00     0.031 C 
ATOM     61  C   UNL     1       3.053 -12.589   0.954  1.00  0.00     0.029 A 
ATOM     62  C   UNL     1       2.882 -12.591  -0.430  1.00  0.00     0.049 A 
ATOM     63  H   UNL     1       1.037 -12.657  -1.432  1.00  0.00     0.167 HD
ATOM     64  C   UNL     1       3.532 -12.396  -2.826  1.00  0.00     0.074 A 
ATOM     65  C   UNL     1       2.356 -11.739  -3.419  1.00  0.00     0.031 C 
ATOM     66  C   UNL     1       3.821 -12.696  -1.525  1.00  0.00     0.031 A 
BRANCH  53  67
ATOM     67  C   UNL     1      -1.240 -11.023  -0.467  1.00  0.00    -0.014 A 
ATOM     68  C   UNL     1      -1.788 -12.318  -0.482  1.00  0.00     0.009 A 
ATOM     69  C   UNL     1      -1.740 -10.107  -1.412  1.00  0.00     0.009 A 
ATOM     70  C   UNL     1      -2.739 -12.694  -1.436  1.00  0.00     0.001 A 
ATOM     71  C   UNL     1      -2.711 -10.473  -2.348  1.00  0.00     0.001 A 
ATOM     72  C   UNL     1      -3.195 -11.773  -2.372  1.00  0.00     0.000 A 
ENDBRANCH  53  67
BRANCH  54  73
ATOM     73  C   UNL     1       4.911  -9.860  -6.493  1.00  0.00    -0.014 A 
ATOM     74  C   UNL     1       4.817 -10.856  -7.500  1.00  0.00     0.009 A 
ATOM     75  C   UNL     1       4.731  -8.534  -6.911  1.00  0.00     0.009 A 
ATOM     76  C   UNL     1       4.509 -10.534  -8.839  1.00  0.00     0.001 A 
ATOM     77  C   UNL     1       4.412  -8.214  -8.242  1.00  0.00     0.001 A 
ATOM     78  C   UNL     1       4.284  -9.211  -9.204  1.00  0.00     0.000 A 
ENDBRANCH  54  73
BRANCH  66  79
ATOM     79  C   UNL     1       5.246 -13.067  -1.176  1.00  0.00    -0.014 A 
ATOM     80  C   UNL     1       6.361 -12.209  -1.272  1.00  0.00     0.009 A 
ATOM     81  C   UNL     1       5.436 -14.327  -0.594  1.00  0.00     0.009 A 
ATOM     82  C   UNL     1       7.627 -12.627  -0.831  1.00  0.00     0.001 A 
ATOM     83  C   UNL     1       6.689 -14.735  -0.139  1.00  0.00     0.001 A 
ATOM     84  C   UNL     1       7.788 -13.892  -0.267  1.00  0.00     0.000 A 
ENDBRANCH  66  79
ENDBRANCH  40  41
ENDBRANCH  32  35
ENDBRANCH  30  31
ENDBRANCH   1  30
TORSDOF 12
