REMARK SMILES C=C(C)COc1cc2oc(=O)c(CC(=O)N3CCC[C@H](C(=O)NCCCNC(=O)c4ccc(-c5c6nc(c(-c7ccccc7)c7ccc([nH]7)c(-c7ccccc7)c7nc(c(-c8ccccc8)c8ccc5[nH]8)C=C7)C=C6)cc4)C3)c(C)c2cc1Cl
REMARK SMILES IDX 21 1 22 2 23 3 20 5 16 6 17 7 78 8 18 9 19 10 14 11 15 12
REMARK SMILES IDX 13 13 12 14 6 15 7 16 83 17 8 18 82 19 84 20 9 21 81 22
REMARK SMILES IDX 10 23 79 24 11 25 80 26 5 27 4 28 2 29 1 30 3 31 24 32 25 33
REMARK SMILES IDX 26 34 27 35 28 36 29 38 30 39 31 40 77 41 32 42 76 43 33 44
REMARK SMILES IDX 34 45 35 46 70 47 36 48 75 49 69 50 71 51 37 52 74 53 68 54
REMARK SMILES IDX 67 55 38 57 60 58 45 59 59 60 46 61 49 62 58 63 72 64 47 65
REMARK SMILES IDX 48 66 57 68 73 69 50 70 39 71 40 72 44 73 41 74 43 75 42 76
REMARK SMILES IDX 61 77 62 78 66 79 63 80 65 81 64 82 51 83 52 84 56 85 53 86
REMARK SMILES IDX 55 87 54 88
REMARK H PARENT 23 4 27 37 71 56 49 67
REMARK Flexibility Score: inf
ROOT
ATOM      1  C   UNL     1      -4.116   5.517   0.989  1.00  0.00     0.224 C 
ATOM      2  O   UNL     1      -3.708   4.640   0.217  1.00  0.00    -0.275 OA
ATOM      3  N   UNL     1      -4.769   5.073   2.093  1.00  0.00    -0.356 N 
ATOM      4  H   UNL     1      -4.968   4.109   2.083  1.00  0.00     0.163 HD
ENDROOT
BRANCH   1   5
ATOM      5  C   UNL     1      -3.858   6.992   0.650  1.00  0.00     0.098 C 
ATOM      6  N   UNL     1      -3.408   8.434   2.661  1.00  0.00    -0.342 N 
ATOM      7  C   UNL     1      -4.486   9.355   2.279  1.00  0.00     0.119 C 
ATOM      8  C   UNL     1      -2.832   7.685   1.550  1.00  0.00     0.133 C 
ATOM      9  C   UNL     1      -5.605   8.682   1.488  1.00  0.00     0.022 C 
ATOM     10  C   UNL     1      -5.100   7.822   0.338  1.00  0.00     0.017 C 
BRANCH   6  11
ATOM     11  C   UNL     1      -3.069   8.341   4.006  1.00  0.00     0.227 C 
ATOM     12  O   UNL     1      -3.887   8.703   4.866  1.00  0.00    -0.275 OA
BRANCH  11  13
ATOM     13  C   UNL     1      -1.681   7.905   4.520  1.00  0.00     0.143 C 
BRANCH  13  14
ATOM     14  C   UNL     1      -0.851   6.884   3.793  1.00  0.00     0.051 A 
ATOM     15  C   UNL     1       1.274   3.106   1.192  1.00  0.00     0.142 A 
ATOM     16  C   UNL     1       1.360   4.494   1.145  1.00  0.00     0.096 A 
ATOM     17  C   UNL     1       0.556   2.491   2.221  1.00  0.00     0.083 A 
ATOM     18  C   UNL     1       0.652   5.250   2.081  1.00  0.00     0.142 A 
ATOM     19  C   UNL     1      -0.174   3.270   3.128  1.00  0.00     0.036 A 
ATOM     20  Cl  UNL     1       0.539   0.780   2.437  1.00  0.00    -0.080 Cl
ATOM     21  O   UNL     1       0.806   6.640   1.999  1.00  0.00    -0.422 OA
ATOM     22  C   UNL     1      -0.157   4.669   3.055  1.00  0.00     0.023 A 
ATOM     23  C   UNL     1       0.163   7.490   2.880  1.00  0.00     0.340 A 
ATOM     24  C   UNL     1      -0.981   5.543   3.914  1.00  0.00    -0.029 A 
ATOM     25  O   UNL     1       0.363   8.698   2.845  1.00  0.00    -0.246 OA
ATOM     26  C   UNL     1      -1.989   4.869   4.808  1.00  0.00     0.046 C 
BRANCH  15  27
ATOM     27  O   UNL     1       1.962   2.372   0.263  1.00  0.00    -0.488 OA
BRANCH  27  28
ATOM     28  C   UNL     1       1.225   2.250  -0.968  1.00  0.00     0.260 C 
BRANCH  28  29
ATOM     29  C   UNL     1       0.464   0.946  -1.000  1.00  0.00    -0.043 C 
ATOM     30  C   UNL     1       1.094  -0.241  -0.957  1.00  0.00     0.011 C 
ATOM     31  C   UNL     1      -1.034   1.045  -1.039  1.00  0.00     0.042 C 
ENDBRANCH  28  29
ENDBRANCH  27  28
ENDBRANCH  15  27
ENDBRANCH  13  14
ENDBRANCH  11  13
ENDBRANCH   6  11
ENDBRANCH   1   5
BRANCH   3  32
ATOM     32  C   UNL     1      -5.225   5.761   3.280  1.00  0.00     0.117 C 
BRANCH  32  33
ATOM     33  C   UNL     1      -6.734   5.787   3.430  1.00  0.00     0.042 C 
BRANCH  33  34
ATOM     34  C   UNL     1      -7.264   4.592   4.200  1.00  0.00     0.118 C 
BRANCH  34  35
ATOM     35  N   UNL     1      -6.935   4.638   5.625  1.00  0.00    -0.352 N 
ATOM     36  C   UNL     1      -7.730   4.804   6.740  1.00  0.00     0.251 C 
ATOM     37  H   UNL     1      -5.977   4.532   5.823  1.00  0.00     0.163 HD
ATOM     38  O   UNL     1      -7.215   4.945   7.838  1.00  0.00    -0.269 OA
BRANCH  36  39
ATOM     39  C   UNL     1      -9.204   4.849   6.604  1.00  0.00     0.039 A 
ATOM     40  C   UNL     1      -9.860   4.005   5.715  1.00  0.00     0.014 A 
ATOM     41  C   UNL     1      -9.939   5.766   7.364  1.00  0.00     0.014 A 
ATOM     42  C   UNL     1     -11.188   4.244   5.396  1.00  0.00     0.010 A 
ATOM     43  C   UNL     1     -11.314   5.906   7.143  1.00  0.00     0.010 A 
ATOM     44  C   UNL     1     -11.938   5.191   6.111  1.00  0.00    -0.014 A 
BRANCH  44  45
ATOM     45  C   UNL     1     -13.368   5.393   5.754  1.00  0.00     0.031 A 
ATOM     46  C   UNL     1     -13.869   6.731   5.277  1.00  0.00     0.074 A 
ATOM     47  C   UNL     1     -14.201   4.333   5.779  1.00  0.00     0.049 A 
ATOM     48  N   UNL     1     -15.079   7.065   4.899  1.00  0.00    -0.248 NA
ATOM     49  C   UNL     1     -12.901   7.838   5.218  1.00  0.00     0.031 C 
ATOM     50  C   UNL     1     -13.826   2.979   6.199  1.00  0.00     0.029 A 
ATOM     51  N   UNL     1     -15.513   4.209   5.401  1.00  0.00    -0.354 N 
ATOM     52  C   UNL     1     -15.023   8.419   4.592  1.00  0.00     0.074 A 
ATOM     53  C   UNL     1     -13.667   8.854   4.842  1.00  0.00     0.031 C 
ATOM     54  C   UNL     1     -14.851   2.148   5.970  1.00  0.00     0.029 A 
ATOM     55  C   UNL     1     -15.986   2.921   5.481  1.00  0.00     0.049 A 
ATOM     56  H   UNL     1     -16.064   4.968   5.102  1.00  0.00     0.167 HD
ATOM     57  C   UNL     1     -16.012   9.223   4.136  1.00  0.00     0.031 A 
ATOM     58  C   UNL     1     -17.202   2.410   5.210  1.00  0.00     0.031 A 
ATOM     59  C   UNL     1     -17.354   8.780   3.864  1.00  0.00     0.049 A 
ATOM     60  C   UNL     1     -18.288   3.329   4.740  1.00  0.00     0.074 A 
ATOM     61  C   UNL     1     -18.422   9.522   3.389  1.00  0.00     0.029 A 
ATOM     62  N   UNL     1     -17.810   7.482   4.032  1.00  0.00    -0.354 N 
ATOM     63  N   UNL     1     -18.220   4.611   4.476  1.00  0.00    -0.248 NA
ATOM     64  C   UNL     1     -19.619   2.740   4.543  1.00  0.00     0.031 C 
ATOM     65  C   UNL     1     -19.538   8.685   3.320  1.00  0.00     0.029 A 
ATOM     66  C   UNL     1     -19.149   7.407   3.691  1.00  0.00     0.049 A 
ATOM     67  H   UNL     1     -17.263   6.726   4.346  1.00  0.00     0.167 HD
ATOM     68  C   UNL     1     -19.497   4.984   4.082  1.00  0.00     0.074 A 
ATOM     69  C   UNL     1     -20.312   3.787   4.114  1.00  0.00     0.031 C 
ATOM     70  C   UNL     1     -19.951   6.211   3.735  1.00  0.00     0.031 A 
BRANCH  57  71
ATOM     71  C   UNL     1     -15.701  10.678   3.914  1.00  0.00    -0.014 A 
ATOM     72  C   UNL     1     -16.273  11.646   4.757  1.00  0.00     0.009 A 
ATOM     73  C   UNL     1     -14.932  11.101   2.820  1.00  0.00     0.009 A 
ATOM     74  C   UNL     1     -16.095  13.006   4.500  1.00  0.00     0.001 A 
ATOM     75  C   UNL     1     -14.734  12.464   2.581  1.00  0.00     0.001 A 
ATOM     76  C   UNL     1     -15.323  13.414   3.414  1.00  0.00     0.000 A 
ENDBRANCH  57  71
BRANCH  58  77
ATOM     77  C   UNL     1     -17.436   0.954   5.400  1.00  0.00    -0.014 A 
ATOM     78  C   UNL     1     -17.403   0.390   6.687  1.00  0.00     0.009 A 
ATOM     79  C   UNL     1     -17.620   0.110   4.295  1.00  0.00     0.009 A 
ATOM     80  C   UNL     1     -17.509  -0.990   6.861  1.00  0.00     0.001 A 
ATOM     81  C   UNL     1     -17.759  -1.268   4.476  1.00  0.00     0.001 A 
ATOM     82  C   UNL     1     -17.690  -1.818   5.756  1.00  0.00     0.000 A 
ENDBRANCH  58  77
BRANCH  70  83
ATOM     83  C   UNL     1     -21.397   6.337   3.353  1.00  0.00    -0.014 A 
ATOM     84  C   UNL     1     -21.746   6.595   2.018  1.00  0.00     0.009 A 
ATOM     85  C   UNL     1     -22.405   6.301   4.329  1.00  0.00     0.009 A 
ATOM     86  C   UNL     1     -23.076   6.830   1.669  1.00  0.00     0.001 A 
ATOM     87  C   UNL     1     -23.738   6.510   3.971  1.00  0.00     0.001 A 
ATOM     88  C   UNL     1     -24.071   6.784   2.645  1.00  0.00     0.000 A 
ENDBRANCH  70  83
ENDBRANCH  44  45
ENDBRANCH  36  39
ENDBRANCH  34  35
ENDBRANCH  33  34
ENDBRANCH  32  33
ENDBRANCH   3  32
TORSDOF 16
