REMARK SMILES COc1ccc(/C=N/NC(=O)c2cc(C)nc3ccccc23)c(C(=O)NCCCNC(=O)c2ccc(-c3c4nc(c(-c5ccccc5)c5ccc([nH]5)c(-c5ccccc5)c5nc(c(-c6ccccc6)c6ccc3[nH]6)C=C5)C=C4)cc2)c1OC
REMARK SMILES IDX 27 1 26 2 24 3 25 4 23 6 3 7 4 8 81 9 5 10 6 11 2 12 1 13
REMARK SMILES IDX 82 14 83 15 7 16 8 17 9 18 10 19 11 21 12 22 13 23 22 24
REMARK SMILES IDX 14 25 17 26 21 27 15 28 16 29 18 30 20 31 19 32 28 33 29 34
REMARK SMILES IDX 30 35 31 36 32 38 33 39 34 40 80 41 35 42 79 43 36 44 37 45
REMARK SMILES IDX 38 46 73 47 39 48 78 49 72 50 74 51 40 52 77 53 71 54 70 55
REMARK SMILES IDX 41 57 63 58 48 59 62 60 49 61 52 62 61 63 75 64 50 65 51 66
REMARK SMILES IDX 60 68 76 69 53 70 42 71 43 72 47 73 44 74 46 75 45 76 64 77
REMARK SMILES IDX 65 78 69 79 66 80 68 81 67 82 54 83 55 84 59 85 56 86 58 87
REMARK SMILES IDX 57 88
REMARK H PARENT 26 5 9 20 30 37 74 56 52 67
REMARK Flexibility Score: inf
ROOT
ATOM      1  C   UNL     1       4.874  -1.891  -1.530  1.00  0.00     0.118 C 
ENDROOT
BRANCH   1   2
ATOM      2  N   UNL     1       4.938  -2.538  -2.765  1.00  0.00    -0.352 N 
ATOM      3  C   UNL     1       3.831  -2.978  -3.441  1.00  0.00     0.255 C 
ATOM      4  O   UNL     1       4.163  -3.651  -4.414  1.00  0.00    -0.269 OA
ATOM      5  H   UNL     1       5.822  -2.685  -3.171  1.00  0.00     0.163 HD
BRANCH   3   6
ATOM      6  C   UNL     1       2.353  -2.767  -2.981  1.00  0.00     0.094 A 
ATOM      7  C   UNL     1       0.585  -2.013  -1.337  1.00  0.00     0.161 A 
ATOM      8  C   UNL     1      -0.281  -2.918  -1.956  1.00  0.00     0.051 A 
ATOM      9  C   UNL     1       1.873  -1.861  -1.895  1.00  0.00     0.174 A 
ATOM     10  C   UNL     1       0.095  -3.655  -3.101  1.00  0.00     0.015 A 
ATOM     11  C   UNL     1       1.402  -3.610  -3.635  1.00  0.00     0.011 A 
BRANCH   7  12
ATOM     12  O   UNL     1       0.042  -1.476  -0.196  1.00  0.00    -0.493 OA
ATOM     13  C   UNL     1       0.188  -0.104   0.146  1.00  0.00     0.278 C 
ENDBRANCH   7  12
BRANCH   9  14
ATOM     14  O   UNL     1       2.595  -0.699  -1.610  1.00  0.00    -0.492 OA
ATOM     15  C   UNL     1       2.923  -0.388  -0.235  1.00  0.00     0.278 C 
ENDBRANCH   9  14
BRANCH  11  16
ATOM     16  C   UNL     1       1.680  -4.347  -4.963  1.00  0.00     0.142 C 
ATOM     17  N   UNL     1       0.791  -5.022  -5.616  1.00  0.00    -0.180 NA
BRANCH  17  18
ATOM     18  N   UNL     1       0.943  -5.637  -6.851  1.00  0.00    -0.243 N 
ATOM     19  C   UNL     1       1.699  -6.029  -7.979  1.00  0.00     0.272 C 
ATOM     20  H   UNL     1       0.044  -5.987  -7.046  1.00  0.00     0.194 HD
ATOM     21  O   UNL     1       0.961  -6.646  -8.775  1.00  0.00    -0.267 OA
BRANCH  19  22
ATOM     22  C   UNL     1       3.129  -5.955  -8.508  1.00  0.00     0.052 A 
ATOM     23  C   UNL     1       4.293  -5.256  -7.734  1.00  0.00     0.038 A 
ATOM     24  C   UNL     1       3.460  -6.680 -10.053  1.00  0.00     0.013 A 
ATOM     25  C   UNL     1       5.533  -5.271  -8.293  1.00  0.00     0.039 A 
ATOM     26  C   UNL     1       4.787  -6.571 -10.299  1.00  0.00     0.071 A 
ATOM     27  C   UNL     1       3.059  -7.392 -11.324  1.00  0.00     0.011 A 
ATOM     28  C   UNL     1       6.942  -4.994  -8.498  1.00  0.00     0.067 C 
ATOM     29  N   UNL     1       5.114  -5.927  -9.278  1.00  0.00    -0.253 NA
ATOM     30  C   UNL     1       5.747  -6.844 -11.264  1.00  0.00     0.029 A 
ATOM     31  C   UNL     1       3.956  -7.680 -12.465  1.00  0.00     0.001 A 
ATOM     32  C   UNL     1       5.310  -7.357 -12.434  1.00  0.00     0.002 A 
ENDBRANCH  19  22
ENDBRANCH  17  18
ENDBRANCH  11  16
ENDBRANCH   3   6
ENDBRANCH   1   2
BRANCH   1  33
ATOM     33  C   UNL     1       5.622  -2.351  -0.335  1.00  0.00     0.042 C 
BRANCH  33  34
ATOM     34  C   UNL     1       7.074  -2.203  -0.539  1.00  0.00     0.118 C 
BRANCH  34  35
ATOM     35  N   UNL     1       7.457  -0.809  -0.682  1.00  0.00    -0.352 N 
ATOM     36  C   UNL     1       8.274  -0.075   0.127  1.00  0.00     0.251 C 
ATOM     37  H   UNL     1       7.079  -0.336  -1.458  1.00  0.00     0.163 HD
ATOM     38  O   UNL     1       8.370   1.139  -0.021  1.00  0.00    -0.269 OA
BRANCH  36  39
ATOM     39  C   UNL     1       9.032  -0.763   1.184  1.00  0.00     0.039 A 
ATOM     40  C   UNL     1       9.262  -0.081   2.371  1.00  0.00     0.014 A 
ATOM     41  C   UNL     1       9.537  -2.058   0.998  1.00  0.00     0.014 A 
ATOM     42  C   UNL     1      10.038  -0.692   3.342  1.00  0.00     0.010 A 
ATOM     43  C   UNL     1      10.120  -2.740   2.046  1.00  0.00     0.010 A 
ATOM     44  C   UNL     1      10.425  -2.040   3.209  1.00  0.00    -0.014 A 
BRANCH  44  45
ATOM     45  C   UNL     1      11.125  -2.716   4.315  1.00  0.00     0.031 A 
ATOM     46  C   UNL     1      12.483  -3.312   4.127  1.00  0.00     0.074 A 
ATOM     47  C   UNL     1      10.519  -2.759   5.516  1.00  0.00     0.049 A 
ATOM     48  N   UNL     1      13.253  -3.841   5.041  1.00  0.00    -0.248 NA
ATOM     49  C   UNL     1      13.055  -3.329   2.770  1.00  0.00     0.031 C 
ATOM     50  C   UNL     1       9.178  -2.239   5.792  1.00  0.00     0.029 A 
ATOM     51  N   UNL     1      10.953  -3.224   6.727  1.00  0.00    -0.354 N 
ATOM     52  C   UNL     1      14.402  -4.235   4.380  1.00  0.00     0.074 A 
ATOM     53  C   UNL     1      14.210  -3.944   2.976  1.00  0.00     0.031 C 
ATOM     54  C   UNL     1       8.933  -2.338   7.103  1.00  0.00     0.029 A 
ATOM     55  C   UNL     1      10.057  -3.004   7.744  1.00  0.00     0.049 A 
ATOM     56  H   UNL     1      11.821  -3.672   6.857  1.00  0.00     0.167 HD
ATOM     57  C   UNL     1      15.523  -4.774   4.909  1.00  0.00     0.031 A 
ATOM     58  C   UNL     1      10.110  -3.314   9.051  1.00  0.00     0.031 A 
ATOM     59  C   UNL     1      15.691  -5.093   6.298  1.00  0.00     0.049 A 
ATOM     60  C   UNL     1      11.328  -4.003   9.580  1.00  0.00     0.074 A 
ATOM     61  C   UNL     1      16.806  -5.631   6.913  1.00  0.00     0.029 A 
ATOM     62  N   UNL     1      14.727  -4.934   7.279  1.00  0.00    -0.354 N 
ATOM     63  N   UNL     1      12.428  -4.317   8.946  1.00  0.00    -0.248 NA
ATOM     64  C   UNL     1      11.315  -4.377  11.000  1.00  0.00     0.031 C 
ATOM     65  C   UNL     1      16.490  -5.886   8.243  1.00  0.00     0.029 A 
ATOM     66  C   UNL     1      15.214  -5.410   8.485  1.00  0.00     0.049 A 
ATOM     67  H   UNL     1      13.834  -4.543   7.141  1.00  0.00     0.167 HD
ATOM     68  C   UNL     1      13.255  -4.892   9.897  1.00  0.00     0.074 A 
ATOM     69  C   UNL     1      12.537  -4.862  11.154  1.00  0.00     0.031 C 
ATOM     70  C   UNL     1      14.501  -5.394   9.732  1.00  0.00     0.031 A 
BRANCH  57  71
ATOM     71  C   UNL     1      16.646  -5.098   3.972  1.00  0.00    -0.014 A 
ATOM     72  C   UNL     1      17.323  -4.091   3.268  1.00  0.00     0.009 A 
ATOM     73  C   UNL     1      17.065  -6.430   3.833  1.00  0.00     0.009 A 
ATOM     74  C   UNL     1      18.339  -4.425   2.374  1.00  0.00     0.001 A 
ATOM     75  C   UNL     1      18.130  -6.752   2.997  1.00  0.00     0.001 A 
ATOM     76  C   UNL     1      18.744  -5.753   2.244  1.00  0.00     0.000 A 
ENDBRANCH  57  71
BRANCH  58  77
ATOM     77  C   UNL     1       8.958  -3.024   9.941  1.00  0.00    -0.014 A 
ATOM     78  C   UNL     1       9.105  -2.200  11.065  1.00  0.00     0.009 A 
ATOM     79  C   UNL     1       7.715  -3.631   9.699  1.00  0.00     0.009 A 
ATOM     80  C   UNL     1       8.053  -2.052  11.970  1.00  0.00     0.001 A 
ATOM     81  C   UNL     1       6.644  -3.420  10.563  1.00  0.00     0.001 A 
ATOM     82  C   UNL     1       6.822  -2.655  11.713  1.00  0.00     0.000 A 
ENDBRANCH  58  77
BRANCH  70  83
ATOM     83  C   UNL     1      15.205  -5.897  10.959  1.00  0.00    -0.014 A 
ATOM     84  C   UNL     1      14.696  -6.963  11.713  1.00  0.00     0.009 A 
ATOM     85  C   UNL     1      16.399  -5.282  11.369  1.00  0.00     0.009 A 
ATOM     86  C   UNL     1      15.293  -7.312  12.923  1.00  0.00     0.001 A 
ATOM     87  C   UNL     1      17.046  -5.694  12.530  1.00  0.00     0.001 A 
ATOM     88  C   UNL     1      16.468  -6.679  13.328  1.00  0.00     0.000 A 
ENDBRANCH  70  83
ENDBRANCH  44  45
ENDBRANCH  36  39
ENDBRANCH  34  35
ENDBRANCH  33  34
ENDBRANCH   1  33
TORSDOF 15
