REMARK SMILES O=C(CCC(=O)Nc1cccc2c1C(=O)c1ccccc1C2=O)NCCCNC(=O)c1ccc(-c2c3nc(c(-c4ccccc4)c4ccc([nH]4)c(-c4ccccc4)c4nc(c(-c5ccccc5)c5ccc2[nH]5)C=C4)C=C3)cc1
REMARK SMILES IDX 25 1 24 2 1 3 2 4 3 6 4 7 5 8 6 9 7 10 8 12 9 13 13 14 10 15
REMARK SMILES IDX 12 16 14 17 11 18 22 19 15 20 16 21 21 22 23 23 17 24 20 25
REMARK SMILES IDX 18 26 19 27 26 28 27 29 28 30 29 31 30 33 31 34 32 35 78 36
REMARK SMILES IDX 33 37 77 38 34 39 35 40 36 41 71 42 37 43 76 44 70 45 72 46
REMARK SMILES IDX 38 47 75 48 69 49 68 50 39 52 61 53 46 54 60 55 47 56 50 57
REMARK SMILES IDX 59 58 73 59 48 60 49 61 58 63 74 64 51 65 40 66 41 67 45 68
REMARK SMILES IDX 42 69 44 70 43 71 62 72 63 73 67 74 64 75 66 76 65 77 52 78
REMARK SMILES IDX 53 79 57 80 54 81 56 82 55 83
REMARK H PARENT 24 5 7 11 28 32 72 51 50 62
REMARK Flexibility Score: inf
ROOT
ATOM      1  C   UNL     1       4.343  -1.806  -0.126  1.00  0.00     0.117 C 
ENDROOT
BRANCH   1   2
ATOM      2  N   UNL     1       5.214  -0.798  -0.685  1.00  0.00    -0.356 N 
ATOM      3  O   UNL     1       3.789   0.677  -1.735  1.00  0.00    -0.275 OA
ATOM      4  C   UNL     1       4.676   0.451  -0.923  1.00  0.00     0.220 C 
ATOM      5  H   UNL     1       6.157  -0.995  -0.888  1.00  0.00     0.163 HD
BRANCH   4   6
ATOM      6  C   UNL     1       5.083   1.498   0.082  1.00  0.00     0.110 C 
BRANCH   6   7
ATOM      7  C   UNL     1       3.978   1.590   1.149  1.00  0.00     0.110 C 
BRANCH   7   8
ATOM      8  C   UNL     1       4.009   0.366   2.019  1.00  0.00     0.224 C 
ATOM      9  O   UNL     1       5.085   0.031   2.539  1.00  0.00    -0.275 OA
ATOM     10  N   UNL     1       2.951  -0.419   2.332  1.00  0.00    -0.325 N 
ATOM     11  H   UNL     1       3.241  -1.116   2.963  1.00  0.00     0.169 HD
BRANCH  10  12
ATOM     12  C   UNL     1       1.567  -0.581   2.061  1.00  0.00     0.053 A 
ATOM     13  C   UNL     1       0.947  -1.312   3.102  1.00  0.00     0.027 A 
ATOM     14  C   UNL     1       0.734  -0.153   1.002  1.00  0.00     0.057 A 
ATOM     15  C   UNL     1      -0.430  -1.510   3.167  1.00  0.00     0.003 A 
ATOM     16  C   UNL     1      -0.670  -0.233   1.147  1.00  0.00     0.036 A 
ATOM     17  C   UNL     1       1.072  -0.201  -0.448  1.00  0.00     0.196 C 
ATOM     18  C   UNL     1      -1.246  -0.922   2.217  1.00  0.00     0.013 A 
ATOM     19  C   UNL     1      -1.572   0.358   0.123  1.00  0.00     0.194 C 
ATOM     20  O   UNL     1       1.648  -1.176  -0.912  1.00  0.00    -0.288 OA
ATOM     21  C   UNL     1       0.342   0.656  -1.392  1.00  0.00     0.034 A 
ATOM     22  C   UNL     1      -0.980   0.954  -1.090  1.00  0.00     0.034 A 
ATOM     23  O   UNL     1      -2.786   0.361   0.283  1.00  0.00    -0.289 OA
ATOM     24  C   UNL     1       0.875   1.025  -2.629  1.00  0.00     0.013 A 
ATOM     25  C   UNL     1      -1.751   1.707  -1.980  1.00  0.00     0.013 A 
ATOM     26  C   UNL     1       0.118   1.797  -3.512  1.00  0.00     0.001 A 
ATOM     27  C   UNL     1      -1.190   2.150  -3.180  1.00  0.00     0.001 A 
ENDBRANCH  10  12
ENDBRANCH   7   8
ENDBRANCH   6   7
ENDBRANCH   4   6
ENDBRANCH   1   2
BRANCH   1  28
ATOM     28  C   UNL     1       3.949  -2.967  -1.004  1.00  0.00     0.042 C 
BRANCH  28  29
ATOM     29  C   UNL     1       5.004  -4.039  -0.981  1.00  0.00     0.118 C 
BRANCH  29  30
ATOM     30  N   UNL     1       5.225  -4.625   0.345  1.00  0.00    -0.352 N 
ATOM     31  C   UNL     1       5.681  -5.887   0.658  1.00  0.00     0.251 C 
ATOM     32  H   UNL     1       5.021  -4.041   1.111  1.00  0.00     0.163 HD
ATOM     33  O   UNL     1       5.764  -6.262   1.812  1.00  0.00    -0.269 OA
BRANCH  31  34
ATOM     34  C   UNL     1       5.988  -6.794  -0.465  1.00  0.00     0.039 A 
ATOM     35  C   UNL     1       5.412  -8.064  -0.479  1.00  0.00     0.014 A 
ATOM     36  C   UNL     1       6.694  -6.313  -1.566  1.00  0.00     0.014 A 
ATOM     37  C   UNL     1       5.461  -8.814  -1.653  1.00  0.00     0.010 A 
ATOM     38  C   UNL     1       6.603  -6.988  -2.767  1.00  0.00     0.010 A 
ATOM     39  C   UNL     1       6.001  -8.253  -2.821  1.00  0.00    -0.014 A 
BRANCH  39  40
ATOM     40  C   UNL     1       5.988  -8.967  -4.118  1.00  0.00     0.031 A 
ATOM     41  C   UNL     1       7.292  -9.213  -4.829  1.00  0.00     0.074 A 
ATOM     42  C   UNL     1       4.818  -9.294  -4.699  1.00  0.00     0.049 A 
ATOM     43  N   UNL     1       7.502  -9.679  -6.032  1.00  0.00    -0.248 NA
ATOM     44  C   UNL     1       8.522  -8.831  -4.111  1.00  0.00     0.031 C 
ATOM     45  C   UNL     1       3.485  -9.045  -4.141  1.00  0.00     0.029 A 
ATOM     46  N   UNL     1       4.563  -9.904  -5.900  1.00  0.00    -0.354 N 
ATOM     47  C   UNL     1       8.875  -9.595  -6.227  1.00  0.00     0.074 A 
ATOM     48  C   UNL     1       9.440  -8.974  -5.052  1.00  0.00     0.031 C 
ATOM     49  C   UNL     1       2.558  -9.539  -4.977  1.00  0.00     0.029 A 
ATOM     50  C   UNL     1       3.225 -10.093  -6.149  1.00  0.00     0.049 A 
ATOM     51  H   UNL     1       5.271 -10.180  -6.526  1.00  0.00     0.167 HD
ATOM     52  C   UNL     1       9.608 -10.030  -7.277  1.00  0.00     0.031 A 
ATOM     53  C   UNL     1       2.610 -10.649  -7.209  1.00  0.00     0.031 A 
ATOM     54  C   UNL     1       9.048 -10.702  -8.414  1.00  0.00     0.049 A 
ATOM     55  C   UNL     1       3.447 -11.162  -8.346  1.00  0.00     0.074 A 
ATOM     56  C   UNL     1       9.703 -11.267  -9.492  1.00  0.00     0.029 A 
ATOM     57  N   UNL     1       7.691 -10.913  -8.608  1.00  0.00    -0.354 N 
ATOM     58  N   UNL     1       4.751 -11.142  -8.486  1.00  0.00    -0.248 NA
ATOM     59  C   UNL     1       2.729 -11.782  -9.468  1.00  0.00     0.031 C 
ATOM     60  C   UNL     1       8.738 -11.789 -10.359  1.00  0.00     0.029 A 
ATOM     61  C   UNL     1       7.487 -11.587  -9.798  1.00  0.00     0.049 A 
ATOM     62  H   UNL     1       6.980 -10.626  -7.991  1.00  0.00     0.167 HD
ATOM     63  C   UNL     1       5.011 -11.762  -9.701  1.00  0.00     0.074 A 
ATOM     64  C   UNL     1       3.731 -12.165 -10.247  1.00  0.00     0.031 C 
ATOM     65  C   UNL     1       6.201 -11.976 -10.313  1.00  0.00     0.031 A 
BRANCH  52  66
ATOM     66  C   UNL     1      11.092  -9.798  -7.224  1.00  0.00    -0.014 A 
ATOM     67  C   UNL     1      11.903 -10.481  -6.303  1.00  0.00     0.009 A 
ATOM     68  C   UNL     1      11.687  -8.884  -8.106  1.00  0.00     0.009 A 
ATOM     69  C   UNL     1      13.273 -10.219  -6.236  1.00  0.00     0.001 A 
ATOM     70  C   UNL     1      13.063  -8.649  -8.059  1.00  0.00     0.001 A 
ATOM     71  C   UNL     1      13.852  -9.307  -7.116  1.00  0.00     0.000 A 
ENDBRANCH  52  66
BRANCH  53  72
ATOM     72  C   UNL     1       1.129 -10.776  -7.234  1.00  0.00    -0.014 A 
ATOM     73  C   UNL     1       0.525 -12.035  -7.086  1.00  0.00     0.009 A 
ATOM     74  C   UNL     1       0.312  -9.649  -7.404  1.00  0.00     0.009 A 
ATOM     75  C   UNL     1      -0.864 -12.165  -7.136  1.00  0.00     0.001 A 
ATOM     76  C   UNL     1      -1.079  -9.778  -7.427  1.00  0.00     0.001 A 
ATOM     77  C   UNL     1      -1.665 -11.037  -7.303  1.00  0.00     0.000 A 
ENDBRANCH  53  72
BRANCH  65  78
ATOM     78  C   UNL     1       6.171 -12.700 -11.627  1.00  0.00    -0.014 A 
ATOM     79  C   UNL     1       5.735 -12.060 -12.796  1.00  0.00     0.009 A 
ATOM     80  C   UNL     1       6.639 -14.021 -11.702  1.00  0.00     0.009 A 
ATOM     81  C   UNL     1       5.742 -12.741 -14.014  1.00  0.00     0.001 A 
ATOM     82  C   UNL     1       6.670 -14.690 -12.926  1.00  0.00     0.001 A 
ATOM     83  C   UNL     1       6.214 -14.052 -14.079  1.00  0.00     0.000 A 
ENDBRANCH  65  78
ENDBRANCH  39  40
ENDBRANCH  31  34
ENDBRANCH  29  30
ENDBRANCH  28  29
ENDBRANCH   1  28
TORSDOF 13
