REMARK SMILES O=C(N[C@@H]1C=C[C@@H](C(=O)NCCCNC(=O)c2ccc(-c3c4nc(c(-c5ccccc5)c5ccc([nH]5)c(-c5ccccc5)c5nc(c(-c6ccccc6)c6ccc3[nH]6)C=C5)C=C4)cc2)C1)Oc1ccccc1
REMARK SMILES IDX 11 1 10 2 8 3 9 4 7 6 4 7 5 8 65 9 6 10 3 11 1 12 2 13 66 15
REMARK SMILES IDX 67 16 68 17 72 18 69 19 71 20 70 21 12 22 13 23 14 24 15 25
REMARK SMILES IDX 16 27 17 28 18 29 64 30 19 31 63 32 20 33 21 34 22 35 57 36
REMARK SMILES IDX 23 37 62 38 56 39 58 40 24 41 61 42 55 43 54 44 25 46 47 47
REMARK SMILES IDX 32 48 46 49 33 50 36 51 45 52 59 53 34 54 35 55 44 57 60 58
REMARK SMILES IDX 37 59 26 60 27 61 31 62 28 63 30 64 29 65 48 66 49 67 53 68
REMARK SMILES IDX 50 69 52 70 51 71 38 72 39 73 43 74 40 75 42 76 41 77
REMARK H PARENT 10 5 3 14 14 26 58 45 36 56
REMARK Flexibility Score: inf
ROOT
ATOM      1  C   UNL     1       3.832   3.682  -3.517  1.00  0.00     0.117 C 
ENDROOT
BRANCH   1   2
ATOM      2  N   UNL     1       5.048   4.390  -3.154  1.00  0.00    -0.356 N 
ATOM      3  C   UNL     1       6.230   3.984  -2.621  1.00  0.00     0.227 C 
ATOM      4  O   UNL     1       7.127   4.835  -2.589  1.00  0.00    -0.274 OA
ATOM      5  H   UNL     1       5.007   5.358  -3.330  1.00  0.00     0.163 HD
BRANCH   3   6
ATOM      6  C   UNL     1       6.473   2.613  -1.974  1.00  0.00     0.103 C 
ATOM      7  C   UNL     1       4.836   1.305  -0.660  1.00  0.00     0.109 C 
ATOM      8  C   UNL     1       5.178   0.656  -1.968  1.00  0.00    -0.006 C 
ATOM      9  C   UNL     1       5.783   2.507  -0.613  1.00  0.00     0.047 C 
ATOM     10  C   UNL     1       6.036   1.383  -2.695  1.00  0.00    -0.016 C 
BRANCH   7  11
ATOM     11  N   UNL     1       5.031   0.339   0.394  1.00  0.00    -0.315 N 
ATOM     12  O   UNL     1       5.087  -0.626   2.406  1.00  0.00    -0.224 OA
ATOM     13  C   UNL     1       4.858   0.389   1.751  1.00  0.00     0.413 C 
ATOM     14  H   UNL     1       5.354  -0.533   0.072  1.00  0.00     0.167 HD
BRANCH  13  15
ATOM     15  O   UNL     1       4.481   1.574   2.410  1.00  0.00    -0.410 OA
BRANCH  15  16
ATOM     16  C   UNL     1       3.887   2.763   1.933  1.00  0.00     0.132 A 
ATOM     17  C   UNL     1       4.586   3.955   2.116  1.00  0.00     0.047 A 
ATOM     18  C   UNL     1       2.624   2.735   1.352  1.00  0.00     0.047 A 
ATOM     19  C   UNL     1       4.052   5.136   1.604  1.00  0.00     0.004 A 
ATOM     20  C   UNL     1       2.091   3.922   0.853  1.00  0.00     0.004 A 
ATOM     21  C   UNL     1       2.813   5.116   0.960  1.00  0.00     0.000 A 
ENDBRANCH  15  16
ENDBRANCH  13  15
ENDBRANCH   7  11
ENDBRANCH   3   6
ENDBRANCH   1   2
BRANCH   1  22
ATOM     22  C   UNL     1       2.563   4.317  -2.950  1.00  0.00     0.042 C 
BRANCH  22  23
ATOM     23  C   UNL     1       2.309   5.775  -3.331  1.00  0.00     0.118 C 
BRANCH  23  24
ATOM     24  N   UNL     1       1.795   5.926  -4.682  1.00  0.00    -0.352 N 
ATOM     25  C   UNL     1       0.567   6.345  -5.135  1.00  0.00     0.251 C 
ATOM     26  H   UNL     1       2.434   5.688  -5.392  1.00  0.00     0.163 HD
ATOM     27  O   UNL     1       0.299   6.208  -6.328  1.00  0.00    -0.269 OA
BRANCH  25  28
ATOM     28  C   UNL     1      -0.451   6.943  -4.233  1.00  0.00     0.039 A 
ATOM     29  C   UNL     1      -1.798   6.636  -4.461  1.00  0.00     0.014 A 
ATOM     30  C   UNL     1      -0.124   7.867  -3.237  1.00  0.00     0.014 A 
ATOM     31  C   UNL     1      -2.801   7.219  -3.677  1.00  0.00     0.010 A 
ATOM     32  C   UNL     1      -1.122   8.398  -2.409  1.00  0.00     0.010 A 
ATOM     33  C   UNL     1      -2.474   8.092  -2.628  1.00  0.00    -0.014 A 
BRANCH  33  34
ATOM     34  C   UNL     1      -3.542   8.690  -1.777  1.00  0.00     0.031 A 
ATOM     35  C   UNL     1      -3.792  10.178  -1.778  1.00  0.00     0.074 A 
ATOM     36  C   UNL     1      -4.287   7.898  -0.978  1.00  0.00     0.049 A 
ATOM     37  N   UNL     1      -4.689  10.865  -1.114  1.00  0.00    -0.248 NA
ATOM     38  C   UNL     1      -2.910  11.004  -2.618  1.00  0.00     0.031 C 
ATOM     39  C   UNL     1      -4.132   6.448  -0.841  1.00  0.00     0.029 A 
ATOM     40  N   UNL     1      -5.324   8.202  -0.130  1.00  0.00    -0.354 N 
ATOM     41  C   UNL     1      -4.467  12.199  -1.438  1.00  0.00     0.074 A 
ATOM     42  C   UNL     1      -3.326  12.229  -2.328  1.00  0.00     0.031 C 
ATOM     43  C   UNL     1      -5.059   5.987   0.015  1.00  0.00     0.029 A 
ATOM     44  C   UNL     1      -5.851   7.107   0.513  1.00  0.00     0.049 A 
ATOM     45  H   UNL     1      -5.659   9.118   0.004  1.00  0.00     0.167 HD
ATOM     46  C   UNL     1      -5.155  13.299  -1.046  1.00  0.00     0.031 A 
ATOM     47  C   UNL     1      -6.857   7.010   1.403  1.00  0.00     0.031 A 
ATOM     48  C   UNL     1      -6.307  13.278  -0.183  1.00  0.00     0.049 A 
ATOM     49  C   UNL     1      -7.609   8.246   1.814  1.00  0.00     0.074 A 
ATOM     50  C   UNL     1      -7.116  14.336   0.198  1.00  0.00     0.029 A 
ATOM     51  N   UNL     1      -6.810  12.147   0.439  1.00  0.00    -0.354 N 
ATOM     52  N   UNL     1      -7.442   9.484   1.420  1.00  0.00    -0.248 NA
ATOM     53  C   UNL     1      -8.701   8.064   2.783  1.00  0.00     0.031 C 
ATOM     54  C   UNL     1      -8.076  13.854   1.094  1.00  0.00     0.029 A 
ATOM     55  C   UNL     1      -7.898  12.487   1.226  1.00  0.00     0.049 A 
ATOM     56  H   UNL     1      -6.448  11.237   0.336  1.00  0.00     0.167 HD
ATOM     57  C   UNL     1      -8.421  10.223   2.072  1.00  0.00     0.074 A 
ATOM     58  C   UNL     1      -9.192   9.292   2.869  1.00  0.00     0.031 C 
ATOM     59  C   UNL     1      -8.658  11.556   2.017  1.00  0.00     0.031 A 
BRANCH  46  60
ATOM     60  C   UNL     1      -4.678  14.637  -1.541  1.00  0.00    -0.014 A 
ATOM     61  C   UNL     1      -4.853  15.025  -2.878  1.00  0.00     0.009 A 
ATOM     62  C   UNL     1      -4.109  15.549  -0.638  1.00  0.00     0.009 A 
ATOM     63  C   UNL     1      -4.441  16.289  -3.307  1.00  0.00     0.001 A 
ATOM     64  C   UNL     1      -3.723  16.822  -1.063  1.00  0.00     0.001 A 
ATOM     65  C   UNL     1      -3.882  17.188  -2.399  1.00  0.00     0.000 A 
ENDBRANCH  46  60
BRANCH  47  66
ATOM     66  C   UNL     1      -7.228   5.686   1.972  1.00  0.00    -0.014 A 
ATOM     67  C   UNL     1      -8.446   5.078   1.634  1.00  0.00     0.009 A 
ATOM     68  C   UNL     1      -6.377   5.040   2.882  1.00  0.00     0.009 A 
ATOM     69  C   UNL     1      -8.820   3.867   2.221  1.00  0.00     0.001 A 
ATOM     70  C   UNL     1      -6.739   3.814   3.444  1.00  0.00     0.001 A 
ATOM     71  C   UNL     1      -7.965   3.235   3.123  1.00  0.00     0.000 A 
ENDBRANCH  47  66
BRANCH  59  72
ATOM     72  C   UNL     1      -9.816  12.083   2.818  1.00  0.00    -0.014 A 
ATOM     73  C   UNL     1      -9.762  12.151   4.219  1.00  0.00     0.009 A 
ATOM     74  C   UNL     1     -10.968  12.540   2.159  1.00  0.00     0.009 A 
ATOM     75  C   UNL     1     -10.855  12.631   4.945  1.00  0.00     0.001 A 
ATOM     76  C   UNL     1     -12.046  13.047   2.886  1.00  0.00     0.001 A 
ATOM     77  C   UNL     1     -11.993  13.082   4.278  1.00  0.00     0.000 A 
ENDBRANCH  59  72
ENDBRANCH  33  34
ENDBRANCH  25  28
ENDBRANCH  23  24
ENDBRANCH  22  23
ENDBRANCH   1  22
TORSDOF 13
