REMARK SMILES O=C(NCCCNC(=O)[C@@H]1[C@@H](C(=O)Nc2cccc([N+](=O)[O-])c2)[C@@H]2C=C[C@H]1O2)c1ccc(-c2c3nc(c(-c4ccccc4)c4ccc([nH]4)c(-c4ccccc4)c4nc(c(-c5ccccc5)c5ccc2[nH]5)C=C4)C=C3)cc1
REMARK SMILES IDX 5 1 4 2 3 3 1 4 2 5 29 7 30 8 76 9 31 10 75 11 32 12 33 13
REMARK SMILES IDX 34 14 69 15 35 16 74 17 68 18 70 19 36 20 73 21 67 22 66 23
REMARK SMILES IDX 37 25 59 26 44 27 58 28 45 29 48 30 57 31 71 32 46 33 47 34
REMARK SMILES IDX 56 36 72 37 49 38 38 39 39 40 43 41 40 42 42 43 41 44 60 45
REMARK SMILES IDX 61 46 65 47 62 48 64 49 63 50 50 51 51 52 55 53 52 54 54 55
REMARK SMILES IDX 53 56 6 57 7 58 8 59 9 61 10 62 11 63 27 64 24 65 26 66
REMARK SMILES IDX 28 67 25 68 12 69 13 70 14 71 15 73 16 74 23 75 17 76 19 77
REMARK SMILES IDX 18 78 20 79 21 80 22 81
REMARK H PARENT 3 6 70 24 48 35 7 60 14 72
REMARK Flexibility Score: inf
ROOT
ATOM      1  C   UNL     1       4.631   1.016   2.364  1.00  0.00     0.042 C 
ENDROOT
BRANCH   1   2
ATOM      2  C   UNL     1       4.398  -0.150   1.411  1.00  0.00     0.118 C 
BRANCH   2   3
ATOM      3  N   UNL     1       2.990  -0.347   1.104  1.00  0.00    -0.352 N 
ATOM      4  O   UNL     1       1.092  -0.201  -0.099  1.00  0.00    -0.269 OA
ATOM      5  C   UNL     1       2.323  -0.194  -0.085  1.00  0.00     0.251 C 
ATOM      6  H   UNL     1       2.432  -0.632   1.863  1.00  0.00     0.163 HD
BRANCH   5   7
ATOM      7  C   UNL     1       3.071  -0.013  -1.347  1.00  0.00     0.039 A 
ATOM      8  C   UNL     1       4.208  -0.776  -1.621  1.00  0.00     0.014 A 
ATOM      9  C   UNL     1       2.601   0.904  -2.293  1.00  0.00     0.014 A 
ATOM     10  C   UNL     1       4.950  -0.528  -2.770  1.00  0.00     0.010 A 
ATOM     11  C   UNL     1       3.295   1.083  -3.493  1.00  0.00     0.010 A 
ATOM     12  C   UNL     1       4.488   0.384  -3.732  1.00  0.00    -0.014 A 
BRANCH  12  13
ATOM     13  C   UNL     1       5.223   0.521  -5.014  1.00  0.00     0.031 A 
ATOM     14  C   UNL     1       5.874   1.816  -5.409  1.00  0.00     0.074 A 
ATOM     15  C   UNL     1       5.307  -0.553  -5.824  1.00  0.00     0.049 A 
ATOM     16  N   UNL     1       6.561   2.093  -6.489  1.00  0.00    -0.248 NA
ATOM     17  C   UNL     1       5.730   2.948  -4.481  1.00  0.00     0.031 C 
ATOM     18  C   UNL     1       4.705  -1.862  -5.553  1.00  0.00     0.029 A 
ATOM     19  N   UNL     1       5.939  -0.722  -7.028  1.00  0.00    -0.354 N 
ATOM     20  C   UNL     1       6.915   3.432  -6.381  1.00  0.00     0.074 A 
ATOM     21  C   UNL     1       6.344   3.919  -5.143  1.00  0.00     0.031 C 
ATOM     22  C   UNL     1       5.034  -2.709  -6.538  1.00  0.00     0.029 A 
ATOM     23  C   UNL     1       5.807  -1.989  -7.542  1.00  0.00     0.049 A 
ATOM     24  H   UNL     1       6.440  -0.005  -7.481  1.00  0.00     0.167 HD
ATOM     25  C   UNL     1       7.652   4.184  -7.235  1.00  0.00     0.031 A 
ATOM     26  C   UNL     1       6.236  -2.513  -8.704  1.00  0.00     0.031 A 
ATOM     27  C   UNL     1       8.210   3.695  -8.471  1.00  0.00     0.049 A 
ATOM     28  C   UNL     1       7.014  -1.646  -9.649  1.00  0.00     0.074 A 
ATOM     29  C   UNL     1       9.002   4.369  -9.385  1.00  0.00     0.029 A 
ATOM     30  N   UNL     1       8.024   2.415  -8.972  1.00  0.00    -0.354 N 
ATOM     31  N   UNL     1       7.382  -0.396  -9.508  1.00  0.00    -0.248 NA
ATOM     32  C   UNL     1       7.438  -2.264 -10.912  1.00  0.00     0.031 C 
ATOM     33  C   UNL     1       9.242   3.517 -10.468  1.00  0.00     0.029 A 
ATOM     34  C   UNL     1       8.658   2.290 -10.198  1.00  0.00     0.049 A 
ATOM     35  H   UNL     1       7.518   1.701  -8.522  1.00  0.00     0.167 HD
ATOM     36  C   UNL     1       8.097  -0.082 -10.655  1.00  0.00     0.074 A 
ATOM     37  C   UNL     1       8.130  -1.280 -11.469  1.00  0.00     0.031 C 
ATOM     38  C   UNL     1       8.673   1.095 -11.002  1.00  0.00     0.031 A 
BRANCH  25  39
ATOM     39  C   UNL     1       7.868   5.631  -6.880  1.00  0.00    -0.014 A 
ATOM     40  C   UNL     1       8.693   6.010  -5.809  1.00  0.00     0.009 A 
ATOM     41  C   UNL     1       7.268   6.634  -7.659  1.00  0.00     0.009 A 
ATOM     42  C   UNL     1       8.880   7.360  -5.503  1.00  0.00     0.001 A 
ATOM     43  C   UNL     1       7.481   7.983  -7.369  1.00  0.00     0.001 A 
ATOM     44  C   UNL     1       8.278   8.345  -6.285  1.00  0.00     0.000 A 
ENDBRANCH  25  39
BRANCH  26  45
ATOM     45  C   UNL     1       5.914  -3.924  -9.040  1.00  0.00    -0.014 A 
ATOM     46  C   UNL     1       6.920  -4.900  -9.086  1.00  0.00     0.009 A 
ATOM     47  C   UNL     1       4.586  -4.304  -9.300  1.00  0.00     0.009 A 
ATOM     48  C   UNL     1       6.605  -6.222  -9.408  1.00  0.00     0.001 A 
ATOM     49  C   UNL     1       4.271  -5.632  -9.587  1.00  0.00     0.001 A 
ATOM     50  C   UNL     1       5.282  -6.588  -9.651  1.00  0.00     0.000 A 
ENDBRANCH  26  45
BRANCH  38  51
ATOM     51  C   UNL     1       9.415   1.131 -12.309  1.00  0.00    -0.014 A 
ATOM     52  C   UNL     1       8.735   1.091 -13.537  1.00  0.00     0.009 A 
ATOM     53  C   UNL     1      10.815   1.233 -12.310  1.00  0.00     0.009 A 
ATOM     54  C   UNL     1       9.446   1.117 -14.738  1.00  0.00     0.001 A 
ATOM     55  C   UNL     1      11.520   1.291 -13.512  1.00  0.00     0.001 A 
ATOM     56  C   UNL     1      10.836   1.222 -14.725  1.00  0.00     0.000 A 
ENDBRANCH  38  51
ENDBRANCH  12  13
ENDBRANCH   5   7
ENDBRANCH   2   3
ENDBRANCH   1   2
BRANCH   1  57
ATOM     57  C   UNL     1       4.118   0.770   3.779  1.00  0.00     0.117 C 
BRANCH  57  58
ATOM     58  N   UNL     1       4.767  -0.361   4.413  1.00  0.00    -0.356 N 
ATOM     59  C   UNL     1       5.737  -0.435   5.358  1.00  0.00     0.227 C 
ATOM     60  H   UNL     1       4.444  -1.236   4.100  1.00  0.00     0.163 HD
ATOM     61  O   UNL     1       5.981  -1.564   5.793  1.00  0.00    -0.275 OA
BRANCH  59  62
ATOM     62  C   UNL     1       6.398   0.805   5.940  1.00  0.00     0.127 C 
ATOM     63  C   UNL     1       7.057   1.821   4.956  1.00  0.00     0.127 C 
ATOM     64  C   UNL     1       7.629   0.396   6.784  1.00  0.00     0.155 C 
ATOM     65  C   UNL     1       8.505   1.861   5.444  1.00  0.00     0.155 C 
ATOM     66  C   UNL     1       8.651  -0.341   5.961  1.00  0.00     0.004 C 
ATOM     67  O   UNL     1       8.315   1.675   6.869  1.00  0.00    -0.365 OA
ATOM     68  C   UNL     1       9.177   0.559   5.122  1.00  0.00     0.004 C 
BRANCH  63  69
ATOM     69  C   UNL     1       6.320   3.164   4.918  1.00  0.00     0.231 C 
ATOM     70  O   UNL     1       5.821   3.553   3.857  1.00  0.00    -0.274 OA
ATOM     71  N   UNL     1       5.966   3.807   6.072  1.00  0.00    -0.325 N 
ATOM     72  H   UNL     1       4.999   3.924   6.214  1.00  0.00     0.169 HD
BRANCH  71  73
ATOM     73  C   UNL     1       6.793   4.322   7.083  1.00  0.00     0.048 A 
ATOM     74  C   UNL     1       6.233   4.538   8.347  1.00  0.00     0.026 A 
ATOM     75  C   UNL     1       8.098   4.740   6.828  1.00  0.00     0.111 A 
ATOM     76  C   UNL     1       6.999   5.093   9.377  1.00  0.00     0.009 A 
ATOM     77  C   UNL     1       8.861   5.300   7.860  1.00  0.00     0.271 A 
ATOM     78  C   UNL     1       8.321   5.470   9.140  1.00  0.00     0.086 A 
BRANCH  77  79
ATOM     79  N   UNL     1      10.233   5.742   7.582  1.00  0.00     0.062 N 
ATOM     80  O   UNL     1      10.870   6.264   8.508  1.00  0.00    -0.258 OA
ATOM     81  O   UNL     1      10.669   5.577   6.434  1.00  0.00    -0.258 OA
ENDBRANCH  77  79
ENDBRANCH  71  73
ENDBRANCH  63  69
ENDBRANCH  59  62
ENDBRANCH  57  58
ENDBRANCH   1  57
TORSDOF 13
