REMARK SMILES C[N@@H+]1CCN(C(=O)c2ccc3[nH]c4c(c3c2)CSCC4)C[C@H]1C(=O)NCCCNC(=O)c1ccc(-c2c3nc(c(-c4ccccc4)c4ccc([nH]4)c(-c4ccccc4)c4nc(c(-c5ccccc5)c5ccc2[nH]5)C=C4)C=C3)cc1
REMARK SMILES IDX 27 1 26 2 25 3 23 4 24 5 22 7 1 8 2 9 3 10 4 12 21 13 5 14
REMARK SMILES IDX 6 15 7 16 8 17 9 18 16 19 10 20 15 21 11 22 14 23 12 24
REMARK SMILES IDX 13 25 17 26 20 28 18 29 19 30 28 31 29 32 30 33 31 35 32 36
REMARK SMILES IDX 33 37 79 38 34 39 78 40 35 41 36 42 37 43 72 44 38 45 77 46
REMARK SMILES IDX 71 47 73 48 39 49 76 50 70 51 69 52 40 54 62 55 47 56 61 57
REMARK SMILES IDX 48 58 51 59 60 60 74 61 49 62 50 63 59 65 75 66 52 67 41 68
REMARK SMILES IDX 42 69 46 70 43 71 45 72 44 73 63 74 64 75 68 76 65 77 67 78
REMARK SMILES IDX 66 79 53 80 54 81 58 82 55 83 57 84 56 85
REMARK H PARENT 25 6 2 11 12 27 29 34 73 53 51 64
REMARK Flexibility Score: inf
ROOT
ATOM      1  C   UNL     1       1.764  -1.323  -3.796  1.00  0.00     0.042 C 
ENDROOT
BRANCH   1   2
ATOM      2  C   UNL     1       0.637  -1.801  -2.886  1.00  0.00     0.118 C 
BRANCH   2   3
ATOM      3  N   UNL     1       1.102  -2.640  -1.797  1.00  0.00    -0.351 N 
ATOM      4  C   UNL     1       1.037  -2.449  -0.450  1.00  0.00     0.280 C 
ATOM      5  O   UNL     1       1.504  -3.337   0.273  1.00  0.00    -0.268 OA
ATOM      6  H   UNL     1       1.532  -3.481  -2.077  1.00  0.00     0.163 HD
BRANCH   4   7
ATOM      7  C   UNL     1       0.385  -1.204   0.171  1.00  0.00     0.293 C 
ATOM      8  C   UNL     1       2.432   0.127   0.096  1.00  0.00     0.333 C 
ATOM      9  N   UNL     1       1.020   0.067  -0.300  1.00  0.00    -0.324 N 
ATOM     10  C   UNL     1       0.296   1.214   0.298  1.00  0.00     0.284 C 
ATOM     11  H   UNL     1       0.968   0.102  -1.319  1.00  0.00     0.348 HD
ATOM     12  C   UNL     1      -1.215   1.191   0.011  1.00  0.00     0.181 C 
ATOM     13  C   UNL     1      -1.139  -1.272  -0.066  1.00  0.00     0.195 C 
ATOM     14  N   UNL     1      -1.836  -0.070   0.416  1.00  0.00    -0.326 N 
BRANCH  14  15
ATOM     15  C   UNL     1      -3.133  -0.044   0.910  1.00  0.00     0.254 C 
ATOM     16  O   UNL     1      -3.776   1.001   1.079  1.00  0.00    -0.269 OA
BRANCH  15  17
ATOM     17  C   UNL     1      -3.815  -1.316   1.220  1.00  0.00     0.040 A 
ATOM     18  C   UNL     1      -3.287  -2.195   2.170  1.00  0.00     0.016 A 
ATOM     19  C   UNL     1      -5.016  -1.601   0.556  1.00  0.00     0.024 A 
ATOM     20  C   UNL     1      -3.903  -3.422   2.423  1.00  0.00     0.027 A 
ATOM     21  C   UNL     1      -5.665  -2.824   0.815  1.00  0.00     0.004 A 
ATOM     22  C   UNL     1      -5.085  -3.709   1.727  1.00  0.00     0.046 A 
ATOM     23  C   UNL     1      -6.878  -3.420   0.351  1.00  0.00    -0.009 A 
ATOM     24  N   UNL     1      -5.892  -4.823   1.782  1.00  0.00    -0.358 N 
ATOM     25  C   UNL     1      -6.990  -4.642   0.988  1.00  0.00     0.021 A 
ATOM     26  C   UNL     1      -7.877  -2.822  -0.588  1.00  0.00     0.107 C 
ATOM     27  H   UNL     1      -5.707  -5.630   2.315  1.00  0.00     0.166 HD
ATOM     28  C   UNL     1      -8.099  -5.629   0.867  1.00  0.00     0.065 C 
ATOM     29  S   UNL     1      -9.181  -3.995  -1.119  1.00  0.00    -0.157 SA
ATOM     30  C   UNL     1      -9.395  -4.928   0.443  1.00  0.00     0.076 C 
ENDBRANCH  15  17
ENDBRANCH  14  15
ENDBRANCH   4   7
ENDBRANCH   2   3
ENDBRANCH   1   2
BRANCH   1  31
ATOM     31  C   UNL     1       2.551  -2.437  -4.489  1.00  0.00     0.118 C 
BRANCH  31  32
ATOM     32  N   UNL     1       1.734  -3.416  -5.181  1.00  0.00    -0.352 N 
ATOM     33  C   UNL     1       1.217  -3.539  -6.441  1.00  0.00     0.251 C 
ATOM     34  H   UNL     1       1.494  -4.176  -4.603  1.00  0.00     0.163 HD
ATOM     35  O   UNL     1       0.683  -4.621  -6.697  1.00  0.00    -0.269 OA
BRANCH  33  36
ATOM     36  C   UNL     1       1.206  -2.477  -7.486  1.00  0.00     0.039 A 
ATOM     37  C   UNL     1       1.683  -1.179  -7.330  1.00  0.00     0.014 A 
ATOM     38  C   UNL     1       0.594  -2.816  -8.711  1.00  0.00     0.014 A 
ATOM     39  C   UNL     1       1.482  -0.226  -8.328  1.00  0.00     0.010 A 
ATOM     40  C   UNL     1       0.409  -1.872  -9.722  1.00  0.00     0.010 A 
ATOM     41  C   UNL     1       0.819  -0.560  -9.515  1.00  0.00    -0.014 A 
BRANCH  41  42
ATOM     42  C   UNL     1       0.636   0.500 -10.507  1.00  0.00     0.031 A 
ATOM     43  C   UNL     1       1.874   1.170 -11.002  1.00  0.00     0.074 A 
ATOM     44  C   UNL     1      -0.541   0.873 -11.045  1.00  0.00     0.049 A 
ATOM     45  N   UNL     1       2.213   2.412 -10.873  1.00  0.00    -0.248 NA
ATOM     46  C   UNL     1       2.869   0.342 -11.696  1.00  0.00     0.031 C 
ATOM     47  C   UNL     1      -1.841   0.205 -10.972  1.00  0.00     0.029 A 
ATOM     48  N   UNL     1      -0.783   1.938 -11.867  1.00  0.00    -0.354 N 
ATOM     49  C   UNL     1       3.411   2.566 -11.566  1.00  0.00     0.074 A 
ATOM     50  C   UNL     1       3.804   1.246 -11.997  1.00  0.00     0.031 C 
ATOM     51  C   UNL     1      -2.672   0.753 -11.890  1.00  0.00     0.029 A 
ATOM     52  C   UNL     1      -2.016   1.902 -12.493  1.00  0.00     0.049 A 
ATOM     53  H   UNL     1      -0.135   2.667 -12.001  1.00  0.00     0.167 HD
ATOM     54  C   UNL     1       3.951   3.785 -11.847  1.00  0.00     0.031 A 
ATOM     55  C   UNL     1      -2.443   2.731 -13.473  1.00  0.00     0.031 A 
ATOM     56  C   UNL     1       3.380   4.837 -11.052  1.00  0.00     0.049 A 
ATOM     57  C   UNL     1      -1.641   3.972 -13.416  1.00  0.00     0.074 A 
ATOM     58  C   UNL     1       3.325   5.110  -9.700  1.00  0.00     0.029 A 
ATOM     59  N   UNL     1       2.451   5.663 -11.634  1.00  0.00    -0.354 N 
ATOM     60  N   UNL     1      -1.728   4.851 -12.460  1.00  0.00    -0.248 NA
ATOM     61  C   UNL     1      -0.471   4.092 -14.268  1.00  0.00     0.031 C 
ATOM     62  C   UNL     1       2.046   5.705  -9.496  1.00  0.00     0.029 A 
ATOM     63  C   UNL     1       1.417   5.785 -10.740  1.00  0.00     0.049 A 
ATOM     64  H   UNL     1       2.514   6.086 -12.521  1.00  0.00     0.167 HD
ATOM     65  C   UNL     1      -0.443   5.347 -12.319  1.00  0.00     0.074 A 
ATOM     66  C   UNL     1       0.249   4.949 -13.541  1.00  0.00     0.031 C 
ATOM     67  C   UNL     1       0.017   5.788 -11.110  1.00  0.00     0.031 A 
BRANCH  54  68
ATOM     68  C   UNL     1       4.844   4.068 -13.024  1.00  0.00    -0.014 A 
ATOM     69  C   UNL     1       4.874   3.251 -14.170  1.00  0.00     0.009 A 
ATOM     70  C   UNL     1       5.506   5.307 -13.112  1.00  0.00     0.009 A 
ATOM     71  C   UNL     1       5.543   3.636 -15.336  1.00  0.00     0.001 A 
ATOM     72  C   UNL     1       6.142   5.714 -14.292  1.00  0.00     0.001 A 
ATOM     73  C   UNL     1       6.162   4.877 -15.403  1.00  0.00     0.000 A 
ENDBRANCH  54  68
BRANCH  55  74
ATOM     74  C   UNL     1      -3.297   2.414 -14.635  1.00  0.00    -0.014 A 
ATOM     75  C   UNL     1      -3.288   1.118 -15.180  1.00  0.00     0.009 A 
ATOM     76  C   UNL     1      -3.883   3.442 -15.390  1.00  0.00     0.009 A 
ATOM     77  C   UNL     1      -3.800   0.867 -16.456  1.00  0.00     0.001 A 
ATOM     78  C   UNL     1      -4.391   3.191 -16.671  1.00  0.00     0.001 A 
ATOM     79  C   UNL     1      -4.334   1.907 -17.209  1.00  0.00     0.000 A 
ENDBRANCH  55  74
BRANCH  67  80
ATOM     80  C   UNL     1      -0.980   5.975  -9.985  1.00  0.00    -0.014 A 
ATOM     81  C   UNL     1      -0.946   7.166  -9.241  1.00  0.00     0.009 A 
ATOM     82  C   UNL     1      -1.838   4.951  -9.547  1.00  0.00     0.009 A 
ATOM     83  C   UNL     1      -1.745   7.329  -8.105  1.00  0.00     0.001 A 
ATOM     84  C   UNL     1      -2.661   5.125  -8.430  1.00  0.00     0.001 A 
ATOM     85  C   UNL     1      -2.608   6.312  -7.705  1.00  0.00     0.000 A 
ENDBRANCH  67  80
ENDBRANCH  41  42
ENDBRANCH  33  36
ENDBRANCH  31  32
ENDBRANCH   1  31
TORSDOF 12
