REMARK SMILES CC(C)(C)C(=O)NCCC(=O)N1C[C@@H](O)C[C@@H]1C(=O)NCCCNC(=O)c1ccc(-c2c3nc(c(-c4ccccc4)c4ccc([nH]4)c(-c4ccccc4)c4nc(c(-c5ccccc5)c5ccc2[nH]5)C=C4)C=C3)cc1
REMARK SMILES IDX 18 1 19 2 20 3 17 5 12 6 13 7 14 8 16 9 10 10 11 11 9 12
REMARK SMILES IDX 8 13 7 14 5 15 6 16 2 18 1 19 3 20 4 21 15 22 21 24 22 25
REMARK SMILES IDX 23 26 24 27 25 28 26 30 27 31 28 32 74 33 29 34 73 35 30 36
REMARK SMILES IDX 31 37 32 38 67 39 33 40 72 41 66 42 68 43 34 44 71 45 65 46
REMARK SMILES IDX 64 47 35 49 57 50 42 51 56 52 43 53 46 54 55 55 69 56 44 57
REMARK SMILES IDX 45 58 54 60 70 61 47 62 36 63 37 64 41 65 38 66 40 67 39 68
REMARK SMILES IDX 58 69 59 70 63 71 60 72 62 73 61 74 48 75 49 76 53 77 50 78
REMARK SMILES IDX 52 79 51 80
REMARK H PARENT 20 4 7 17 15 23 24 29 68 48 46 59
REMARK Flexibility Score: inf
ROOT
ATOM      1  C   UNL     1      -1.945  -1.565  -7.113  1.00  0.00     0.242 C 
ATOM      2  O   UNL     1      -2.086  -0.359  -7.339  1.00  0.00    -0.273 OA
ATOM      3  N   UNL     1      -3.091  -2.289  -6.960  1.00  0.00    -0.354 N 
ATOM      4  H   UNL     1      -3.923  -1.805  -7.170  1.00  0.00     0.163 HD
ENDROOT
BRANCH   1   5
ATOM      5  C   UNL     1      -0.540  -2.214  -6.950  1.00  0.00     0.177 C 
ATOM      6  N   UNL     1      -0.167  -2.329  -5.536  1.00  0.00    -0.328 N 
ATOM      7  C   UNL     1       0.623  -1.179  -5.108  1.00  0.00     0.152 C 
ATOM      8  C   UNL     1       0.807  -0.312  -6.358  1.00  0.00     0.136 C 
ATOM      9  C   UNL     1       0.540  -1.285  -7.510  1.00  0.00     0.069 C 
BRANCH   6  10
ATOM     10  C   UNL     1      -0.272  -3.506  -4.829  1.00  0.00     0.225 C 
ATOM     11  O   UNL     1      -0.354  -4.602  -5.380  1.00  0.00    -0.275 OA
BRANCH  10  12
ATOM     12  C   UNL     1      -0.471  -3.379  -3.331  1.00  0.00     0.121 C 
BRANCH  12  13
ATOM     13  C   UNL     1       0.727  -3.734  -2.474  1.00  0.00     0.125 C 
BRANCH  13  14
ATOM     14  N   UNL     1       1.663  -2.635  -2.352  1.00  0.00    -0.355 N 
ATOM     15  C   UNL     1       1.678  -1.513  -1.588  1.00  0.00     0.225 C 
ATOM     16  O   UNL     1       2.520  -0.672  -1.922  1.00  0.00    -0.275 OA
ATOM     17  H   UNL     1       2.446  -2.719  -2.943  1.00  0.00     0.163 HD
BRANCH  15  18
ATOM     18  C   UNL     1       0.767  -1.295  -0.358  1.00  0.00     0.041 C 
ATOM     19  C   UNL     1       1.059   0.120   0.197  1.00  0.00     0.021 C 
ATOM     20  C   UNL     1       1.120  -2.309   0.738  1.00  0.00     0.021 C 
ATOM     21  C   UNL     1      -0.732  -1.346  -0.669  1.00  0.00     0.021 C 
ENDBRANCH  15  18
ENDBRANCH  13  14
ENDBRANCH  12  13
ENDBRANCH  10  12
ENDBRANCH   6  10
BRANCH   8  22
ATOM     22  O   UNL     1       2.112   0.240  -6.459  1.00  0.00    -0.391 OA
ATOM     23  H   UNL     1       2.766  -0.475  -6.472  1.00  0.00     0.211 HD
ENDBRANCH   8  22
ENDBRANCH   1   5
BRANCH   3  24
ATOM     24  C   UNL     1      -3.269  -3.664  -6.535  1.00  0.00     0.117 C 
BRANCH  24  25
ATOM     25  C   UNL     1      -3.474  -3.745  -5.024  1.00  0.00     0.042 C 
BRANCH  25  26
ATOM     26  C   UNL     1      -4.892  -3.450  -4.551  1.00  0.00     0.118 C 
BRANCH  26  27
ATOM     27  N   UNL     1      -5.772  -4.590  -4.721  1.00  0.00    -0.352 N 
ATOM     28  C   UNL     1      -6.446  -5.356  -3.802  1.00  0.00     0.251 C 
ATOM     29  H   UNL     1      -5.910  -4.862  -5.657  1.00  0.00     0.163 HD
ATOM     30  O   UNL     1      -6.957  -6.408  -4.182  1.00  0.00    -0.269 OA
BRANCH  28  31
ATOM     31  C   UNL     1      -6.580  -4.964  -2.373  1.00  0.00     0.039 A 
ATOM     32  C   UNL     1      -6.672  -5.985  -1.418  1.00  0.00     0.014 A 
ATOM     33  C   UNL     1      -6.724  -3.637  -1.959  1.00  0.00     0.014 A 
ATOM     34  C   UNL     1      -6.891  -5.682  -0.070  1.00  0.00     0.010 A 
ATOM     35  C   UNL     1      -6.866  -3.329  -0.602  1.00  0.00     0.010 A 
ATOM     36  C   UNL     1      -6.980  -4.348   0.356  1.00  0.00    -0.014 A 
BRANCH  36  37
ATOM     37  C   UNL     1      -7.247  -4.017   1.782  1.00  0.00     0.031 A 
ATOM     38  C   UNL     1      -8.531  -3.330   2.179  1.00  0.00     0.074 A 
ATOM     39  C   UNL     1      -6.331  -4.307   2.728  1.00  0.00     0.049 A 
ATOM     40  N   UNL     1      -8.928  -2.942   3.367  1.00  0.00    -0.248 NA
ATOM     41  C   UNL     1      -9.483  -3.019   1.101  1.00  0.00     0.031 C 
ATOM     42  C   UNL     1      -5.032  -4.940   2.487  1.00  0.00     0.029 A 
ATOM     43  N   UNL     1      -6.355  -4.107   4.087  1.00  0.00    -0.354 N 
ATOM     44  C   UNL     1     -10.155  -2.319   3.172  1.00  0.00     0.074 A 
ATOM     45  C   UNL     1     -10.424  -2.349   1.751  1.00  0.00     0.031 C 
ATOM     46  C   UNL     1      -4.397  -5.100   3.660  1.00  0.00     0.029 A 
ATOM     47  C   UNL     1      -5.228  -4.557   4.731  1.00  0.00     0.049 A 
ATOM     48  H   UNL     1      -7.109  -3.682   4.555  1.00  0.00     0.167 HD
ATOM     49  C   UNL     1     -10.995  -1.783   4.091  1.00  0.00     0.031 A 
ATOM     50  C   UNL     1      -4.899  -4.540   6.037  1.00  0.00     0.031 A 
ATOM     51  C   UNL     1     -10.760  -1.785   5.510  1.00  0.00     0.049 A 
ATOM     52  C   UNL     1      -5.865  -3.970   7.038  1.00  0.00     0.074 A 
ATOM     53  C   UNL     1     -11.587  -1.324   6.521  1.00  0.00     0.029 A 
ATOM     54  N   UNL     1      -9.620  -2.280   6.120  1.00  0.00    -0.354 N 
ATOM     55  N   UNL     1      -7.048  -3.443   6.839  1.00  0.00    -0.248 NA
ATOM     56  C   UNL     1      -5.454  -4.013   8.450  1.00  0.00     0.031 C 
ATOM     57  C   UNL     1     -10.932  -1.511   7.743  1.00  0.00     0.029 A 
ATOM     58  C   UNL     1      -9.716  -2.126   7.493  1.00  0.00     0.049 A 
ATOM     59  H   UNL     1      -8.856  -2.683   5.648  1.00  0.00     0.167 HD
ATOM     60  C   UNL     1      -7.535  -3.122   8.100  1.00  0.00     0.074 A 
ATOM     61  C   UNL     1      -6.527  -3.525   9.057  1.00  0.00     0.031 C 
ATOM     62  C   UNL     1      -8.713  -2.543   8.434  1.00  0.00     0.031 A 
BRANCH  49  63
ATOM     63  C   UNL     1     -12.259  -1.143   3.591  1.00  0.00    -0.014 A 
ATOM     64  C   UNL     1     -13.331  -1.919   3.122  1.00  0.00     0.009 A 
ATOM     65  C   UNL     1     -12.403   0.252   3.646  1.00  0.00     0.009 A 
ATOM     66  C   UNL     1     -14.511  -1.308   2.693  1.00  0.00     0.001 A 
ATOM     67  C   UNL     1     -13.593   0.858   3.239  1.00  0.00     0.001 A 
ATOM     68  C   UNL     1     -14.643   0.079   2.756  1.00  0.00     0.000 A 
ENDBRANCH  49  63
BRANCH  50  69
ATOM     69  C   UNL     1      -3.600  -5.101   6.489  1.00  0.00    -0.014 A 
ATOM     70  C   UNL     1      -3.558  -6.306   7.207  1.00  0.00     0.009 A 
ATOM     71  C   UNL     1      -2.401  -4.418   6.236  1.00  0.00     0.009 A 
ATOM     72  C   UNL     1      -2.344  -6.799   7.691  1.00  0.00     0.001 A 
ATOM     73  C   UNL     1      -1.186  -4.927   6.698  1.00  0.00     0.001 A 
ATOM     74  C   UNL     1      -1.159  -6.110   7.434  1.00  0.00     0.000 A 
ENDBRANCH  50  69
BRANCH  62  75
ATOM     75  C   UNL     1      -8.994  -2.356   9.897  1.00  0.00    -0.014 A 
ATOM     76  C   UNL     1      -8.336  -1.368  10.646  1.00  0.00     0.009 A 
ATOM     77  C   UNL     1      -9.948  -3.168  10.529  1.00  0.00     0.009 A 
ATOM     78  C   UNL     1      -8.603  -1.222  12.008  1.00  0.00     0.001 A 
ATOM     79  C   UNL     1     -10.231  -3.003  11.886  1.00  0.00     0.001 A 
ATOM     80  C   UNL     1      -9.551  -2.038  12.626  1.00  0.00     0.000 A 
ENDBRANCH  62  75
ENDBRANCH  36  37
ENDBRANCH  28  31
ENDBRANCH  26  27
ENDBRANCH  25  26
ENDBRANCH  24  25
ENDBRANCH   3  24
TORSDOF 16
