REMARK SMILES Cc1cc(Br)cc([N+](=O)[O-])c1OCCC[C@@](C)([NH3+])C(=O)NCCCNC(=O)c1ccc(-c2c3nc(c(-c4ccccc4)c4ccc([nH]4)c(-c4ccccc4)c4nc(c(-c5ccccc5)c5ccc2[nH]5)C=C4)C=C3)cc1
REMARK SMILES IDX 19 1 20 2 21 3 16 5 17 6 15 7 14 8 13 9 12 10 11 11 1 12
REMARK SMILES IDX 2 13 3 14 4 15 7 16 5 17 6 18 8 19 9 20 10 21 18 22 22 26
REMARK SMILES IDX 23 27 24 28 25 29 26 30 27 32 28 33 29 34 75 35 30 36 74 37
REMARK SMILES IDX 31 38 32 39 33 40 68 41 34 42 73 43 67 44 69 45 35 46 72 47
REMARK SMILES IDX 66 48 65 49 36 51 58 52 43 53 57 54 44 55 47 56 56 57 70 58
REMARK SMILES IDX 45 59 46 60 55 62 71 63 48 64 37 65 38 66 42 67 39 68 41 69
REMARK SMILES IDX 40 70 59 71 60 72 64 73 61 74 63 75 62 76 49 77 50 78 54 79
REMARK SMILES IDX 51 80 53 81 52 82
REMARK H PARENT 21 4 18 23 18 24 18 25 25 31 69 50 47 61
REMARK Flexibility Score: inf
ROOT
ATOM      1  C   UNL     1      -4.577  -2.623   1.381  1.00  0.00     0.280 C 
ATOM      2  O   UNL     1      -5.360  -1.688   1.585  1.00  0.00    -0.268 OA
ATOM      3  N   UNL     1      -3.960  -3.079   2.502  1.00  0.00    -0.351 N 
ATOM      4  H   UNL     1      -3.997  -2.442   3.252  1.00  0.00     0.163 HD
ENDROOT
BRANCH   1   5
ATOM      5  C   UNL     1      -4.401  -3.229  -0.046  1.00  0.00     0.171 C 
ATOM      6  C   UNL     1      -5.573  -4.203  -0.234  1.00  0.00     0.090 C 
BRANCH   5   7
ATOM      7  C   UNL     1      -4.361  -2.172  -1.212  1.00  0.00     0.082 C 
BRANCH   7   8
ATOM      8  C   UNL     1      -5.088  -0.815  -1.086  1.00  0.00     0.049 C 
BRANCH   8   9
ATOM      9  C   UNL     1      -4.356   0.340  -0.348  1.00  0.00     0.230 C 
BRANCH   9  10
ATOM     10  O   UNL     1      -3.188   0.752  -1.079  1.00  0.00    -0.487 OA
BRANCH  10  11
ATOM     11  C   UNL     1      -2.072   1.130  -0.359  1.00  0.00     0.200 A 
ATOM     12  C   UNL     1      -1.525  -1.279   0.279  1.00  0.00     0.049 C 
ATOM     13  C   UNL     1      -1.155   0.140   0.043  1.00  0.00    -0.001 A 
ATOM     14  C   UNL     1       0.203   0.452   0.215  1.00  0.00     0.023 A 
ATOM     15  C   UNL     1       0.648   1.756   0.087  1.00  0.00     0.025 A 
ATOM     16  C   UNL     1      -1.621   2.462  -0.367  1.00  0.00     0.312 A 
ATOM     17  Br  UNL     1       2.493   2.122   0.249  1.00  0.00    -0.051 Br
ATOM     18  C   UNL     1      -0.263   2.776  -0.145  1.00  0.00     0.105 A 
BRANCH  16  19
ATOM     19  N   UNL     1      -2.550   3.584  -0.515  1.00  0.00     0.066 N 
ATOM     20  O   UNL     1      -2.073   4.674  -0.869  1.00  0.00    -0.258 OA
ATOM     21  O   UNL     1      -3.732   3.413  -0.195  1.00  0.00    -0.258 OA
ENDBRANCH  16  19
ENDBRANCH  10  11
ENDBRANCH   9  10
ENDBRANCH   8   9
ENDBRANCH   7   8
ENDBRANCH   5   7
BRANCH   5  22
ATOM     22  N   UNL     1      -3.182  -4.072  -0.170  1.00  0.00    -0.345 N 
ATOM     23  H   UNL     1      -3.118  -4.439  -1.119  1.00  0.00     0.345 HD
ATOM     24  H   UNL     1      -3.236  -4.846   0.492  1.00  0.00     0.345 HD
ATOM     25  H   UNL     1      -2.357  -3.507   0.033  1.00  0.00     0.345 HD
ENDBRANCH   5  22
ENDBRANCH   1   5
BRANCH   3  26
ATOM     26  C   UNL     1      -3.257  -4.308   2.828  1.00  0.00     0.118 C 
BRANCH  26  27
ATOM     27  C   UNL     1      -1.894  -4.041   3.467  1.00  0.00     0.042 C 
BRANCH  27  28
ATOM     28  C   UNL     1      -1.935  -3.167   4.722  1.00  0.00     0.118 C 
BRANCH  28  29
ATOM     29  N   UNL     1      -2.851  -3.674   5.736  1.00  0.00    -0.352 N 
ATOM     30  C   UNL     1      -2.612  -4.262   6.948  1.00  0.00     0.251 C 
ATOM     31  H   UNL     1      -3.805  -3.577   5.510  1.00  0.00     0.163 HD
ATOM     32  O   UNL     1      -3.538  -4.825   7.540  1.00  0.00    -0.269 OA
BRANCH  30  33
ATOM     33  C   UNL     1      -1.268  -4.245   7.556  1.00  0.00     0.039 A 
ATOM     34  C   UNL     1      -0.802  -5.397   8.198  1.00  0.00     0.014 A 
ATOM     35  C   UNL     1      -0.485  -3.088   7.545  1.00  0.00     0.014 A 
ATOM     36  C   UNL     1       0.471  -5.407   8.771  1.00  0.00     0.010 A 
ATOM     37  C   UNL     1       0.813  -3.124   8.047  1.00  0.00     0.010 A 
ATOM     38  C   UNL     1       1.304  -4.282   8.669  1.00  0.00    -0.014 A 
BRANCH  38  39
ATOM     39  C   UNL     1       2.692  -4.300   9.195  1.00  0.00     0.031 A 
ATOM     40  C   UNL     1       3.098  -3.378  10.311  1.00  0.00     0.074 A 
ATOM     41  C   UNL     1       3.608  -5.103   8.622  1.00  0.00     0.049 A 
ATOM     42  N   UNL     1       4.273  -3.222  10.869  1.00  0.00    -0.248 NA
ATOM     43  C   UNL     1       2.053  -2.496  10.853  1.00  0.00     0.031 C 
ATOM     44  C   UNL     1       3.351  -6.026   7.514  1.00  0.00     0.029 A 
ATOM     45  N   UNL     1       4.943  -5.273   8.893  1.00  0.00    -0.354 N 
ATOM     46  C   UNL     1       4.112  -2.213  11.811  1.00  0.00     0.074 A 
ATOM     47  C   UNL     1       2.743  -1.757  11.709  1.00  0.00     0.031 C 
ATOM     48  C   UNL     1       4.480  -6.695   7.230  1.00  0.00     0.029 A 
ATOM     49  C   UNL     1       5.549  -6.216   8.099  1.00  0.00     0.049 A 
ATOM     50  H   UNL     1       5.420  -4.767   9.590  1.00  0.00     0.167 HD
ATOM     51  C   UNL     1       5.016  -1.720  12.692  1.00  0.00     0.031 A 
ATOM     52  C   UNL     1       6.823  -6.648   8.074  1.00  0.00     0.031 A 
ATOM     53  C   UNL     1       6.380  -2.171  12.789  1.00  0.00     0.049 A 
ATOM     54  C   UNL     1       7.819  -6.059   9.032  1.00  0.00     0.074 A 
ATOM     55  C   UNL     1       7.358  -1.779  13.686  1.00  0.00     0.029 A 
ATOM     56  N   UNL     1       6.962  -3.109  11.949  1.00  0.00    -0.354 N 
ATOM     57  N   UNL     1       7.636  -5.156   9.964  1.00  0.00    -0.248 NA
ATOM     58  C   UNL     1       9.198  -6.556   8.936  1.00  0.00     0.031 C 
ATOM     59  C   UNL     1       8.549  -2.431  13.346  1.00  0.00     0.029 A 
ATOM     60  C   UNL     1       8.296  -3.281  12.282  1.00  0.00     0.049 A 
ATOM     61  H   UNL     1       6.495  -3.583  11.223  1.00  0.00     0.167 HD
ATOM     62  C   UNL     1       8.867  -5.000  10.588  1.00  0.00     0.074 A 
ATOM     63  C   UNL     1       9.785  -5.910   9.933  1.00  0.00     0.031 C 
ATOM     64  C   UNL     1       9.203  -4.181  11.615  1.00  0.00     0.031 A 
BRANCH  51  65
ATOM     65  C   UNL     1       4.554  -0.610  13.599  1.00  0.00    -0.014 A 
ATOM     66  C   UNL     1       3.583  -0.828  14.591  1.00  0.00     0.009 A 
ATOM     67  C   UNL     1       5.095   0.678  13.457  1.00  0.00     0.009 A 
ATOM     68  C   UNL     1       3.121   0.231  15.377  1.00  0.00     0.001 A 
ATOM     69  C   UNL     1       4.658   1.726  14.268  1.00  0.00     0.001 A 
ATOM     70  C   UNL     1       3.659   1.506  15.216  1.00  0.00     0.000 A 
ENDBRANCH  51  65
BRANCH  52  71
ATOM     71  C   UNL     1       7.218  -7.727   7.132  1.00  0.00    -0.014 A 
ATOM     72  C   UNL     1       7.511  -9.011   7.616  1.00  0.00     0.009 A 
ATOM     73  C   UNL     1       7.287  -7.490   5.750  1.00  0.00     0.009 A 
ATOM     74  C   UNL     1       7.880 -10.033   6.738  1.00  0.00     0.001 A 
ATOM     75  C   UNL     1       7.629  -8.521   4.872  1.00  0.00     0.001 A 
ATOM     76  C   UNL     1       7.932  -9.789   5.366  1.00  0.00     0.000 A 
ENDBRANCH  52  71
BRANCH  64  77
ATOM     77  C   UNL     1      10.618  -4.257  12.118  1.00  0.00    -0.014 A 
ATOM     78  C   UNL     1      11.693  -3.763  11.363  1.00  0.00     0.009 A 
ATOM     79  C   UNL     1      10.874  -4.801  13.388  1.00  0.00     0.009 A 
ATOM     80  C   UNL     1      12.998  -3.845  11.854  1.00  0.00     0.001 A 
ATOM     81  C   UNL     1      12.175  -4.851  13.889  1.00  0.00     0.001 A 
ATOM     82  C   UNL     1      13.238  -4.383  13.118  1.00  0.00     0.000 A 
ENDBRANCH  64  77
ENDBRANCH  38  39
ENDBRANCH  30  33
ENDBRANCH  28  29
ENDBRANCH  27  28
ENDBRANCH  26  27
ENDBRANCH   3  26
TORSDOF 17
