REMARK SMILES CC(C)C[C@H](NC(=O)CNC(=O)[C@@H](NC(=O)OCc1ccccc1)C(C)C)C(=O)N[C@@H](C)C(=O)NCCCNC(=O)c1ccc(-c2c3nc(c(-c4ccccc4)c4ccc([nH]4)c(-c4ccccc4)c4nc(c(-c5ccccc5)c5ccc2[nH]5)C=C4)C=C3)cc1
REMARK SMILES IDX 28 1 29 2 30 3 5 5 4 6 2 7 1 8 3 9 6 10 7 11 8 13 9 14 10 15
REMARK SMILES IDX 11 16 12 18 13 19 14 20 15 21 16 23 17 24 18 25 19 26 20 27
REMARK SMILES IDX 24 28 21 29 23 30 22 31 25 32 26 33 27 34 31 35 32 36 33 37
REMARK SMILES IDX 34 38 35 39 36 41 37 42 38 43 39 44 40 45 41 47 42 48 43 49
REMARK SMILES IDX 89 50 44 51 88 52 45 53 46 54 47 55 82 56 48 57 87 58 81 59
REMARK SMILES IDX 83 60 49 61 86 62 80 63 79 64 50 66 72 67 57 68 71 69 58 70
REMARK SMILES IDX 61 71 70 72 84 73 59 74 60 75 69 77 85 78 62 79 51 80 52 81
REMARK SMILES IDX 56 82 53 83 55 84 54 85 73 86 74 87 78 88 75 89 77 90 76 91
REMARK SMILES IDX 63 92 64 93 68 94 65 95 67 96 66 97
REMARK H PARENT 30 4 6 12 10 17 14 22 35 40 39 46 83 65 61 76
REMARK Flexibility Score: inf
ROOT
ATOM      1  C   UNL     1      -3.052   0.733  -1.931  1.00  0.00     0.243 C 
ATOM      2  O   UNL     1      -3.850   1.313  -1.181  1.00  0.00    -0.273 OA
ATOM      3  N   UNL     1      -3.541  -0.313  -2.642  1.00  0.00    -0.343 N 
ATOM      4  H   UNL     1      -4.396  -0.678  -2.316  1.00  0.00     0.164 HD
ENDROOT
BRANCH   1   5
ATOM      5  C   UNL     1      -1.559   1.129  -1.916  1.00  0.00     0.171 C 
BRANCH   5   6
ATOM      6  C   UNL     1      -0.883   1.764  -3.142  1.00  0.00     0.038 C 
BRANCH   6   7
ATOM      7  C   UNL     1      -1.097   3.301  -3.280  1.00  0.00    -0.015 C 
ATOM      8  C   UNL     1       0.101   4.152  -2.824  1.00  0.00     0.007 C 
ATOM      9  C   UNL     1      -1.321   3.670  -4.747  1.00  0.00     0.007 C 
ENDBRANCH   6   7
ENDBRANCH   5   6
BRANCH   5  10
ATOM     10  N   UNL     1      -0.781   0.015  -1.371  1.00  0.00    -0.343 N 
ATOM     11  C   UNL     1       0.043  -0.062  -0.291  1.00  0.00     0.240 C 
ATOM     12  H   UNL     1      -0.870  -0.827  -1.874  1.00  0.00     0.164 HD
ATOM     13  O   UNL     1       0.528  -1.173  -0.043  1.00  0.00    -0.273 OA
BRANCH  11  14
ATOM     14  C   UNL     1       0.393   1.133   0.627  1.00  0.00     0.216 C 
BRANCH  14  15
ATOM     15  N   UNL     1      -0.005   2.476   0.261  1.00  0.00    -0.345 N 
ATOM     16  C   UNL     1      -1.110   3.230   0.537  1.00  0.00     0.243 C 
ATOM     17  H   UNL     1       0.656   2.941  -0.302  1.00  0.00     0.164 HD
ATOM     18  O   UNL     1      -1.262   4.283  -0.094  1.00  0.00    -0.273 OA
BRANCH  16  19
ATOM     19  C   UNL     1      -2.093   2.905   1.660  1.00  0.00     0.177 C 
BRANCH  19  20
ATOM     20  N   UNL     1      -2.623   1.554   1.473  1.00  0.00    -0.309 N 
ATOM     21  C   UNL     1      -2.354   0.386   2.099  1.00  0.00     0.408 C 
ATOM     22  H   UNL     1      -3.299   1.482   0.762  1.00  0.00     0.167 HD
ATOM     23  O   UNL     1      -2.761  -0.684   1.664  1.00  0.00    -0.225 OA
BRANCH  21  24
ATOM     24  O   UNL     1      -1.681   0.561   3.251  1.00  0.00    -0.445 OA
BRANCH  24  25
ATOM     25  C   UNL     1      -1.655  -0.556   4.138  1.00  0.00     0.270 C 
BRANCH  25  26
ATOM     26  C   UNL     1      -2.906  -0.643   4.987  1.00  0.00    -0.011 A 
ATOM     27  C   UNL     1      -4.133  -0.074   4.602  1.00  0.00     0.007 A 
ATOM     28  C   UNL     1      -2.862  -1.365   6.185  1.00  0.00     0.007 A 
ATOM     29  C   UNL     1      -5.276  -0.213   5.384  1.00  0.00     0.000 A 
ATOM     30  C   UNL     1      -4.008  -1.508   6.970  1.00  0.00     0.000 A 
ATOM     31  C   UNL     1      -5.214  -0.934   6.569  1.00  0.00     0.000 A 
ENDBRANCH  25  26
ENDBRANCH  24  25
ENDBRANCH  21  24
ENDBRANCH  19  20
BRANCH  19  32
ATOM     32  C   UNL     1      -1.452   3.366   2.992  1.00  0.00     0.015 C 
ATOM     33  C   UNL     1      -0.846   4.782   2.850  1.00  0.00     0.010 C 
ATOM     34  C   UNL     1      -2.461   3.425   4.137  1.00  0.00     0.010 C 
ENDBRANCH  19  32
ENDBRANCH  16  19
ENDBRANCH  14  15
ENDBRANCH  11  14
ENDBRANCH   5  10
ENDBRANCH   1   5
BRANCH   3  35
ATOM     35  C   UNL     1      -2.993  -0.978  -3.813  1.00  0.00     0.168 C 
ATOM     36  C   UNL     1      -3.240  -2.482  -3.805  1.00  0.00     0.041 C 
BRANCH  35  37
ATOM     37  C   UNL     1      -3.555  -0.297  -5.075  1.00  0.00     0.242 C 
ATOM     38  O   UNL     1      -2.793   0.155  -5.933  1.00  0.00    -0.273 OA
ATOM     39  N   UNL     1      -4.895  -0.200  -5.312  1.00  0.00    -0.354 N 
ATOM     40  H   UNL     1      -5.125   0.314  -6.120  1.00  0.00     0.163 HD
BRANCH  39  41
ATOM     41  C   UNL     1      -6.044  -0.717  -4.588  1.00  0.00     0.117 C 
BRANCH  41  42
ATOM     42  C   UNL     1      -6.966   0.385  -4.080  1.00  0.00     0.042 C 
BRANCH  42  43
ATOM     43  C   UNL     1      -7.610   1.219  -5.182  1.00  0.00     0.118 C 
BRANCH  43  44
ATOM     44  N   UNL     1      -8.345   0.403  -6.140  1.00  0.00    -0.352 N 
ATOM     45  C   UNL     1      -9.681   0.370  -6.448  1.00  0.00     0.251 C 
ATOM     46  H   UNL     1      -7.791  -0.230  -6.651  1.00  0.00     0.163 HD
ATOM     47  O   UNL     1     -10.123  -0.565  -7.109  1.00  0.00    -0.269 OA
BRANCH  45  48
ATOM     48  C   UNL     1     -10.590   1.441  -5.991  1.00  0.00     0.039 A 
ATOM     49  C   UNL     1     -11.888   1.100  -5.602  1.00  0.00     0.014 A 
ATOM     50  C   UNL     1     -10.190   2.780  -5.987  1.00  0.00     0.014 A 
ATOM     51  C   UNL     1     -12.760   2.092  -5.153  1.00  0.00     0.010 A 
ATOM     52  C   UNL     1     -11.027   3.755  -5.454  1.00  0.00     0.010 A 
ATOM     53  C   UNL     1     -12.323   3.423  -5.037  1.00  0.00    -0.014 A 
BRANCH  53  54
ATOM     54  C   UNL     1     -13.208   4.465  -4.461  1.00  0.00     0.031 A 
ATOM     55  C   UNL     1     -13.650   5.641  -5.288  1.00  0.00     0.074 A 
ATOM     56  C   UNL     1     -13.580   4.368  -3.170  1.00  0.00     0.049 A 
ATOM     57  N   UNL     1     -14.425   6.641  -4.948  1.00  0.00    -0.248 NA
ATOM     58  C   UNL     1     -13.142   5.718  -6.667  1.00  0.00     0.031 C 
ATOM     59  C   UNL     1     -13.177   3.300  -2.251  1.00  0.00     0.029 A 
ATOM     60  N   UNL     1     -14.384   5.176  -2.407  1.00  0.00    -0.354 N 
ATOM     61  C   UNL     1     -14.488   7.466  -6.064  1.00  0.00     0.074 A 
ATOM     62  C   UNL     1     -13.630   6.881  -7.071  1.00  0.00     0.031 C 
ATOM     63  C   UNL     1     -13.773   3.494  -1.064  1.00  0.00     0.029 A 
ATOM     64  C   UNL     1     -14.557   4.722  -1.121  1.00  0.00     0.049 A 
ATOM     65  H   UNL     1     -14.798   6.002  -2.747  1.00  0.00     0.167 HD
ATOM     66  C   UNL     1     -15.211   8.598  -6.243  1.00  0.00     0.031 A 
ATOM     67  C   UNL     1     -15.266   5.238  -0.101  1.00  0.00     0.031 A 
ATOM     68  C   UNL     1     -16.060   9.180  -5.237  1.00  0.00     0.049 A 
ATOM     69  C   UNL     1     -16.037   6.509  -0.318  1.00  0.00     0.074 A 
ATOM     70  C   UNL     1     -16.875  10.295  -5.336  1.00  0.00     0.029 A 
ATOM     71  N   UNL     1     -16.195   8.700  -3.943  1.00  0.00    -0.354 N 
ATOM     72  N   UNL     1     -16.151   7.232  -1.405  1.00  0.00    -0.248 NA
ATOM     73  C   UNL     1     -16.786   7.028   0.834  1.00  0.00     0.031 C 
ATOM     74  C   UNL     1     -17.450  10.528  -4.083  1.00  0.00     0.029 A 
ATOM     75  C   UNL     1     -17.052   9.517  -3.223  1.00  0.00     0.049 A 
ATOM     76  H   UNL     1     -15.748   7.898  -3.588  1.00  0.00     0.167 HD
ATOM     77  C   UNL     1     -17.005   8.277  -1.077  1.00  0.00     0.074 A 
ATOM     78  C   UNL     1     -17.399   8.076   0.303  1.00  0.00     0.031 C 
ATOM     79  C   UNL     1     -17.424   9.312  -1.846  1.00  0.00     0.031 A 
BRANCH  66  80
ATOM     80  C   UNL     1     -15.104   9.288  -7.576  1.00  0.00    -0.014 A 
ATOM     81  C   UNL     1     -15.624   8.707  -8.745  1.00  0.00     0.009 A 
ATOM     82  C   UNL     1     -14.509  10.557  -7.660  1.00  0.00     0.009 A 
ATOM     83  C   UNL     1     -15.516   9.364  -9.973  1.00  0.00     0.001 A 
ATOM     84  C   UNL     1     -14.432  11.226  -8.883  1.00  0.00     0.001 A 
ATOM     85  C   UNL     1     -14.925  10.625 -10.040  1.00  0.00     0.000 A 
ENDBRANCH  66  80
BRANCH  67  86
ATOM     86  C   UNL     1     -15.290   4.548   1.216  1.00  0.00    -0.014 A 
ATOM     87  C   UNL     1     -16.471   3.954   1.690  1.00  0.00     0.009 A 
ATOM     88  C   UNL     1     -14.136   4.487   2.012  1.00  0.00     0.009 A 
ATOM     89  C   UNL     1     -16.502   3.343   2.946  1.00  0.00     0.001 A 
ATOM     90  C   UNL     1     -14.161   3.846   3.252  1.00  0.00     0.001 A 
ATOM     91  C   UNL     1     -15.346   3.285   3.724  1.00  0.00     0.000 A 
ENDBRANCH  67  86
BRANCH  79  92
ATOM     92  C   UNL     1     -18.379  10.288  -1.216  1.00  0.00    -0.014 A 
ATOM     93  C   UNL     1     -17.969  11.157  -0.192  1.00  0.00     0.009 A 
ATOM     94  C   UNL     1     -19.707  10.351  -1.666  1.00  0.00     0.009 A 
ATOM     95  C   UNL     1     -18.881  12.034   0.399  1.00  0.00     0.001 A 
ATOM     96  C   UNL     1     -20.607  11.254  -1.099  1.00  0.00     0.001 A 
ATOM     97  C   UNL     1     -20.197  12.085  -0.058  1.00  0.00     0.000 A 
ENDBRANCH  79  92
ENDBRANCH  53  54
ENDBRANCH  45  48
ENDBRANCH  43  44
ENDBRANCH  42  43
ENDBRANCH  41  42
ENDBRANCH  39  41
ENDBRANCH  35  37
ENDBRANCH   3  35
TORSDOF 23
