REMARK SMILES CC[C@@]1(CO)CCCN(c2nc(-c3ccc(C)s3)ccc2C(=O)NCCCNC(=O)c2ccc(-c3c4nc(c(-c5ccccc5)c5ccc([nH]5)c(-c5ccccc5)c5nc(c(-c6ccccc6)c6ccc3[nH]6)C=C5)C=C4)cc2)C1
REMARK SMILES IDX 25 1 24 2 22 3 23 4 21 6 10 7 11 8 12 9 20 10 19 11 9 12
REMARK SMILES IDX 3 13 6 14 79 15 7 16 8 17 2 18 1 19 4 20 5 21 13 23 14 24
REMARK SMILES IDX 18 25 15 26 16 27 17 28 26 29 27 30 28 31 29 32 30 34 31 35
REMARK SMILES IDX 32 36 78 37 33 38 77 39 34 40 35 41 36 42 71 43 37 44 76 45
REMARK SMILES IDX 70 46 72 47 38 48 75 49 69 50 68 51 39 53 61 54 46 55 60 56
REMARK SMILES IDX 47 57 50 58 59 59 73 60 48 61 49 62 58 64 74 65 51 66 40 67
REMARK SMILES IDX 41 68 45 69 42 70 44 71 43 72 62 73 63 74 67 75 64 76 66 77
REMARK SMILES IDX 65 78 52 79 53 80 57 81 54 82 56 83 55 84
REMARK H PARENT 24 5 5 22 28 33 72 52 50 63
REMARK Flexibility Score: inf
ROOT
ATOM      1  C   UNL     1      -2.267   8.731   3.440  1.00  0.00     0.118 C 
ENDROOT
BRANCH   1   2
ATOM      2  N   UNL     1      -1.043   8.003   3.168  1.00  0.00    -0.352 N 
ATOM      3  C   UNL     1      -0.687   6.691   2.973  1.00  0.00     0.255 C 
ATOM      4  O   UNL     1       0.517   6.567   2.765  1.00  0.00    -0.269 OA
ATOM      5  H   UNL     1      -0.266   8.604   3.109  1.00  0.00     0.163 HD
BRANCH   3   6
ATOM      6  C   UNL     1      -1.643   5.527   2.947  1.00  0.00     0.082 A 
ATOM      7  C   UNL     1      -1.337   4.291   2.330  1.00  0.00     0.142 A 
ATOM      8  N   UNL     1      -2.319   3.375   2.063  1.00  0.00    -0.229 NA
ATOM      9  C   UNL     1      -3.584   3.619   2.462  1.00  0.00     0.083 A 
ATOM     10  C   UNL     1      -2.939   5.670   3.459  1.00  0.00     0.020 A 
ATOM     11  C   UNL     1      -3.928   4.731   3.198  1.00  0.00     0.031 A 
BRANCH   7  12
ATOM     12  N   UNL     1      -0.095   3.825   1.962  1.00  0.00    -0.355 N 
ATOM     13  C   UNL     1       1.003   2.295   0.320  1.00  0.00     0.011 C 
ATOM     14  C   UNL     1       2.250   2.362   1.243  1.00  0.00     0.013 C 
ATOM     15  C   UNL     1       0.109   3.545   0.546  1.00  0.00     0.127 C 
ATOM     16  C   UNL     1       1.945   2.699   2.703  1.00  0.00     0.022 C 
ATOM     17  C   UNL     1       1.093   3.957   2.797  1.00  0.00     0.118 C 
BRANCH  13  18
ATOM     18  C   UNL     1       1.401   2.295  -1.197  1.00  0.00     0.008 C 
ATOM     19  C   UNL     1       2.755   1.692  -1.547  1.00  0.00     0.004 C 
ENDBRANCH  13  18
BRANCH  13  20
ATOM     20  C   UNL     1       0.181   1.002   0.587  1.00  0.00     0.164 C 
BRANCH  20  21
ATOM     21  O   UNL     1      -0.275   0.863   1.923  1.00  0.00    -0.396 OA
ATOM     22  H   UNL     1       0.487   0.804   2.521  1.00  0.00     0.210 HD
ENDBRANCH  20  21
ENDBRANCH  13  20
ENDBRANCH   7  12
BRANCH   9  23
ATOM     23  C   UNL     1      -4.606   2.665   2.048  1.00  0.00     0.053 A 
ATOM     24  C   UNL     1      -5.687   2.875   1.212  1.00  0.00     0.022 A 
ATOM     25  S   UNL     1      -4.609   1.079   2.687  1.00  0.00    -0.139 S 
ATOM     26  C   UNL     1      -6.541   1.737   1.133  1.00  0.00     0.016 A 
ATOM     27  C   UNL     1      -6.087   0.694   1.912  1.00  0.00     0.002 A 
ATOM     28  C   UNL     1      -6.714  -0.639   2.133  1.00  0.00     0.056 C 
ENDBRANCH   9  23
ENDBRANCH   3   6
ENDBRANCH   1   2
BRANCH   1  29
ATOM     29  C   UNL     1      -2.446   8.956   4.941  1.00  0.00     0.042 C 
BRANCH  29  30
ATOM     30  C   UNL     1      -1.401   9.896   5.542  1.00  0.00     0.118 C 
BRANCH  30  31
ATOM     31  N   UNL     1      -1.533  11.254   5.034  1.00  0.00    -0.352 N 
ATOM     32  C   UNL     1      -1.859  12.414   5.688  1.00  0.00     0.251 C 
ATOM     33  H   UNL     1      -1.362  11.355   4.070  1.00  0.00     0.163 HD
ATOM     34  O   UNL     1      -2.172  13.408   5.040  1.00  0.00    -0.269 OA
BRANCH  32  35
ATOM     35  C   UNL     1      -1.837  12.480   7.165  1.00  0.00     0.039 A 
ATOM     36  C   UNL     1      -2.841  13.197   7.822  1.00  0.00     0.014 A 
ATOM     37  C   UNL     1      -0.801  11.895   7.899  1.00  0.00     0.014 A 
ATOM     38  C   UNL     1      -2.832  13.288   9.216  1.00  0.00     0.010 A 
ATOM     39  C   UNL     1      -0.830  11.928   9.290  1.00  0.00     0.010 A 
ATOM     40  C   UNL     1      -1.839  12.634   9.962  1.00  0.00    -0.014 A 
BRANCH  40  41
ATOM     41  C   UNL     1      -1.835  12.683  11.445  1.00  0.00     0.031 A 
ATOM     42  C   UNL     1      -0.712  13.364  12.178  1.00  0.00     0.074 A 
ATOM     43  C   UNL     1      -2.810  12.059  12.133  1.00  0.00     0.049 A 
ATOM     44  N   UNL     1      -0.501  13.453  13.467  1.00  0.00    -0.248 NA
ATOM     45  C   UNL     1       0.323  14.010  11.353  1.00  0.00     0.031 C 
ATOM     46  C   UNL     1      -3.935  11.333  11.540  1.00  0.00     0.029 A 
ATOM     47  N   UNL     1      -3.006  11.930  13.485  1.00  0.00    -0.354 N 
ATOM     48  C   UNL     1       0.697  14.143  13.606  1.00  0.00     0.074 A 
ATOM     49  C   UNL     1       1.189  14.412  12.272  1.00  0.00     0.031 C 
ATOM     50  C   UNL     1      -4.716  10.856  12.522  1.00  0.00     0.029 A 
ATOM     51  C   UNL     1      -4.128  11.208  13.810  1.00  0.00     0.049 A 
ATOM     52  H   UNL     1      -2.401  12.318  14.157  1.00  0.00     0.167 HD
ATOM     53  C   UNL     1       1.324  14.534  14.742  1.00  0.00     0.031 A 
ATOM     54  C   UNL     1      -4.625  10.862  15.013  1.00  0.00     0.031 A 
ATOM     55  C   UNL     1       0.828  14.279  16.068  1.00  0.00     0.049 A 
ATOM     56  C   UNL     1      -3.909  11.303  16.258  1.00  0.00     0.074 A 
ATOM     57  C   UNL     1       1.361  14.680  17.281  1.00  0.00     0.029 A 
ATOM     58  N   UNL     1      -0.318  13.554  16.354  1.00  0.00    -0.354 N 
ATOM     59  N   UNL     1      -2.809  12.008  16.372  1.00  0.00    -0.248 NA
ATOM     60  C   UNL     1      -4.510  10.910  17.539  1.00  0.00     0.031 C 
ATOM     61  C   UNL     1       0.560  14.160  18.303  1.00  0.00     0.029 A 
ATOM     62  C   UNL     1      -0.499  13.479  17.725  1.00  0.00     0.049 A 
ATOM     63  H   UNL     1      -0.915  13.151  15.683  1.00  0.00     0.167 HD
ATOM     64  C   UNL     1      -2.601  12.165  17.736  1.00  0.00     0.074 A 
ATOM     65  C   UNL     1      -3.697  11.496  18.407  1.00  0.00     0.031 C 
ATOM     66  C   UNL     1      -1.594  12.807  18.375  1.00  0.00     0.031 A 
BRANCH  53  67
ATOM     67  C   UNL     1       2.624  15.275  14.594  1.00  0.00    -0.014 A 
ATOM     68  C   UNL     1       2.660  16.588  14.098  1.00  0.00     0.009 A 
ATOM     69  C   UNL     1       3.825  14.664  14.985  1.00  0.00     0.009 A 
ATOM     70  C   UNL     1       3.877  17.259  13.959  1.00  0.00     0.001 A 
ATOM     71  C   UNL     1       5.038  15.348  14.871  1.00  0.00     0.001 A 
ATOM     72  C   UNL     1       5.064  16.640  14.350  1.00  0.00     0.000 A 
ENDBRANCH  53  67
BRANCH  54  73
ATOM     73  C   UNL     1      -5.879  10.070  15.098  1.00  0.00    -0.014 A 
ATOM     74  C   UNL     1      -7.066  10.669  15.547  1.00  0.00     0.009 A 
ATOM     75  C   UNL     1      -5.897   8.716  14.733  1.00  0.00     0.009 A 
ATOM     76  C   UNL     1      -8.240   9.919  15.652  1.00  0.00     0.001 A 
ATOM     77  C   UNL     1      -7.079   7.976  14.813  1.00  0.00     0.001 A 
ATOM     78  C   UNL     1      -8.247   8.576  15.281  1.00  0.00     0.000 A 
ENDBRANCH  54  73
BRANCH  66  79
ATOM     79  C   UNL     1      -1.651  12.845  19.876  1.00  0.00    -0.014 A 
ATOM     80  C   UNL     1      -1.378  11.703  20.644  1.00  0.00     0.009 A 
ATOM     81  C   UNL     1      -1.948  14.051  20.529  1.00  0.00     0.009 A 
ATOM     82  C   UNL     1      -1.435  11.761  22.038  1.00  0.00     0.001 A 
ATOM     83  C   UNL     1      -1.977  14.113  21.922  1.00  0.00     0.001 A 
ATOM     84  C   UNL     1      -1.730  12.966  22.675  1.00  0.00     0.000 A 
ENDBRANCH  66  79
ENDBRANCH  40  41
ENDBRANCH  32  35
ENDBRANCH  30  31
ENDBRANCH  29  30
ENDBRANCH   1  29
TORSDOF 15
