REMARK SMILES CC(C)SSC(=O)N1CCC[C@@H]1C(=O)NCCCNC(=O)c1ccc(-c2c3nc(c(-c4ccccc4)c4ccc([nH]4)c(-c4ccccc4)c4nc(c(-c5ccccc5)c5ccc2[nH]5)C=C4)C=C3)cc1
REMARK SMILES IDX 16 1 15 2 13 3 14 4 12 6 8 7 9 8 10 9 11 10 6 11 7 12 5 13
REMARK SMILES IDX 4 14 2 15 1 16 3 17 17 18 18 19 19 20 20 21 21 23 22 24
REMARK SMILES IDX 23 25 69 26 24 27 68 28 25 29 26 30 27 31 62 32 28 33 67 34
REMARK SMILES IDX 61 35 63 36 29 37 66 38 60 39 59 40 30 42 52 43 37 44 51 45
REMARK SMILES IDX 38 46 41 47 50 48 64 49 39 50 40 51 49 53 65 54 42 55 31 56
REMARK SMILES IDX 32 57 36 58 33 59 35 60 34 61 53 62 54 63 58 64 55 65 57 66
REMARK SMILES IDX 56 67 43 68 44 69 48 70 45 71 47 72 46 73
REMARK H PARENT 15 5 19 22 63 41 41 52
REMARK Flexibility Score: inf
ROOT
ATOM      1  C   UNL     1      -3.405   4.744  -2.226  1.00  0.00     0.117 C 
ENDROOT
BRANCH   1   2
ATOM      2  N   UNL     1      -4.617   4.795  -1.436  1.00  0.00    -0.354 N 
ATOM      3  C   UNL     1      -5.683   3.950  -1.378  1.00  0.00     0.242 C 
ATOM      4  O   UNL     1      -6.707   4.388  -0.841  1.00  0.00    -0.273 OA
ATOM      5  H   UNL     1      -4.681   5.574  -0.837  1.00  0.00     0.163 HD
BRANCH   3   6
ATOM      6  C   UNL     1      -5.707   2.591  -2.105  1.00  0.00     0.175 C 
ATOM      7  N   UNL     1      -4.453   1.842  -2.131  1.00  0.00    -0.321 N 
ATOM      8  C   UNL     1      -4.160   1.351  -3.467  1.00  0.00     0.121 C 
ATOM      9  C   UNL     1      -4.910   2.294  -4.393  1.00  0.00     0.024 C 
ATOM     10  C   UNL     1      -6.113   2.758  -3.576  1.00  0.00     0.037 C 
BRANCH   7  11
ATOM     11  C   UNL     1      -3.850   1.497  -0.933  1.00  0.00     0.292 C 
ATOM     12  O   UNL     1      -4.339   1.802   0.153  1.00  0.00    -0.261 OA
BRANCH  11  13
ATOM     13  S   UNL     1      -2.311   0.633  -1.052  1.00  0.00     0.005 SA
BRANCH  13  14
ATOM     14  S   UNL     1      -1.625   0.594   0.900  1.00  0.00    -0.081 SA
BRANCH  14  15
ATOM     15  C   UNL     1       0.197   0.867   0.835  1.00  0.00     0.052 C 
ATOM     16  C   UNL     1       0.875  -0.104  -0.128  1.00  0.00     0.020 C 
ATOM     17  C   UNL     1       0.594   2.311   0.549  1.00  0.00     0.020 C 
ENDBRANCH  14  15
ENDBRANCH  13  14
ENDBRANCH  11  13
ENDBRANCH   7  11
ENDBRANCH   3   6
ENDBRANCH   1   2
BRANCH   1  18
ATOM     18  C   UNL     1      -3.442   5.775  -3.346  1.00  0.00     0.042 C 
BRANCH  18  19
ATOM     19  C   UNL     1      -3.271   7.202  -2.840  1.00  0.00     0.118 C 
BRANCH  19  20
ATOM     20  N   UNL     1      -1.957   7.412  -2.244  1.00  0.00    -0.352 N 
ATOM     21  C   UNL     1      -0.910   8.193  -2.665  1.00  0.00     0.251 C 
ATOM     22  H   UNL     1      -1.795   6.917  -1.409  1.00  0.00     0.163 HD
ATOM     23  O   UNL     1       0.204   8.040  -2.174  1.00  0.00    -0.269 OA
BRANCH  21  24
ATOM     24  C   UNL     1      -1.120   9.206  -3.718  1.00  0.00     0.039 A 
ATOM     25  C   UNL     1      -0.158   9.352  -4.720  1.00  0.00     0.014 A 
ATOM     26  C   UNL     1      -2.257  10.018  -3.710  1.00  0.00     0.014 A 
ATOM     27  C   UNL     1      -0.378  10.254  -5.762  1.00  0.00     0.010 A 
ATOM     28  C   UNL     1      -2.513  10.858  -4.787  1.00  0.00     0.010 A 
ATOM     29  C   UNL     1      -1.581  10.976  -5.829  1.00  0.00    -0.014 A 
BRANCH  29  30
ATOM     30  C   UNL     1      -1.907  11.829  -6.996  1.00  0.00     0.031 A 
ATOM     31  C   UNL     1      -2.096  13.309  -6.825  1.00  0.00     0.074 A 
ATOM     32  C   UNL     1      -2.125  11.251  -8.193  1.00  0.00     0.049 A 
ATOM     33  N   UNL     1      -2.492  14.196  -7.702  1.00  0.00    -0.248 NA
ATOM     34  C   UNL     1      -1.824  13.861  -5.489  1.00  0.00     0.031 C 
ATOM     35  C   UNL     1      -2.003   9.819  -8.478  1.00  0.00     0.029 A 
ATOM     36  N   UNL     1      -2.514  11.796  -9.392  1.00  0.00    -0.354 N 
ATOM     37  C   UNL     1      -2.527  15.406  -7.023  1.00  0.00     0.074 A 
ATOM     38  C   UNL     1      -2.161  15.133  -5.650  1.00  0.00     0.031 C 
ATOM     39  C   UNL     1      -2.296   9.602  -9.769  1.00  0.00     0.029 A 
ATOM     40  C   UNL     1      -2.679  10.866 -10.389  1.00  0.00     0.049 A 
ATOM     41  H   UNL     1      -2.659  12.760  -9.524  1.00  0.00     0.167 HD
ATOM     42  C   UNL     1      -2.822  16.638  -7.504  1.00  0.00     0.031 A 
ATOM     43  C   UNL     1      -3.116  11.008 -11.654  1.00  0.00     0.031 A 
ATOM     44  C   UNL     1      -3.198  16.903  -8.867  1.00  0.00     0.049 A 
ATOM     45  C   UNL     1      -3.499  12.375 -12.147  1.00  0.00     0.074 A 
ATOM     46  C   UNL     1      -3.472  18.121  -9.464  1.00  0.00     0.029 A 
ATOM     47  N   UNL     1      -3.365  15.932  -9.843  1.00  0.00    -0.354 N 
ATOM     48  N   UNL     1      -3.458  13.522 -11.513  1.00  0.00    -0.248 NA
ATOM     49  C   UNL     1      -3.989  12.468 -13.530  1.00  0.00     0.031 C 
ATOM     50  C   UNL     1      -3.870  17.881 -10.783  1.00  0.00     0.029 A 
ATOM     51  C   UNL     1      -3.780  16.520 -11.027  1.00  0.00     0.049 A 
ATOM     52  H   UNL     1      -3.212  14.968  -9.714  1.00  0.00     0.167 HD
ATOM     53  C   UNL     1      -3.901  14.474 -12.422  1.00  0.00     0.074 A 
ATOM     54  C   UNL     1      -4.181  13.774 -13.659  1.00  0.00     0.031 C 
ATOM     55  C   UNL     1      -4.064  15.807 -12.246  1.00  0.00     0.031 A 
BRANCH  42  56
ATOM     56  C   UNL     1      -2.765  17.790  -6.539  1.00  0.00    -0.014 A 
ATOM     57  C   UNL     1      -1.544  18.237  -6.009  1.00  0.00     0.009 A 
ATOM     58  C   UNL     1      -3.945  18.461  -6.180  1.00  0.00     0.009 A 
ATOM     59  C   UNL     1      -1.510  19.305  -5.110  1.00  0.00     0.001 A 
ATOM     60  C   UNL     1      -3.904  19.549  -5.306  1.00  0.00     0.001 A 
ATOM     61  C   UNL     1      -2.689  19.963  -4.763  1.00  0.00     0.000 A 
ENDBRANCH  42  56
BRANCH  43  62
ATOM     62  C   UNL     1      -3.237   9.817 -12.537  1.00  0.00    -0.014 A 
ATOM     63  C   UNL     1      -2.384   9.655 -13.639  1.00  0.00     0.009 A 
ATOM     64  C   UNL     1      -4.206   8.834 -12.280  1.00  0.00     0.009 A 
ATOM     65  C   UNL     1      -2.516   8.546 -14.479  1.00  0.00     0.001 A 
ATOM     66  C   UNL     1      -4.314   7.710 -13.102  1.00  0.00     0.001 A 
ATOM     67  C   UNL     1      -3.475   7.572 -14.206  1.00  0.00     0.000 A 
ENDBRANCH  43  62
BRANCH  55  68
ATOM     68  C   UNL     1      -4.559  16.603 -13.421  1.00  0.00    -0.014 A 
ATOM     69  C   UNL     1      -5.893  16.512 -13.848  1.00  0.00     0.009 A 
ATOM     70  C   UNL     1      -3.697  17.501 -14.069  1.00  0.00     0.009 A 
ATOM     71  C   UNL     1      -6.348  17.290 -14.914  1.00  0.00     0.001 A 
ATOM     72  C   UNL     1      -4.162  18.300 -15.115  1.00  0.00     0.001 A 
ATOM     73  C   UNL     1      -5.485  18.189 -15.541  1.00  0.00     0.000 A 
ENDBRANCH  55  68
ENDBRANCH  29  30
ENDBRANCH  21  24
ENDBRANCH  19  20
ENDBRANCH  18  19
ENDBRANCH   1  18
TORSDOF 14
