REMARK SMILES CCC(CC)(NC(=O)N(C)[C@H]1CCC[C@H](C)C1)C(=O)NCCCNC(=O)c1ccc(-c2c3nc(c(-c4ccccc4)c4ccc([nH]4)c(-c4ccccc4)c4nc(c(-c5ccccc5)c5ccc2[nH]5)C=C4)C=C3)cc1
REMARK SMILES IDX 21 1 20 2 18 3 19 4 3 6 2 7 1 8 4 9 5 10 6 11 7 12 8 14 9 15
REMARK SMILES IDX 10 16 11 17 12 18 17 19 13 20 15 21 14 22 16 23 22 24 23 25
REMARK SMILES IDX 24 26 25 27 26 29 27 30 28 31 74 32 29 33 73 34 30 35 31 36
REMARK SMILES IDX 32 37 67 38 33 39 72 40 66 41 68 42 34 43 71 44 65 45 64 46
REMARK SMILES IDX 35 48 57 49 42 50 56 51 43 52 46 53 55 54 69 55 44 56 45 57
REMARK SMILES IDX 54 59 70 60 47 61 36 62 37 63 41 64 38 65 40 66 39 67 58 68
REMARK SMILES IDX 59 69 63 70 60 71 62 72 61 73 48 74 49 75 53 76 50 77 52 78
REMARK SMILES IDX 51 79
REMARK H PARENT 20 5 6 13 24 28 68 47 46 58
REMARK Flexibility Score: inf
ROOT
ATOM      1  C   UNL     1       3.550  -5.415   4.611  1.00  0.00     0.117 C 
ENDROOT
BRANCH   1   2
ATOM      2  N   UNL     1       4.387  -6.573   4.296  1.00  0.00    -0.354 N 
ATOM      3  C   UNL     1       5.749  -6.733   4.173  1.00  0.00     0.245 C 
ATOM      4  O   UNL     1       6.157  -7.897   4.245  1.00  0.00    -0.272 OA
ATOM      5  H   UNL     1       3.875  -7.400   4.143  1.00  0.00     0.163 HD
BRANCH   3   6
ATOM      6  C   UNL     1       6.737  -5.511   4.079  1.00  0.00     0.120 C 
BRANCH   6   7
ATOM      7  C   UNL     1       8.232  -5.742   3.681  1.00  0.00     0.035 C 
ATOM      8  C   UNL     1       8.922  -6.978   4.237  1.00  0.00     0.007 C 
ENDBRANCH   6   7
BRANCH   6   9
ATOM      9  C   UNL     1       6.750  -4.951   5.552  1.00  0.00     0.035 C 
ATOM     10  C   UNL     1       7.510  -3.658   5.821  1.00  0.00     0.007 C 
ENDBRANCH   6   9
BRANCH   6  11
ATOM     11  N   UNL     1       6.142  -4.576   3.091  1.00  0.00    -0.323 N 
ATOM     12  C   UNL     1       5.677  -4.673   1.816  1.00  0.00     0.318 C 
ATOM     13  H   UNL     1       6.066  -3.661   3.445  1.00  0.00     0.166 HD
ATOM     14  O   UNL     1       5.272  -3.608   1.336  1.00  0.00    -0.249 OA
BRANCH  12  15
ATOM     15  N   UNL     1       5.509  -5.868   1.146  1.00  0.00    -0.325 N 
ATOM     16  C   UNL     1       6.325  -7.060   1.286  1.00  0.00     0.149 C 
BRANCH  15  17
ATOM     17  C   UNL     1       4.463  -5.920   0.081  1.00  0.00     0.086 C 
ATOM     18  C   UNL     1       4.963  -5.569  -1.330  1.00  0.00     0.025 C 
ATOM     19  C   UNL     1       3.635  -7.224   0.062  1.00  0.00     0.028 C 
ATOM     20  C   UNL     1       5.574  -6.735  -2.108  1.00  0.00     0.002 C 
ATOM     21  C   UNL     1       4.258  -8.402  -0.698  1.00  0.00    -0.012 C 
ATOM     22  C   UNL     1       4.705  -7.993  -2.101  1.00  0.00     0.003 C 
ATOM     23  C   UNL     1       3.283  -9.581  -0.735  1.00  0.00     0.008 C 
ENDBRANCH  15  17
ENDBRANCH  12  15
ENDBRANCH   6  11
ENDBRANCH   3   6
ENDBRANCH   1   2
BRANCH   1  24
ATOM     24  C   UNL     1       2.592  -4.944   3.522  1.00  0.00     0.042 C 
BRANCH  24  25
ATOM     25  C   UNL     1       1.726  -6.011   2.877  1.00  0.00     0.118 C 
BRANCH  25  26
ATOM     26  N   UNL     1       0.654  -6.511   3.714  1.00  0.00    -0.352 N 
ATOM     27  C   UNL     1      -0.706  -6.535   3.513  1.00  0.00     0.251 C 
ATOM     28  H   UNL     1       0.949  -6.898   4.570  1.00  0.00     0.163 HD
ATOM     29  O   UNL     1      -1.425  -7.039   4.368  1.00  0.00    -0.269 OA
BRANCH  27  30
ATOM     30  C   UNL     1      -1.329  -5.905   2.323  1.00  0.00     0.039 A 
ATOM     31  C   UNL     1      -2.446  -5.092   2.542  1.00  0.00     0.014 A 
ATOM     32  C   UNL     1      -0.873  -6.112   1.017  1.00  0.00     0.014 A 
ATOM     33  C   UNL     1      -3.052  -4.427   1.474  1.00  0.00     0.010 A 
ATOM     34  C   UNL     1      -1.442  -5.398  -0.044  1.00  0.00     0.010 A 
ATOM     35  C   UNL     1      -2.529  -4.538   0.176  1.00  0.00    -0.014 A 
BRANCH  35  36
ATOM     36  C   UNL     1      -3.099  -3.722  -0.928  1.00  0.00     0.031 A 
ATOM     37  C   UNL     1      -3.853  -4.362  -2.059  1.00  0.00     0.074 A 
ATOM     38  C   UNL     1      -2.926  -2.385  -0.916  1.00  0.00     0.049 A 
ATOM     39  N   UNL     1      -4.437  -3.794  -3.086  1.00  0.00    -0.248 NA
ATOM     40  C   UNL     1      -3.959  -5.829  -2.042  1.00  0.00     0.031 C 
ATOM     41  C   UNL     1      -2.195  -1.637   0.109  1.00  0.00     0.029 A 
ATOM     42  N   UNL     1      -3.357  -1.417  -1.789  1.00  0.00    -0.354 N 
ATOM     43  C   UNL     1      -4.978  -4.830  -3.836  1.00  0.00     0.074 A 
ATOM     44  C   UNL     1      -4.617  -6.064  -3.170  1.00  0.00     0.031 C 
ATOM     45  C   UNL     1      -2.253  -0.327  -0.178  1.00  0.00     0.029 A 
ATOM     46  C   UNL     1      -2.990  -0.144  -1.424  1.00  0.00     0.049 A 
ATOM     47  H   UNL     1      -3.879  -1.616  -2.600  1.00  0.00     0.167 HD
ATOM     48  C   UNL     1      -5.719  -4.761  -4.968  1.00  0.00     0.031 A 
ATOM     49  C   UNL     1      -3.214   1.040  -2.025  1.00  0.00     0.031 A 
ATOM     50  C   UNL     1      -6.075  -3.538  -5.640  1.00  0.00     0.049 A 
ATOM     51  C   UNL     1      -4.000   1.083  -3.305  1.00  0.00     0.074 A 
ATOM     52  C   UNL     1      -6.865  -3.371  -6.765  1.00  0.00     0.029 A 
ATOM     53  N   UNL     1      -5.656  -2.274  -5.256  1.00  0.00    -0.354 N 
ATOM     54  N   UNL     1      -4.564   0.099  -3.961  1.00  0.00    -0.248 NA
ATOM     55  C   UNL     1      -4.185   2.405  -3.923  1.00  0.00     0.031 C 
ATOM     56  C   UNL     1      -6.876  -2.012  -7.096  1.00  0.00     0.029 A 
ATOM     57  C   UNL     1      -6.140  -1.326  -6.144  1.00  0.00     0.049 A 
ATOM     58  H   UNL     1      -5.096  -2.078  -4.470  1.00  0.00     0.167 HD
ATOM     59  C   UNL     1      -5.185   0.683  -5.058  1.00  0.00     0.074 A 
ATOM     60  C   UNL     1      -4.948   2.109  -4.966  1.00  0.00     0.031 C 
ATOM     61  C   UNL     1      -5.888   0.089  -6.052  1.00  0.00     0.031 A 
BRANCH  48  62
ATOM     62  C   UNL     1      -6.188  -6.058  -5.568  1.00  0.00    -0.014 A 
ATOM     63  C   UNL     1      -7.196  -6.819  -4.956  1.00  0.00     0.009 A 
ATOM     64  C   UNL     1      -5.648  -6.500  -6.786  1.00  0.00     0.009 A 
ATOM     65  C   UNL     1      -7.630  -8.014  -5.535  1.00  0.00     0.001 A 
ATOM     66  C   UNL     1      -6.102  -7.681  -7.376  1.00  0.00     0.001 A 
ATOM     67  C   UNL     1      -7.086  -8.441  -6.746  1.00  0.00     0.000 A 
ENDBRANCH  48  62
BRANCH  49  68
ATOM     68  C   UNL     1      -2.683   2.291  -1.424  1.00  0.00    -0.014 A 
ATOM     69  C   UNL     1      -3.550   3.234  -0.852  1.00  0.00     0.009 A 
ATOM     70  C   UNL     1      -1.303   2.552  -1.428  1.00  0.00     0.009 A 
ATOM     71  C   UNL     1      -3.048   4.423  -0.318  1.00  0.00     0.001 A 
ATOM     72  C   UNL     1      -0.802   3.729  -0.869  1.00  0.00     0.001 A 
ATOM     73  C   UNL     1      -1.676   4.668  -0.323  1.00  0.00     0.000 A 
ENDBRANCH  49  68
BRANCH  61  74
ATOM     74  C   UNL     1      -6.465   0.983  -7.114  1.00  0.00    -0.014 A 
ATOM     75  C   UNL     1      -5.643   1.592  -8.075  1.00  0.00     0.009 A 
ATOM     76  C   UNL     1      -7.851   1.194  -7.172  1.00  0.00     0.009 A 
ATOM     77  C   UNL     1      -6.196   2.421  -9.054  1.00  0.00     0.001 A 
ATOM     78  C   UNL     1      -8.404   2.000  -8.169  1.00  0.00     0.001 A 
ATOM     79  C   UNL     1      -7.575   2.620  -9.103  1.00  0.00     0.000 A 
ENDBRANCH  61  74
ENDBRANCH  35  36
ENDBRANCH  27  30
ENDBRANCH  25  26
ENDBRANCH  24  25
ENDBRANCH   1  24
TORSDOF 15
