REMARK SMILES O=C(CCN1C(=O)S/C(=C\c2ccc(F)cc2)C1=O)Nc1ccc(O)cc1C(=O)NCCCNC(=O)c1ccc(-c2c3nc(c(-c4ccccc4)c4ccc([nH]4)c(-c4ccccc4)c4nc(c(-c5ccccc5)c5ccc2[nH]5)C=C4)C=C3)cc1
REMARK SMILES IDX 28 1 29 2 30 3 27 5 21 6 22 7 23 8 26 9 24 10 20 11 1 12
REMARK SMILES IDX 2 13 3 15 4 16 5 17 6 18 18 19 7 20 8 21 9 22 19 23 10 24
REMARK SMILES IDX 11 25 12 26 17 27 13 28 16 29 14 30 15 31 25 32 31 34 32 35
REMARK SMILES IDX 33 36 34 37 35 38 36 40 37 41 38 42 84 43 39 44 83 45 40 46
REMARK SMILES IDX 41 47 42 48 77 49 43 50 82 51 76 52 78 53 44 54 81 55 75 56
REMARK SMILES IDX 74 57 45 59 67 60 52 61 66 62 53 63 56 64 65 65 79 66 54 67
REMARK SMILES IDX 55 68 64 70 80 71 57 72 46 73 47 74 51 75 48 76 50 77 49 78
REMARK SMILES IDX 68 79 69 80 73 81 70 82 72 83 71 84 58 85 59 86 63 87 60 88
REMARK SMILES IDX 62 89 61 90
REMARK H PARENT 30 4 20 14 25 33 34 39 78 58 56 69
REMARK Flexibility Score: inf
ROOT
ATOM      1  C   UNL     1       3.523  -1.291   3.442  1.00  0.00     0.253 C 
ATOM      2  O   UNL     1       4.202  -1.856   4.300  1.00  0.00    -0.269 OA
ATOM      3  N   UNL     1       3.812   0.027   3.168  1.00  0.00    -0.352 N 
ATOM      4  H   UNL     1       4.524   0.430   3.715  1.00  0.00     0.163 HD
ENDROOT
BRANCH   1   5
ATOM      5  C   UNL     1       2.392  -2.045   2.819  1.00  0.00     0.067 A 
ATOM      6  C   UNL     1       2.044  -2.086   1.456  1.00  0.00     0.054 A 
ATOM      7  C   UNL     1       0.960  -2.874   1.029  1.00  0.00     0.031 A 
ATOM      8  C   UNL     1       0.255  -3.668   1.930  1.00  0.00     0.048 A 
ATOM      9  C   UNL     1       1.674  -2.864   3.713  1.00  0.00     0.062 A 
ATOM     10  C   UNL     1       0.636  -3.675   3.263  1.00  0.00     0.116 A 
BRANCH   6  11
ATOM     11  N   UNL     1       2.901  -1.637   0.435  1.00  0.00    -0.325 N 
ATOM     12  O   UNL     1       1.547   0.024  -0.419  1.00  0.00    -0.275 OA
ATOM     13  C   UNL     1       2.555  -0.674  -0.490  1.00  0.00     0.226 C 
ATOM     14  H   UNL     1       3.800  -2.033   0.378  1.00  0.00     0.169 HD
BRANCH  13  15
ATOM     15  C   UNL     1       3.555  -0.513  -1.622  1.00  0.00     0.122 C 
BRANCH  15  16
ATOM     16  C   UNL     1       4.966  -0.111  -1.179  1.00  0.00     0.140 C 
BRANCH  16  17
ATOM     17  N   UNL     1       5.848  -1.089  -0.529  1.00  0.00    -0.268 N 
ATOM     18  C   UNL     1       6.802  -0.691   0.372  1.00  0.00     0.293 C 
ATOM     19  C   UNL     1       5.701  -2.457  -0.574  1.00  0.00     0.268 C 
ATOM     20  O   UNL     1       6.767   0.262   1.140  1.00  0.00    -0.261 OA
ATOM     21  S   UNL     1       7.968  -1.968   0.606  1.00  0.00    -0.022 SA
ATOM     22  C   UNL     1       6.688  -3.079   0.348  1.00  0.00     0.083 C 
ATOM     23  O   UNL     1       4.779  -3.074  -1.086  1.00  0.00    -0.268 OA
ATOM     24  C   UNL     1       6.367  -4.126   1.120  1.00  0.00     0.029 C 
BRANCH  24  25
ATOM     25  C   UNL     1       7.151  -4.471   2.308  1.00  0.00    -0.024 A 
ATOM     26  C   UNL     1       6.956  -3.761   3.505  1.00  0.00     0.011 A 
ATOM     27  C   UNL     1       8.166  -5.425   2.227  1.00  0.00     0.011 A 
ATOM     28  C   UNL     1       7.772  -4.001   4.609  1.00  0.00     0.040 A 
ATOM     29  C   UNL     1       8.981  -5.665   3.334  1.00  0.00     0.040 A 
ATOM     30  C   UNL     1       8.778  -4.952   4.512  1.00  0.00     0.123 A 
ATOM     31  F   UNL     1       9.575  -5.178   5.564  1.00  0.00    -0.207 F 
ENDBRANCH  24  25
ENDBRANCH  16  17
ENDBRANCH  15  16
ENDBRANCH  13  15
ENDBRANCH   6  11
BRANCH  10  32
ATOM     32  O   UNL     1       0.030  -4.495   4.167  1.00  0.00    -0.508 OA
ATOM     33  H   UNL     1      -0.672  -5.054   3.896  1.00  0.00     0.293 HD
ENDBRANCH  10  32
ENDBRANCH   1   5
BRANCH   3  34
ATOM     34  C   UNL     1       3.211   0.895   2.187  1.00  0.00     0.118 C 
BRANCH  34  35
ATOM     35  C   UNL     1       3.329   2.390   2.430  1.00  0.00     0.042 C 
BRANCH  35  36
ATOM     36  C   UNL     1       4.729   3.008   2.419  1.00  0.00     0.118 C 
BRANCH  36  37
ATOM     37  N   UNL     1       5.633   2.533   1.375  1.00  0.00    -0.352 N 
ATOM     38  C   UNL     1       6.259   3.097   0.289  1.00  0.00     0.251 C 
ATOM     39  H   UNL     1       5.847   1.577   1.474  1.00  0.00     0.163 HD
ATOM     40  O   UNL     1       6.904   2.407  -0.500  1.00  0.00    -0.269 OA
BRANCH  38  41
ATOM     41  C   UNL     1       6.125   4.523  -0.013  1.00  0.00     0.039 A 
ATOM     42  C   UNL     1       6.076   4.918  -1.357  1.00  0.00     0.014 A 
ATOM     43  C   UNL     1       6.034   5.460   1.004  1.00  0.00     0.014 A 
ATOM     44  C   UNL     1       5.782   6.238  -1.675  1.00  0.00     0.010 A 
ATOM     45  C   UNL     1       5.611   6.735   0.695  1.00  0.00     0.010 A 
ATOM     46  C   UNL     1       5.463   7.127  -0.645  1.00  0.00    -0.014 A 
BRANCH  46  47
ATOM     47  C   UNL     1       4.941   8.483  -0.896  1.00  0.00     0.031 A 
ATOM     48  C   UNL     1       5.659   9.646  -0.284  1.00  0.00     0.074 A 
ATOM     49  C   UNL     1       3.735   8.620  -1.476  1.00  0.00     0.049 A 
ATOM     50  N   UNL     1       5.224  10.852  -0.046  1.00  0.00    -0.248 NA
ATOM     51  C   UNL     1       7.023   9.382   0.208  1.00  0.00     0.031 C 
ATOM     52  C   UNL     1       2.928   7.536  -2.046  1.00  0.00     0.029 A 
ATOM     53  N   UNL     1       2.958   9.734  -1.644  1.00  0.00    -0.354 N 
ATOM     54  C   UNL     1       6.222  11.460   0.703  1.00  0.00     0.074 A 
ATOM     55  C   UNL     1       7.268  10.482   0.901  1.00  0.00     0.031 C 
ATOM     56  C   UNL     1       1.777   8.043  -2.516  1.00  0.00     0.029 A 
ATOM     57  C   UNL     1       1.743   9.470  -2.228  1.00  0.00     0.049 A 
ATOM     58  H   UNL     1       3.241  10.637  -1.373  1.00  0.00     0.167 HD
ATOM     59  C   UNL     1       6.253  12.726   1.179  1.00  0.00     0.031 A 
ATOM     60  C   UNL     1       0.711  10.292  -2.481  1.00  0.00     0.031 A 
ATOM     61  C   UNL     1       5.228  13.693   0.902  1.00  0.00     0.049 A 
ATOM     62  C   UNL     1       0.830  11.729  -2.067  1.00  0.00     0.074 A 
ATOM     63  C   UNL     1       5.184  15.033   1.241  1.00  0.00     0.029 A 
ATOM     64  N   UNL     1       4.072  13.419   0.184  1.00  0.00    -0.354 N 
ATOM     65  N   UNL     1       1.789  12.310  -1.385  1.00  0.00    -0.248 NA
ATOM     66  C   UNL     1      -0.263  12.624  -2.463  1.00  0.00     0.031 C 
ATOM     67  C   UNL     1       3.996  15.568   0.730  1.00  0.00     0.029 A 
ATOM     68  C   UNL     1       3.316  14.567   0.051  1.00  0.00     0.049 A 
ATOM     69  H   UNL     1       3.828  12.536  -0.177  1.00  0.00     0.167 HD
ATOM     70  C   UNL     1       1.428  13.645  -1.289  1.00  0.00     0.074 A 
ATOM     71  C   UNL     1       0.168  13.787  -1.995  1.00  0.00     0.031 C 
ATOM     72  C   UNL     1       2.074  14.664  -0.672  1.00  0.00     0.031 A 
BRANCH  59  73
ATOM     73  C   UNL     1       7.427  13.108   2.036  1.00  0.00    -0.014 A 
ATOM     74  C   UNL     1       8.723  13.203   1.503  1.00  0.00     0.009 A 
ATOM     75  C   UNL     1       7.240  13.351   3.406  1.00  0.00     0.009 A 
ATOM     76  C   UNL     1       9.814  13.473   2.332  1.00  0.00     0.001 A 
ATOM     77  C   UNL     1       8.329  13.655   4.227  1.00  0.00     0.001 A 
ATOM     78  C   UNL     1       9.616  13.700   3.692  1.00  0.00     0.000 A 
ENDBRANCH  59  73
BRANCH  60  79
ATOM     79  C   UNL     1      -0.484   9.783  -3.198  1.00  0.00    -0.014 A 
ATOM     80  C   UNL     1      -0.668  10.091  -4.555  1.00  0.00     0.009 A 
ATOM     81  C   UNL     1      -1.418   8.954  -2.558  1.00  0.00     0.009 A 
ATOM     82  C   UNL     1      -1.773   9.598  -5.251  1.00  0.00     0.001 A 
ATOM     83  C   UNL     1      -2.511   8.444  -3.263  1.00  0.00     0.001 A 
ATOM     84  C   UNL     1      -2.691   8.771  -4.607  1.00  0.00     0.000 A 
ENDBRANCH  60  79
BRANCH  72  85
ATOM     85  C   UNL     1       1.446  16.020  -0.778  1.00  0.00    -0.014 A 
ATOM     86  C   UNL     1       0.340  16.367   0.011  1.00  0.00     0.009 A 
ATOM     87  C   UNL     1       2.002  16.973  -1.644  1.00  0.00     0.009 A 
ATOM     88  C   UNL     1      -0.214  17.643  -0.085  1.00  0.00     0.001 A 
ATOM     89  C   UNL     1       1.459  18.254  -1.722  1.00  0.00     0.001 A 
ATOM     90  C   UNL     1       0.348  18.586  -0.947  1.00  0.00     0.000 A 
ENDBRANCH  72  85
ENDBRANCH  46  47
ENDBRANCH  38  41
ENDBRANCH  36  37
ENDBRANCH  35  36
ENDBRANCH  34  35
ENDBRANCH   3  34
TORSDOF 16
