REMARK SMILES CC1=C2C(=O)N(C[C@H]3CCCO3)C(=O)N=C2S[C@@H]1C(=O)NCCCNC(=O)c1ccc(-c2c3nc(c(-c4ccccc4)c4ccc([nH]4)c(-c4ccccc4)c4nc(c(-c5ccccc5)c5ccc2[nH]5)C=C4)C=C3)cc1
REMARK SMILES IDX 23 1 22 2 21 3 19 4 20 5 18 7 1 8 2 9 3 10 4 11 16 12 17 13
REMARK SMILES IDX 5 14 6 15 15 16 13 17 14 18 7 19 8 20 9 21 12 22 10 23 11 24
REMARK SMILES IDX 24 25 25 26 26 27 27 29 28 30 29 31 75 32 30 33 74 34 31 35
REMARK SMILES IDX 32 36 33 37 68 38 34 39 73 40 67 41 69 42 35 43 72 44 66 45
REMARK SMILES IDX 65 46 36 48 58 49 43 50 57 51 44 52 47 53 56 54 70 55 45 56
REMARK SMILES IDX 46 57 55 59 71 60 48 61 37 62 38 63 42 64 39 65 41 66 40 67
REMARK SMILES IDX 59 68 60 69 64 70 61 71 63 72 62 73 49 74 50 75 54 76 51 77
REMARK SMILES IDX 53 78 52 79
REMARK H PARENT 21 6 25 28 69 47 47 58
REMARK Flexibility Score: inf
ROOT
ATOM      1  C   UNL     1      -4.857  -2.286   3.924  1.00  0.00     0.042 C 
ENDROOT
BRANCH   1   2
ATOM      2  C   UNL     1      -3.844  -3.245   3.322  1.00  0.00     0.117 C 
BRANCH   2   3
ATOM      3  N   UNL     1      -4.060  -4.614   3.759  1.00  0.00    -0.355 N 
ATOM      4  C   UNL     1      -4.550  -5.706   3.105  1.00  0.00     0.237 C 
ATOM      5  O   UNL     1      -4.629  -6.755   3.753  1.00  0.00    -0.273 OA
ATOM      6  H   UNL     1      -3.806  -4.784   4.694  1.00  0.00     0.163 HD
BRANCH   4   7
ATOM      7  C   UNL     1      -4.960  -5.682   1.626  1.00  0.00     0.169 C 
ATOM      8  C   UNL     1      -2.556  -5.660   0.698  1.00  0.00     0.042 C 
ATOM      9  C   UNL     1      -3.938  -5.085   0.699  1.00  0.00    -0.035 C 
ATOM     10  C   UNL     1      -4.375  -4.063  -0.050  1.00  0.00     0.073 C 
ATOM     11  C   UNL     1      -3.652  -3.183  -0.960  1.00  0.00     0.264 C 
ATOM     12  C   UNL     1      -5.788  -3.776   0.104  1.00  0.00     0.116 C 
ATOM     13  S   UNL     1      -6.489  -4.706   1.392  1.00  0.00    -0.087 SA
ATOM     14  O   UNL     1      -2.475  -2.904  -0.775  1.00  0.00    -0.268 OA
ATOM     15  N   UNL     1      -4.468  -2.695  -1.950  1.00  0.00    -0.256 N 
ATOM     16  N   UNL     1      -6.449  -2.945  -0.610  1.00  0.00    -0.186 NA
ATOM     17  C   UNL     1      -5.808  -2.368  -1.686  1.00  0.00     0.351 C 
ATOM     18  O   UNL     1      -6.417  -1.583  -2.409  1.00  0.00    -0.246 OA
BRANCH  15  19
ATOM     19  C   UNL     1      -3.961  -2.415  -3.293  1.00  0.00     0.163 C 
BRANCH  19  20
ATOM     20  C   UNL     1      -2.447  -2.407  -3.579  1.00  0.00     0.138 C 
ATOM     21  C   UNL     1      -1.679  -3.705  -3.333  1.00  0.00     0.036 C 
ATOM     22  O   UNL     1      -2.291  -2.126  -4.993  1.00  0.00    -0.376 OA
ATOM     23  C   UNL     1      -1.578  -4.351  -4.685  1.00  0.00     0.031 C 
ATOM     24  C   UNL     1      -1.506  -3.158  -5.601  1.00  0.00     0.160 C 
ENDBRANCH  19  20
ENDBRANCH  15  19
ENDBRANCH   4   7
ENDBRANCH   2   3
ENDBRANCH   1   2
BRANCH   1  25
ATOM     25  C   UNL     1      -4.606  -2.026   5.399  1.00  0.00     0.118 C 
BRANCH  25  26
ATOM     26  N   UNL     1      -3.373  -1.280   5.625  1.00  0.00    -0.352 N 
ATOM     27  C   UNL     1      -3.192  -0.076   6.261  1.00  0.00     0.251 C 
ATOM     28  H   UNL     1      -2.555  -1.698   5.272  1.00  0.00     0.163 HD
ATOM     29  O   UNL     1      -2.113   0.503   6.199  1.00  0.00    -0.269 OA
BRANCH  27  30
ATOM     30  C   UNL     1      -4.317   0.522   7.004  1.00  0.00     0.039 A 
ATOM     31  C   UNL     1      -4.618   1.873   6.821  1.00  0.00     0.014 A 
ATOM     32  C   UNL     1      -5.089  -0.269   7.858  1.00  0.00     0.014 A 
ATOM     33  C   UNL     1      -5.745   2.416   7.439  1.00  0.00     0.010 A 
ATOM     34  C   UNL     1      -6.255   0.250   8.402  1.00  0.00     0.010 A 
ATOM     35  C   UNL     1      -6.592   1.597   8.201  1.00  0.00    -0.014 A 
BRANCH  35  36
ATOM     36  C   UNL     1      -7.835   2.110   8.825  1.00  0.00     0.031 A 
ATOM     37  C   UNL     1      -7.977   2.075  10.321  1.00  0.00     0.074 A 
ATOM     38  C   UNL     1      -8.869   2.491   8.052  1.00  0.00     0.049 A 
ATOM     39  N   UNL     1      -9.037   2.287  11.056  1.00  0.00    -0.248 NA
ATOM     40  C   UNL     1      -6.772   1.713  11.087  1.00  0.00     0.031 C 
ATOM     41  C   UNL     1      -8.868   2.541   6.588  1.00  0.00     0.029 A 
ATOM     42  N   UNL     1     -10.136   2.889   8.397  1.00  0.00    -0.354 N 
ATOM     43  C   UNL     1      -8.638   2.044  12.364  1.00  0.00     0.074 A 
ATOM     44  C   UNL     1      -7.252   1.634  12.319  1.00  0.00     0.031 C 
ATOM     45  C   UNL     1     -10.071   2.959   6.163  1.00  0.00     0.029 A 
ATOM     46  C   UNL     1     -10.941   3.159   7.317  1.00  0.00     0.049 A 
ATOM     47  H   UNL     1     -10.440   2.972   9.330  1.00  0.00     0.167 HD
ATOM     48  C   UNL     1      -9.360   2.162  13.503  1.00  0.00     0.031 A 
ATOM     49  C   UNL     1     -12.239   3.509   7.264  1.00  0.00     0.031 A 
ATOM     50  C   UNL     1     -10.727   2.602  13.548  1.00  0.00     0.049 A 
ATOM     51  C   UNL     1     -13.015   3.649   8.543  1.00  0.00     0.074 A 
ATOM     52  C   UNL     1     -11.529   2.811  14.656  1.00  0.00     0.029 A 
ATOM     53  N   UNL     1     -11.490   2.910  12.433  1.00  0.00    -0.354 N 
ATOM     54  N   UNL     1     -12.616   3.453   9.776  1.00  0.00    -0.248 NA
ATOM     55  C   UNL     1     -14.420   4.065   8.423  1.00  0.00     0.031 C 
ATOM     56  C   UNL     1     -12.791   3.217  14.208  1.00  0.00     0.029 A 
ATOM     57  C   UNL     1     -12.758   3.301  12.825  1.00  0.00     0.049 A 
ATOM     58  H   UNL     1     -11.177   2.858  11.501  1.00  0.00     0.167 HD
ATOM     59  C   UNL     1     -13.707   3.752  10.579  1.00  0.00     0.074 A 
ATOM     60  C   UNL     1     -14.784   4.148   9.695  1.00  0.00     0.031 C 
ATOM     61  C   UNL     1     -13.808   3.708  11.930  1.00  0.00     0.031 A 
BRANCH  48  62
ATOM     62  C   UNL     1      -8.677   1.803  14.792  1.00  0.00    -0.014 A 
ATOM     63  C   UNL     1      -7.670   2.617  15.334  1.00  0.00     0.009 A 
ATOM     64  C   UNL     1      -9.062   0.645  15.485  1.00  0.00     0.009 A 
ATOM     65  C   UNL     1      -7.034   2.257  16.524  1.00  0.00     0.001 A 
ATOM     66  C   UNL     1      -8.444   0.303  16.689  1.00  0.00     0.001 A 
ATOM     67  C   UNL     1      -7.425   1.104  17.202  1.00  0.00     0.000 A 
ENDBRANCH  48  62
BRANCH  49  68
ATOM     68  C   UNL     1     -12.886   3.768   5.952  1.00  0.00    -0.014 A 
ATOM     69  C   UNL     1     -13.200   5.080   5.566  1.00  0.00     0.009 A 
ATOM     70  C   UNL     1     -13.190   2.711   5.080  1.00  0.00     0.009 A 
ATOM     71  C   UNL     1     -13.828   5.327   4.343  1.00  0.00     0.001 A 
ATOM     72  C   UNL     1     -13.794   2.964   3.847  1.00  0.00     0.001 A 
ATOM     73  C   UNL     1     -14.120   4.269   3.483  1.00  0.00     0.000 A 
ENDBRANCH  49  68
BRANCH  61  74
ATOM     74  C   UNL     1     -15.106   4.149  12.538  1.00  0.00    -0.014 A 
ATOM     75  C   UNL     1     -16.243   3.327  12.507  1.00  0.00     0.009 A 
ATOM     76  C   UNL     1     -15.171   5.383  13.205  1.00  0.00     0.009 A 
ATOM     77  C   UNL     1     -17.428   3.745  13.116  1.00  0.00     0.001 A 
ATOM     78  C   UNL     1     -16.350   5.787  13.831  1.00  0.00     0.001 A 
ATOM     79  C   UNL     1     -17.479   4.970  13.781  1.00  0.00     0.000 A 
ENDBRANCH  61  74
ENDBRANCH  35  36
ENDBRANCH  27  30
ENDBRANCH  25  26
ENDBRANCH   1  25
TORSDOF 12
