REMARK SMILES O=C(NCCCNC(=O)c1ccc(-c2c3nc(c(-c4ccccc4)c4ccc([nH]4)c(-c4ccccc4)c4nc(c(-c5ccccc5)c5ccc2[nH]5)C=C4)C=C3)cc1)c1ccc(NC(=O)c2cc(F)cc(Br)c2)cc1
REMARK SMILES IDX 5 1 4 2 3 3 1 4 2 5 58 7 59 8 74 9 60 10 73 11 61 12 62 13
REMARK SMILES IDX 63 14 64 16 65 17 66 18 72 19 67 20 70 21 68 22 69 23 71 24
REMARK SMILES IDX 6 25 7 26 8 27 9 29 10 30 11 31 57 32 12 33 56 34 13 35
REMARK SMILES IDX 14 36 15 37 50 38 16 39 55 40 49 41 51 42 17 43 54 44 48 45
REMARK SMILES IDX 47 46 18 48 40 49 25 50 39 51 26 52 29 53 38 54 52 55 27 56
REMARK SMILES IDX 28 57 37 59 53 60 30 61 19 62 20 63 24 64 21 65 23 66 22 67
REMARK SMILES IDX 41 68 42 69 46 70 43 71 45 72 44 73 31 74 32 75 36 76 33 77
REMARK SMILES IDX 35 78 34 79
REMARK H PARENT 3 6 62 15 7 28 51 47 29 58
REMARK Flexibility Score: inf
ROOT
ATOM      1  C   UNL     1       4.819  -1.805  -1.912  1.00  0.00     0.042 C 
ENDROOT
BRANCH   1   2
ATOM      2  C   UNL     1       4.373  -0.451  -1.397  1.00  0.00     0.118 C 
BRANCH   2   3
ATOM      3  N   UNL     1       2.942  -0.385  -1.111  1.00  0.00    -0.352 N 
ATOM      4  O   UNL     1       1.061  -0.284   0.136  1.00  0.00    -0.269 OA
ATOM      5  C   UNL     1       2.280  -0.149   0.075  1.00  0.00     0.251 C 
ATOM      6  H   UNL     1       2.357  -0.532  -1.889  1.00  0.00     0.163 HD
BRANCH   5   7
ATOM      7  C   UNL     1       3.039   0.250   1.280  1.00  0.00     0.039 A 
ATOM      8  C   UNL     1       4.108   1.125   1.163  1.00  0.00     0.016 A 
ATOM      9  C   UNL     1       2.720  -0.274   2.533  1.00  0.00     0.016 A 
ATOM     10  C   UNL     1       4.975   1.302   2.230  1.00  0.00     0.027 A 
ATOM     11  C   UNL     1       3.527   0.030   3.642  1.00  0.00     0.027 A 
ATOM     12  C   UNL     1       4.679   0.817   3.498  1.00  0.00     0.041 A 
BRANCH  12  13
ATOM     13  N   UNL     1       5.464   1.063   4.644  1.00  0.00    -0.322 N 
ATOM     14  C   UNL     1       6.589   1.832   4.872  1.00  0.00     0.255 C 
ATOM     15  H   UNL     1       5.145   0.589   5.446  1.00  0.00     0.170 HD
ATOM     16  O   UNL     1       7.155   1.791   5.963  1.00  0.00    -0.269 OA
BRANCH  14  17
ATOM     17  C   UNL     1       7.167   2.699   3.832  1.00  0.00     0.044 A 
ATOM     18  C   UNL     1       8.411   2.350   3.300  1.00  0.00     0.053 A 
ATOM     19  C   UNL     1       6.440   3.778   3.309  1.00  0.00     0.029 A 
ATOM     20  C   UNL     1       8.876   3.028   2.180  1.00  0.00     0.125 A 
ATOM     21  C   UNL     1       6.915   4.418   2.162  1.00  0.00     0.021 A 
ATOM     22  F   UNL     1      10.037   2.660   1.625  1.00  0.00    -0.207 F 
ATOM     23  C   UNL     1       8.129   4.042   1.588  1.00  0.00     0.055 A 
ATOM     24  Br  UNL     1       5.838   5.711   1.301  1.00  0.00    -0.051 Br
ENDBRANCH  14  17
ENDBRANCH  12  13
ENDBRANCH   5   7
ENDBRANCH   2   3
ENDBRANCH   1   2
BRANCH   1  25
ATOM     25  C   UNL     1       4.274  -2.143  -3.286  1.00  0.00     0.118 C 
BRANCH  25  26
ATOM     26  N   UNL     1       4.791  -1.267  -4.331  1.00  0.00    -0.352 N 
ATOM     27  C   UNL     1       5.643  -1.527  -5.378  1.00  0.00     0.251 C 
ATOM     28  H   UNL     1       4.479  -0.335  -4.277  1.00  0.00     0.163 HD
ATOM     29  O   UNL     1       6.090  -0.595  -6.041  1.00  0.00    -0.269 OA
BRANCH  27  30
ATOM     30  C   UNL     1       6.049  -2.914  -5.691  1.00  0.00     0.039 A 
ATOM     31  C   UNL     1       7.371  -3.165  -6.071  1.00  0.00     0.014 A 
ATOM     32  C   UNL     1       5.137  -3.967  -5.619  1.00  0.00     0.014 A 
ATOM     33  C   UNL     1       7.793  -4.479  -6.289  1.00  0.00     0.010 A 
ATOM     34  C   UNL     1       5.582  -5.279  -5.727  1.00  0.00     0.010 A 
ATOM     35  C   UNL     1       6.913  -5.550  -6.069  1.00  0.00    -0.014 A 
BRANCH  35  36
ATOM     36  C   UNL     1       7.352  -6.962  -6.196  1.00  0.00     0.031 A 
ATOM     37  C   UNL     1       6.696  -7.866  -7.205  1.00  0.00     0.074 A 
ATOM     38  C   UNL     1       8.272  -7.456  -5.345  1.00  0.00     0.049 A 
ATOM     39  N   UNL     1       6.860  -9.151  -7.391  1.00  0.00    -0.248 NA
ATOM     40  C   UNL     1       5.700  -7.252  -8.099  1.00  0.00     0.031 C 
ATOM     41  C   UNL     1       8.948  -6.699  -4.288  1.00  0.00     0.029 A 
ATOM     42  N   UNL     1       8.790  -8.721  -5.230  1.00  0.00    -0.354 N 
ATOM     43  C   UNL     1       5.967  -9.502  -8.395  1.00  0.00     0.074 A 
ATOM     44  C   UNL     1       5.234  -8.307  -8.749  1.00  0.00     0.031 C 
ATOM     45  C   UNL     1       9.812  -7.508  -3.652  1.00  0.00     0.029 A 
ATOM     46  C   UNL     1       9.720  -8.846  -4.227  1.00  0.00     0.049 A 
ATOM     47  H   UNL     1       8.521  -9.469  -5.811  1.00  0.00     0.167 HD
ATOM     48  C   UNL     1       5.786 -10.707  -8.987  1.00  0.00     0.031 A 
ATOM     49  C   UNL     1      10.418  -9.919  -3.811  1.00  0.00     0.031 A 
ATOM     50  C   UNL     1       6.537 -11.888  -8.662  1.00  0.00     0.049 A 
ATOM     51  C   UNL     1      10.214 -11.239  -4.497  1.00  0.00     0.074 A 
ATOM     52  C   UNL     1       6.477 -13.138  -9.253  1.00  0.00     0.029 A 
ATOM     53  N   UNL     1       7.492 -11.962  -7.661  1.00  0.00    -0.354 N 
ATOM     54  N   UNL     1       9.408 -11.540  -5.485  1.00  0.00    -0.248 NA
ATOM     55  C   UNL     1      11.025 -12.366  -4.013  1.00  0.00     0.031 C 
ATOM     56  C   UNL     1       7.372 -13.980  -8.585  1.00  0.00     0.029 A 
ATOM     57  C   UNL     1       8.018 -13.241  -7.607  1.00  0.00     0.049 A 
ATOM     58  H   UNL     1       7.757 -11.216  -7.075  1.00  0.00     0.167 HD
ATOM     59  C   UNL     1       9.631 -12.883  -5.759  1.00  0.00     0.074 A 
ATOM     60  C   UNL     1      10.657 -13.334  -4.841  1.00  0.00     0.031 C 
ATOM     61  C   UNL     1       9.039 -13.671  -6.688  1.00  0.00     0.031 A 
BRANCH  48  62
ATOM     62  C   UNL     1       4.730 -10.800 -10.051  1.00  0.00    -0.014 A 
ATOM     63  C   UNL     1       4.913 -10.205 -11.309  1.00  0.00     0.009 A 
ATOM     64  C   UNL     1       3.549 -11.515  -9.802  1.00  0.00     0.009 A 
ATOM     65  C   UNL     1       3.917 -10.293 -12.284  1.00  0.00     0.001 A 
ATOM     66  C   UNL     1       2.566 -11.624 -10.788  1.00  0.00     0.001 A 
ATOM     67  C   UNL     1       2.747 -11.006 -12.024  1.00  0.00     0.000 A 
ENDBRANCH  48  62
BRANCH  49  68
ATOM     68  C   UNL     1      11.393  -9.785  -2.699  1.00  0.00    -0.014 A 
ATOM     69  C   UNL     1      12.772  -9.811  -2.962  1.00  0.00     0.009 A 
ATOM     70  C   UNL     1      10.955  -9.631  -1.375  1.00  0.00     0.009 A 
ATOM     71  C   UNL     1      13.692  -9.709  -1.917  1.00  0.00     0.001 A 
ATOM     72  C   UNL     1      11.879  -9.505  -0.336  1.00  0.00     0.001 A 
ATOM     73  C   UNL     1      13.246  -9.552  -0.606  1.00  0.00     0.000 A 
ENDBRANCH  49  68
BRANCH  61  74
ATOM     74  C   UNL     1       9.511 -15.092  -6.779  1.00  0.00    -0.014 A 
ATOM     75  C   UNL     1       9.140 -16.043  -5.817  1.00  0.00     0.009 A 
ATOM     76  C   UNL     1      10.306 -15.492  -7.865  1.00  0.00     0.009 A 
ATOM     77  C   UNL     1       9.581 -17.363  -5.927  1.00  0.00     0.001 A 
ATOM     78  C   UNL     1      10.725 -16.817  -7.984  1.00  0.00     0.001 A 
ATOM     79  C   UNL     1      10.368 -17.750  -7.011  1.00  0.00     0.000 A 
ENDBRANCH  61  74
ENDBRANCH  35  36
ENDBRANCH  27  30
ENDBRANCH  25  26
ENDBRANCH   1  25
TORSDOF 12
