REMARK SMILES CCNC(=O)c1ccc(N2C[C@@H](C)[C@H](C(=O)NCCCNC(=O)c3ccc(-c4c5nc(c(-c6ccccc6)c6ccc([nH]6)c(-c6ccccc6)c6nc(c(-c7ccccc7)c7ccc4[nH]7)C=C6)C=C5)cc3)C2)nn1
REMARK SMILES IDX 18 1 17 2 15 3 16 4 14 6 10 7 11 8 72 9 12 10 13 11 9 12
REMARK SMILES IDX 6 13 7 14 74 15 8 16 73 17 4 18 3 19 5 21 2 22 1 23 19 24
REMARK SMILES IDX 20 25 21 26 22 27 23 29 24 30 25 31 71 32 26 33 70 34 27 35
REMARK SMILES IDX 28 36 29 37 64 38 30 39 69 40 63 41 65 42 31 43 68 44 62 45
REMARK SMILES IDX 61 46 32 48 54 49 39 50 53 51 40 52 43 53 52 54 66 55 41 56
REMARK SMILES IDX 42 57 51 59 67 60 44 61 33 62 34 63 38 64 35 65 37 66 36 67
REMARK SMILES IDX 55 68 56 69 60 70 57 71 59 72 58 73 45 74 46 75 50 76 47 77
REMARK SMILES IDX 49 78 48 79
REMARK H PARENT 17 5 3 20 21 28 65 47 43 58
REMARK Flexibility Score: inf
ROOT
ATOM      1  C   UNL     1      -4.539   1.083   1.456  1.00  0.00     0.117 C 
ENDROOT
BRANCH   1   2
ATOM      2  N   UNL     1      -5.524   0.036   1.515  1.00  0.00    -0.356 N 
ATOM      3  C   UNL     1      -6.596  -0.168   0.696  1.00  0.00     0.225 C 
ATOM      4  O   UNL     1      -7.217  -1.224   0.848  1.00  0.00    -0.275 OA
ATOM      5  H   UNL     1      -5.410  -0.618   2.242  1.00  0.00     0.163 HD
BRANCH   3   6
ATOM      6  C   UNL     1      -7.058   0.848  -0.357  1.00  0.00     0.102 C 
ATOM      7  N   UNL     1      -5.557   2.422  -1.313  1.00  0.00    -0.354 N 
ATOM      8  C   UNL     1      -6.521   3.242  -0.592  1.00  0.00     0.122 C 
ATOM      9  C   UNL     1      -6.061   1.060  -1.502  1.00  0.00     0.132 C 
ATOM     10  C   UNL     1      -7.373   2.241   0.217  1.00  0.00     0.019 C 
ATOM     11  C   UNL     1      -8.865   2.554   0.153  1.00  0.00     0.010 C 
BRANCH   7  12
ATOM     12  C   UNL     1      -4.212   2.649  -1.517  1.00  0.00     0.151 A 
ATOM     13  C   UNL     1      -1.452   2.757  -1.735  1.00  0.00     0.150 A 
ATOM     14  C   UNL     1      -2.078   3.610  -0.849  1.00  0.00     0.040 A 
ATOM     15  N   UNL     1      -2.149   1.891  -2.490  1.00  0.00    -0.143 NA
ATOM     16  C   UNL     1      -3.477   3.567  -0.764  1.00  0.00     0.051 A 
ATOM     17  N   UNL     1      -3.531   1.837  -2.360  1.00  0.00    -0.132 NA
BRANCH  13  18
ATOM     18  C   UNL     1       0.002   2.847  -1.986  1.00  0.00     0.271 C 
ATOM     19  N   UNL     1       0.890   2.076  -1.274  1.00  0.00    -0.351 N 
ATOM     20  H   UNL     1       1.827   2.129  -1.570  1.00  0.00     0.163 HD
ATOM     21  O   UNL     1       0.419   3.648  -2.819  1.00  0.00    -0.267 OA
BRANCH  19  22
ATOM     22  C   UNL     1       0.643   1.197  -0.150  1.00  0.00     0.113 C 
ATOM     23  C   UNL     1       1.048  -0.235  -0.435  1.00  0.00     0.027 C 
ENDBRANCH  19  22
ENDBRANCH  13  18
ENDBRANCH   7  12
ENDBRANCH   3   6
ENDBRANCH   1   2
BRANCH   1  24
ATOM     24  C   UNL     1      -4.427   1.932   2.704  1.00  0.00     0.042 C 
BRANCH  24  25
ATOM     25  C   UNL     1      -3.323   1.469   3.629  1.00  0.00     0.118 C 
BRANCH  25  26
ATOM     26  N   UNL     1      -2.007   1.516   2.995  1.00  0.00    -0.352 N 
ATOM     27  C   UNL     1      -0.886   2.240   3.295  1.00  0.00     0.251 C 
ATOM     28  H   UNL     1      -1.910   0.922   2.216  1.00  0.00     0.163 HD
ATOM     29  O   UNL     1       0.050   2.267   2.498  1.00  0.00    -0.269 OA
BRANCH  27  30
ATOM     30  C   UNL     1      -0.775   3.011   4.538  1.00  0.00     0.039 A 
ATOM     31  C   UNL     1      -0.018   4.187   4.534  1.00  0.00     0.014 A 
ATOM     32  C   UNL     1      -1.391   2.573   5.707  1.00  0.00     0.014 A 
ATOM     33  C   UNL     1       0.049   4.961   5.686  1.00  0.00     0.010 A 
ATOM     34  C   UNL     1      -1.454   3.415   6.799  1.00  0.00     0.010 A 
ATOM     35  C   UNL     1      -0.715   4.604   6.806  1.00  0.00    -0.014 A 
BRANCH  35  36
ATOM     36  C   UNL     1      -0.738   5.438   8.022  1.00  0.00     0.031 A 
ATOM     37  C   UNL     1      -0.274   4.855   9.324  1.00  0.00     0.074 A 
ATOM     38  C   UNL     1      -1.252   6.679   7.951  1.00  0.00     0.049 A 
ATOM     39  N   UNL     1      -0.293   5.385  10.518  1.00  0.00    -0.248 NA
ATOM     40  C   UNL     1       0.239   3.473   9.288  1.00  0.00     0.031 C 
ATOM     41  C   UNL     1      -1.765   7.320   6.737  1.00  0.00     0.029 A 
ATOM     42  N   UNL     1      -1.420   7.626   8.924  1.00  0.00    -0.354 N 
ATOM     43  C   UNL     1       0.176   4.394  11.371  1.00  0.00     0.074 A 
ATOM     44  C   UNL     1       0.392   3.209  10.574  1.00  0.00     0.031 C 
ATOM     45  C   UNL     1      -2.132   8.577   7.027  1.00  0.00     0.029 A 
ATOM     46  C   UNL     1      -1.934   8.807   8.452  1.00  0.00     0.049 A 
ATOM     47  H   UNL     1      -1.194   7.474   9.870  1.00  0.00     0.167 HD
ATOM     48  C   UNL     1       0.432   4.476  12.697  1.00  0.00     0.031 A 
ATOM     49  C   UNL     1      -2.209   9.950   9.104  1.00  0.00     0.031 A 
ATOM     50  C   UNL     1       0.216   5.668  13.469  1.00  0.00     0.049 A 
ATOM     51  C   UNL     1      -1.944  10.010  10.581  1.00  0.00     0.074 A 
ATOM     52  C   UNL     1       0.480   5.892  14.807  1.00  0.00     0.029 A 
ATOM     53  N   UNL     1      -0.322   6.843  12.960  1.00  0.00    -0.354 N 
ATOM     54  N   UNL     1      -1.444   9.087  11.369  1.00  0.00    -0.248 NA
ATOM     55  C   UNL     1      -2.273  11.270  11.255  1.00  0.00     0.031 C 
ATOM     56  C   UNL     1       0.044   7.184  15.121  1.00  0.00     0.029 A 
ATOM     57  C   UNL     1      -0.426   7.788  13.964  1.00  0.00     0.049 A 
ATOM     58  H   UNL     1      -0.590   6.982  12.023  1.00  0.00     0.167 HD
ATOM     59  C   UNL     1      -1.369   9.665  12.628  1.00  0.00     0.074 A 
ATOM     60  C   UNL     1      -1.863  11.023  12.491  1.00  0.00     0.031 C 
ATOM     61  C   UNL     1      -0.930   9.128  13.794  1.00  0.00     0.031 A 
BRANCH  48  62
ATOM     62  C   UNL     1       0.951   3.233  13.370  1.00  0.00    -0.014 A 
ATOM     63  C   UNL     1       2.205   2.689  13.042  1.00  0.00     0.009 A 
ATOM     64  C   UNL     1       0.160   2.575  14.324  1.00  0.00     0.009 A 
ATOM     65  C   UNL     1       2.626   1.481  13.603  1.00  0.00     0.001 A 
ATOM     66  C   UNL     1       0.601   1.388  14.914  1.00  0.00     0.001 A 
ATOM     67  C   UNL     1       1.824   0.833  14.540  1.00  0.00     0.000 A 
ENDBRANCH  48  62
BRANCH  49  68
ATOM     68  C   UNL     1      -2.712  11.130   8.356  1.00  0.00    -0.014 A 
ATOM     69  C   UNL     1      -1.885  12.249   8.172  1.00  0.00     0.009 A 
ATOM     70  C   UNL     1      -3.999  11.139   7.796  1.00  0.00     0.009 A 
ATOM     71  C   UNL     1      -2.344  13.361   7.462  1.00  0.00     0.001 A 
ATOM     72  C   UNL     1      -4.444  12.240   7.061  1.00  0.00     0.001 A 
ATOM     73  C   UNL     1      -3.620  13.353   6.902  1.00  0.00     0.000 A 
ENDBRANCH  49  68
BRANCH  61  74
ATOM     74  C   UNL     1      -0.934  10.026  14.998  1.00  0.00    -0.014 A 
ATOM     75  C   UNL     1      -2.133  10.419  15.614  1.00  0.00     0.009 A 
ATOM     76  C   UNL     1       0.286  10.453  15.545  1.00  0.00     0.009 A 
ATOM     77  C   UNL     1      -2.108  11.253  16.733  1.00  0.00     0.001 A 
ATOM     78  C   UNL     1       0.308  11.256  16.684  1.00  0.00     0.001 A 
ATOM     79  C   UNL     1      -0.889  11.665  17.270  1.00  0.00     0.000 A 
ENDBRANCH  61  74
ENDBRANCH  35  36
ENDBRANCH  27  30
ENDBRANCH  25  26
ENDBRANCH  24  25
ENDBRANCH   1  24
TORSDOF 13
