REMARK SMILES O=C(NCCCNC(=O)c1ccc2c(c1)[C@@H]1C=CC[C@@H]1[C@H](c1ccncc1)N2)c1ccc(-c2c3nc(c(-c4ccccc4)c4ccc([nH]4)c(-c4ccccc4)c4nc(c(-c5ccccc5)c5ccc2[nH]5)C=C4)C=C3)cc1
REMARK SMILES IDX 4 1 3 2 1 3 2 4 29 6 30 7 76 8 31 9 75 10 32 11 33 12 34 13
REMARK SMILES IDX 69 14 35 15 74 16 68 17 70 18 36 19 73 20 67 21 66 22 37 24
REMARK SMILES IDX 59 25 44 26 58 27 45 28 48 29 57 30 71 31 46 32 47 33 56 35
REMARK SMILES IDX 72 36 49 37 38 38 39 39 43 40 40 41 42 42 41 43 60 44 61 45
REMARK SMILES IDX 65 46 62 47 64 48 63 49 50 50 51 51 55 52 52 53 54 54 53 55
REMARK SMILES IDX 5 56 6 57 7 58 8 59 9 61 10 62 11 63 15 64 12 65 14 66 13 67
REMARK SMILES IDX 16 68 28 69 17 70 20 71 21 72 18 74 19 75 22 76 23 77 27 78
REMARK SMILES IDX 24 79 26 80 25 81
REMARK H PARENT 3 5 70 23 48 34 7 60 28 73
REMARK Flexibility Score: inf
ROOT
ATOM      1  C   UNL     1       4.541   0.448  -1.473  1.00  0.00     0.118 C 
ENDROOT
BRANCH   1   2
ATOM      2  N   UNL     1       3.116   0.481  -1.159  1.00  0.00    -0.352 N 
ATOM      3  O   UNL     1       1.202  -0.008  -0.081  1.00  0.00    -0.269 OA
ATOM      4  C   UNL     1       2.431   0.032  -0.057  1.00  0.00     0.251 C 
ATOM      5  H   UNL     1       2.553   0.893  -1.853  1.00  0.00     0.163 HD
BRANCH   4   6
ATOM      6  C   UNL     1       3.155  -0.422   1.149  1.00  0.00     0.039 A 
ATOM      7  C   UNL     1       4.288   0.255   1.599  1.00  0.00     0.014 A 
ATOM      8  C   UNL     1       2.676  -1.524   1.865  1.00  0.00     0.014 A 
ATOM      9  C   UNL     1       5.040  -0.270   2.640  1.00  0.00     0.010 A 
ATOM     10  C   UNL     1       3.372  -1.985   2.988  1.00  0.00     0.010 A 
ATOM     11  C   UNL     1       4.582  -1.382   3.363  1.00  0.00    -0.014 A 
BRANCH  11  12
ATOM     12  C   UNL     1       5.362  -1.837   4.542  1.00  0.00     0.031 A 
ATOM     13  C   UNL     1       6.005  -3.195   4.582  1.00  0.00     0.074 A 
ATOM     14  C   UNL     1       5.543  -0.973   5.561  1.00  0.00     0.049 A 
ATOM     15  N   UNL     1       6.779  -3.708   5.506  1.00  0.00    -0.248 NA
ATOM     16  C   UNL     1       5.746  -4.097   3.449  1.00  0.00     0.031 C 
ATOM     17  C   UNL     1       4.961   0.370   5.642  1.00  0.00     0.029 A 
ATOM     18  N   UNL     1       6.293  -1.077   6.704  1.00  0.00    -0.354 N 
ATOM     19  C   UNL     1       7.091  -4.991   5.074  1.00  0.00     0.074 A 
ATOM     20  C   UNL     1       6.397  -5.192   3.820  1.00  0.00     0.031 C 
ATOM     21  C   UNL     1       5.427   0.987   6.737  1.00  0.00     0.029 A 
ATOM     22  C   UNL     1       6.283   0.064   7.470  1.00  0.00     0.049 A 
ATOM     23  H   UNL     1       6.790  -1.890   6.952  1.00  0.00     0.167 HD
ATOM     24  C   UNL     1       7.891  -5.913   5.662  1.00  0.00     0.031 A 
ATOM     25  C   UNL     1       6.886   0.338   8.640  1.00  0.00     0.031 A 
ATOM     26  C   UNL     1       8.576  -5.715   6.914  1.00  0.00     0.049 A 
ATOM     27  C   UNL     1       7.744  -0.712   9.280  1.00  0.00     0.074 A 
ATOM     28  C   UNL     1       9.410  -6.590   7.589  1.00  0.00     0.029 A 
ATOM     29  N   UNL     1       8.507  -4.561   7.678  1.00  0.00    -0.354 N 
ATOM     30  N   UNL     1       8.042  -1.911   8.843  1.00  0.00    -0.248 NA
ATOM     31  C   UNL     1       8.349  -0.369  10.573  1.00  0.00     0.031 C 
ATOM     32  C   UNL     1       9.811  -5.981   8.783  1.00  0.00     0.029 A 
ATOM     33  C   UNL     1       9.270  -4.706   8.825  1.00  0.00     0.049 A 
ATOM     34  H   UNL     1       7.991  -3.756   7.441  1.00  0.00     0.167 HD
ATOM     35  C   UNL     1       8.879  -2.463   9.803  1.00  0.00     0.074 A 
ATOM     36  C   UNL     1       9.065  -1.454  10.827  1.00  0.00     0.031 C 
ATOM     37  C   UNL     1       9.437  -3.697   9.838  1.00  0.00     0.031 A 
BRANCH  24  38
ATOM     38  C   UNL     1       8.060  -7.234   4.964  1.00  0.00    -0.014 A 
ATOM     39  C   UNL     1       8.830  -7.345   3.796  1.00  0.00     0.009 A 
ATOM     40  C   UNL     1       7.488  -8.394   5.512  1.00  0.00     0.009 A 
ATOM     41  C   UNL     1       9.002  -8.585   3.175  1.00  0.00     0.001 A 
ATOM     42  C   UNL     1       7.682  -9.636   4.904  1.00  0.00     0.001 A 
ATOM     43  C   UNL     1       8.433  -9.729   3.733  1.00  0.00     0.000 A 
ENDBRANCH  24  38
BRANCH  25  44
ATOM     44  C   UNL     1       6.678   1.658   9.289  1.00  0.00    -0.014 A 
ATOM     45  C   UNL     1       7.728   2.582   9.396  1.00  0.00     0.009 A 
ATOM     46  C   UNL     1       5.418   1.999   9.806  1.00  0.00     0.009 A 
ATOM     47  C   UNL     1       7.526   3.809  10.032  1.00  0.00     0.001 A 
ATOM     48  C   UNL     1       5.210   3.239  10.411  1.00  0.00     0.001 A 
ATOM     49  C   UNL     1       6.268   4.138  10.534  1.00  0.00     0.000 A 
ENDBRANCH  25  44
BRANCH  37  50
ATOM     50  C   UNL     1      10.318  -4.006  11.014  1.00  0.00    -0.014 A 
ATOM     51  C   UNL     1       9.777  -4.215  12.292  1.00  0.00     0.009 A 
ATOM     52  C   UNL     1      11.707  -4.097  10.837  1.00  0.00     0.009 A 
ATOM     53  C   UNL     1      10.615  -4.468  13.379  1.00  0.00     0.001 A 
ATOM     54  C   UNL     1      12.540  -4.378  11.921  1.00  0.00     0.001 A 
ATOM     55  C   UNL     1      11.994  -4.552  13.192  1.00  0.00     0.000 A 
ENDBRANCH  37  50
ENDBRANCH  11  12
ENDBRANCH   4   6
ENDBRANCH   1   2
BRANCH   1  56
ATOM     56  C   UNL     1       4.872  -0.509  -2.607  1.00  0.00     0.042 C 
BRANCH  56  57
ATOM     57  C   UNL     1       4.258  -0.108  -3.938  1.00  0.00     0.118 C 
BRANCH  57  58
ATOM     58  N   UNL     1       4.766   1.171  -4.420  1.00  0.00    -0.352 N 
ATOM     59  C   UNL     1       5.735   1.445  -5.355  1.00  0.00     0.251 C 
ATOM     60  H   UNL     1       4.349   1.963  -4.011  1.00  0.00     0.163 HD
ATOM     61  O   UNL     1       6.185   2.583  -5.451  1.00  0.00    -0.269 OA
BRANCH  59  62
ATOM     62  C   UNL     1       6.249   0.375  -6.234  1.00  0.00     0.040 A 
ATOM     63  C   UNL     1       7.621   0.265  -6.449  1.00  0.00     0.016 A 
ATOM     64  C   UNL     1       5.376  -0.519  -6.853  1.00  0.00     0.020 A 
ATOM     65  C   UNL     1       8.112  -0.771  -7.248  1.00  0.00     0.027 A 
ATOM     66  C   UNL     1       5.872  -1.619  -7.565  1.00  0.00    -0.017 A 
ATOM     67  C   UNL     1       7.246  -1.711  -7.828  1.00  0.00     0.038 A 
ATOM     68  C   UNL     1       4.915  -2.701  -8.010  1.00  0.00     0.049 C 
ATOM     69  N   UNL     1       7.774  -2.758  -8.574  1.00  0.00    -0.378 N 
ATOM     70  C   UNL     1       4.171  -3.323  -6.849  1.00  0.00    -0.023 C 
ATOM     71  C   UNL     1       5.612  -3.942  -8.591  1.00  0.00     0.031 C 
ATOM     72  C   UNL     1       6.875  -3.578  -9.376  1.00  0.00     0.114 C 
ATOM     73  H   UNL     1       8.741  -2.943  -8.560  1.00  0.00     0.161 HD
ATOM     74  C   UNL     1       4.667  -4.521  -6.515  1.00  0.00    -0.030 C 
ATOM     75  C   UNL     1       5.808  -4.901  -7.404  1.00  0.00     0.034 C 
BRANCH  72  76
ATOM     76  C   UNL     1       7.566  -4.806  -9.949  1.00  0.00    -0.022 A 
ATOM     77  C   UNL     1       6.909  -5.565 -10.930  1.00  0.00     0.026 A 
ATOM     78  C   UNL     1       8.834  -5.238  -9.542  1.00  0.00     0.026 A 
ATOM     79  C   UNL     1       7.533  -6.688 -11.450  1.00  0.00     0.111 A 
ATOM     80  C   UNL     1       9.383  -6.365 -10.134  1.00  0.00     0.111 A 
ATOM     81  N   UNL     1       8.760  -7.101 -11.078  1.00  0.00    -0.265 NA
ENDBRANCH  72  76
ENDBRANCH  59  62
ENDBRANCH  57  58
ENDBRANCH  56  57
ENDBRANCH   1  56
TORSDOF 11
