REMARK SMILES CCC(CC)(Nc1nc(Cl)nc(OC)n1)C(=O)NCCCNC(=O)c1ccc(-c2c3nc(c(-c4ccccc4)c4ccc([nH]4)c(-c4ccccc4)c4nc(c(-c5ccccc5)c5ccc2[nH]5)C=C4)C=C3)cc1
REMARK SMILES IDX 19 1 18 2 16 3 17 4 3 6 2 7 1 8 4 9 5 10 6 11 7 13 8 14
REMARK SMILES IDX 15 15 9 16 12 17 10 18 11 19 13 20 14 21 20 22 21 23 22 24
REMARK SMILES IDX 23 25 24 27 25 28 26 29 72 30 27 31 71 32 28 33 29 34 30 35
REMARK SMILES IDX 65 36 31 37 70 38 64 39 66 40 32 41 69 42 63 43 62 44 33 46
REMARK SMILES IDX 55 47 40 48 54 49 41 50 44 51 53 52 67 53 42 54 43 55 52 57
REMARK SMILES IDX 68 58 45 59 34 60 35 61 39 62 36 63 38 64 37 65 56 66 57 67
REMARK SMILES IDX 61 68 58 69 60 70 59 71 46 72 47 73 51 74 48 75 50 76 49 77
REMARK H PARENT 18 5 6 12 22 26 66 45 44 56
REMARK Flexibility Score: inf
ROOT
ATOM      1  C   UNL     1       2.437  -0.395  -5.102  1.00  0.00     0.117 C 
ENDROOT
BRANCH   1   2
ATOM      2  N   UNL     1       3.071  -0.295  -3.797  1.00  0.00    -0.354 N 
ATOM      3  C   UNL     1       2.620   0.147  -2.582  1.00  0.00     0.245 C 
ATOM      4  O   UNL     1       3.441   0.106  -1.658  1.00  0.00    -0.272 OA
ATOM      5  H   UNL     1       4.005  -0.606  -3.785  1.00  0.00     0.163 HD
BRANCH   3   6
ATOM      6  C   UNL     1       1.143   0.635  -2.363  1.00  0.00     0.118 C 
BRANCH   6   7
ATOM      7  C   UNL     1       0.948   1.210  -0.921  1.00  0.00     0.035 C 
ATOM      8  C   UNL     1       1.032   0.216   0.237  1.00  0.00     0.007 C 
ENDBRANCH   6   7
BRANCH   6   9
ATOM      9  C   UNL     1       0.211  -0.595  -2.589  1.00  0.00     0.035 C 
ATOM     10  C   UNL     1      -1.288  -0.343  -2.483  1.00  0.00     0.007 C 
ENDBRANCH   6   9
BRANCH   6  11
ATOM     11  N   UNL     1       0.787   1.726  -3.301  1.00  0.00    -0.340 N 
ATOM     12  H   UNL     1      -0.077   1.669  -3.769  1.00  0.00     0.164 HD
BRANCH  11  13
ATOM     13  C   UNL     1       1.591   2.814  -3.560  1.00  0.00     0.231 A 
ATOM     14  N   UNL     1       2.897   2.748  -3.375  1.00  0.00    -0.182 NA
ATOM     15  N   UNL     1       0.983   3.877  -4.069  1.00  0.00    -0.159 NA
ATOM     16  C   UNL     1       3.580   3.806  -3.788  1.00  0.00     0.230 A 
ATOM     17  C   UNL     1       1.790   4.881  -4.413  1.00  0.00     0.322 A 
ATOM     18  Cl  UNL     1       5.282   3.677  -3.707  1.00  0.00    -0.041 Cl
ATOM     19  N   UNL     1       3.107   4.908  -4.332  1.00  0.00    -0.164 NA
BRANCH  17  20
ATOM     20  O   UNL     1       1.211   5.997  -4.965  1.00  0.00    -0.467 OA
ATOM     21  C   UNL     1       0.600   6.756  -3.928  1.00  0.00     0.282 C 
ENDBRANCH  17  20
ENDBRANCH  11  13
ENDBRANCH   6  11
ENDBRANCH   3   6
ENDBRANCH   1   2
BRANCH   1  22
ATOM     22  C   UNL     1       2.897   0.645  -6.114  1.00  0.00     0.042 C 
BRANCH  22  23
ATOM     23  C   UNL     1       4.402   0.777  -6.263  1.00  0.00     0.118 C 
BRANCH  23  24
ATOM     24  N   UNL     1       4.998  -0.346  -6.970  1.00  0.00    -0.352 N 
ATOM     25  C   UNL     1       5.641  -0.371  -8.186  1.00  0.00     0.251 C 
ATOM     26  H   UNL     1       4.931  -1.215  -6.511  1.00  0.00     0.163 HD
ATOM     27  O   UNL     1       5.941  -1.440  -8.702  1.00  0.00    -0.269 OA
BRANCH  25  28
ATOM     28  C   UNL     1       5.939   0.897  -8.889  1.00  0.00     0.039 A 
ATOM     29  C   UNL     1       5.645   0.999 -10.251  1.00  0.00     0.014 A 
ATOM     30  C   UNL     1       6.498   1.983  -8.209  1.00  0.00     0.014 A 
ATOM     31  C   UNL     1       5.842   2.213 -10.915  1.00  0.00     0.010 A 
ATOM     32  C   UNL     1       6.616   3.212  -8.850  1.00  0.00     0.010 A 
ATOM     33  C   UNL     1       6.294   3.340 -10.210  1.00  0.00    -0.014 A 
BRANCH  33  34
ATOM     34  C   UNL     1       6.461   4.658 -10.873  1.00  0.00     0.031 A 
ATOM     35  C   UNL     1       7.830   5.274 -10.976  1.00  0.00     0.074 A 
ATOM     36  C   UNL     1       5.384   5.336 -11.314  1.00  0.00     0.049 A 
ATOM     37  N   UNL     1       8.172   6.458 -11.417  1.00  0.00    -0.248 NA
ATOM     38  C   UNL     1       8.959   4.460 -10.498  1.00  0.00     0.031 C 
ATOM     39  C   UNL     1       3.999   4.864 -11.254  1.00  0.00     0.029 A 
ATOM     40  N   UNL     1       5.287   6.579 -11.889  1.00  0.00    -0.354 N 
ATOM     41  C   UNL     1       9.548   6.539 -11.245  1.00  0.00     0.074 A 
ATOM     42  C   UNL     1       9.972   5.304 -10.624  1.00  0.00     0.031 C 
ATOM     43  C   UNL     1       3.194   5.798 -11.787  1.00  0.00     0.029 A 
ATOM     44  C   UNL     1       3.997   6.951 -12.184  1.00  0.00     0.049 A 
ATOM     45  H   UNL     1       6.067   7.150 -12.073  1.00  0.00     0.167 HD
ATOM     46  C   UNL     1      10.388   7.545 -11.587  1.00  0.00     0.031 A 
ATOM     47  C   UNL     1       3.514   8.096 -12.701  1.00  0.00     0.031 A 
ATOM     48  C   UNL     1       9.973   8.768 -12.219  1.00  0.00     0.049 A 
ATOM     49  C   UNL     1       4.464   9.207 -13.054  1.00  0.00     0.074 A 
ATOM     50  C   UNL     1      10.757   9.825 -12.648  1.00  0.00     0.029 A 
ATOM     51  N   UNL     1       8.659   9.096 -12.512  1.00  0.00    -0.354 N 
ATOM     52  N   UNL     1       5.768   9.247 -12.933  1.00  0.00    -0.248 NA
ATOM     53  C   UNL     1       3.874  10.428 -13.623  1.00  0.00     0.031 C 
ATOM     54  C   UNL     1       9.912  10.813 -13.162  1.00  0.00     0.029 A 
ATOM     55  C   UNL     1       8.608  10.348 -13.101  1.00  0.00     0.049 A 
ATOM     56  H   UNL     1       7.878   8.525 -12.329  1.00  0.00     0.167 HD
ATOM     57  C   UNL     1       6.158  10.479 -13.443  1.00  0.00     0.074 A 
ATOM     58  C   UNL     1       4.954  11.155 -13.879  1.00  0.00     0.031 C 
ATOM     59  C   UNL     1       7.404  11.000 -13.544  1.00  0.00     0.031 A 
BRANCH  46  60
ATOM     60  C   UNL     1      11.846   7.363 -11.274  1.00  0.00    -0.014 A 
ATOM     61  C   UNL     1      12.635   6.446 -11.986  1.00  0.00     0.009 A 
ATOM     62  C   UNL     1      12.447   8.143 -10.274  1.00  0.00     0.009 A 
ATOM     63  C   UNL     1      13.987   6.287 -11.678  1.00  0.00     0.001 A 
ATOM     64  C   UNL     1      13.806   8.003  -9.987  1.00  0.00     0.001 A 
ATOM     65  C   UNL     1      14.572   7.069 -10.682  1.00  0.00     0.000 A 
ENDBRANCH  46  60
BRANCH  47  66
ATOM     66  C   UNL     1       2.053   8.252 -12.929  1.00  0.00    -0.014 A 
ATOM     67  C   UNL     1       1.534   8.262 -14.233  1.00  0.00     0.009 A 
ATOM     68  C   UNL     1       1.172   8.401 -11.847  1.00  0.00     0.009 A 
ATOM     69  C   UNL     1       0.167   8.444 -14.449  1.00  0.00     0.001 A 
ATOM     70  C   UNL     1      -0.199   8.555 -12.065  1.00  0.00     0.001 A 
ATOM     71  C   UNL     1      -0.699   8.586 -13.366  1.00  0.00     0.000 A 
ENDBRANCH  47  66
BRANCH  59  72
ATOM     72  C   UNL     1       7.543  12.343 -14.203  1.00  0.00    -0.014 A 
ATOM     73  C   UNL     1       7.168  13.524 -13.544  1.00  0.00     0.009 A 
ATOM     74  C   UNL     1       8.120  12.428 -15.480  1.00  0.00     0.009 A 
ATOM     75  C   UNL     1       7.348  14.762 -14.163  1.00  0.00     0.001 A 
ATOM     76  C   UNL     1       8.322  13.669 -16.085  1.00  0.00     0.001 A 
ATOM     77  C   UNL     1       7.930  14.834 -15.429  1.00  0.00     0.000 A 
ENDBRANCH  59  72
ENDBRANCH  33  34
ENDBRANCH  25  28
ENDBRANCH  23  24
ENDBRANCH  22  23
ENDBRANCH   1  22
TORSDOF 15
