REMARK SMILES C[C@@H](C(=O)NCCCNC(=O)c1ccc(-c2c3nc(c(-c4ccccc4)c4ccc([nH]4)c(-c4ccccc4)c4nc(c(-c5ccccc5)c5ccc2[nH]5)C=C4)C=C3)cc1)c1ccc(Cc2ccsc2)cc1F
REMARK SMILES IDX 6 1 5 2 3 3 4 4 2 6 1 7 60 8 61 9 71 10 62 11 70 12 72 13
REMARK SMILES IDX 63 14 64 15 65 16 66 17 69 18 67 19 68 20 7 21 8 22 9 23
REMARK SMILES IDX 10 24 11 26 12 27 13 28 59 29 14 30 58 31 15 32 16 33 17 34
REMARK SMILES IDX 52 35 18 36 57 37 51 38 53 39 19 40 56 41 50 42 49 43 20 45
REMARK SMILES IDX 42 46 27 47 41 48 28 49 31 50 40 51 54 52 29 53 30 54 39 56
REMARK SMILES IDX 55 57 32 58 21 59 22 60 26 61 23 62 25 63 24 64 43 65 44 66
REMARK SMILES IDX 48 67 45 68 47 69 46 70 33 71 34 72 38 73 35 74 37 75 36 76
REMARK H PARENT 5 5 9 25 53 44 31 55
REMARK Flexibility Score: inf
ROOT
ATOM      1  C   UNL     1       3.492  -0.765   1.954  1.00  0.00     0.117 C 
ENDROOT
BRANCH   1   2
ATOM      2  N   UNL     1       2.441  -0.169   2.754  1.00  0.00    -0.356 N 
ATOM      3  C   UNL     1       1.119   0.018   2.480  1.00  0.00     0.227 C 
ATOM      4  O   UNL     1       0.484   0.694   3.292  1.00  0.00    -0.274 OA
ATOM      5  H   UNL     1       2.729   0.153   3.638  1.00  0.00     0.163 HD
BRANCH   3   6
ATOM      6  C   UNL     1       0.489  -0.611   1.228  1.00  0.00     0.108 C 
ATOM      7  C   UNL     1       0.938   0.086  -0.062  1.00  0.00     0.023 C 
BRANCH   6   8
ATOM      8  C   UNL     1      -1.032  -0.616   1.308  1.00  0.00    -0.000 A 
ATOM      9  C   UNL     1      -1.766   0.574   1.204  1.00  0.00     0.008 A 
ATOM     10  C   UNL     1      -1.738  -1.806   1.494  1.00  0.00     0.127 A 
ATOM     11  C   UNL     1      -3.160   0.559   1.244  1.00  0.00     0.004 A 
ATOM     12  C   UNL     1      -3.133  -1.826   1.562  1.00  0.00     0.043 A 
ATOM     13  F   UNL     1      -1.075  -2.969   1.586  1.00  0.00    -0.207 F 
ATOM     14  C   UNL     1      -3.867  -0.637   1.433  1.00  0.00    -0.041 A 
BRANCH  14  15
ATOM     15  C   UNL     1      -5.377  -0.649   1.425  1.00  0.00     0.072 C 
BRANCH  15  16
ATOM     16  C   UNL     1      -5.871  -0.133   2.748  1.00  0.00    -0.033 A 
ATOM     17  C   UNL     1      -5.768   1.224   3.219  1.00  0.00     0.015 A 
ATOM     18  C   UNL     1      -6.585  -0.892   3.660  1.00  0.00     0.068 A 
ATOM     19  C   UNL     1      -6.363   1.420   4.444  1.00  0.00     0.065 A 
ATOM     20  S   UNL     1      -7.084  -0.007   5.037  1.00  0.00    -0.152 S 
ENDBRANCH  15  16
ENDBRANCH  14  15
ENDBRANCH   6   8
ENDBRANCH   3   6
ENDBRANCH   1   2
BRANCH   1  21
ATOM     21  C   UNL     1       4.363   0.307   1.303  1.00  0.00     0.042 C 
BRANCH  21  22
ATOM     22  C   UNL     1       5.115   1.179   2.303  1.00  0.00     0.118 C 
BRANCH  22  23
ATOM     23  N   UNL     1       6.115   0.435   3.056  1.00  0.00    -0.352 N 
ATOM     24  C   UNL     1       7.469   0.644   3.148  1.00  0.00     0.251 C 
ATOM     25  H   UNL     1       5.771  -0.329   3.573  1.00  0.00     0.163 HD
ATOM     26  O   UNL     1       8.189  -0.196   3.681  1.00  0.00    -0.269 OA
BRANCH  24  27
ATOM     27  C   UNL     1       8.062   1.875   2.588  1.00  0.00     0.039 A 
ATOM     28  C   UNL     1       9.227   1.784   1.821  1.00  0.00     0.014 A 
ATOM     29  C   UNL     1       7.467   3.116   2.821  1.00  0.00     0.014 A 
ATOM     30  C   UNL     1       9.760   2.933   1.232  1.00  0.00     0.010 A 
ATOM     31  C   UNL     1       7.951   4.244   2.170  1.00  0.00     0.010 A 
ATOM     32  C   UNL     1       9.106   4.166   1.375  1.00  0.00    -0.014 A 
BRANCH  32  33
ATOM     33  C   UNL     1       9.609   5.405   0.732  1.00  0.00     0.031 A 
ATOM     34  C   UNL     1      10.028   6.566   1.590  1.00  0.00     0.074 A 
ATOM     35  C   UNL     1       9.586   5.529  -0.608  1.00  0.00     0.049 A 
ATOM     36  N   UNL     1      10.334   7.788   1.238  1.00  0.00    -0.248 NA
ATOM     37  C   UNL     1      10.075   6.325   3.041  1.00  0.00     0.031 C 
ATOM     38  C   UNL     1       9.181   4.486  -1.552  1.00  0.00     0.029 A 
ATOM     39  N   UNL     1       9.889   6.603  -1.408  1.00  0.00    -0.354 N 
ATOM     40  C   UNL     1      10.575   8.469   2.424  1.00  0.00     0.074 A 
ATOM     41  C   UNL     1      10.332   7.538   3.505  1.00  0.00     0.031 C 
ATOM     42  C   UNL     1       9.268   4.969  -2.801  1.00  0.00     0.029 A 
ATOM     43  C   UNL     1       9.682   6.367  -2.745  1.00  0.00     0.049 A 
ATOM     44  H   UNL     1      10.222   7.460  -1.056  1.00  0.00     0.167 HD
ATOM     45  C   UNL     1      10.975   9.751   2.600  1.00  0.00     0.031 A 
ATOM     46  C   UNL     1       9.789   7.191  -3.805  1.00  0.00     0.031 A 
ATOM     47  C   UNL     1      11.218  10.673   1.523  1.00  0.00     0.049 A 
ATOM     48  C   UNL     1      10.209   8.618  -3.590  1.00  0.00     0.074 A 
ATOM     49  C   UNL     1      11.674  11.977   1.590  1.00  0.00     0.029 A 
ATOM     50  N   UNL     1      11.019  10.385   0.181  1.00  0.00    -0.354 N 
ATOM     51  N   UNL     1      10.482   9.237  -2.466  1.00  0.00    -0.248 NA
ATOM     52  C   UNL     1      10.345   9.458  -4.788  1.00  0.00     0.031 C 
ATOM     53  C   UNL     1      11.694  12.498   0.293  1.00  0.00     0.029 A 
ATOM     54  C   UNL     1      11.320  11.496  -0.589  1.00  0.00     0.049 A 
ATOM     55  H   UNL     1      10.710   9.520  -0.172  1.00  0.00     0.167 HD
ATOM     56  C   UNL     1      10.858  10.526  -2.824  1.00  0.00     0.074 A 
ATOM     57  C   UNL     1      10.778  10.599  -4.269  1.00  0.00     0.031 C 
ATOM     58  C   UNL     1      11.244  11.552  -2.027  1.00  0.00     0.031 A 
BRANCH  45  59
ATOM     59  C   UNL     1      11.144  10.230   4.017  1.00  0.00    -0.014 A 
ATOM     60  C   UNL     1      12.154   9.718   4.849  1.00  0.00     0.009 A 
ATOM     61  C   UNL     1      10.278  11.209   4.529  1.00  0.00     0.009 A 
ATOM     62  C   UNL     1      12.255  10.133   6.178  1.00  0.00     0.001 A 
ATOM     63  C   UNL     1      10.405  11.649   5.847  1.00  0.00     0.001 A 
ATOM     64  C   UNL     1      11.382  11.100   6.676  1.00  0.00     0.000 A 
ENDBRANCH  45  59
BRANCH  46  65
ATOM     65  C   UNL     1       9.499   6.675  -5.168  1.00  0.00    -0.014 A 
ATOM     66  C   UNL     1      10.539   6.468  -6.087  1.00  0.00     0.009 A 
ATOM     67  C   UNL     1       8.184   6.361  -5.550  1.00  0.00     0.009 A 
ATOM     68  C   UNL     1      10.267   5.974  -7.365  1.00  0.00     0.001 A 
ATOM     69  C   UNL     1       7.919   5.839  -6.818  1.00  0.00     0.001 A 
ATOM     70  C   UNL     1       8.959   5.653  -7.727  1.00  0.00     0.000 A 
ENDBRANCH  46  65
BRANCH  58  71
ATOM     71  C   UNL     1      11.669  12.831  -2.692  1.00  0.00    -0.014 A 
ATOM     72  C   UNL     1      10.739  13.697  -3.286  1.00  0.00     0.009 A 
ATOM     73  C   UNL     1      13.021  13.208  -2.653  1.00  0.00     0.009 A 
ATOM     74  C   UNL     1      11.160  14.906  -3.846  1.00  0.00     0.001 A 
ATOM     75  C   UNL     1      13.434  14.430  -3.186  1.00  0.00     0.001 A 
ATOM     76  C   UNL     1      12.504  15.275  -3.788  1.00  0.00     0.000 A 
ENDBRANCH  58  71
ENDBRANCH  32  33
ENDBRANCH  24  27
ENDBRANCH  22  23
ENDBRANCH  21  22
ENDBRANCH   1  21
TORSDOF 13
