REMARK SMILES Cc1nn(C)c(C)c1CN(C)C(=O)[C@@H]1CC=CC[C@@H]1C(=O)NCCCNC(=O)c1ccc(-c2c3nc(c(-c4ccccc4)c4ccc([nH]4)c(-c4ccccc4)c4nc(c(-c5ccccc5)c5ccc2[nH]5)C=C4)C=C3)cc1
REMARK SMILES IDX 23 1 22 2 20 3 21 4 19 6 14 7 15 8 16 9 18 10 17 11 12 12
REMARK SMILES IDX 13 13 10 14 11 15 9 16 8 17 1 18 2 19 3 20 4 21 6 22 5 23
REMARK SMILES IDX 7 24 24 25 25 26 26 27 27 28 28 30 29 31 30 32 76 33 31 34
REMARK SMILES IDX 75 35 32 36 33 37 34 38 69 39 35 40 74 41 68 42 70 43 36 44
REMARK SMILES IDX 73 45 67 46 66 47 37 49 59 50 44 51 58 52 45 53 48 54 57 55
REMARK SMILES IDX 71 56 46 57 47 58 56 60 72 61 49 62 38 63 39 64 43 65 40 66
REMARK SMILES IDX 42 67 41 68 60 69 61 70 65 71 62 72 64 73 63 74 50 75 51 76
REMARK SMILES IDX 55 77 52 78 54 79 53 80
REMARK H PARENT 22 5 26 29 70 48 48 59
REMARK Flexibility Score: inf
ROOT
ATOM      1  C   UNL     1       3.829   1.214   5.276  1.00  0.00     0.117 C 
ENDROOT
BRANCH   1   2
ATOM      2  N   UNL     1       3.117   2.287   5.940  1.00  0.00    -0.356 N 
ATOM      3  C   UNL     1       1.910   2.854   5.667  1.00  0.00     0.224 C 
ATOM      4  O   UNL     1       1.513   3.701   6.463  1.00  0.00    -0.275 OA
ATOM      5  H   UNL     1       3.584   2.670   6.718  1.00  0.00     0.163 HD
BRANCH   3   6
ATOM      6  C   UNL     1       1.139   2.418   4.420  1.00  0.00     0.095 C 
ATOM      7  C   UNL     1       0.010   3.399   4.017  1.00  0.00     0.095 C 
ATOM      8  C   UNL     1      -1.119   3.436   5.065  1.00  0.00     0.041 C 
ATOM      9  C   UNL     1      -1.474   2.070   5.589  1.00  0.00    -0.030 C 
ATOM     10  C   UNL     1       0.562   1.003   4.613  1.00  0.00     0.041 C 
ATOM     11  C   UNL     1      -0.733   0.976   5.367  1.00  0.00    -0.030 C 
BRANCH   7  12
ATOM     12  C   UNL     1       0.591   4.788   3.728  1.00  0.00     0.226 C 
ATOM     13  O   UNL     1       0.524   5.694   4.557  1.00  0.00    -0.275 OA
BRANCH  12  14
ATOM     14  N   UNL     1       1.267   4.959   2.518  1.00  0.00    -0.341 N 
ATOM     15  C   UNL     1       1.120   4.077   1.371  1.00  0.00     0.147 C 
BRANCH  14  16
ATOM     16  C   UNL     1       2.123   6.137   2.372  1.00  0.00     0.158 C 
BRANCH  16  17
ATOM     17  C   UNL     1       1.362   7.410   2.186  1.00  0.00     0.015 A 
ATOM     18  C   UNL     1       2.228   8.782   4.266  1.00  0.00     0.069 C 
ATOM     19  C   UNL     1       1.434   8.562   3.029  1.00  0.00     0.065 A 
ATOM     20  N   UNL     1       0.668   9.559   2.575  1.00  0.00    -0.178 NA
ATOM     21  N   UNL     1       0.056   9.044   1.501  1.00  0.00    -0.272 N 
ATOM     22  C   UNL     1       0.490   7.785   1.171  1.00  0.00     0.040 A 
ATOM     23  C   UNL     1      -0.943   9.856   0.847  1.00  0.00     0.174 C 
ATOM     24  C   UNL     1       0.022   7.069  -0.040  1.00  0.00     0.067 C 
ENDBRANCH  16  17
ENDBRANCH  14  16
ENDBRANCH  12  14
ENDBRANCH   7  12
ENDBRANCH   3   6
ENDBRANCH   1   2
BRANCH   1  25
ATOM     25  C   UNL     1       5.269   1.583   4.954  1.00  0.00     0.042 C 
BRANCH  25  26
ATOM     26  C   UNL     1       6.083   2.071   6.148  1.00  0.00     0.118 C 
BRANCH  26  27
ATOM     27  N   UNL     1       6.163   1.099   7.230  1.00  0.00    -0.352 N 
ATOM     28  C   UNL     1       7.234   0.390   7.717  1.00  0.00     0.251 C 
ATOM     29  H   UNL     1       5.309   0.920   7.686  1.00  0.00     0.163 HD
ATOM     30  O   UNL     1       7.053  -0.501   8.542  1.00  0.00    -0.269 OA
BRANCH  28  31
ATOM     31  C   UNL     1       8.599   0.662   7.219  1.00  0.00     0.039 A 
ATOM     32  C   UNL     1       9.421  -0.418   6.888  1.00  0.00     0.014 A 
ATOM     33  C   UNL     1       9.063   1.969   7.060  1.00  0.00     0.014 A 
ATOM     34  C   UNL     1      10.665  -0.185   6.297  1.00  0.00     0.010 A 
ATOM     35  C   UNL     1      10.261   2.199   6.391  1.00  0.00     0.010 A 
ATOM     36  C   UNL     1      11.067   1.124   5.987  1.00  0.00    -0.014 A 
BRANCH  36  37
ATOM     37  C   UNL     1      12.298   1.388   5.201  1.00  0.00     0.031 A 
ATOM     38  C   UNL     1      13.426   2.187   5.792  1.00  0.00     0.074 A 
ATOM     39  C   UNL     1      12.362   0.978   3.918  1.00  0.00     0.049 A 
ATOM     40  N   UNL     1      14.538   2.584   5.226  1.00  0.00    -0.248 NA
ATOM     41  C   UNL     1      13.275   2.617   7.191  1.00  0.00     0.031 C 
ATOM     42  C   UNL     1      11.316   0.236   3.209  1.00  0.00     0.029 A 
ATOM     43  N   UNL     1      13.348   1.139   2.976  1.00  0.00    -0.354 N 
ATOM     44  C   UNL     1      15.208   3.324   6.191  1.00  0.00     0.074 A 
ATOM     45  C   UNL     1      14.360   3.359   7.363  1.00  0.00     0.031 C 
ATOM     46  C   UNL     1      11.727  -0.018   1.957  1.00  0.00     0.029 A 
ATOM     47  C   UNL     1      13.041   0.582   1.758  1.00  0.00     0.049 A 
ATOM     48  H   UNL     1      14.194   1.608   3.157  1.00  0.00     0.167 HD
ATOM     49  C   UNL     1      16.428   3.907   6.117  1.00  0.00     0.031 A 
ATOM     50  C   UNL     1      13.733   0.566   0.603  1.00  0.00     0.031 A 
ATOM     51  C   UNL     1      17.279   3.863   4.957  1.00  0.00     0.049 A 
ATOM     52  C   UNL     1      15.076   1.238   0.541  1.00  0.00     0.074 A 
ATOM     53  C   UNL     1      18.560   4.366   4.809  1.00  0.00     0.029 A 
ATOM     54  N   UNL     1      16.931   3.288   3.745  1.00  0.00    -0.354 N 
ATOM     55  N   UNL     1      15.726   1.870   1.488  1.00  0.00    -0.248 NA
ATOM     56  C   UNL     1      15.780   1.191  -0.748  1.00  0.00     0.031 C 
ATOM     57  C   UNL     1      18.968   4.141   3.490  1.00  0.00     0.029 A 
ATOM     58  C   UNL     1      17.961   3.452   2.834  1.00  0.00     0.049 A 
ATOM     59  H   UNL     1      16.079   2.832   3.559  1.00  0.00     0.167 HD
ATOM     60  C   UNL     1      16.923   2.278   0.915  1.00  0.00     0.074 A 
ATOM     61  C   UNL     1      16.917   1.805  -0.454  1.00  0.00     0.031 C 
ATOM     62  C   UNL     1      17.936   2.984   1.473  1.00  0.00     0.031 A 
BRANCH  49  63
ATOM     63  C   UNL     1      16.916   4.651   7.329  1.00  0.00    -0.014 A 
ATOM     64  C   UNL     1      17.300   3.968   8.494  1.00  0.00     0.009 A 
ATOM     65  C   UNL     1      17.034   6.048   7.290  1.00  0.00     0.009 A 
ATOM     66  C   UNL     1      17.761   4.674   9.607  1.00  0.00     0.001 A 
ATOM     67  C   UNL     1      17.521   6.749   8.395  1.00  0.00     0.001 A 
ATOM     68  C   UNL     1      17.875   6.063   9.555  1.00  0.00     0.000 A 
ENDBRANCH  49  63
BRANCH  50  69
ATOM     69  C   UNL     1      13.171  -0.111  -0.594  1.00  0.00    -0.014 A 
ATOM     70  C   UNL     1      13.733  -1.309  -1.062  1.00  0.00     0.009 A 
ATOM     71  C   UNL     1      12.076   0.438  -1.278  1.00  0.00     0.009 A 
ATOM     72  C   UNL     1      13.226  -1.928  -2.207  1.00  0.00     0.001 A 
ATOM     73  C   UNL     1      11.553  -0.198  -2.406  1.00  0.00     0.001 A 
ATOM     74  C   UNL     1      12.134  -1.375  -2.875  1.00  0.00     0.000 A 
ENDBRANCH  50  69
BRANCH  62  75
ATOM     75  C   UNL     1      19.129   3.271   0.606  1.00  0.00    -0.014 A 
ATOM     76  C   UNL     1      19.065   4.220  -0.425  1.00  0.00     0.009 A 
ATOM     77  C   UNL     1      20.343   2.610   0.850  1.00  0.00     0.009 A 
ATOM     78  C   UNL     1      20.186   4.480  -1.215  1.00  0.00     0.001 A 
ATOM     79  C   UNL     1      21.470   2.892   0.076  1.00  0.00     0.001 A 
ATOM     80  C   UNL     1      21.388   3.820  -0.961  1.00  0.00     0.000 A 
ENDBRANCH  62  75
ENDBRANCH  36  37
ENDBRANCH  28  31
ENDBRANCH  26  27
ENDBRANCH  25  26
ENDBRANCH   1  25
TORSDOF 14
