REMARK SMILES COCCN(CC(=O)NCCCNC(=O)c1ccc(-c2c3nc(c(-c4ccccc4)c4ccc([nH]4)c(-c4ccccc4)c4nc(c(-c5ccccc5)c5ccc2[nH]5)C=C4)C=C3)cc1)C(=O)c1cccc(N)c1
REMARK SMILES IDX 10 1 9 2 7 3 8 4 6 6 5 7 4 8 3 9 2 10 1 11 64 12 65 13 66 14
REMARK SMILES IDX 67 15 72 16 68 17 70 18 69 19 71 20 11 23 12 24 13 25 14 26
REMARK SMILES IDX 15 28 16 29 17 30 63 31 18 32 62 33 19 34 20 35 21 36 56 37
REMARK SMILES IDX 22 38 61 39 55 40 57 41 23 42 60 43 54 44 53 45 24 47 46 48
REMARK SMILES IDX 31 49 45 50 32 51 35 52 44 53 58 54 33 55 34 56 43 58 59 59
REMARK SMILES IDX 36 60 25 61 26 62 30 63 27 64 29 65 28 66 47 67 48 68 52 69
REMARK SMILES IDX 49 70 51 71 50 72 37 73 38 74 42 75 39 76 41 77 40 78
REMARK H PARENT 9 5 71 21 71 22 13 27 57 46 35 57
REMARK Flexibility Score: inf
ROOT
ATOM      1  C   UNL     1      -0.707  -5.155   1.311  1.00  0.00     0.117 C 
ENDROOT
BRANCH   1   2
ATOM      2  N   UNL     1       0.211  -5.474   0.237  1.00  0.00    -0.354 N 
ATOM      3  C   UNL     1       1.366  -4.861  -0.149  1.00  0.00     0.239 C 
ATOM      4  O   UNL     1       2.145  -5.539  -0.827  1.00  0.00    -0.273 OA
ATOM      5  H   UNL     1      -0.040  -6.259  -0.301  1.00  0.00     0.163 HD
BRANCH   3   6
ATOM      6  C   UNL     1       1.774  -3.452   0.327  1.00  0.00     0.219 C 
BRANCH   6   7
ATOM      7  N   UNL     1       0.727  -2.422   0.342  1.00  0.00    -0.327 N 
BRANCH   7   8
ATOM      8  C   UNL     1       0.343  -1.856   1.648  1.00  0.00     0.149 C 
BRANCH   8   9
ATOM      9  C   UNL     1       1.248  -0.715   2.144  1.00  0.00     0.181 C 
BRANCH   9  10
ATOM     10  O   UNL     1       0.871   0.534   1.572  1.00  0.00    -0.383 OA
ATOM     11  C   UNL     1       1.749   0.973   0.549  1.00  0.00     0.194 C 
ENDBRANCH   9  10
ENDBRANCH   8   9
ENDBRANCH   7   8
BRANCH   7  12
ATOM     12  C   UNL     1       0.218  -1.802  -0.809  1.00  0.00     0.254 C 
ATOM     13  O   UNL     1      -0.680  -0.968  -0.785  1.00  0.00    -0.269 OA
BRANCH  12  14
ATOM     14  C   UNL     1       0.821  -2.089  -2.131  1.00  0.00     0.042 A 
ATOM     15  C   UNL     1       1.506  -1.056  -2.778  1.00  0.00     0.014 A 
ATOM     16  C   UNL     1       0.652  -3.321  -2.765  1.00  0.00     0.039 A 
ATOM     17  C   UNL     1       2.070  -1.279  -4.032  1.00  0.00     0.003 A 
ATOM     18  C   UNL     1       1.278  -3.576  -3.988  1.00  0.00     0.032 A 
ATOM     19  C   UNL     1       1.953  -2.534  -4.631  1.00  0.00     0.025 A 
BRANCH  18  20
ATOM     20  N   UNL     1       1.106  -4.799  -4.623  1.00  0.00    -0.399 N 
ATOM     21  H   UNL     1       1.549  -4.972  -5.485  1.00  0.00     0.156 HD
ATOM     22  H   UNL     1       0.540  -5.492  -4.212  1.00  0.00     0.156 HD
ENDBRANCH  18  20
ENDBRANCH  12  14
ENDBRANCH   7  12
ENDBRANCH   6   7
ENDBRANCH   3   6
ENDBRANCH   1   2
BRANCH   1  23
ATOM     23  C   UNL     1      -1.962  -4.404   0.877  1.00  0.00     0.042 C 
BRANCH  23  24
ATOM     24  C   UNL     1      -2.880  -5.169  -0.072  1.00  0.00     0.118 C 
BRANCH  24  25
ATOM     25  N   UNL     1      -3.416  -6.387   0.517  1.00  0.00    -0.352 N 
ATOM     26  C   UNL     1      -4.695  -6.740   0.865  1.00  0.00     0.251 C 
ATOM     27  H   UNL     1      -2.741  -7.080   0.700  1.00  0.00     0.163 HD
ATOM     28  O   UNL     1      -4.867  -7.761   1.529  1.00  0.00    -0.269 OA
BRANCH  26  29
ATOM     29  C   UNL     1      -5.869  -5.924   0.475  1.00  0.00     0.039 A 
ATOM     30  C   UNL     1      -6.924  -5.799   1.388  1.00  0.00     0.014 A 
ATOM     31  C   UNL     1      -5.985  -5.344  -0.790  1.00  0.00     0.014 A 
ATOM     32  C   UNL     1      -8.056  -5.047   1.058  1.00  0.00     0.010 A 
ATOM     33  C   UNL     1      -7.085  -4.540  -1.096  1.00  0.00     0.010 A 
ATOM     34  C   UNL     1      -8.132  -4.382  -0.175  1.00  0.00    -0.014 A 
BRANCH  34  35
ATOM     35  C   UNL     1      -9.284  -3.501  -0.505  1.00  0.00     0.031 A 
ATOM     36  C   UNL     1     -10.217  -3.845  -1.636  1.00  0.00     0.074 A 
ATOM     37  C   UNL     1      -9.453  -2.349   0.174  1.00  0.00     0.049 A 
ATOM     38  N   UNL     1     -11.228  -3.159  -2.108  1.00  0.00    -0.248 NA
ATOM     39  C   UNL     1      -9.972  -5.113  -2.341  1.00  0.00     0.031 C 
ATOM     40  C   UNL     1      -8.599  -1.875   1.266  1.00  0.00     0.029 A 
ATOM     41  N   UNL     1     -10.393  -1.357   0.035  1.00  0.00    -0.354 N 
ATOM     42  C   UNL     1     -11.721  -3.896  -3.178  1.00  0.00     0.074 A 
ATOM     43  C   UNL     1     -10.884  -5.070  -3.303  1.00  0.00     0.031 C 
ATOM     44  C   UNL     1      -9.061  -0.692   1.704  1.00  0.00     0.029 A 
ATOM     45  C   UNL     1     -10.217  -0.305   0.901  1.00  0.00     0.049 A 
ATOM     46  H   UNL     1     -11.124  -1.397  -0.624  1.00  0.00     0.167 HD
ATOM     47  C   UNL     1     -12.780  -3.625  -3.977  1.00  0.00     0.031 A 
ATOM     48  C   UNL     1     -10.897   0.850   1.027  1.00  0.00     0.031 A 
ATOM     49  C   UNL     1     -13.633  -2.474  -3.840  1.00  0.00     0.049 A 
ATOM     50  C   UNL     1     -12.067   1.121   0.124  1.00  0.00     0.074 A 
ATOM     51  C   UNL     1     -14.778  -2.163  -4.553  1.00  0.00     0.029 A 
ATOM     52  N   UNL     1     -13.432  -1.445  -2.935  1.00  0.00    -0.354 N 
ATOM     53  N   UNL     1     -12.571   0.370  -0.824  1.00  0.00    -0.248 NA
ATOM     54  C   UNL     1     -12.769   2.399   0.317  1.00  0.00     0.031 C 
ATOM     55  C   UNL     1     -15.244  -0.921  -4.112  1.00  0.00     0.029 A 
ATOM     56  C   UNL     1     -14.416  -0.483  -3.092  1.00  0.00     0.049 A 
ATOM     57  H   UNL     1     -12.699  -1.404  -2.279  1.00  0.00     0.167 HD
ATOM     58  C   UNL     1     -13.662   1.071  -1.321  1.00  0.00     0.074 A 
ATOM     59  C   UNL     1     -13.758   2.297  -0.559  1.00  0.00     0.031 C 
ATOM     60  C   UNL     1     -14.507   0.728  -2.323  1.00  0.00     0.031 A 
BRANCH  47  61
ATOM     61  C   UNL     1     -13.086  -4.589  -5.089  1.00  0.00    -0.014 A 
ATOM     62  C   UNL     1     -13.668  -5.838  -4.829  1.00  0.00     0.009 A 
ATOM     63  C   UNL     1     -12.864  -4.205  -6.421  1.00  0.00     0.009 A 
ATOM     64  C   UNL     1     -14.005  -6.693  -5.881  1.00  0.00     0.001 A 
ATOM     65  C   UNL     1     -13.223  -5.052  -7.472  1.00  0.00     0.001 A 
ATOM     66  C   UNL     1     -13.788  -6.297  -7.201  1.00  0.00     0.000 A 
ENDBRANCH  47  61
BRANCH  48  67
ATOM     67  C   UNL     1     -10.490   1.853   2.046  1.00  0.00    -0.014 A 
ATOM     68  C   UNL     1     -11.299   2.101   3.165  1.00  0.00     0.009 A 
ATOM     69  C   UNL     1      -9.308   2.594   1.884  1.00  0.00     0.009 A 
ATOM     70  C   UNL     1     -10.952   3.096   4.082  1.00  0.00     0.001 A 
ATOM     71  C   UNL     1      -8.949   3.566   2.819  1.00  0.00     0.001 A 
ATOM     72  C   UNL     1      -9.777   3.825   3.910  1.00  0.00     0.000 A 
ENDBRANCH  48  67
BRANCH  60  73
ATOM     73  C   UNL     1     -15.632   1.675  -2.626  1.00  0.00    -0.014 A 
ATOM     74  C   UNL     1     -15.400   2.894  -3.282  1.00  0.00     0.009 A 
ATOM     75  C   UNL     1     -16.947   1.326  -2.281  1.00  0.00     0.009 A 
ATOM     76  C   UNL     1     -16.461   3.759  -3.558  1.00  0.00     0.001 A 
ATOM     77  C   UNL     1     -18.008   2.180  -2.583  1.00  0.00     0.001 A 
ATOM     78  C   UNL     1     -17.763   3.399  -3.212  1.00  0.00     0.000 A 
ENDBRANCH  60  73
ENDBRANCH  34  35
ENDBRANCH  26  29
ENDBRANCH  24  25
ENDBRANCH  23  24
ENDBRANCH   1  23
TORSDOF 17
