REMARK SMILES O=C(NCCCNC(=O)[C@H](CO)NC(=O)[C@H](Cc1c[nH]c2ccccc12)NC(=O)[C@H](Cc1ccc(O)cc1)NC(=O)c1ccc(F)cc1)c1ccc(-c2c3nc(c(-c4ccccc4)c4ccc([nH]4)c(-c4ccccc4)c4nc(c(-c5ccccc5)c5ccc2[nH]5)C=C4)C=C3)cc1
REMARK SMILES IDX 7 1 8 2 9 3 6 5 5 6 4 7 3 8 1 9 2 10 49 12 50 13 96 14 51 15
REMARK SMILES IDX 95 16 52 17 53 18 54 19 89 20 55 21 94 22 88 23 90 24 56 25
REMARK SMILES IDX 93 26 87 27 86 28 57 30 79 31 64 32 78 33 65 34 68 35 77 36
REMARK SMILES IDX 91 37 66 38 67 39 76 41 92 42 69 43 58 44 59 45 63 46 60 47
REMARK SMILES IDX 62 48 61 49 80 50 81 51 85 52 82 53 84 54 83 55 70 56 71 57
REMARK SMILES IDX 75 58 72 59 74 60 73 61 10 62 13 63 14 64 15 66 16 67 27 68
REMARK SMILES IDX 28 69 29 71 30 72 39 73 40 74 41 76 42 77 43 78 48 79 44 80
REMARK SMILES IDX 47 81 45 82 46 83 31 84 32 85 33 86 38 87 34 88 37 89 35 90
REMARK SMILES IDX 36 91 17 93 18 94 19 95 26 96 20 97 21 98 25 99 22 101
REMARK SMILES IDX 24 102 23 103 11 104 12 105
REMARK H PARENT 7 4 3 11 90 29 68 40 13 65 27 70 39 75 36 92 20 100 12 106
REMARK Flexibility Score: inf
ROOT
ATOM      1  N   UNL     1       1.110   3.996   6.704  1.00  0.00    -0.354 N 
ATOM      2  C   UNL     1       2.173   4.360   7.471  1.00  0.00     0.244 C 
ATOM      3  O   UNL     1       2.869   5.299   7.079  1.00  0.00    -0.273 OA
ATOM      4  H   UNL     1       1.013   4.476   5.851  1.00  0.00     0.163 HD
ENDROOT
BRANCH   1   5
ATOM      5  C   UNL     1       0.098   2.987   6.983  1.00  0.00     0.117 C 
BRANCH   5   6
ATOM      6  C   UNL     1      -1.270   3.510   6.585  1.00  0.00     0.042 C 
BRANCH   6   7
ATOM      7  C   UNL     1      -1.424   3.490   5.072  1.00  0.00     0.118 C 
BRANCH   7   8
ATOM      8  N   UNL     1      -1.933   2.212   4.598  1.00  0.00    -0.352 N 
ATOM      9  O   UNL     1      -3.522   0.663   4.167  1.00  0.00    -0.269 OA
ATOM     10  C   UNL     1      -3.237   1.831   4.358  1.00  0.00     0.251 C 
ATOM     11  H   UNL     1      -1.252   1.523   4.424  1.00  0.00     0.163 HD
BRANCH  10  12
ATOM     12  C   UNL     1      -4.290   2.868   4.374  1.00  0.00     0.039 A 
ATOM     13  C   UNL     1      -4.090   4.071   3.698  1.00  0.00     0.014 A 
ATOM     14  C   UNL     1      -5.464   2.651   5.098  1.00  0.00     0.014 A 
ATOM     15  C   UNL     1      -4.958   5.128   3.912  1.00  0.00     0.010 A 
ATOM     16  C   UNL     1      -6.412   3.673   5.190  1.00  0.00     0.010 A 
ATOM     17  C   UNL     1      -6.151   4.931   4.623  1.00  0.00    -0.014 A 
BRANCH  17  18
ATOM     18  C   UNL     1      -7.152   6.023   4.663  1.00  0.00     0.031 A 
ATOM     19  C   UNL     1      -7.618   6.615   5.961  1.00  0.00     0.074 A 
ATOM     20  C   UNL     1      -7.644   6.473   3.492  1.00  0.00     0.049 A 
ATOM     21  N   UNL     1      -8.532   7.530   6.163  1.00  0.00    -0.248 NA
ATOM     22  C   UNL     1      -6.990   6.110   7.191  1.00  0.00     0.031 C 
ATOM     23  C   UNL     1      -7.264   5.966   2.168  1.00  0.00     0.029 A 
ATOM     24  N   UNL     1      -8.558   7.455   3.218  1.00  0.00    -0.354 N 
ATOM     25  C   UNL     1      -8.618   7.683   7.541  1.00  0.00     0.074 A 
ATOM     26  C   UNL     1      -7.672   6.758   8.127  1.00  0.00     0.031 C 
ATOM     27  C   UNL     1      -7.904   6.668   1.226  1.00  0.00     0.029 A 
ATOM     28  C   UNL     1      -8.812   7.601   1.876  1.00  0.00     0.049 A 
ATOM     29  H   UNL     1      -8.989   8.002   3.913  1.00  0.00     0.167 HD
ATOM     30  C   UNL     1      -9.421   8.516   8.247  1.00  0.00     0.031 A 
ATOM     31  C   UNL     1      -9.712   8.361   1.231  1.00  0.00     0.031 A 
ATOM     32  C   UNL     1     -10.364   9.426   7.646  1.00  0.00     0.049 A 
ATOM     33  C   UNL     1     -10.616   9.242   2.035  1.00  0.00     0.074 A 
ATOM     34  C   UNL     1     -11.197  10.340   8.267  1.00  0.00     0.029 A 
ATOM     35  N   UNL     1     -10.607   9.526   6.283  1.00  0.00    -0.354 N 
ATOM     36  N   UNL     1     -10.664   9.398   3.336  1.00  0.00    -0.248 NA
ATOM     37  C   UNL     1     -11.588  10.046   1.288  1.00  0.00     0.031 C 
ATOM     38  C   UNL     1     -11.990  10.945   7.286  1.00  0.00     0.029 A 
ATOM     39  C   UNL     1     -11.602  10.460   6.046  1.00  0.00     0.049 A 
ATOM     40  H   UNL     1     -10.140   9.009   5.587  1.00  0.00     0.167 HD
ATOM     41  C   UNL     1     -11.663  10.331   3.566  1.00  0.00     0.074 A 
ATOM     42  C   UNL     1     -12.180  10.717   2.267  1.00  0.00     0.031 C 
ATOM     43  C   UNL     1     -12.110  10.822   4.747  1.00  0.00     0.031 A 
BRANCH  30  44
ATOM     44  C   UNL     1      -9.355   8.439   9.750  1.00  0.00    -0.014 A 
ATOM     45  C   UNL     1      -8.226   8.870  10.465  1.00  0.00     0.009 A 
ATOM     46  C   UNL     1     -10.456   7.941  10.466  1.00  0.00     0.009 A 
ATOM     47  C   UNL     1      -8.184   8.761  11.858  1.00  0.00     0.001 A 
ATOM     48  C   UNL     1     -10.425   7.862  11.860  1.00  0.00     0.001 A 
ATOM     49  C   UNL     1      -9.284   8.259  12.554  1.00  0.00     0.000 A 
ENDBRANCH  30  44
BRANCH  31  50
ATOM     50  C   UNL     1      -9.815   8.264  -0.247  1.00  0.00    -0.014 A 
ATOM     51  C   UNL     1      -9.385   9.315  -1.068  1.00  0.00     0.009 A 
ATOM     52  C   UNL     1     -10.280   7.080  -0.845  1.00  0.00     0.009 A 
ATOM     53  C   UNL     1      -9.426   9.184  -2.459  1.00  0.00     0.001 A 
ATOM     54  C   UNL     1     -10.288   6.940  -2.233  1.00  0.00     0.001 A 
ATOM     55  C   UNL     1      -9.867   7.995  -3.039  1.00  0.00     0.000 A 
ENDBRANCH  31  50
BRANCH  43  56
ATOM     56  C   UNL     1     -13.197  11.858   4.684  1.00  0.00    -0.014 A 
ATOM     57  C   UNL     1     -14.515  11.513   4.348  1.00  0.00     0.009 A 
ATOM     58  C   UNL     1     -12.900  13.191   5.009  1.00  0.00     0.009 A 
ATOM     59  C   UNL     1     -15.511  12.491   4.316  1.00  0.00     0.001 A 
ATOM     60  C   UNL     1     -13.904  14.159   5.005  1.00  0.00     0.001 A 
ATOM     61  C   UNL     1     -15.206  13.810   4.651  1.00  0.00     0.000 A 
ENDBRANCH  43  56
ENDBRANCH  17  18
ENDBRANCH  10  12
ENDBRANCH   7   8
ENDBRANCH   6   7
ENDBRANCH   5   6
ENDBRANCH   1   5
BRANCH   2  62
ATOM     62  C   UNL     1       2.402   3.666   8.828  1.00  0.00     0.197 C 
BRANCH  62  63
ATOM     63  N   UNL     1       3.846   3.683   9.092  1.00  0.00    -0.340 N 
ATOM     64  C   UNL     1       4.741   2.975   8.340  1.00  0.00     0.243 C 
ATOM     65  H   UNL     1       4.183   4.227   9.840  1.00  0.00     0.164 HD
ATOM     66  O   UNL     1       5.359   3.642   7.509  1.00  0.00    -0.273 OA
BRANCH  64  67
ATOM     67  C   UNL     1       4.978   1.452   8.516  1.00  0.00     0.175 C 
BRANCH  67  68
ATOM     68  N   UNL     1       4.652   1.071   9.892  1.00  0.00    -0.342 N 
ATOM     69  C   UNL     1       5.426   1.220  11.006  1.00  0.00     0.243 C 
ATOM     70  H   UNL     1       3.768   0.658  10.029  1.00  0.00     0.164 HD
ATOM     71  O   UNL     1       4.789   1.410  12.054  1.00  0.00    -0.273 OA
BRANCH  69  72
ATOM     72  C   UNL     1       6.959   0.927  11.110  1.00  0.00     0.176 C 
BRANCH  72  73
ATOM     73  N   UNL     1       7.003  -0.440  11.672  1.00  0.00    -0.340 N 
ATOM     74  C   UNL     1       7.527  -0.923  12.841  1.00  0.00     0.251 C 
ATOM     75  H   UNL     1       6.581  -1.124  11.105  1.00  0.00     0.164 HD
ATOM     76  O   UNL     1       7.503  -2.133  13.055  1.00  0.00    -0.269 OA
BRANCH  74  77
ATOM     77  C   UNL     1       8.185  -0.030  13.819  1.00  0.00     0.040 A 
ATOM     78  C   UNL     1       7.568   1.127  14.307  1.00  0.00     0.017 A 
ATOM     79  C   UNL     1       9.445  -0.410  14.305  1.00  0.00     0.017 A 
ATOM     80  C   UNL     1       8.249   1.950  15.206  1.00  0.00     0.040 A 
ATOM     81  C   UNL     1      10.114   0.405  15.219  1.00  0.00     0.040 A 
ATOM     82  C   UNL     1       9.518   1.586  15.647  1.00  0.00     0.123 A 
ATOM     83  F   UNL     1      10.169   2.380  16.506  1.00  0.00    -0.207 F 
ENDBRANCH  74  77
ENDBRANCH  72  73
BRANCH  72  84
ATOM     84  C   UNL     1       7.970   1.018   9.955  1.00  0.00     0.070 C 
BRANCH  84  85
ATOM     85  C   UNL     1       8.112   2.332   9.213  1.00  0.00    -0.045 A 
ATOM     86  C   UNL     1       8.396   2.283   7.832  1.00  0.00     0.007 A 
ATOM     87  C   UNL     1       7.889   3.578   9.816  1.00  0.00     0.007 A 
ATOM     88  C   UNL     1       8.292   3.427   7.045  1.00  0.00     0.046 A 
ATOM     89  C   UNL     1       7.800   4.729   9.030  1.00  0.00     0.046 A 
ATOM     90  C   UNL     1       7.948   4.627   7.651  1.00  0.00     0.115 A 
BRANCH  90  91
ATOM     91  O   UNL     1       7.523   5.661   6.869  1.00  0.00    -0.508 OA
ATOM     92  H   UNL     1       7.614   5.612   5.938  1.00  0.00     0.293 HD
ENDBRANCH  90  91
ENDBRANCH  84  85
ENDBRANCH  72  84
ENDBRANCH  69  72
ENDBRANCH  67  68
BRANCH  67  93
ATOM     93  C   UNL     1       4.540   0.430   7.438  1.00  0.00     0.072 C 
BRANCH  93  94
ATOM     94  C   UNL     1       3.778   0.881   6.224  1.00  0.00    -0.020 A 
ATOM     95  C   UNL     1       3.797   2.110   5.601  1.00  0.00     0.087 A 
ATOM     96  C   UNL     1       2.999   0.050   5.337  1.00  0.00     0.003 A 
ATOM     97  N   UNL     1       2.795   2.159   4.680  1.00  0.00    -0.361 N 
ATOM     98  C   UNL     1       2.310   0.900   4.468  1.00  0.00     0.046 A 
ATOM     99  C   UNL     1       2.821  -1.339   5.168  1.00  0.00     0.010 A 
ATOM    100  H   UNL     1       2.470   2.975   4.235  1.00  0.00     0.166 HD
ATOM    101  C   UNL     1       1.361   0.464   3.543  1.00  0.00     0.026 A 
ATOM    102  C   UNL     1       1.954  -1.801   4.164  1.00  0.00     0.001 A 
ATOM    103  C   UNL     1       1.207  -0.911   3.394  1.00  0.00     0.002 A 
ENDBRANCH  93  94
ENDBRANCH  67  93
ENDBRANCH  64  67
ENDBRANCH  62  63
BRANCH  62 104
ATOM    104  C   UNL     1       1.652   4.525   9.867  1.00  0.00     0.191 C 
BRANCH 104 105
ATOM    105  O   UNL     1       0.257   4.658   9.598  1.00  0.00    -0.394 OA
ATOM    106  H   UNL     1       0.133   5.106   8.746  1.00  0.00     0.210 HD
ENDBRANCH 104 105
ENDBRANCH  62 104
ENDBRANCH   2  62
TORSDOF 23
