REMARK SMILES C[C@@H](C(=O)NCCCNC(=O)c1ccc(-c2c3nc(c(-c4ccccc4)c4ccc([nH]4)c(-c4ccccc4)c4nc(c(-c5ccccc5)c5ccc2[nH]5)C=C4)C=C3)cc1)c1ccc(O[C@H]2CCCC2=O)cc1F
REMARK SMILES IDX 6 1 5 2 3 3 4 4 2 6 1 7 60 8 61 9 72 10 62 11 71 12 73 13
REMARK SMILES IDX 63 14 64 15 65 16 66 17 69 18 67 19 68 20 70 21 7 22 8 23
REMARK SMILES IDX 9 24 10 25 11 27 12 28 13 29 59 30 14 31 58 32 15 33 16 34
REMARK SMILES IDX 17 35 52 36 18 37 57 38 51 39 53 40 19 41 56 42 50 43 49 44
REMARK SMILES IDX 20 46 42 47 27 48 41 49 28 50 31 51 40 52 54 53 29 54 30 55
REMARK SMILES IDX 39 57 55 58 32 59 21 60 22 61 26 62 23 63 25 64 24 65 43 66
REMARK SMILES IDX 44 67 48 68 45 69 47 70 46 71 33 72 34 73 38 74 35 75 37 76
REMARK SMILES IDX 36 77
REMARK H PARENT 5 5 9 26 53 45 31 56
REMARK Flexibility Score: inf
ROOT
ATOM      1  C   UNL     1       3.337  -2.132  -0.147  1.00  0.00     0.117 C 
ENDROOT
BRANCH   1   2
ATOM      2  N   UNL     1       2.289  -2.469   0.797  1.00  0.00    -0.356 N 
ATOM      3  C   UNL     1       1.015  -1.993   0.911  1.00  0.00     0.227 C 
ATOM      4  O   UNL     1       0.412  -2.268   1.950  1.00  0.00    -0.274 OA
ATOM      5  H   UNL     1       2.537  -3.151   1.462  1.00  0.00     0.163 HD
BRANCH   3   6
ATOM      6  C   UNL     1       0.392  -1.160  -0.224  1.00  0.00     0.108 C 
ATOM      7  C   UNL     1       0.925   0.275  -0.166  1.00  0.00     0.023 C 
BRANCH   6   8
ATOM      8  C   UNL     1      -1.133  -1.252  -0.201  1.00  0.00     0.000 A 
ATOM      9  C   UNL     1      -1.973  -0.149  -0.010  1.00  0.00     0.011 A 
ATOM     10  C   UNL     1      -1.742  -2.505  -0.352  1.00  0.00     0.130 A 
ATOM     11  C   UNL     1      -3.361  -0.315   0.038  1.00  0.00     0.047 A 
ATOM     12  C   UNL     1      -3.126  -2.676  -0.284  1.00  0.00     0.086 A 
ATOM     13  F   UNL     1      -0.979  -3.588  -0.572  1.00  0.00    -0.207 F 
ATOM     14  C   UNL     1      -3.949  -1.576  -0.091  1.00  0.00     0.123 A 
BRANCH  14  15
ATOM     15  O   UNL     1      -5.306  -1.555  -0.007  1.00  0.00    -0.483 OA
BRANCH  15  16
ATOM     16  C   UNL     1      -6.092  -2.707  -0.172  1.00  0.00     0.239 C 
ATOM     17  C   UNL     1      -6.207  -3.184  -1.627  1.00  0.00     0.054 C 
ATOM     18  C   UNL     1      -5.903  -3.998   0.621  1.00  0.00     0.173 C 
ATOM     19  C   UNL     1      -5.874  -4.675  -1.634  1.00  0.00     0.012 C 
ATOM     20  C   UNL     1      -6.173  -5.202  -0.238  1.00  0.00     0.080 C 
ATOM     21  O   UNL     1      -5.637  -4.062   1.812  1.00  0.00    -0.296 OA
ENDBRANCH  15  16
ENDBRANCH  14  15
ENDBRANCH   6   8
ENDBRANCH   3   6
ENDBRANCH   1   2
BRANCH   1  22
ATOM     22  C   UNL     1       4.318  -1.123   0.453  1.00  0.00     0.042 C 
BRANCH  22  23
ATOM     23  C   UNL     1       5.091  -1.638   1.663  1.00  0.00     0.118 C 
BRANCH  23  24
ATOM     24  N   UNL     1       6.047  -2.675   1.315  1.00  0.00    -0.352 N 
ATOM     25  C   UNL     1       7.379  -2.781   1.619  1.00  0.00     0.251 C 
ATOM     26  H   UNL     1       5.682  -3.414   0.777  1.00  0.00     0.163 HD
ATOM     27  O   UNL     1       8.048  -3.659   1.078  1.00  0.00    -0.269 OA
BRANCH  25  28
ATOM     28  C   UNL     1       8.030  -1.854   2.575  1.00  0.00     0.039 A 
ATOM     29  C   UNL     1       9.343  -1.448   2.313  1.00  0.00     0.014 A 
ATOM     30  C   UNL     1       7.403  -1.444   3.756  1.00  0.00     0.014 A 
ATOM     31  C   UNL     1      10.016  -0.622   3.217  1.00  0.00     0.010 A 
ATOM     32  C   UNL     1       8.050  -0.565   4.625  1.00  0.00     0.010 A 
ATOM     33  C   UNL     1       9.372  -0.166   4.377  1.00  0.00    -0.014 A 
BRANCH  33  34
ATOM     34  C   UNL     1      10.095   0.675   5.365  1.00  0.00     0.031 A 
ATOM     35  C   UNL     1      10.410   0.131   6.733  1.00  0.00     0.074 A 
ATOM     36  C   UNL     1      10.449   1.934   5.048  1.00  0.00     0.049 A 
ATOM     37  N   UNL     1      11.025   0.713   7.733  1.00  0.00    -0.248 NA
ATOM     38  C   UNL     1       9.957  -1.238   7.023  1.00  0.00     0.031 C 
ATOM     39  C   UNL     1      10.170   2.599   3.773  1.00  0.00     0.029 A 
ATOM     40  N   UNL     1      11.123   2.881   5.778  1.00  0.00    -0.354 N 
ATOM     41  C   UNL     1      11.014  -0.210   8.771  1.00  0.00     0.074 A 
ATOM     42  C   UNL     1      10.292  -1.371   8.297  1.00  0.00     0.031 C 
ATOM     43  C   UNL     1      10.689   3.837   3.803  1.00  0.00     0.029 A 
ATOM     44  C   UNL     1      11.315   4.061   5.103  1.00  0.00     0.049 A 
ATOM     45  H   UNL     1      11.437   2.729   6.698  1.00  0.00     0.167 HD
ATOM     46  C   UNL     1      11.572  -0.115  10.002  1.00  0.00     0.031 A 
ATOM     47  C   UNL     1      11.933   5.194   5.485  1.00  0.00     0.031 A 
ATOM     48  C   UNL     1      12.304   1.029  10.475  1.00  0.00     0.049 A 
ATOM     49  C   UNL     1      12.572   5.268   6.842  1.00  0.00     0.074 A 
ATOM     50  C   UNL     1      12.937   1.207  11.693  1.00  0.00     0.029 A 
ATOM     51  N   UNL     1      12.507   2.189   9.745  1.00  0.00    -0.354 N 
ATOM     52  N   UNL     1      12.598   4.365   7.793  1.00  0.00    -0.248 NA
ATOM     53  C   UNL     1      13.287   6.510   7.169  1.00  0.00     0.031 C 
ATOM     54  C   UNL     1      13.500   2.488  11.710  1.00  0.00     0.029 A 
ATOM     55  C   UNL     1      13.252   3.089  10.487  1.00  0.00     0.049 A 
ATOM     56  H   UNL     1      12.170   2.349   8.834  1.00  0.00     0.167 HD
ATOM     57  C   UNL     1      13.354   4.918   8.818  1.00  0.00     0.074 A 
ATOM     58  C   UNL     1      13.778   6.228   8.368  1.00  0.00     0.031 C 
ATOM     59  C   UNL     1      13.669   4.387  10.024  1.00  0.00     0.031 A 
BRANCH  46  60
ATOM     60  C   UNL     1      11.403  -1.291  10.921  1.00  0.00    -0.014 A 
ATOM     61  C   UNL     1      12.086  -2.497  10.689  1.00  0.00     0.009 A 
ATOM     62  C   UNL     1      10.559  -1.194  12.038  1.00  0.00     0.009 A 
ATOM     63  C   UNL     1      11.892  -3.593  11.531  1.00  0.00     0.001 A 
ATOM     64  C   UNL     1      10.389  -2.284  12.894  1.00  0.00     0.001 A 
ATOM     65  C   UNL     1      11.046  -3.485  12.633  1.00  0.00     0.000 A 
ENDBRANCH  46  60
BRANCH  47  66
ATOM     66  C   UNL     1      12.010   6.343   4.548  1.00  0.00    -0.014 A 
ATOM     67  C   UNL     1      13.217   6.657   3.904  1.00  0.00     0.009 A 
ATOM     68  C   UNL     1      10.876   7.127   4.287  1.00  0.00     0.009 A 
ATOM     69  C   UNL     1      13.292   7.747   3.034  1.00  0.00     0.001 A 
ATOM     70  C   UNL     1      10.948   8.202   3.398  1.00  0.00     0.001 A 
ATOM     71  C   UNL     1      12.157   8.515   2.779  1.00  0.00     0.000 A 
ENDBRANCH  47  66
BRANCH  59  72
ATOM     72  C   UNL     1      14.547   5.207  10.925  1.00  0.00    -0.014 A 
ATOM     73  C   UNL     1      14.051   6.333  11.599  1.00  0.00     0.009 A 
ATOM     74  C   UNL     1      15.883   4.826  11.125  1.00  0.00     0.009 A 
ATOM     75  C   UNL     1      14.887   7.083  12.429  1.00  0.00     0.001 A 
ATOM     76  C   UNL     1      16.710   5.564  11.974  1.00  0.00     0.001 A 
ATOM     77  C   UNL     1      16.213   6.696  12.617  1.00  0.00     0.000 A 
ENDBRANCH  59  72
ENDBRANCH  33  34
ENDBRANCH  25  28
ENDBRANCH  23  24
ENDBRANCH  22  23
ENDBRANCH   1  22
TORSDOF 13
