REMARK SMILES CCCC[C@@H](C(=O)NCCCNC(=O)c1ccc(-c2c3nc(c(-c4ccccc4)c4ccc([nH]4)c(-c4ccccc4)c4nc(c(-c5ccccc5)c5ccc2[nH]5)C=C4)C=C3)cc1)[C@H](O)c1ccc(OC)c(O)c1
REMARK SMILES IDX 9 1 8 2 6 3 7 4 5 6 4 7 3 8 2 9 1 10 63 11 65 12 66 13 73 14
REMARK SMILES IDX 67 15 71 16 68 17 72 18 69 20 70 21 64 22 10 24 11 25 12 26
REMARK SMILES IDX 13 27 14 29 15 30 16 31 62 32 17 33 61 34 18 35 19 36 20 37
REMARK SMILES IDX 55 38 21 39 60 40 54 41 56 42 22 43 59 44 53 45 52 46 23 48
REMARK SMILES IDX 45 49 30 50 44 51 31 52 34 53 43 54 57 55 32 56 33 57 42 59
REMARK SMILES IDX 58 60 35 61 24 62 25 63 29 64 26 65 28 66 27 67 46 68 47 69
REMARK SMILES IDX 51 70 48 71 50 72 49 73 36 74 37 75 41 76 38 77 40 78 39 79
REMARK H PARENT 8 5 72 19 64 23 12 28 56 47 34 58
REMARK Flexibility Score: inf
ROOT
ATOM      1  C   UNL     1       0.974   4.735   0.210  1.00  0.00     0.117 C 
ENDROOT
BRANCH   1   2
ATOM      2  N   UNL     1       1.146   4.183   1.535  1.00  0.00    -0.356 N 
ATOM      3  C   UNL     1       0.292   3.569   2.391  1.00  0.00     0.226 C 
ATOM      4  O   UNL     1       0.819   3.201   3.449  1.00  0.00    -0.275 OA
ATOM      5  H   UNL     1       2.063   4.270   1.885  1.00  0.00     0.163 HD
BRANCH   3   6
ATOM      6  C   UNL     1      -1.195   3.262   2.082  1.00  0.00     0.111 C 
BRANCH   6   7
ATOM      7  C   UNL     1      -2.124   4.502   2.098  1.00  0.00     0.016 C 
BRANCH   7   8
ATOM      8  C   UNL     1      -2.273   5.457   0.916  1.00  0.00     0.001 C 
BRANCH   8   9
ATOM      9  C   UNL     1      -2.592   4.842  -0.444  1.00  0.00    -0.003 C 
ATOM     10  C   UNL     1      -4.039   4.399  -0.572  1.00  0.00     0.004 C 
ENDBRANCH   8   9
ENDBRANCH   7   8
ENDBRANCH   6   7
BRANCH   6  11
ATOM     11  C   UNL     1      -1.626   2.231   3.220  1.00  0.00     0.157 C 
BRANCH  11  12
ATOM     12  C   UNL     1      -3.114   1.964   3.419  1.00  0.00    -0.015 A 
ATOM     13  C   UNL     1      -3.906   2.932   4.061  1.00  0.00     0.010 A 
ATOM     14  C   UNL     1      -3.743   0.783   3.007  1.00  0.00     0.056 A 
ATOM     15  C   UNL     1      -5.294   2.813   4.100  1.00  0.00     0.051 A 
ATOM     16  C   UNL     1      -5.133   0.624   3.139  1.00  0.00     0.158 A 
ATOM     17  C   UNL     1      -5.929   1.668   3.620  1.00  0.00     0.160 A 
BRANCH  16  18
ATOM     18  O   UNL     1      -5.674  -0.584   2.795  1.00  0.00    -0.504 OA
ATOM     19  H   UNL     1      -6.598  -0.723   2.872  1.00  0.00     0.293 HD
ENDBRANCH  16  18
BRANCH  17  20
ATOM     20  O   UNL     1      -7.290   1.746   3.710  1.00  0.00    -0.493 OA
ATOM     21  C   UNL     1      -8.056   0.644   3.251  1.00  0.00     0.278 C 
ENDBRANCH  17  20
ENDBRANCH  11  12
BRANCH  11  22
ATOM     22  O   UNL     1      -0.963   0.980   2.973  1.00  0.00    -0.388 OA
ATOM     23  H   UNL     1      -1.279   0.607   2.135  1.00  0.00     0.211 HD
ENDBRANCH  11  22
ENDBRANCH   6  11
ENDBRANCH   3   6
ENDBRANCH   1   2
BRANCH   1  24
ATOM     24  C   UNL     1       0.909   6.258   0.265  1.00  0.00     0.042 C 
BRANCH  24  25
ATOM     25  C   UNL     1       2.253   6.959   0.206  1.00  0.00     0.118 C 
BRANCH  25  26
ATOM     26  N   UNL     1       2.795   7.000  -1.140  1.00  0.00    -0.352 N 
ATOM     27  C   UNL     1       2.993   8.057  -1.996  1.00  0.00     0.251 C 
ATOM     28  H   UNL     1       3.066   6.125  -1.500  1.00  0.00     0.163 HD
ATOM     29  O   UNL     1       3.277   7.824  -3.168  1.00  0.00    -0.269 OA
BRANCH  27  30
ATOM     30  C   UNL     1       2.853   9.465  -1.546  1.00  0.00     0.039 A 
ATOM     31  C   UNL     1       2.376  10.415  -2.458  1.00  0.00     0.014 A 
ATOM     32  C   UNL     1       3.232   9.880  -0.268  1.00  0.00     0.014 A 
ATOM     33  C   UNL     1       2.235  11.752  -2.072  1.00  0.00     0.010 A 
ATOM     34  C   UNL     1       2.986  11.185   0.150  1.00  0.00     0.010 A 
ATOM     35  C   UNL     1       2.509  12.144  -0.753  1.00  0.00    -0.014 A 
BRANCH  35  36
ATOM     36  C   UNL     1       2.333  13.553  -0.312  1.00  0.00     0.031 A 
ATOM     37  C   UNL     1       3.510  14.343   0.199  1.00  0.00     0.074 A 
ATOM     38  C   UNL     1       1.105  14.107  -0.313  1.00  0.00     0.049 A 
ATOM     39  N   UNL     1       3.545  15.567   0.664  1.00  0.00    -0.248 NA
ATOM     40  C   UNL     1       4.811  13.657   0.224  1.00  0.00     0.031 C 
ATOM     41  C   UNL     1      -0.127  13.435  -0.730  1.00  0.00     0.029 A 
ATOM     42  N   UNL     1       0.691  15.363   0.056  1.00  0.00    -0.354 N 
ATOM     43  C   UNL     1       4.860  15.784   1.060  1.00  0.00     0.074 A 
ATOM     44  C   UNL     1       5.577  14.548   0.835  1.00  0.00     0.031 C 
ATOM     45  C   UNL     1      -1.153  14.295  -0.625  1.00  0.00     0.029 A 
ATOM     46  C   UNL     1      -0.660  15.562  -0.094  1.00  0.00     0.049 A 
ATOM     47  H   UNL     1       1.304  16.054   0.396  1.00  0.00     0.167 HD
ATOM     48  C   UNL     1       5.428  16.913   1.547  1.00  0.00     0.031 A 
ATOM     49  C   UNL     1      -1.421  16.641   0.169  1.00  0.00     0.031 A 
ATOM     50  C   UNL     1       4.719  18.146   1.756  1.00  0.00     0.049 A 
ATOM     51  C   UNL     1      -0.771  17.887   0.699  1.00  0.00     0.074 A 
ATOM     52  C   UNL     1       5.218  19.369   2.171  1.00  0.00     0.029 A 
ATOM     53  N   UNL     1       3.354  18.311   1.575  1.00  0.00    -0.354 N 
ATOM     54  N   UNL     1       0.490  18.103   0.985  1.00  0.00    -0.248 NA
ATOM     55  C   UNL     1      -1.648  19.044   0.928  1.00  0.00     0.031 C 
ATOM     56  C   UNL     1       4.144  20.257   2.300  1.00  0.00     0.029 A 
ATOM     57  C   UNL     1       2.987  19.606   1.903  1.00  0.00     0.049 A 
ATOM     58  H   UNL     1       2.737  17.611   1.260  1.00  0.00     0.167 HD
ATOM     59  C   UNL     1       0.563  19.424   1.408  1.00  0.00     0.074 A 
ATOM     60  C   UNL     1      -0.779  19.964   1.322  1.00  0.00     0.031 C 
ATOM     61  C   UNL     1       1.645  20.126   1.828  1.00  0.00     0.031 A 
BRANCH  48  62
ATOM     62  C   UNL     1       6.890  16.850   1.906  1.00  0.00    -0.014 A 
ATOM     63  C   UNL     1       7.882  16.689   0.924  1.00  0.00     0.009 A 
ATOM     64  C   UNL     1       7.281  16.959   3.249  1.00  0.00     0.009 A 
ATOM     65  C   UNL     1       9.228  16.584   1.286  1.00  0.00     0.001 A 
ATOM     66  C   UNL     1       8.630  16.889   3.605  1.00  0.00     0.001 A 
ATOM     67  C   UNL     1       9.600  16.686   2.625  1.00  0.00     0.000 A 
ENDBRANCH  48  62
BRANCH  49  68
ATOM     68  C   UNL     1      -2.884  16.587  -0.087  1.00  0.00    -0.014 A 
ATOM     69  C   UNL     1      -3.448  17.293  -1.161  1.00  0.00     0.009 A 
ATOM     70  C   UNL     1      -3.720  15.801   0.722  1.00  0.00     0.009 A 
ATOM     71  C   UNL     1      -4.821  17.224  -1.410  1.00  0.00     0.001 A 
ATOM     72  C   UNL     1      -5.088  15.712   0.453  1.00  0.00     0.001 A 
ATOM     73  C   UNL     1      -5.638  16.428  -0.608  1.00  0.00     0.000 A 
ENDBRANCH  49  68
BRANCH  61  74
ATOM     74  C   UNL     1       1.425  21.564   2.208  1.00  0.00    -0.014 A 
ATOM     75  C   UNL     1       0.734  21.913   3.379  1.00  0.00     0.009 A 
ATOM     76  C   UNL     1       1.952  22.584   1.400  1.00  0.00     0.009 A 
ATOM     77  C   UNL     1       0.546  23.255   3.714  1.00  0.00     0.001 A 
ATOM     78  C   UNL     1       1.790  23.924   1.754  1.00  0.00     0.001 A 
ATOM     79  C   UNL     1       1.078  24.259   2.905  1.00  0.00     0.000 A 
ENDBRANCH  61  74
ENDBRANCH  35  36
ENDBRANCH  27  30
ENDBRANCH  25  26
ENDBRANCH  24  25
ENDBRANCH   1  24
TORSDOF 18
