REMARK SMILES CC[C@H](C)[C@H](NC(=O)CN1C(=O)/C(=C/c2ccc(C)cc2)SC1=S)C(=O)NCCCNC(=O)c1ccc(-c2c3nc(c(-c4ccccc4)c4ccc([nH]4)c(-c4ccccc4)c4nc(c(-c5ccccc5)c5ccc2[nH]5)C=C4)C=C3)cc1
REMARK SMILES IDX 28 1 27 2 25 3 26 4 5 6 3 7 4 8 2 9 1 10 6 11 7 12 8 14 9 15
REMARK SMILES IDX 10 16 11 17 23 18 12 19 13 20 22 21 24 22 14 23 15 24 16 25
REMARK SMILES IDX 21 26 17 27 20 28 18 29 19 30 29 31 30 32 31 33 32 34 33 36
REMARK SMILES IDX 34 37 35 38 81 39 36 40 80 41 37 42 38 43 39 44 74 45 40 46
REMARK SMILES IDX 79 47 73 48 75 49 41 50 78 51 72 52 71 53 42 55 64 56 49 57
REMARK SMILES IDX 63 58 50 59 53 60 62 61 76 62 51 63 52 64 61 66 77 67 54 68
REMARK SMILES IDX 43 69 44 70 48 71 45 72 47 73 46 74 65 75 66 76 70 77 67 78
REMARK SMILES IDX 69 79 68 80 55 81 56 82 60 83 57 84 59 85 58 86
REMARK H PARENT 27 5 6 13 31 35 75 54 53 65
REMARK Flexibility Score: inf
ROOT
ATOM      1  C   UNL     1       3.915   2.675   3.787  1.00  0.00     0.117 C 
ENDROOT
BRANCH   1   2
ATOM      2  N   UNL     1       2.872   3.687   3.825  1.00  0.00    -0.354 N 
ATOM      3  C   UNL     1       1.518   3.509   3.851  1.00  0.00     0.242 C 
ATOM      4  O   UNL     1       0.830   4.360   4.423  1.00  0.00    -0.273 OA
ATOM      5  H   UNL     1       3.182   4.622   3.832  1.00  0.00     0.163 HD
BRANCH   3   6
ATOM      6  C   UNL     1       0.837   2.244   3.288  1.00  0.00     0.174 C 
BRANCH   6   7
ATOM      7  C   UNL     1       0.875   1.004   4.281  1.00  0.00     0.018 C 
ATOM      8  C   UNL     1       1.618  -0.243   3.760  1.00  0.00     0.010 C 
BRANCH   7   9
ATOM      9  C   UNL     1       1.235   1.373   5.755  1.00  0.00     0.002 C 
ATOM     10  C   UNL     1       1.930   0.303   6.588  1.00  0.00     0.004 C 
ENDBRANCH   7   9
ENDBRANCH   6   7
BRANCH   6  11
ATOM     11  N   UNL     1       1.294   1.936   1.925  1.00  0.00    -0.342 N 
ATOM     12  C   UNL     1       1.315   2.653   0.769  1.00  0.00     0.240 C 
ATOM     13  H   UNL     1       1.658   1.026   1.830  1.00  0.00     0.164 HD
ATOM     14  O   UNL     1       1.646   2.014  -0.238  1.00  0.00    -0.273 OA
BRANCH  12  15
ATOM     15  C   UNL     1       1.213   4.180   0.686  1.00  0.00     0.227 C 
BRANCH  15  16
ATOM     16  N   UNL     1       0.026   4.816   1.237  1.00  0.00    -0.283 N 
ATOM     17  C   UNL     1       0.182   5.901   2.091  1.00  0.00     0.266 C 
ATOM     18  C   UNL     1      -1.242   4.625   0.729  1.00  0.00     0.148 C 
ATOM     19  O   UNL     1       1.245   6.426   2.394  1.00  0.00    -0.268 OA
ATOM     20  C   UNL     1      -1.150   6.415   2.505  1.00  0.00     0.081 C 
ATOM     21  S   UNL     1      -2.376   5.676   1.548  1.00  0.00    -0.054 SA
ATOM     22  S   UNL     1      -1.731   3.577  -0.472  1.00  0.00    -0.052 S 
ATOM     23  C   UNL     1      -1.327   7.313   3.486  1.00  0.00     0.029 C 
BRANCH  23  24
ATOM     24  C   UNL     1      -2.656   7.783   3.896  1.00  0.00    -0.024 A 
ATOM     25  C   UNL     1      -3.531   6.919   4.566  1.00  0.00     0.008 A 
ATOM     26  C   UNL     1      -3.100   9.051   3.517  1.00  0.00     0.008 A 
ATOM     27  C   UNL     1      -4.859   7.289   4.785  1.00  0.00     0.004 A 
ATOM     28  C   UNL     1      -4.428   9.425   3.746  1.00  0.00     0.004 A 
ATOM     29  C   UNL     1      -5.324   8.536   4.354  1.00  0.00    -0.051 A 
ATOM     30  C   UNL     1      -6.768   8.911   4.507  1.00  0.00     0.044 C 
ENDBRANCH  23  24
ENDBRANCH  15  16
ENDBRANCH  12  15
ENDBRANCH   6  11
ENDBRANCH   3   6
ENDBRANCH   1   2
BRANCH   1  31
ATOM     31  C   UNL     1       4.500   2.420   2.409  1.00  0.00     0.042 C 
BRANCH  31  32
ATOM     32  C   UNL     1       5.639   3.363   2.076  1.00  0.00     0.118 C 
BRANCH  32  33
ATOM     33  N   UNL     1       6.962   2.840   2.404  1.00  0.00    -0.352 N 
ATOM     34  C   UNL     1       8.182   3.497   2.344  1.00  0.00     0.251 C 
ATOM     35  H   UNL     1       6.992   1.904   2.706  1.00  0.00     0.163 HD
ATOM     36  O   UNL     1       9.216   2.932   2.654  1.00  0.00    -0.269 OA
BRANCH  34  37
ATOM     37  C   UNL     1       8.175   4.945   2.031  1.00  0.00     0.039 A 
ATOM     38  C   UNL     1       8.724   5.805   2.985  1.00  0.00     0.014 A 
ATOM     39  C   UNL     1       7.368   5.434   1.006  1.00  0.00     0.014 A 
ATOM     40  C   UNL     1       8.240   7.104   3.073  1.00  0.00     0.010 A 
ATOM     41  C   UNL     1       6.804   6.684   1.162  1.00  0.00     0.010 A 
ATOM     42  C   UNL     1       7.188   7.487   2.240  1.00  0.00    -0.014 A 
BRANCH  42  43
ATOM     43  C   UNL     1       6.375   8.666   2.509  1.00  0.00     0.031 A 
ATOM     44  C   UNL     1       6.550   9.880   1.694  1.00  0.00     0.074 A 
ATOM     45  C   UNL     1       5.473   8.660   3.515  1.00  0.00     0.049 A 
ATOM     46  N   UNL     1       6.342  11.079   2.124  1.00  0.00    -0.248 NA
ATOM     47  C   UNL     1       7.051   9.832   0.326  1.00  0.00     0.031 C 
ATOM     48  C   UNL     1       4.458   9.668   3.805  1.00  0.00     0.029 A 
ATOM     49  N   UNL     1       5.461   7.820   4.633  1.00  0.00    -0.354 N 
ATOM     50  C   UNL     1       6.395  11.917   1.037  1.00  0.00     0.074 A 
ATOM     51  C   UNL     1       6.934  11.112  -0.034  1.00  0.00     0.031 C 
ATOM     52  C   UNL     1       4.116   9.575   5.100  1.00  0.00     0.029 A 
ATOM     53  C   UNL     1       4.993   8.593   5.714  1.00  0.00     0.049 A 
ATOM     54  H   UNL     1       5.728   6.873   4.660  1.00  0.00     0.167 HD
ATOM     55  C   UNL     1       5.837  13.158   1.117  1.00  0.00     0.031 A 
ATOM     56  C   UNL     1       5.764   8.812   6.817  1.00  0.00     0.031 A 
ATOM     57  C   UNL     1       5.339  13.447   2.461  1.00  0.00     0.049 A 
ATOM     58  C   UNL     1       6.068  10.272   7.074  1.00  0.00     0.074 A 
ATOM     59  C   UNL     1       4.072  13.426   3.023  1.00  0.00     0.029 A 
ATOM     60  N   UNL     1       6.236  13.530   3.519  1.00  0.00    -0.354 N 
ATOM     61  N   UNL     1       5.896  11.221   6.196  1.00  0.00    -0.248 NA
ATOM     62  C   UNL     1       6.639  10.769   8.324  1.00  0.00     0.031 C 
ATOM     63  C   UNL     1       4.217  13.437   4.435  1.00  0.00     0.029 A 
ATOM     64  C   UNL     1       5.567  13.494   4.728  1.00  0.00     0.049 A 
ATOM     65  H   UNL     1       7.213  13.604   3.421  1.00  0.00     0.167 HD
ATOM     66  C   UNL     1       6.331  12.413   6.715  1.00  0.00     0.074 A 
ATOM     67  C   UNL     1       6.767  12.082   8.059  1.00  0.00     0.031 C 
ATOM     68  C   UNL     1       6.311  13.565   5.980  1.00  0.00     0.031 A 
BRANCH  55  69
ATOM     69  C   UNL     1       5.471  13.971  -0.103  1.00  0.00    -0.014 A 
ATOM     70  C   UNL     1       4.391  14.870  -0.040  1.00  0.00     0.009 A 
ATOM     71  C   UNL     1       6.093  13.851  -1.357  1.00  0.00     0.009 A 
ATOM     72  C   UNL     1       3.893  15.518  -1.180  1.00  0.00     0.001 A 
ATOM     73  C   UNL     1       5.577  14.458  -2.510  1.00  0.00     0.001 A 
ATOM     74  C   UNL     1       4.466  15.283  -2.423  1.00  0.00     0.000 A 
ENDBRANCH  55  69
BRANCH  56  75
ATOM     75  C   UNL     1       6.678   7.685   7.147  1.00  0.00    -0.014 A 
ATOM     76  C   UNL     1       6.111   6.465   7.567  1.00  0.00     0.009 A 
ATOM     77  C   UNL     1       8.014   7.691   6.725  1.00  0.00     0.009 A 
ATOM     78  C   UNL     1       6.824   5.267   7.458  1.00  0.00     0.001 A 
ATOM     79  C   UNL     1       8.728   6.490   6.627  1.00  0.00     0.001 A 
ATOM     80  C   UNL     1       8.123   5.278   6.959  1.00  0.00     0.000 A 
ENDBRANCH  56  75
BRANCH  68  81
ATOM     81  C   UNL     1       6.926  14.892   6.361  1.00  0.00    -0.014 A 
ATOM     82  C   UNL     1       7.931  15.063   7.321  1.00  0.00     0.009 A 
ATOM     83  C   UNL     1       6.561  16.044   5.624  1.00  0.00     0.009 A 
ATOM     84  C   UNL     1       8.509  16.320   7.559  1.00  0.00     0.001 A 
ATOM     85  C   UNL     1       7.165  17.287   5.824  1.00  0.00     0.001 A 
ATOM     86  C   UNL     1       8.135  17.428   6.804  1.00  0.00     0.000 A 
ENDBRANCH  68  81
ENDBRANCH  42  43
ENDBRANCH  34  37
ENDBRANCH  32  33
ENDBRANCH  31  32
ENDBRANCH   1  31
TORSDOF 16
