REMARK SMILES [NH3+]CCOCC(=O)N[C@]1(C(=O)NCCCNC(=O)c2ccc(-c3c4nc(c(-c5ccccc5)c5ccc([nH]5)c(-c5ccccc5)c5nc(c(-c6ccccc6)c6ccc3[nH]6)C=C5)C=C4)cc2)CCOC1
REMARK SMILES IDX 10 1 11 2 12 3 9 5 67 6 70 7 68 8 69 9 8 10 6 11 7 12 5 14
REMARK SMILES IDX 4 15 3 16 2 17 1 18 13 22 14 23 15 24 16 25 17 26 18 28
REMARK SMILES IDX 19 29 20 30 66 31 21 32 65 33 22 34 23 35 24 36 59 37 25 38
REMARK SMILES IDX 64 39 58 40 60 41 26 42 63 43 57 44 56 45 27 47 49 48 34 49
REMARK SMILES IDX 48 50 35 51 38 52 47 53 61 54 36 55 37 56 46 58 62 59 39 60
REMARK SMILES IDX 28 61 29 62 33 63 30 64 32 65 31 66 50 67 51 68 55 69 52 70
REMARK SMILES IDX 54 71 53 72 40 73 41 74 45 75 42 76 44 77 43 78
REMARK H PARENT 12 4 8 13 1 19 1 20 1 21 16 27 60 46 38 57
REMARK Flexibility Score: inf
ROOT
ATOM      1  C   UNL     1       2.515  -4.935  -0.194  1.00  0.00     0.248 C 
ATOM      2  O   UNL     1       3.102  -4.147  -0.951  1.00  0.00    -0.272 OA
ATOM      3  N   UNL     1       1.849  -5.912  -0.845  1.00  0.00    -0.354 N 
ATOM      4  H   UNL     1       1.791  -5.755  -1.815  1.00  0.00     0.163 HD
ENDROOT
BRANCH   1   5
ATOM      5  C   UNL     1       2.713  -4.858   1.340  1.00  0.00     0.144 C 
ATOM      6  C   UNL     1       1.596  -5.156   2.325  1.00  0.00     0.069 C 
ATOM      7  C   UNL     1       3.705  -5.990   1.666  1.00  0.00     0.198 C 
ATOM      8  C   UNL     1       2.284  -5.863   3.485  1.00  0.00     0.163 C 
ATOM      9  O   UNL     1       3.565  -6.312   3.051  1.00  0.00    -0.378 OA
BRANCH   5  10
ATOM     10  N   UNL     1       3.324  -3.532   1.623  1.00  0.00    -0.338 N 
ATOM     11  C   UNL     1       2.800  -2.276   1.501  1.00  0.00     0.246 C 
ATOM     12  O   UNL     1       3.571  -1.315   1.586  1.00  0.00    -0.272 OA
ATOM     13  H   UNL     1       4.252  -3.564   1.950  1.00  0.00     0.164 HD
BRANCH  11  14
ATOM     14  C   UNL     1       1.291  -2.039   1.307  1.00  0.00     0.260 C 
BRANCH  14  15
ATOM     15  O   UNL     1       0.650  -2.519   0.142  1.00  0.00    -0.366 OA
BRANCH  15  16
ATOM     16  C   UNL     1       1.064  -1.870  -1.067  1.00  0.00     0.222 C 
BRANCH  16  17
ATOM     17  C   UNL     1       0.389  -0.509  -1.320  1.00  0.00     0.287 C 
BRANCH  17  18
ATOM     18  N   UNL     1       0.956   0.617  -0.574  1.00  0.00    -0.356 N 
ATOM     19  H   UNL     1       0.446   1.470  -0.806  1.00  0.00     0.344 HD
ATOM     20  H   UNL     1       1.938   0.729  -0.823  1.00  0.00     0.344 HD
ATOM     21  H   UNL     1       0.877   0.435   0.427  1.00  0.00     0.344 HD
ENDBRANCH  17  18
ENDBRANCH  16  17
ENDBRANCH  15  16
ENDBRANCH  14  15
ENDBRANCH  11  14
ENDBRANCH   5  10
ENDBRANCH   1   5
BRANCH   3  22
ATOM     22  C   UNL     1       1.199  -7.141  -0.434  1.00  0.00     0.117 C 
BRANCH  22  23
ATOM     23  C   UNL     1      -0.183  -7.258  -1.061  1.00  0.00     0.042 C 
BRANCH  23  24
ATOM     24  C   UNL     1      -0.157  -7.294  -2.587  1.00  0.00     0.118 C 
BRANCH  24  25
ATOM     25  N   UNL     1       0.492  -8.489  -3.110  1.00  0.00    -0.352 N 
ATOM     26  C   UNL     1      -0.050  -9.549  -3.795  1.00  0.00     0.251 C 
ATOM     27  H   UNL     1       1.462  -8.545  -2.949  1.00  0.00     0.163 HD
ATOM     28  O   UNL     1       0.608 -10.572  -3.972  1.00  0.00    -0.269 OA
BRANCH  26  29
ATOM     29  C   UNL     1      -1.436  -9.464  -4.295  1.00  0.00     0.039 A 
ATOM     30  C   UNL     1      -2.297 -10.548  -4.113  1.00  0.00     0.014 A 
ATOM     31  C   UNL     1      -1.887  -8.305  -4.930  1.00  0.00     0.014 A 
ATOM     32  C   UNL     1      -3.634 -10.436  -4.499  1.00  0.00     0.010 A 
ATOM     33  C   UNL     1      -3.238  -8.158  -5.216  1.00  0.00     0.010 A 
ATOM     34  C   UNL     1      -4.126  -9.225  -5.013  1.00  0.00    -0.014 A 
BRANCH  34  35
ATOM     35  C   UNL     1      -5.559  -9.051  -5.357  1.00  0.00     0.031 A 
ATOM     36  C   UNL     1      -5.957  -8.726  -6.773  1.00  0.00     0.074 A 
ATOM     37  C   UNL     1      -6.494  -9.111  -4.388  1.00  0.00     0.049 A 
ATOM     38  N   UNL     1      -7.143  -8.460  -7.257  1.00  0.00    -0.248 NA
ATOM     39  C   UNL     1      -4.875  -8.660  -7.770  1.00  0.00     0.031 C 
ATOM     40  C   UNL     1      -6.234  -9.372  -2.970  1.00  0.00     0.029 A 
ATOM     41  N   UNL     1      -7.856  -8.950  -4.449  1.00  0.00    -0.354 N 
ATOM     42  C   UNL     1      -6.945  -8.173  -8.602  1.00  0.00     0.074 A 
ATOM     43  C   UNL     1      -5.522  -8.240  -8.847  1.00  0.00     0.031 C 
ATOM     44  C   UNL     1      -7.399  -9.385  -2.303  1.00  0.00     0.029 A 
ATOM     45  C   UNL     1      -8.482  -9.088  -3.234  1.00  0.00     0.049 A 
ATOM     46  H   UNL     1      -8.338  -8.753  -5.285  1.00  0.00     0.167 HD
ATOM     47  C   UNL     1      -7.866  -7.902  -9.557  1.00  0.00     0.031 A 
ATOM     48  C   UNL     1      -9.784  -8.980  -2.905  1.00  0.00     0.031 A 
ATOM     49  C   UNL     1      -9.283  -7.856  -9.317  1.00  0.00     0.049 A 
ATOM     50  C   UNL     1     -10.786  -8.669  -3.983  1.00  0.00     0.074 A 
ATOM     51  C   UNL     1     -10.304  -7.651 -10.227  1.00  0.00     0.029 A 
ATOM     52  N   UNL     1      -9.877  -8.016  -8.075  1.00  0.00    -0.354 N 
ATOM     53  N   UNL     1     -10.588  -8.475  -5.264  1.00  0.00    -0.248 NA
ATOM     54  C   UNL     1     -12.193  -8.575  -3.569  1.00  0.00     0.031 C 
ATOM     55  C   UNL     1     -11.514  -7.632  -9.527  1.00  0.00     0.029 A 
ATOM     56  C   UNL     1     -11.250  -7.889  -8.191  1.00  0.00     0.049 A 
ATOM     57  H   UNL     1      -9.394  -8.193  -7.235  1.00  0.00     0.167 HD
ATOM     58  C   UNL     1     -11.847  -8.267  -5.814  1.00  0.00     0.074 A 
ATOM     59  C   UNL     1     -12.801  -8.378  -4.730  1.00  0.00     0.031 C 
ATOM     60  C   UNL     1     -12.184  -8.007  -7.101  1.00  0.00     0.031 A 
BRANCH  47  61
ATOM     61  C   UNL     1      -7.367  -7.635 -10.950  1.00  0.00    -0.014 A 
ATOM     62  C   UNL     1      -6.798  -8.655 -11.730  1.00  0.00     0.009 A 
ATOM     63  C   UNL     1      -7.504  -6.353 -11.507  1.00  0.00     0.009 A 
ATOM     64  C   UNL     1      -6.344  -8.389 -13.024  1.00  0.00     0.001 A 
ATOM     65  C   UNL     1      -7.079  -6.098 -12.812  1.00  0.00     0.001 A 
ATOM     66  C   UNL     1      -6.491  -7.112 -13.565  1.00  0.00     0.000 A 
ENDBRANCH  47  61
BRANCH  48  67
ATOM     67  C   UNL     1     -10.222  -9.177  -1.497  1.00  0.00    -0.014 A 
ATOM     68  C   UNL     1     -10.995 -10.293  -1.140  1.00  0.00     0.009 A 
ATOM     69  C   UNL     1      -9.889  -8.241  -0.505  1.00  0.00     0.009 A 
ATOM     70  C   UNL     1     -11.453 -10.449   0.171  1.00  0.00     0.001 A 
ATOM     71  C   UNL     1     -10.320  -8.416   0.811  1.00  0.00     0.001 A 
ATOM     72  C   UNL     1     -11.113  -9.513   1.146  1.00  0.00     0.000 A 
ENDBRANCH  48  67
BRANCH  60  73
ATOM     73  C   UNL     1     -13.647  -7.868  -7.414  1.00  0.00    -0.014 A 
ATOM     74  C   UNL     1     -14.382  -6.748  -6.995  1.00  0.00     0.009 A 
ATOM     75  C   UNL     1     -14.287  -8.855  -8.180  1.00  0.00     0.009 A 
ATOM     76  C   UNL     1     -15.738  -6.639  -7.306  1.00  0.00     0.001 A 
ATOM     77  C   UNL     1     -15.634  -8.727  -8.518  1.00  0.00     0.001 A 
ATOM     78  C   UNL     1     -16.361  -7.624  -8.072  1.00  0.00     0.000 A 
ENDBRANCH  60  73
ENDBRANCH  34  35
ENDBRANCH  26  29
ENDBRANCH  24  25
ENDBRANCH  23  24
ENDBRANCH  22  23
ENDBRANCH   3  22
TORSDOF 16
