REMARK SMILES C[C@H](CC(=O)NCCCNC(=O)c1ccc(-c2c3nc(c(-c4ccccc4)c4ccc([nH]4)c(-c4ccccc4)c4nc(c(-c5ccccc5)c5ccc2[nH]5)C=C4)C=C3)cc1)NC(=O)[C@@H]1Cc2ccccc2O1
REMARK SMILES IDX 7 1 6 2 4 3 5 4 3 6 2 7 1 8 61 9 62 10 63 12 64 13 65 14
REMARK SMILES IDX 72 15 66 16 71 17 67 18 70 19 68 20 69 21 8 22 9 23 10 24
REMARK SMILES IDX 11 25 12 27 13 28 14 29 60 30 15 31 59 32 16 33 17 34 18 35
REMARK SMILES IDX 53 36 19 37 58 38 52 39 54 40 20 41 57 42 51 43 50 44 21 46
REMARK SMILES IDX 43 47 28 48 42 49 29 50 32 51 41 52 55 53 30 54 31 55 40 57
REMARK SMILES IDX 56 58 33 59 22 60 23 61 27 62 24 63 26 64 25 65 44 66 45 67
REMARK SMILES IDX 49 68 46 69 48 70 47 71 34 72 35 73 39 74 36 75 38 76 37 77
REMARK H PARENT 6 5 61 11 10 26 54 45 32 56
REMARK Flexibility Score: inf
ROOT
ATOM      1  C   UNL     1      -5.694   0.776  -4.085  1.00  0.00     0.117 C 
ENDROOT
BRANCH   1   2
ATOM      2  N   UNL     1      -4.397   1.441  -4.088  1.00  0.00    -0.356 N 
ATOM      3  C   UNL     1      -3.134   0.946  -4.194  1.00  0.00     0.222 C 
ATOM      4  O   UNL     1      -2.189   1.726  -4.068  1.00  0.00    -0.275 OA
ATOM      5  H   UNL     1      -4.443   2.420  -3.998  1.00  0.00     0.163 HD
BRANCH   3   6
ATOM      6  C   UNL     1      -2.897  -0.524  -4.447  1.00  0.00     0.124 C 
BRANCH   6   7
ATOM      7  C   UNL     1      -2.367  -1.261  -3.206  1.00  0.00     0.088 C 
ATOM      8  C   UNL     1      -3.363  -1.200  -2.056  1.00  0.00     0.031 C 
BRANCH   7   9
ATOM      9  N   UNL     1      -2.109  -2.658  -3.561  1.00  0.00    -0.350 N 
ATOM     10  C   UNL     1      -1.488  -3.700  -2.962  1.00  0.00     0.261 C 
ATOM     11  H   UNL     1      -2.473  -2.894  -4.444  1.00  0.00     0.163 HD
ATOM     12  O   UNL     1      -1.551  -4.757  -3.611  1.00  0.00    -0.271 OA
BRANCH  10  13
ATOM     13  C   UNL     1      -0.797  -3.693  -1.589  1.00  0.00     0.266 C 
ATOM     14  C   UNL     1      -0.477  -2.406  -0.829  1.00  0.00     0.095 C 
ATOM     15  O   UNL     1       0.460  -4.416  -1.786  1.00  0.00    -0.480 OA
ATOM     16  C   UNL     1       0.800  -2.798  -0.188  1.00  0.00    -0.002 A 
ATOM     17  C   UNL     1       1.296  -3.918  -0.828  1.00  0.00     0.123 A 
ATOM     18  C   UNL     1       1.519  -2.173   0.815  1.00  0.00     0.008 A 
ATOM     19  C   UNL     1       2.534  -4.443  -0.529  1.00  0.00     0.047 A 
ATOM     20  C   UNL     1       2.768  -2.701   1.152  1.00  0.00     0.001 A 
ATOM     21  C   UNL     1       3.278  -3.824   0.477  1.00  0.00     0.004 A 
ENDBRANCH  10  13
ENDBRANCH   7   9
ENDBRANCH   6   7
ENDBRANCH   3   6
ENDBRANCH   1   2
BRANCH   1  22
ATOM     22  C   UNL     1      -6.311   0.711  -2.689  1.00  0.00     0.042 C 
BRANCH  22  23
ATOM     23  C   UNL     1      -6.599   2.072  -2.067  1.00  0.00     0.118 C 
BRANCH  23  24
ATOM     24  N   UNL     1      -7.851   2.635  -2.541  1.00  0.00    -0.352 N 
ATOM     25  C   UNL     1      -9.034   2.824  -1.870  1.00  0.00     0.251 C 
ATOM     26  H   UNL     1      -7.851   2.924  -3.482  1.00  0.00     0.163 HD
ATOM     27  O   UNL     1     -10.051   3.106  -2.504  1.00  0.00    -0.269 OA
BRANCH  25  28
ATOM     28  C   UNL     1      -9.109   2.674  -0.399  1.00  0.00     0.039 A 
ATOM     29  C   UNL     1     -10.210   2.011   0.155  1.00  0.00     0.014 A 
ATOM     30  C   UNL     1      -8.132   3.216   0.442  1.00  0.00     0.014 A 
ATOM     31  C   UNL     1     -10.300   1.841   1.539  1.00  0.00     0.010 A 
ATOM     32  C   UNL     1      -8.187   2.985   1.817  1.00  0.00     0.010 A 
ATOM     33  C   UNL     1      -9.273   2.299   2.380  1.00  0.00    -0.014 A 
BRANCH  33  34
ATOM     34  C   UNL     1      -9.317   2.066   3.847  1.00  0.00     0.031 A 
ATOM     35  C   UNL     1      -9.432   3.223   4.801  1.00  0.00     0.074 A 
ATOM     36  C   UNL     1      -9.197   0.814   4.329  1.00  0.00     0.049 A 
ATOM     37  N   UNL     1      -9.431   3.215   6.111  1.00  0.00    -0.248 NA
ATOM     38  C   UNL     1      -9.541   4.564   4.207  1.00  0.00     0.031 C 
ATOM     39  C   UNL     1      -9.054  -0.397   3.518  1.00  0.00     0.029 A 
ATOM     40  N   UNL     1      -9.172   0.353   5.622  1.00  0.00    -0.354 N 
ATOM     41  C   UNL     1      -9.522   4.547   6.497  1.00  0.00     0.074 A 
ATOM     42  C   UNL     1      -9.533   5.337   5.284  1.00  0.00     0.031 C 
ATOM     43  C   UNL     1      -8.986  -1.463   4.330  1.00  0.00     0.029 A 
ATOM     44  C   UNL     1      -9.040  -1.010   5.717  1.00  0.00     0.049 A 
ATOM     45  H   UNL     1      -9.243   0.944   6.406  1.00  0.00     0.167 HD
ATOM     46  C   UNL     1      -9.606   5.067   7.745  1.00  0.00     0.031 A 
ATOM     47  C   UNL     1      -8.963  -1.809   6.797  1.00  0.00     0.031 A 
ATOM     48  C   UNL     1      -9.606   4.288   8.954  1.00  0.00     0.049 A 
ATOM     49  C   UNL     1      -9.019  -1.207   8.171  1.00  0.00     0.074 A 
ATOM     50  C   UNL     1      -9.758   4.722  10.260  1.00  0.00     0.029 A 
ATOM     51  N   UNL     1      -9.439   2.914   9.006  1.00  0.00    -0.354 N 
ATOM     52  N   UNL     1      -9.165   0.049   8.516  1.00  0.00    -0.248 NA
ATOM     53  C   UNL     1      -8.896  -2.135   9.305  1.00  0.00     0.031 C 
ATOM     54  C   UNL     1      -9.632   3.615  11.107  1.00  0.00     0.029 A 
ATOM     55  C   UNL     1      -9.448   2.486  10.324  1.00  0.00     0.049 A 
ATOM     56  H   UNL     1      -9.330   2.328   8.223  1.00  0.00     0.167 HD
ATOM     57  C   UNL     1      -9.168   0.061   9.904  1.00  0.00     0.074 A 
ATOM     58  C   UNL     1      -9.023  -1.313  10.338  1.00  0.00     0.031 C 
ATOM     59  C   UNL     1      -9.283   1.119  10.743  1.00  0.00     0.031 A 
BRANCH  46  60
ATOM     60  C   UNL     1      -9.689   6.564   7.859  1.00  0.00    -0.014 A 
ATOM     61  C   UNL     1     -10.850   7.258   7.484  1.00  0.00     0.009 A 
ATOM     62  C   UNL     1      -8.598   7.287   8.365  1.00  0.00     0.009 A 
ATOM     63  C   UNL     1     -10.901   8.651   7.573  1.00  0.00     0.001 A 
ATOM     64  C   UNL     1      -8.661   8.677   8.477  1.00  0.00     0.001 A 
ATOM     65  C   UNL     1      -9.807   9.359   8.071  1.00  0.00     0.000 A 
ENDBRANCH  46  60
BRANCH  47  66
ATOM     66  C   UNL     1      -8.838  -3.278   6.618  1.00  0.00    -0.014 A 
ATOM     67  C   UNL     1      -9.935  -4.115   6.869  1.00  0.00     0.009 A 
ATOM     68  C   UNL     1      -7.632  -3.846   6.179  1.00  0.00     0.009 A 
ATOM     69  C   UNL     1      -9.824  -5.495   6.693  1.00  0.00     0.001 A 
ATOM     70  C   UNL     1      -7.532  -5.225   5.984  1.00  0.00     0.001 A 
ATOM     71  C   UNL     1      -8.626  -6.049   6.245  1.00  0.00     0.000 A 
ENDBRANCH  47  66
BRANCH  59  72
ATOM     72  C   UNL     1      -9.262   0.829  12.216  1.00  0.00    -0.014 A 
ATOM     73  C   UNL     1      -8.063   0.509  12.872  1.00  0.00     0.009 A 
ATOM     74  C   UNL     1     -10.447   0.912  12.963  1.00  0.00     0.009 A 
ATOM     75  C   UNL     1      -8.057   0.253  14.245  1.00  0.00     0.001 A 
ATOM     76  C   UNL     1     -10.434   0.677  14.338  1.00  0.00     0.001 A 
ATOM     77  C   UNL     1      -9.241   0.341  14.977  1.00  0.00     0.000 A 
ENDBRANCH  59  72
ENDBRANCH  33  34
ENDBRANCH  25  28
ENDBRANCH  23  24
ENDBRANCH  22  23
ENDBRANCH   1  22
TORSDOF 13
