REMARK SMILES O=C(NCCCNC(=O)[C@@H]1CCCN(C(=O)Nc2ccccc2)C1)c1ccc(-c2c3nc(c(-c4ccccc4)c4ccc([nH]4)c(-c4ccccc4)c4nc(c(-c5ccccc5)c5ccc2[nH]5)C=C4)C=C3)cc1
REMARK SMILES IDX 5 1 4 2 3 3 1 4 2 5 25 7 26 8 72 9 27 10 71 11 28 12 29 13
REMARK SMILES IDX 30 14 65 15 31 16 70 17 64 18 66 19 32 20 69 21 63 22 62 23
REMARK SMILES IDX 33 25 55 26 40 27 54 28 41 29 44 30 53 31 67 32 42 33 43 34
REMARK SMILES IDX 52 36 68 37 45 38 34 39 35 40 39 41 36 42 38 43 37 44 56 45
REMARK SMILES IDX 57 46 61 47 58 48 60 49 59 50 46 51 47 52 51 53 48 54 50 55
REMARK SMILES IDX 49 56 6 57 7 58 8 59 9 61 10 62 11 63 24 64 12 65 14 66
REMARK SMILES IDX 13 67 15 68 16 69 17 70 18 72 19 73 23 74 20 75 22 76 21 77
REMARK H PARENT 3 6 66 24 44 35 7 60 17 71
REMARK Flexibility Score: inf
ROOT
ATOM      1  C   UNL     1       4.266   0.368   2.569  1.00  0.00     0.042 C 
ENDROOT
BRANCH   1   2
ATOM      2  C   UNL     1       4.126  -0.607   1.405  1.00  0.00     0.118 C 
BRANCH   2   3
ATOM      3  N   UNL     1       2.754  -0.687   0.927  1.00  0.00    -0.352 N 
ATOM      4  O   UNL     1       0.955  -0.203  -0.318  1.00  0.00    -0.269 OA
ATOM      5  C   UNL     1       2.184  -0.252  -0.242  1.00  0.00     0.251 C 
ATOM      6  H   UNL     1       2.130  -1.129   1.546  1.00  0.00     0.163 HD
BRANCH   5   7
ATOM      7  C   UNL     1       2.996   0.154  -1.415  1.00  0.00     0.039 A 
ATOM      8  C   UNL     1       4.168  -0.516  -1.773  1.00  0.00     0.014 A 
ATOM      9  C   UNL     1       2.499   1.160  -2.256  1.00  0.00     0.014 A 
ATOM     10  C   UNL     1       4.886  -0.123  -2.904  1.00  0.00     0.010 A 
ATOM     11  C   UNL     1       3.176   1.498  -3.433  1.00  0.00     0.010 A 
ATOM     12  C   UNL     1       4.383   0.868  -3.763  1.00  0.00    -0.014 A 
BRANCH  12  13
ATOM     13  C   UNL     1       5.071   1.149  -5.051  1.00  0.00     0.031 A 
ATOM     14  C   UNL     1       5.703   2.483  -5.332  1.00  0.00     0.074 A 
ATOM     15  C   UNL     1       5.115   0.181  -5.987  1.00  0.00     0.049 A 
ATOM     16  N   UNL     1       6.401   2.862  -6.374  1.00  0.00    -0.248 NA
ATOM     17  C   UNL     1       5.530   3.529  -4.316  1.00  0.00     0.031 C 
ATOM     18  C   UNL     1       4.508  -1.146  -5.858  1.00  0.00     0.029 A 
ATOM     19  N   UNL     1       5.697   0.160  -7.229  1.00  0.00    -0.354 N 
ATOM     20  C   UNL     1       6.757   4.184  -6.133  1.00  0.00     0.074 A 
ATOM     21  C   UNL     1       6.179   4.550  -4.858  1.00  0.00     0.031 C 
ATOM     22  C   UNL     1       4.773  -1.860  -6.962  1.00  0.00     0.029 A 
ATOM     23  C   UNL     1       5.525  -1.029  -7.894  1.00  0.00     0.049 A 
ATOM     24  H   UNL     1       6.190   0.924  -7.607  1.00  0.00     0.167 HD
ATOM     25  C   UNL     1       7.490   5.021  -6.906  1.00  0.00     0.031 A 
ATOM     26  C   UNL     1       5.913  -1.409  -9.125  1.00  0.00     0.031 A 
ATOM     27  C   UNL     1       8.021   4.679  -8.199  1.00  0.00     0.049 A 
ATOM     28  C   UNL     1       6.687  -0.451  -9.981  1.00  0.00     0.074 A 
ATOM     29  C   UNL     1       8.801   5.450  -9.043  1.00  0.00     0.029 A 
ATOM     30  N   UNL     1       7.801   3.473  -8.846  1.00  0.00    -0.354 N 
ATOM     31  N   UNL     1       7.082   0.767  -9.701  1.00  0.00    -0.248 NA
ATOM     32  C   UNL     1       7.070  -0.920 -11.319  1.00  0.00     0.031 C 
ATOM     33  C   UNL     1       9.006   4.731 -10.226  1.00  0.00     0.029 A 
ATOM     34  C   UNL     1       8.399   3.492 -10.095  1.00  0.00     0.049 A 
ATOM     35  H   UNL     1       7.296   2.715  -8.473  1.00  0.00     0.167 HD
ATOM     36  C   UNL     1       7.770   1.207 -10.823  1.00  0.00     0.074 A 
ATOM     37  C   UNL     1       7.755   0.118 -11.779  1.00  0.00     0.031 C 
ATOM     38  C   UNL     1       8.361   2.407 -11.042  1.00  0.00     0.031 A 
BRANCH  25  39
ATOM     39  C   UNL     1       7.726   6.410  -6.382  1.00  0.00    -0.014 A 
ATOM     40  C   UNL     1       8.613   6.646  -5.320  1.00  0.00     0.009 A 
ATOM     41  C   UNL     1       7.070   7.500  -6.975  1.00  0.00     0.009 A 
ATOM     42  C   UNL     1       8.813   7.944  -4.842  1.00  0.00     0.001 A 
ATOM     43  C   UNL     1       7.290   8.798  -6.510  1.00  0.00     0.001 A 
ATOM     44  C   UNL     1       8.154   9.018  -5.438  1.00  0.00     0.000 A 
ENDBRANCH  25  39
BRANCH  26  45
ATOM     45  C   UNL     1       5.552  -2.762  -9.619  1.00  0.00    -0.014 A 
ATOM     46  C   UNL     1       6.525  -3.764  -9.744  1.00  0.00     0.009 A 
ATOM     47  C   UNL     1       4.217  -3.065  -9.936  1.00  0.00     0.009 A 
ATOM     48  C   UNL     1       6.170  -5.040 -10.188  1.00  0.00     0.001 A 
ATOM     49  C   UNL     1       3.862  -4.348 -10.353  1.00  0.00     0.001 A 
ATOM     50  C   UNL     1       4.839  -5.333 -10.484  1.00  0.00     0.000 A 
ENDBRANCH  26  45
BRANCH  38  51
ATOM     51  C   UNL     1       9.047   2.599 -12.363  1.00  0.00    -0.014 A 
ATOM     52  C   UNL     1       8.309   2.792 -13.541  1.00  0.00     0.009 A 
ATOM     53  C   UNL     1      10.448   2.623 -12.423  1.00  0.00     0.009 A 
ATOM     54  C   UNL     1       8.964   2.976 -14.760  1.00  0.00     0.001 A 
ATOM     55  C   UNL     1      11.100   2.832 -13.639  1.00  0.00     0.001 A 
ATOM     56  C   UNL     1      10.358   3.000 -14.807  1.00  0.00     0.000 A 
ENDBRANCH  38  51
ENDBRANCH  12  13
ENDBRANCH   5   7
ENDBRANCH   2   3
ENDBRANCH   1   2
BRANCH   1  57
ATOM     57  C   UNL     1       3.744  -0.171   3.897  1.00  0.00     0.117 C 
BRANCH  57  58
ATOM     58  N   UNL     1       4.627  -1.151   4.495  1.00  0.00    -0.356 N 
ATOM     59  C   UNL     1       5.632  -1.104   5.399  1.00  0.00     0.224 C 
ATOM     60  H   UNL     1       4.457  -2.064   4.167  1.00  0.00     0.163 HD
ATOM     61  O   UNL     1       6.072  -2.212   5.738  1.00  0.00    -0.275 OA
BRANCH  59  62
ATOM     62  C   UNL     1       6.283   0.145   5.999  1.00  0.00     0.098 C 
ATOM     63  C   UNL     1       5.535   1.460   6.161  1.00  0.00     0.017 C 
ATOM     64  C   UNL     1       7.670   0.375   5.397  1.00  0.00     0.134 C 
ATOM     65  C   UNL     1       5.656   2.429   4.993  1.00  0.00     0.022 C 
ATOM     66  N   UNL     1       7.598   1.057   4.106  1.00  0.00    -0.324 N 
ATOM     67  C   UNL     1       6.937   2.358   4.161  1.00  0.00     0.121 C 
BRANCH  66  68
ATOM     68  C   UNL     1       8.212   0.431   3.042  1.00  0.00     0.321 C 
ATOM     69  O   UNL     1       8.763  -0.669   3.168  1.00  0.00    -0.248 OA
ATOM     70  N   UNL     1       8.127   0.866   1.764  1.00  0.00    -0.308 N 
ATOM     71  H   UNL     1       8.348   0.161   1.114  1.00  0.00     0.171 HD
BRANCH  70  72
ATOM     72  C   UNL     1       7.803   2.071   1.148  1.00  0.00     0.042 A 
ATOM     73  C   UNL     1       6.957   2.005   0.040  1.00  0.00     0.026 A 
ATOM     74  C   UNL     1       8.285   3.306   1.583  1.00  0.00     0.026 A 
ATOM     75  C   UNL     1       6.464   3.175  -0.526  1.00  0.00     0.002 A 
ATOM     76  C   UNL     1       7.812   4.479   0.991  1.00  0.00     0.002 A 
ATOM     77  C   UNL     1       6.880   4.414  -0.044  1.00  0.00     0.000 A 
ENDBRANCH  70  72
ENDBRANCH  66  68
ENDBRANCH  59  62
ENDBRANCH  57  58
ENDBRANCH   1  57
TORSDOF 12
