REMARK SMILES CC(C)(C[NH2+]C[C@@H](O)C1CC1)C(=O)NCCCNC(=O)c1ccc(-c2c3nc(c(-c4ccccc4)c4ccc([nH]4)c(-c4ccccc4)c4nc(c(-c5ccccc5)c5ccc2[nH]5)C=C4)C=C3)cc1
REMARK SMILES IDX 12 1 13 2 14 3 2 5 1 6 3 7 4 8 5 9 6 12 7 13 8 14 9 16 10 17
REMARK SMILES IDX 11 18 15 19 16 20 17 21 18 22 19 23 20 25 21 26 22 27 68 28
REMARK SMILES IDX 23 29 67 30 24 31 25 32 26 33 61 34 27 35 66 36 60 37 62 38
REMARK SMILES IDX 28 39 65 40 59 41 58 42 29 44 51 45 36 46 50 47 37 48 40 49
REMARK SMILES IDX 49 50 63 51 38 52 39 53 48 55 64 56 41 57 30 58 31 59 35 60
REMARK SMILES IDX 32 61 34 62 33 63 52 64 53 65 57 66 54 67 56 68 55 69 42 70
REMARK SMILES IDX 43 71 47 72 44 73 46 74 45 75
REMARK H PARENT 14 4 5 10 5 11 8 15 18 24 62 43 40 54
REMARK Flexibility Score: inf
ROOT
ATOM      1  C   UNL     1       1.201  -2.146  -1.326  1.00  0.00     0.231 C 
ATOM      2  O   UNL     1       1.967  -1.616  -2.140  1.00  0.00    -0.274 OA
ATOM      3  N   UNL     1       0.889  -3.444  -1.584  1.00  0.00    -0.355 N 
ATOM      4  H   UNL     1       1.315  -3.794  -2.399  1.00  0.00     0.163 HD
ENDROOT
BRANCH   1   5
ATOM      5  C   UNL     1       0.701  -1.381  -0.084  1.00  0.00     0.092 C 
ATOM      6  C   UNL     1       1.290   0.054  -0.124  1.00  0.00     0.027 C 
ATOM      7  C   UNL     1       1.266  -2.032   1.194  1.00  0.00     0.027 C 
BRANCH   5   8
ATOM      8  C   UNL     1      -0.846  -1.289  -0.013  1.00  0.00     0.276 C 
BRANCH   8   9
ATOM      9  N   UNL     1      -1.460  -0.656  -1.181  1.00  0.00    -0.343 N 
ATOM     10  H   UNL     1      -1.115  -1.128  -2.017  1.00  0.00     0.346 HD
ATOM     11  H   UNL     1      -1.202   0.331  -1.145  1.00  0.00     0.346 HD
BRANCH   9  12
ATOM     12  C   UNL     1      -2.932  -0.703  -1.200  1.00  0.00     0.292 C 
BRANCH  12  13
ATOM     13  C   UNL     1      -3.652  -0.050   0.004  1.00  0.00     0.172 C 
BRANCH  13  14
ATOM     14  O   UNL     1      -3.202   1.294   0.173  1.00  0.00    -0.387 OA
ATOM     15  H   UNL     1      -3.458   1.821  -0.600  1.00  0.00     0.211 HD
ENDBRANCH  13  14
BRANCH  13  16
ATOM     16  C   UNL     1      -5.154  -0.011  -0.068  1.00  0.00     0.023 C 
ATOM     17  C   UNL     1      -5.881   0.601  -1.241  1.00  0.00     0.007 C 
ATOM     18  C   UNL     1      -5.988  -0.877  -0.983  1.00  0.00     0.007 C 
ENDBRANCH  13  16
ENDBRANCH  12  13
ENDBRANCH   9  12
ENDBRANCH   8   9
ENDBRANCH   5   8
ENDBRANCH   1   5
BRANCH   3  19
ATOM     19  C   UNL     1       0.056  -4.418  -0.906  1.00  0.00     0.117 C 
BRANCH  19  20
ATOM     20  C   UNL     1      -1.218  -4.737  -1.679  1.00  0.00     0.042 C 
BRANCH  20  21
ATOM     21  C   UNL     1      -0.981  -5.418  -3.023  1.00  0.00     0.118 C 
BRANCH  21  22
ATOM     22  N   UNL     1      -0.339  -6.720  -2.890  1.00  0.00    -0.352 N 
ATOM     23  C   UNL     1      -0.790  -7.976  -3.203  1.00  0.00     0.251 C 
ATOM     24  H   UNL     1       0.570  -6.693  -2.513  1.00  0.00     0.163 HD
ATOM     25  O   UNL     1      -0.150  -8.959  -2.828  1.00  0.00    -0.269 OA
BRANCH  23  26
ATOM     26  C   UNL     1      -2.041  -8.171  -3.967  1.00  0.00     0.039 A 
ATOM     27  C   UNL     1      -2.895  -9.218  -3.606  1.00  0.00     0.014 A 
ATOM     28  C   UNL     1      -2.359  -7.361  -5.060  1.00  0.00     0.014 A 
ATOM     29  C   UNL     1      -4.097  -9.407  -4.294  1.00  0.00     0.010 A 
ATOM     30  C   UNL     1      -3.592  -7.500  -5.693  1.00  0.00     0.010 A 
ATOM     31  C   UNL     1      -4.473  -8.525  -5.319  1.00  0.00    -0.014 A 
BRANCH  31  32
ATOM     32  C   UNL     1      -5.779  -8.657  -6.013  1.00  0.00     0.031 A 
ATOM     33  C   UNL     1      -5.828  -8.961  -7.486  1.00  0.00     0.074 A 
ATOM     34  C   UNL     1      -6.921  -8.435  -5.333  1.00  0.00     0.049 A 
ATOM     35  N   UNL     1      -6.867  -9.032  -8.280  1.00  0.00    -0.248 NA
ATOM     36  C   UNL     1      -4.541  -9.190  -8.161  1.00  0.00     0.031 C 
ATOM     37  C   UNL     1      -7.011  -8.098  -3.911  1.00  0.00     0.029 A 
ATOM     38  N   UNL     1      -8.227  -8.451  -5.753  1.00  0.00    -0.354 N 
ATOM     39  C   UNL     1      -6.358  -9.292  -9.546  1.00  0.00     0.074 A 
ATOM     40  C   UNL     1      -4.917  -9.322  -9.425  1.00  0.00     0.031 C 
ATOM     41  C   UNL     1      -8.303  -7.963  -3.572  1.00  0.00     0.029 A 
ATOM     42  C   UNL     1      -9.129  -8.162  -4.758  1.00  0.00     0.049 A 
ATOM     43  H   UNL     1      -8.493  -8.651  -6.680  1.00  0.00     0.167 HD
ATOM     44  C   UNL     1      -7.029  -9.504 -10.704  1.00  0.00     0.031 A 
ATOM     45  C   UNL     1     -10.471  -8.059  -4.796  1.00  0.00     0.031 A 
ATOM     46  C   UNL     1      -8.462  -9.491 -10.825  1.00  0.00     0.049 A 
ATOM     47  C   UNL     1     -11.190  -8.290  -6.095  1.00  0.00     0.074 A 
ATOM     48  C   UNL     1      -9.235  -9.748 -11.944  1.00  0.00     0.029 A 
ATOM     49  N   UNL     1      -9.338  -9.206  -9.789  1.00  0.00    -0.354 N 
ATOM     50  N   UNL     1     -10.695  -8.592  -7.271  1.00  0.00    -0.248 NA
ATOM     51  C   UNL     1     -12.655  -8.174  -6.069  1.00  0.00     0.031 C 
ATOM     52  C   UNL     1     -10.578  -9.576 -11.595  1.00  0.00     0.029 A 
ATOM     53  C   UNL     1     -10.643  -9.263 -10.248  1.00  0.00     0.049 A 
ATOM     54  H   UNL     1      -9.071  -8.995  -8.865  1.00  0.00     0.167 HD
ATOM     55  C   UNL     1     -11.788  -8.731  -8.116  1.00  0.00     0.074 A 
ATOM     56  C   UNL     1     -12.972  -8.494  -7.316  1.00  0.00     0.031 C 
ATOM     57  C   UNL     1     -11.809  -9.028  -9.438  1.00  0.00     0.031 A 
BRANCH  44  58
ATOM     58  C   UNL     1      -6.212  -9.768 -11.938  1.00  0.00    -0.014 A 
ATOM     59  C   UNL     1      -5.520 -10.977 -12.106  1.00  0.00     0.009 A 
ATOM     60  C   UNL     1      -6.167  -8.811 -12.964  1.00  0.00     0.009 A 
ATOM     61  C   UNL     1      -4.771 -11.209 -13.261  1.00  0.00     0.001 A 
ATOM     62  C   UNL     1      -5.440  -9.058 -14.131  1.00  0.00     0.001 A 
ATOM     63  C   UNL     1      -4.736 -10.252 -14.274  1.00  0.00     0.000 A 
ENDBRANCH  44  58
BRANCH  45  64
ATOM     64  C   UNL     1     -11.230  -7.734  -3.561  1.00  0.00    -0.014 A 
ATOM     65  C   UNL     1     -12.023  -8.710  -2.937  1.00  0.00     0.009 A 
ATOM     66  C   UNL     1     -11.176  -6.446  -3.005  1.00  0.00     0.009 A 
ATOM     67  C   UNL     1     -12.770  -8.394  -1.800  1.00  0.00     0.001 A 
ATOM     68  C   UNL     1     -11.901  -6.142  -1.851  1.00  0.00     0.001 A 
ATOM     69  C   UNL     1     -12.705  -7.112  -1.256  1.00  0.00     0.000 A 
ENDBRANCH  45  64
BRANCH  57  70
ATOM     70  C   UNL     1     -13.156  -9.152 -10.092  1.00  0.00    -0.014 A 
ATOM     71  C   UNL     1     -13.940  -8.021 -10.364  1.00  0.00     0.009 A 
ATOM     72  C   UNL     1     -13.626 -10.418 -10.475  1.00  0.00     0.009 A 
ATOM     73  C   UNL     1     -15.186  -8.160 -10.980  1.00  0.00     0.001 A 
ATOM     74  C   UNL     1     -14.859 -10.550 -11.115  1.00  0.00     0.001 A 
ATOM     75  C   UNL     1     -15.642  -9.422 -11.359  1.00  0.00     0.000 A 
ENDBRANCH  57  70
ENDBRANCH  31  32
ENDBRANCH  23  26
ENDBRANCH  21  22
ENDBRANCH  20  21
ENDBRANCH  19  20
ENDBRANCH   3  19
TORSDOF 16
