REMARK SMILES C[C@H]1[C@H](C(=O)NCCCNC(=O)c2ccc(-c3c4nc(c(-c5ccccc5)c5ccc([nH]5)c(-c5ccccc5)c5nc(c(-c6ccccc6)c6ccc3[nH]6)C=C5)C=C4)cc2)CC[N@@H+]1C1CCCC1
REMARK SMILES IDX 8 1 7 2 6 3 4 4 5 5 3 7 1 8 2 9 63 10 61 11 62 12 64 14
REMARK SMILES IDX 65 15 68 16 66 17 67 18 9 19 10 20 11 21 12 23 13 24 14 25
REMARK SMILES IDX 60 26 15 27 59 28 16 29 17 30 18 31 53 32 19 33 58 34 52 35
REMARK SMILES IDX 54 36 20 37 57 38 51 39 50 40 21 42 43 43 28 44 42 45 29 46
REMARK SMILES IDX 32 47 41 48 55 49 30 50 31 51 40 53 56 54 33 55 22 56 23 57
REMARK SMILES IDX 27 58 24 59 26 60 25 61 44 62 45 63 49 64 46 65 48 66 47 67
REMARK SMILES IDX 34 68 35 69 39 70 36 71 38 72 37 73
REMARK H PARENT 6 6 63 13 10 22 54 41 32 52
REMARK Flexibility Score: inf
ROOT
ATOM      1  C   UNL     1       0.103   1.248   3.903  1.00  0.00     0.042 C 
ENDROOT
BRANCH   1   2
ATOM      2  C   UNL     1      -0.924   1.974   3.040  1.00  0.00     0.117 C 
BRANCH   2   3
ATOM      3  N   UNL     1      -0.301   2.772   2.004  1.00  0.00    -0.356 N 
ATOM      4  C   UNL     1       0.070   2.529   0.724  1.00  0.00     0.229 C 
ATOM      5  O   UNL     1       0.617   3.475   0.143  1.00  0.00    -0.275 OA
ATOM      6  H   UNL     1      -0.104   3.693   2.293  1.00  0.00     0.163 HD
BRANCH   4   7
ATOM      7  C   UNL     1      -0.117   1.211  -0.017  1.00  0.00     0.142 C 
ATOM      8  C   UNL     1       2.026  -0.100  -0.189  1.00  0.00     0.076 C 
ATOM      9  C   UNL     1       0.681   0.026   0.536  1.00  0.00     0.193 C 
ATOM     10  N   UNL     1      -0.111  -1.188   0.254  1.00  0.00    -0.330 N 
ATOM     11  C   UNL     1      -1.529   0.687  -0.179  1.00  0.00     0.081 C 
ATOM     12  C   UNL     1      -1.304  -0.784  -0.497  1.00  0.00     0.263 C 
ATOM     13  H   UNL     1       0.486  -1.790  -0.312  1.00  0.00     0.348 HD
BRANCH  10  14
ATOM     14  C   UNL     1      -0.354  -2.142   1.343  1.00  0.00     0.184 C 
ATOM     15  C   UNL     1       0.849  -2.475   2.238  1.00  0.00     0.065 C 
ATOM     16  C   UNL     1      -1.467  -1.794   2.333  1.00  0.00     0.065 C 
ATOM     17  C   UNL     1       0.263  -3.049   3.525  1.00  0.00     0.006 C 
ATOM     18  C   UNL     1      -1.202  -2.632   3.575  1.00  0.00     0.006 C 
ENDBRANCH  10  14
ENDBRANCH   4   7
ENDBRANCH   2   3
ENDBRANCH   1   2
BRANCH   1  19
ATOM     19  C   UNL     1      -0.056   1.472   5.399  1.00  0.00     0.118 C 
BRANCH  19  20
ATOM     20  N   UNL     1      -1.364   1.116   5.925  1.00  0.00    -0.352 N 
ATOM     21  C   UNL     1      -1.732   0.478   7.085  1.00  0.00     0.251 C 
ATOM     22  H   UNL     1      -2.119   1.379   5.350  1.00  0.00     0.163 HD
ATOM     23  O   UNL     1      -2.931   0.282   7.287  1.00  0.00    -0.269 OA
BRANCH  21  24
ATOM     24  C   UNL     1      -0.739  -0.020   8.071  1.00  0.00     0.039 A 
ATOM     25  C   UNL     1      -1.067  -1.161   8.814  1.00  0.00     0.014 A 
ATOM     26  C   UNL     1       0.486   0.606   8.301  1.00  0.00     0.014 A 
ATOM     27  C   UNL     1      -0.152  -1.701   9.723  1.00  0.00     0.010 A 
ATOM     28  C   UNL     1       1.442   0.005   9.119  1.00  0.00     0.010 A 
ATOM     29  C   UNL     1       1.131  -1.149   9.850  1.00  0.00    -0.014 A 
BRANCH  29  30
ATOM     30  C   UNL     1       2.151  -1.758  10.743  1.00  0.00     0.031 A 
ATOM     31  C   UNL     1       2.739  -0.968  11.882  1.00  0.00     0.074 A 
ATOM     32  C   UNL     1       2.593  -3.007  10.493  1.00  0.00     0.049 A 
ATOM     33  N   UNL     1       3.674  -1.313  12.732  1.00  0.00    -0.248 NA
ATOM     34  C   UNL     1       2.232   0.400  12.076  1.00  0.00     0.031 C 
ATOM     35  C   UNL     1       2.145  -3.862   9.392  1.00  0.00     0.029 A 
ATOM     36  N   UNL     1       3.524  -3.774  11.149  1.00  0.00    -0.354 N 
ATOM     37  C   UNL     1       3.877  -0.203  13.543  1.00  0.00     0.074 A 
ATOM     38  C   UNL     1       3.015   0.846  13.046  1.00  0.00     0.031 C 
ATOM     39  C   UNL     1       2.772  -5.046   9.469  1.00  0.00     0.029 A 
ATOM     40  C   UNL     1       3.701  -5.018  10.594  1.00  0.00     0.049 A 
ATOM     41  H   UNL     1       4.017  -3.462  11.942  1.00  0.00     0.167 HD
ATOM     42  C   UNL     1       4.687  -0.073  14.621  1.00  0.00     0.031 A 
ATOM     43  C   UNL     1       4.524  -6.024  10.944  1.00  0.00     0.031 A 
ATOM     44  C   UNL     1       5.540  -1.119  15.121  1.00  0.00     0.049 A 
ATOM     45  C   UNL     1       5.420  -5.854  12.138  1.00  0.00     0.074 A 
ATOM     46  C   UNL     1       6.362  -1.104  16.235  1.00  0.00     0.029 A 
ATOM     47  N   UNL     1       5.683  -2.367  14.534  1.00  0.00    -0.354 N 
ATOM     48  N   UNL     1       5.550  -4.820  12.934  1.00  0.00    -0.248 NA
ATOM     49  C   UNL     1       6.274  -6.997  12.489  1.00  0.00     0.031 C 
ATOM     50  C   UNL     1       7.044  -2.324  16.290  1.00  0.00     0.029 A 
ATOM     51  C   UNL     1       6.598  -3.123  15.249  1.00  0.00     0.049 A 
ATOM     52  H   UNL     1       5.205  -2.671  13.729  1.00  0.00     0.167 HD
ATOM     53  C   UNL     1       6.481  -5.196  13.893  1.00  0.00     0.074 A 
ATOM     54  C   UNL     1       6.863  -6.561  13.593  1.00  0.00     0.031 C 
ATOM     55  C   UNL     1       6.976  -4.476  14.930  1.00  0.00     0.031 A 
BRANCH  42  56
ATOM     56  C   UNL     1       4.689   1.256  15.329  1.00  0.00    -0.014 A 
ATOM     57  C   UNL     1       3.563   1.706  16.040  1.00  0.00     0.009 A 
ATOM     58  C   UNL     1       5.838   2.062  15.306  1.00  0.00     0.009 A 
ATOM     59  C   UNL     1       3.574   2.950  16.674  1.00  0.00     0.001 A 
ATOM     60  C   UNL     1       5.858   3.290  15.970  1.00  0.00     0.001 A 
ATOM     61  C   UNL     1       4.723   3.739  16.642  1.00  0.00     0.000 A 
ENDBRANCH  42  56
BRANCH  43  62
ATOM     62  C   UNL     1       4.528  -7.289  10.161  1.00  0.00    -0.014 A 
ATOM     63  C   UNL     1       4.025  -8.476  10.715  1.00  0.00     0.009 A 
ATOM     64  C   UNL     1       5.034  -7.314   8.851  1.00  0.00     0.009 A 
ATOM     65  C   UNL     1       4.055  -9.667   9.985  1.00  0.00     0.001 A 
ATOM     66  C   UNL     1       5.032  -8.499   8.112  1.00  0.00     0.001 A 
ATOM     67  C   UNL     1       4.553  -9.676   8.683  1.00  0.00     0.000 A 
ENDBRANCH  43  62
BRANCH  55  68
ATOM     68  C   UNL     1       7.964  -5.165  15.831  1.00  0.00    -0.014 A 
ATOM     69  C   UNL     1       9.260  -5.479  15.391  1.00  0.00     0.009 A 
ATOM     70  C   UNL     1       7.596  -5.487  17.147  1.00  0.00     0.009 A 
ATOM     71  C   UNL     1      10.152  -6.140  16.238  1.00  0.00     0.001 A 
ATOM     72  C   UNL     1       8.501  -6.116  18.002  1.00  0.00     0.001 A 
ATOM     73  C   UNL     1       9.773  -6.454  17.543  1.00  0.00     0.000 A 
ENDBRANCH  55  68
ENDBRANCH  29  30
ENDBRANCH  21  24
ENDBRANCH  19  20
ENDBRANCH   1  19
TORSDOF 11
