REMARK SMILES Cc1n[nH]c(C(=O)N(C)CC(=O)NCCCNC(=O)c2ccc(-c3c4nc(c(-c5ccccc5)c5ccc([nH]5)c(-c5ccccc5)c5nc(c(-c6ccccc6)c6ccc3[nH]6)C=C5)C=C4)cc2)n1
REMARK SMILES IDX 14 1 13 2 11 3 12 4 10 6 8 7 9 8 6 9 7 10 5 11 1 12 2 13
REMARK SMILES IDX 3 14 68 15 4 16 15 18 16 19 17 20 18 21 19 23 20 24 21 25
REMARK SMILES IDX 67 26 22 27 66 28 23 29 24 30 25 31 60 32 26 33 65 34 59 35
REMARK SMILES IDX 61 36 27 37 64 38 58 39 57 40 28 42 50 43 35 44 49 45 36 46
REMARK SMILES IDX 39 47 48 48 62 49 37 50 38 51 47 53 63 54 40 55 29 56 30 57
REMARK SMILES IDX 34 58 31 59 33 60 32 61 51 62 52 63 56 64 53 65 55 66 54 67
REMARK SMILES IDX 41 68 42 69 46 70 43 71 45 72 44 73
REMARK H PARENT 13 5 4 17 17 22 61 41 39 52
REMARK Flexibility Score: inf
ROOT
ATOM      1  C   UNL     1      -1.367   7.531   2.210  1.00  0.00     0.117 C 
ENDROOT
BRANCH   1   2
ATOM      2  N   UNL     1       0.065   7.737   2.280  1.00  0.00    -0.354 N 
ATOM      3  C   UNL     1       0.980   7.784   1.266  1.00  0.00     0.239 C 
ATOM      4  O   UNL     1       2.064   8.320   1.510  1.00  0.00    -0.273 OA
ATOM      5  H   UNL     1       0.430   7.862   3.185  1.00  0.00     0.163 HD
BRANCH   3   6
ATOM      6  C   UNL     1       0.594   7.364  -0.163  1.00  0.00     0.219 C 
BRANCH   6   7
ATOM      7  N   UNL     1       0.028   6.013  -0.326  1.00  0.00    -0.330 N 
ATOM      8  C   UNL     1      -1.213   5.919  -1.080  1.00  0.00     0.147 C 
BRANCH   7   9
ATOM      9  C   UNL     1       0.908   4.952  -0.027  1.00  0.00     0.291 C 
ATOM     10  O   UNL     1       2.051   5.231   0.344  1.00  0.00    -0.265 OA
BRANCH   9  11
ATOM     11  C   UNL     1       0.485   3.560  -0.107  1.00  0.00     0.214 A 
ATOM     12  C   UNL     1       1.125   0.073   0.025  1.00  0.00     0.092 C 
ATOM     13  C   UNL     1       0.558   1.434  -0.066  1.00  0.00     0.148 A 
ATOM     14  N   UNL     1      -0.755   1.683  -0.102  1.00  0.00    -0.159 NA
ATOM     15  N   UNL     1       1.342   2.551  -0.074  1.00  0.00    -0.207 NA
ATOM     16  N   UNL     1      -0.771   3.027  -0.106  1.00  0.00    -0.255 N 
ATOM     17  H   UNL     1      -1.595   3.565  -0.109  1.00  0.00     0.192 HD
ENDBRANCH   9  11
ENDBRANCH   7   9
ENDBRANCH   6   7
ENDBRANCH   3   6
ENDBRANCH   1   2
BRANCH   1  18
ATOM     18  C   UNL     1      -1.799   6.129   2.639  1.00  0.00     0.042 C 
BRANCH  18  19
ATOM     19  C   UNL     1      -1.647   5.893   4.136  1.00  0.00     0.118 C 
BRANCH  19  20
ATOM     20  N   UNL     1      -2.583   6.687   4.928  1.00  0.00    -0.352 N 
ATOM     21  C   UNL     1      -2.712   6.762   6.300  1.00  0.00     0.251 C 
ATOM     22  H   UNL     1      -3.208   7.246   4.411  1.00  0.00     0.163 HD
ATOM     23  O   UNL     1      -3.742   7.192   6.795  1.00  0.00    -0.269 OA
BRANCH  21  24
ATOM     24  C   UNL     1      -1.607   6.303   7.165  1.00  0.00     0.039 A 
ATOM     25  C   UNL     1      -1.886   5.618   8.352  1.00  0.00     0.014 A 
ATOM     26  C   UNL     1      -0.289   6.558   6.792  1.00  0.00     0.014 A 
ATOM     27  C   UNL     1      -0.830   5.115   9.108  1.00  0.00     0.010 A 
ATOM     28  C   UNL     1       0.749   5.962   7.472  1.00  0.00     0.010 A 
ATOM     29  C   UNL     1       0.488   5.263   8.647  1.00  0.00    -0.014 A 
BRANCH  29  30
ATOM     30  C   UNL     1       1.577   4.545   9.308  1.00  0.00     0.031 A 
ATOM     31  C   UNL     1       1.360   3.076   9.412  1.00  0.00     0.074 A 
ATOM     32  C   UNL     1       2.778   5.087   9.602  1.00  0.00     0.049 A 
ATOM     33  N   UNL     1       1.174   2.380  10.484  1.00  0.00    -0.248 NA
ATOM     34  C   UNL     1       1.197   2.308   8.165  1.00  0.00     0.031 C 
ATOM     35  C   UNL     1       3.270   6.426   9.262  1.00  0.00     0.029 A 
ATOM     36  N   UNL     1       3.872   4.500  10.167  1.00  0.00    -0.354 N 
ATOM     37  C   UNL     1       1.081   1.054  10.069  1.00  0.00     0.074 A 
ATOM     38  C   UNL     1       0.912   1.093   8.638  1.00  0.00     0.031 C 
ATOM     39  C   UNL     1       4.613   6.463   9.403  1.00  0.00     0.029 A 
ATOM     40  C   UNL     1       5.054   5.214   9.998  1.00  0.00     0.049 A 
ATOM     41  H   UNL     1       3.829   3.644  10.652  1.00  0.00     0.167 HD
ATOM     42  C   UNL     1       1.429   0.031  10.899  1.00  0.00     0.031 A 
ATOM     43  C   UNL     1       6.310   4.801  10.297  1.00  0.00     0.031 A 
ATOM     44  C   UNL     1       1.524   0.474  12.269  1.00  0.00     0.049 A 
ATOM     45  C   UNL     1       6.195   3.667  11.238  1.00  0.00     0.074 A 
ATOM     46  C   UNL     1       0.667   1.074  13.170  1.00  0.00     0.029 A 
ATOM     47  N   UNL     1       2.791   0.665  12.766  1.00  0.00    -0.354 N 
ATOM     48  N   UNL     1       5.794   3.790  12.469  1.00  0.00    -0.248 NA
ATOM     49  C   UNL     1       6.146   2.320  10.696  1.00  0.00     0.031 C 
ATOM     50  C   UNL     1       1.484   1.986  13.903  1.00  0.00     0.029 A 
ATOM     51  C   UNL     1       2.801   1.840  13.465  1.00  0.00     0.049 A 
ATOM     52  H   UNL     1       3.558   0.061  12.640  1.00  0.00     0.167 HD
ATOM     53  C   UNL     1       5.017   2.664  12.693  1.00  0.00     0.074 A 
ATOM     54  C   UNL     1       5.380   1.738  11.622  1.00  0.00     0.031 C 
ATOM     55  C   UNL     1       3.952   2.712  13.547  1.00  0.00     0.031 A 
BRANCH  42  56
ATOM     56  C   UNL     1       2.141  -1.222  10.427  1.00  0.00    -0.014 A 
ATOM     57  C   UNL     1       2.535  -2.170  11.392  1.00  0.00     0.009 A 
ATOM     58  C   UNL     1       2.708  -1.363   9.146  1.00  0.00     0.009 A 
ATOM     59  C   UNL     1       3.528  -3.120  11.123  1.00  0.00     0.001 A 
ATOM     60  C   UNL     1       3.666  -2.341   8.861  1.00  0.00     0.001 A 
ATOM     61  C   UNL     1       4.103  -3.196   9.860  1.00  0.00     0.000 A 
ENDBRANCH  42  56
BRANCH  43  62
ATOM     62  C   UNL     1       7.609   5.170   9.696  1.00  0.00    -0.014 A 
ATOM     63  C   UNL     1       8.810   4.882  10.366  1.00  0.00     0.009 A 
ATOM     64  C   UNL     1       7.688   5.542   8.343  1.00  0.00     0.009 A 
ATOM     65  C   UNL     1      10.038   4.909   9.693  1.00  0.00     0.001 A 
ATOM     66  C   UNL     1       8.916   5.576   7.671  1.00  0.00     0.001 A 
ATOM     67  C   UNL     1      10.088   5.240   8.341  1.00  0.00     0.000 A 
ENDBRANCH  43  62
BRANCH  55  68
ATOM     68  C   UNL     1       3.840   3.892  14.479  1.00  0.00    -0.014 A 
ATOM     69  C   UNL     1       3.773   5.228  14.045  1.00  0.00     0.009 A 
ATOM     70  C   UNL     1       3.674   3.630  15.848  1.00  0.00     0.009 A 
ATOM     71  C   UNL     1       3.587   6.269  14.961  1.00  0.00     0.001 A 
ATOM     72  C   UNL     1       3.462   4.667  16.758  1.00  0.00     0.001 A 
ATOM     73  C   UNL     1       3.429   5.987  16.316  1.00  0.00     0.000 A 
ENDBRANCH  55  68
ENDBRANCH  29  30
ENDBRANCH  21  24
ENDBRANCH  19  20
ENDBRANCH  18  19
ENDBRANCH   1  18
TORSDOF 13
