REMARK SMILES [NH3+][C@@]1(C(=O)NCCCNC(=O)c2ccc(-c3c4nc(c(-c5ccccc5)c5ccc([nH]5)c(-c5ccccc5)c5nc(c(-c6ccccc6)c6ccc3[nH]6)C=C5)C=C4)cc2)CCC[C@H]1CCOc1ccccc1
REMARK SMILES IDX 6 1 5 2 3 3 4 4 2 6 60 7 63 8 61 9 62 10 1 11 64 15 65 16
REMARK SMILES IDX 66 17 67 18 68 19 72 20 69 21 71 22 70 23 7 24 8 25 9 26
REMARK SMILES IDX 10 27 11 29 12 30 13 31 59 32 14 33 58 34 15 35 16 36 17 37
REMARK SMILES IDX 52 38 18 39 57 40 51 41 53 42 19 43 56 44 50 45 49 46 20 48
REMARK SMILES IDX 42 49 27 50 41 51 28 52 31 53 40 54 54 55 29 56 30 57 39 59
REMARK SMILES IDX 55 60 32 61 21 62 22 63 26 64 23 65 25 66 24 67 43 68 44 69
REMARK SMILES IDX 48 70 45 71 47 72 46 73 33 74 34 75 38 76 35 77 37 78 36 79
REMARK H PARENT 5 5 1 12 1 13 1 14 9 28 53 47 31 58
REMARK Flexibility Score: inf
ROOT
ATOM      1  C   UNL     1      -0.467   1.646  -3.951  1.00  0.00     0.118 C 
ENDROOT
BRANCH   1   2
ATOM      2  N   UNL     1       0.351   0.553  -3.477  1.00  0.00    -0.351 N 
ATOM      3  C   UNL     1       0.594   0.061  -2.238  1.00  0.00     0.281 C 
ATOM      4  O   UNL     1       1.279  -0.973  -2.205  1.00  0.00    -0.268 OA
ATOM      5  H   UNL     1       0.824   0.072  -4.194  1.00  0.00     0.163 HD
BRANCH   3   6
ATOM      6  C   UNL     1       0.079   0.699  -0.885  1.00  0.00     0.176 C 
ATOM      7  C   UNL     1      -1.452   0.793  -0.798  1.00  0.00     0.079 C 
ATOM      8  C   UNL     1       0.636   2.130  -0.651  1.00  0.00     0.064 C 
ATOM      9  C   UNL     1      -1.850   2.256  -0.844  1.00  0.00     0.008 C 
ATOM     10  C   UNL     1      -0.586   3.077  -0.660  1.00  0.00     0.011 C 
BRANCH   6  11
ATOM     11  N   UNL     1       0.489  -0.262   0.180  1.00  0.00    -0.345 N 
ATOM     12  H   UNL     1       0.098  -1.182  -0.023  1.00  0.00     0.345 HD
ATOM     13  H   UNL     1       0.143   0.063   1.083  1.00  0.00     0.345 HD
ATOM     14  H   UNL     1       1.507  -0.325   0.208  1.00  0.00     0.345 HD
ENDBRANCH   6  11
BRANCH   8  15
ATOM     15  C   UNL     1       1.448   2.407   0.643  1.00  0.00     0.052 C 
BRANCH  15  16
ATOM     16  C   UNL     1       2.809   1.719   0.817  1.00  0.00     0.230 C 
BRANCH  16  17
ATOM     17  O   UNL     1       3.851   2.422   0.126  1.00  0.00    -0.494 OA
BRANCH  17  18
ATOM     18  C   UNL     1       4.061   1.946  -1.137  1.00  0.00     0.119 A 
ATOM     19  C   UNL     1       4.593   0.682  -1.380  1.00  0.00     0.046 A 
ATOM     20  C   UNL     1       3.775   2.808  -2.191  1.00  0.00     0.046 A 
ATOM     21  C   UNL     1       4.763   0.252  -2.697  1.00  0.00     0.004 A 
ATOM     22  C   UNL     1       3.934   2.374  -3.505  1.00  0.00     0.004 A 
ATOM     23  C   UNL     1       4.416   1.091  -3.758  1.00  0.00     0.000 A 
ENDBRANCH  17  18
ENDBRANCH  16  17
ENDBRANCH  15  16
ENDBRANCH   8  15
ENDBRANCH   3   6
ENDBRANCH   1   2
BRANCH   1  24
ATOM     24  C   UNL     1       0.307   2.682  -4.749  1.00  0.00     0.042 C 
BRANCH  24  25
ATOM     25  C   UNL     1       0.887   2.148  -6.050  1.00  0.00     0.118 C 
BRANCH  25  26
ATOM     26  N   UNL     1      -0.145   1.883  -7.044  1.00  0.00    -0.352 N 
ATOM     27  C   UNL     1      -0.402   2.529  -8.231  1.00  0.00     0.251 C 
ATOM     28  H   UNL     1      -0.746   1.132  -6.836  1.00  0.00     0.163 HD
ATOM     29  O   UNL     1      -1.453   2.325  -8.827  1.00  0.00    -0.269 OA
BRANCH  27  30
ATOM     30  C   UNL     1       0.589   3.478  -8.782  1.00  0.00     0.039 A 
ATOM     31  C   UNL     1       0.150   4.689  -9.325  1.00  0.00     0.014 A 
ATOM     32  C   UNL     1       1.950   3.164  -8.780  1.00  0.00     0.014 A 
ATOM     33  C   UNL     1       1.084   5.609  -9.809  1.00  0.00     0.010 A 
ATOM     34  C   UNL     1       2.881   4.116  -9.178  1.00  0.00     0.010 A 
ATOM     35  C   UNL     1       2.459   5.343  -9.711  1.00  0.00    -0.014 A 
BRANCH  35  36
ATOM     36  C   UNL     1       3.481   6.302 -10.203  1.00  0.00     0.031 A 
ATOM     37  C   UNL     1       4.407   5.893 -11.320  1.00  0.00     0.074 A 
ATOM     38  C   UNL     1       3.625   7.505  -9.612  1.00  0.00     0.049 A 
ATOM     39  N   UNL     1       5.441   6.527 -11.811  1.00  0.00    -0.248 NA
ATOM     40  C   UNL     1       4.151   4.585 -11.948  1.00  0.00     0.031 C 
ATOM     41  C   UNL     1       2.811   8.015  -8.507  1.00  0.00     0.029 A 
ATOM     42  N   UNL     1       4.523   8.515  -9.856  1.00  0.00    -0.354 N 
ATOM     43  C   UNL     1       5.964   5.690 -12.790  1.00  0.00     0.074 A 
ATOM     44  C   UNL     1       5.173   4.480 -12.784  1.00  0.00     0.031 C 
ATOM     45  C   UNL     1       3.233   9.249  -8.183  1.00  0.00     0.029 A 
ATOM     46  C   UNL     1       4.375   9.598  -9.022  1.00  0.00     0.049 A 
ATOM     47  H   UNL     1       5.208   8.469 -10.561  1.00  0.00     0.167 HD
ATOM     48  C   UNL     1       6.991   5.918 -13.642  1.00  0.00     0.031 A 
ATOM     49  C   UNL     1       5.089  10.737  -8.936  1.00  0.00     0.031 A 
ATOM     50  C   UNL     1       7.769   7.126 -13.664  1.00  0.00     0.049 A 
ATOM     51  C   UNL     1       6.250  10.948  -9.871  1.00  0.00     0.074 A 
ATOM     52  C   UNL     1       8.816   7.462 -14.504  1.00  0.00     0.029 A 
ATOM     53  N   UNL     1       7.573   8.203 -12.814  1.00  0.00    -0.354 N 
ATOM     54  N   UNL     1       6.703  10.163 -10.818  1.00  0.00    -0.248 NA
ATOM     55  C   UNL     1       6.990  12.211  -9.733  1.00  0.00     0.031 C 
ATOM     56  C   UNL     1       9.280   8.728 -14.136  1.00  0.00     0.029 A 
ATOM     57  C   UNL     1       8.485   9.201 -13.105  1.00  0.00     0.049 A 
ATOM     58  H   UNL     1       6.888   8.249 -12.108  1.00  0.00     0.167 HD
ATOM     59  C   UNL     1       7.752  10.854 -11.413  1.00  0.00     0.074 A 
ATOM     60  C   UNL     1       7.858  12.126 -10.730  1.00  0.00     0.031 C 
ATOM     61  C   UNL     1       8.556  10.471 -12.433  1.00  0.00     0.031 A 
BRANCH  48  62
ATOM     62  C   UNL     1       7.323   4.840 -14.636  1.00  0.00    -0.014 A 
ATOM     63  C   UNL     1       6.464   4.564 -15.712  1.00  0.00     0.009 A 
ATOM     64  C   UNL     1       8.528   4.130 -14.529  1.00  0.00     0.009 A 
ATOM     65  C   UNL     1       6.792   3.579 -16.645  1.00  0.00     0.001 A 
ATOM     66  C   UNL     1       8.867   3.166 -15.480  1.00  0.00     0.001 A 
ATOM     67  C   UNL     1       7.996   2.886 -16.533  1.00  0.00     0.000 A 
ENDBRANCH  48  62
BRANCH  49  68
ATOM     68  C   UNL     1       4.742  11.776  -7.928  1.00  0.00    -0.014 A 
ATOM     69  C   UNL     1       4.254  13.029  -8.334  1.00  0.00     0.009 A 
ATOM     70  C   UNL     1       4.947  11.542  -6.560  1.00  0.00     0.009 A 
ATOM     71  C   UNL     1       4.025  14.039  -7.397  1.00  0.00     0.001 A 
ATOM     72  C   UNL     1       4.684  12.543  -5.622  1.00  0.00     0.001 A 
ATOM     73  C   UNL     1       4.239  13.795  -6.042  1.00  0.00     0.000 A 
ENDBRANCH  49  68
BRANCH  61  74
ATOM     74  C   UNL     1       9.576  11.461 -12.920  1.00  0.00    -0.014 A 
ATOM     75  C   UNL     1      10.718  11.769 -12.166  1.00  0.00     0.009 A 
ATOM     76  C   UNL     1       9.411  12.056 -14.181  1.00  0.00     0.009 A 
ATOM     77  C   UNL     1      11.659  12.678 -12.653  1.00  0.00     0.001 A 
ATOM     78  C   UNL     1      10.368  12.940 -14.678  1.00  0.00     0.001 A 
ATOM     79  C   UNL     1      11.487  13.257 -13.910  1.00  0.00     0.000 A 
ENDBRANCH  61  74
ENDBRANCH  35  36
ENDBRANCH  27  30
ENDBRANCH  25  26
ENDBRANCH  24  25
ENDBRANCH   1  24
TORSDOF 15
