REMARK SMILES Cc1ccc(C)c([C@H]2[NH2+][C@@H](C(=O)NCCCNC(=O)c3ccc(-c4c5nc(c(-c6ccccc6)c6ccc([nH]6)c(-c6ccccc6)c6nc(c(-c7ccccc7)c7ccc4[nH]7)C=C6)C=C5)cc3)Cc3c2[nH]c2ccccc32)c1
REMARK SMILES IDX 15 1 14 2 13 3 11 4 12 5 10 7 8 8 9 9 70 10 69 13 71 14
REMARK SMILES IDX 68 15 77 16 72 17 76 19 73 20 75 21 74 22 7 23 1 24 2 25
REMARK SMILES IDX 3 26 78 27 4 28 5 29 6 30 16 31 17 32 18 33 19 35 20 36
REMARK SMILES IDX 21 37 67 38 22 39 66 40 23 41 24 42 25 43 60 44 26 45 65 46
REMARK SMILES IDX 59 47 61 48 27 49 64 50 58 51 57 52 28 54 50 55 35 56 49 57
REMARK SMILES IDX 36 58 39 59 48 60 62 61 37 62 38 63 47 65 63 66 40 67 29 68
REMARK SMILES IDX 30 69 34 70 31 71 33 72 32 73 51 74 52 75 56 76 53 77 55 78
REMARK SMILES IDX 54 79 41 80 42 81 46 82 43 83 45 84 44 85
REMARK H PARENT 13 6 9 11 9 12 71 18 17 34 61 53 39 64
REMARK Flexibility Score: inf
ROOT
ATOM      1  C   UNL     1      -3.106   8.313   1.048  1.00  0.00     0.042 C 
ENDROOT
BRANCH   1   2
ATOM      2  C   UNL     1      -3.479   7.426  -0.158  1.00  0.00     0.118 C 
BRANCH   2   3
ATOM      3  N   UNL     1      -2.374   7.229  -1.097  1.00  0.00    -0.351 N 
ATOM      4  C   UNL     1      -1.333   6.359  -1.166  1.00  0.00     0.278 C 
ATOM      5  O   UNL     1      -0.608   6.478  -2.167  1.00  0.00    -0.268 OA
ATOM      6  H   UNL     1      -2.388   7.869  -1.844  1.00  0.00     0.163 HD
BRANCH   4   7
ATOM      7  C   UNL     1      -1.073   5.190  -0.195  1.00  0.00     0.277 C 
ATOM      8  C   UNL     1      -1.413   2.699  -0.128  1.00  0.00     0.262 C 
ATOM      9  N   UNL     1      -1.657   3.987  -0.818  1.00  0.00    -0.325 N 
ATOM     10  C   UNL     1      -1.478   2.909   1.373  1.00  0.00     0.083 A 
ATOM     11  H   UNL     1      -2.667   4.125  -0.870  1.00  0.00     0.347 HD
ATOM     12  H   UNL     1      -1.194   3.901  -1.723  1.00  0.00     0.347 HD
ATOM     13  C   UNL     1      -1.476   4.140   1.998  1.00  0.00    -0.006 A 
ATOM     14  N   UNL     1      -1.429   1.966   2.376  1.00  0.00    -0.353 N 
ATOM     15  C   UNL     1      -1.526   5.405   1.243  1.00  0.00     0.114 C 
ATOM     16  C   UNL     1      -1.498   3.964   3.393  1.00  0.00     0.003 A 
ATOM     17  C   UNL     1      -1.466   2.590   3.618  1.00  0.00     0.046 A 
ATOM     18  H   UNL     1      -1.376   0.994   2.233  1.00  0.00     0.166 HD
ATOM     19  C   UNL     1      -1.551   4.861   4.476  1.00  0.00     0.010 A 
ATOM     20  C   UNL     1      -1.477   2.071   4.921  1.00  0.00     0.026 A 
ATOM     21  C   UNL     1      -1.569   4.358   5.774  1.00  0.00     0.001 A 
ATOM     22  C   UNL     1      -1.531   2.983   5.990  1.00  0.00     0.002 A 
BRANCH   8  23
ATOM     23  C   UNL     1      -2.401   1.721  -0.782  1.00  0.00     0.019 A 
ATOM     24  C   UNL     1      -6.005   0.527  -0.229  1.00  0.00     0.044 C 
ATOM     25  C   UNL     1      -4.670   0.774  -0.866  1.00  0.00    -0.051 A 
ATOM     26  C   UNL     1      -4.471   0.402  -2.196  1.00  0.00     0.004 A 
ATOM     27  C   UNL     1      -3.644   1.439  -0.175  1.00  0.00     0.014 A 
ATOM     28  C   UNL     1      -3.249   0.646  -2.814  1.00  0.00     0.004 A 
ATOM     29  C   UNL     1      -2.200   1.277  -2.123  1.00  0.00    -0.042 A 
ATOM     30  C   UNL     1      -0.957   1.571  -2.927  1.00  0.00     0.045 C 
ENDBRANCH   8  23
ENDBRANCH   4   7
ENDBRANCH   2   3
ENDBRANCH   1   2
BRANCH   1  31
ATOM     31  C   UNL     1      -3.267   9.835   0.895  1.00  0.00     0.118 C 
BRANCH  31  32
ATOM     32  N   UNL     1      -4.647  10.254   0.637  1.00  0.00    -0.352 N 
ATOM     33  C   UNL     1      -5.210  11.023  -0.368  1.00  0.00     0.251 C 
ATOM     34  H   UNL     1      -5.295   9.927   1.302  1.00  0.00     0.163 HD
ATOM     35  O   UNL     1      -6.338  11.469  -0.230  1.00  0.00    -0.269 OA
BRANCH  33  36
ATOM     36  C   UNL     1      -4.459  11.300  -1.614  1.00  0.00     0.039 A 
ATOM     37  C   UNL     1      -4.707  12.423  -2.403  1.00  0.00     0.014 A 
ATOM     38  C   UNL     1      -3.482  10.404  -2.010  1.00  0.00     0.014 A 
ATOM     39  C   UNL     1      -3.916  12.640  -3.535  1.00  0.00     0.010 A 
ATOM     40  C   UNL     1      -2.598  10.683  -3.010  1.00  0.00     0.010 A 
ATOM     41  C   UNL     1      -2.854  11.765  -3.822  1.00  0.00    -0.014 A 
BRANCH  41  42
ATOM     42  C   UNL     1      -1.903  12.021  -4.888  1.00  0.00     0.031 A 
ATOM     43  C   UNL     1      -1.224  13.330  -4.782  1.00  0.00     0.074 A 
ATOM     44  C   UNL     1      -1.458  11.087  -5.754  1.00  0.00     0.049 A 
ATOM     45  N   UNL     1      -1.459  14.378  -5.492  1.00  0.00    -0.248 NA
ATOM     46  C   UNL     1      -0.294  13.551  -3.664  1.00  0.00     0.031 C 
ATOM     47  C   UNL     1      -1.718   9.643  -5.766  1.00  0.00     0.029 A 
ATOM     48  N   UNL     1      -0.554  11.237  -6.758  1.00  0.00    -0.354 N 
ATOM     49  C   UNL     1      -0.547  15.333  -5.066  1.00  0.00     0.074 A 
ATOM     50  C   UNL     1      -0.018  14.848  -3.815  1.00  0.00     0.031 C 
ATOM     51  C   UNL     1      -0.820   9.031  -6.571  1.00  0.00     0.029 A 
ATOM     52  C   UNL     1      -0.040  10.047  -7.253  1.00  0.00     0.049 A 
ATOM     53  H   UNL     1      -0.287  12.118  -7.106  1.00  0.00     0.167 HD
ATOM     54  C   UNL     1      -0.102  16.299  -5.917  1.00  0.00     0.031 A 
ATOM     55  C   UNL     1       0.979   9.915  -8.137  1.00  0.00     0.031 A 
ATOM     56  C   UNL     1      -0.891  16.339  -7.128  1.00  0.00     0.049 A 
ATOM     57  C   UNL     1       1.141  11.218  -8.826  1.00  0.00     0.074 A 
ATOM     58  C   UNL     1      -2.239  16.469  -7.406  1.00  0.00     0.029 A 
ATOM     59  N   UNL     1      -0.327  15.795  -8.261  1.00  0.00    -0.354 N 
ATOM     60  N   UNL     1       0.274  11.698  -9.671  1.00  0.00    -0.248 NA
ATOM     61  C   UNL     1       2.046  12.197  -8.243  1.00  0.00     0.031 C 
ATOM     62  C   UNL     1      -2.484  15.548  -8.468  1.00  0.00     0.029 A 
ATOM     63  C   UNL     1      -1.265  14.978  -8.837  1.00  0.00     0.049 A 
ATOM     64  H   UNL     1       0.584  15.962  -8.595  1.00  0.00     0.167 HD
ATOM     65  C   UNL     1       0.210  13.053  -9.377  1.00  0.00     0.074 A 
ATOM     66  C   UNL     1       1.404  13.321  -8.577  1.00  0.00     0.031 C 
ATOM     67  C   UNL     1      -0.945  13.763  -9.556  1.00  0.00     0.031 A 
BRANCH  54  68
ATOM     68  C   UNL     1       1.283  16.895  -5.859  1.00  0.00    -0.014 A 
ATOM     69  C   UNL     1       1.618  17.894  -6.791  1.00  0.00     0.009 A 
ATOM     70  C   UNL     1       2.347  16.333  -5.129  1.00  0.00     0.009 A 
ATOM     71  C   UNL     1       2.950  18.237  -7.046  1.00  0.00     0.001 A 
ATOM     72  C   UNL     1       3.675  16.707  -5.347  1.00  0.00     0.001 A 
ATOM     73  C   UNL     1       3.979  17.635  -6.330  1.00  0.00     0.000 A 
ENDBRANCH  54  68
BRANCH  55  74
ATOM     74  C   UNL     1       1.948   8.811  -8.298  1.00  0.00    -0.014 A 
ATOM     75  C   UNL     1       2.737   8.718  -9.456  1.00  0.00     0.009 A 
ATOM     76  C   UNL     1       2.293   7.994  -7.206  1.00  0.00     0.009 A 
ATOM     77  C   UNL     1       3.856   7.877  -9.501  1.00  0.00     0.001 A 
ATOM     78  C   UNL     1       3.406   7.148  -7.253  1.00  0.00     0.001 A 
ATOM     79  C   UNL     1       4.199   7.104  -8.395  1.00  0.00     0.000 A 
ENDBRANCH  55  74
BRANCH  67  80
ATOM     80  C   UNL     1      -2.069  13.129 -10.342  1.00  0.00    -0.014 A 
ATOM     81  C   UNL     1      -2.636  11.882 -10.024  1.00  0.00     0.009 A 
ATOM     82  C   UNL     1      -2.671  13.886 -11.359  1.00  0.00     0.009 A 
ATOM     83  C   UNL     1      -3.740  11.393 -10.731  1.00  0.00     0.001 A 
ATOM     84  C   UNL     1      -3.789  13.412 -12.047  1.00  0.00     0.001 A 
ATOM     85  C   UNL     1      -4.318  12.161 -11.740  1.00  0.00     0.000 A 
ENDBRANCH  67  80
ENDBRANCH  41  42
ENDBRANCH  33  36
ENDBRANCH  31  32
ENDBRANCH   1  31
TORSDOF 11
