REMARK SMILES O=C(CC[C@H]1CCC[N@@H+](Cc2cccc(C3CC3)c2)C1)NCCCNC(=O)c1ccc(-c2c3nc(c(-c4ccccc4)c4ccc([nH]4)c(-c4ccccc4)c4nc(c(-c5ccccc5)c5ccc2[nH]5)C=C4)C=C3)cc1
REMARK SMILES IDX 1 1 2 2 21 3 3 5 4 6 5 7 6 8 20 9 7 10 9 11 8 12 10 14 11 15
REMARK SMILES IDX 12 16 19 17 13 18 15 19 14 20 16 21 17 22 18 23 22 24 23 25
REMARK SMILES IDX 24 26 25 27 26 28 27 30 28 31 29 32 75 33 30 34 74 35 31 36
REMARK SMILES IDX 32 37 33 38 68 39 34 40 73 41 67 42 69 43 35 44 72 45 66 46
REMARK SMILES IDX 65 47 36 49 58 50 43 51 57 52 44 53 47 54 56 55 70 56 45 57
REMARK SMILES IDX 46 58 55 60 71 61 48 62 37 63 38 64 42 65 39 66 41 67 40 68
REMARK SMILES IDX 59 69 60 70 64 71 61 72 63 73 62 74 49 75 50 76 54 77 51 78
REMARK SMILES IDX 53 79 52 80
REMARK H PARENT 21 4 9 13 25 29 69 48 47 59
REMARK Flexibility Score: inf
ROOT
ATOM      1  O   UNL     1       6.366   4.685   1.191  1.00  0.00    -0.275 OA
ATOM      2  C   UNL     1       5.588   4.007   0.532  1.00  0.00     0.220 C 
ATOM      3  N   UNL     1       4.219   4.056   0.664  1.00  0.00    -0.356 N 
ATOM      4  H   UNL     1       3.669   3.532   0.038  1.00  0.00     0.163 HD
ENDROOT
BRANCH   2   5
ATOM      5  C   UNL     1       6.052   2.990  -0.494  1.00  0.00     0.100 C 
BRANCH   5   6
ATOM      6  C   UNL     1       6.222   1.566   0.053  1.00  0.00     0.019 C 
BRANCH   6   7
ATOM      7  C   UNL     1       4.920   0.908   0.569  1.00  0.00     0.045 C 
ATOM      8  C   UNL     1       4.906  -0.608   0.325  1.00  0.00     0.015 C 
ATOM      9  C   UNL     1       4.771   1.137   2.081  1.00  0.00     0.265 C 
ATOM     10  C   UNL     1       3.643  -1.226   0.929  1.00  0.00     0.062 C 
ATOM     11  N   UNL     1       3.520   0.589   2.615  1.00  0.00    -0.331 N 
ATOM     12  C   UNL     1       3.472  -0.866   2.412  1.00  0.00     0.262 C 
ATOM     13  H   UNL     1       2.750   1.006   2.091  1.00  0.00     0.348 HD
BRANCH  11  14
ATOM     14  C   UNL     1       3.286   0.973   4.033  1.00  0.00     0.299 C 
BRANCH  14  15
ATOM     15  C   UNL     1       4.348   0.560   5.038  1.00  0.00     0.006 A 
ATOM     16  C   UNL     1       4.116  -0.467   5.955  1.00  0.00     0.009 A 
ATOM     17  C   UNL     1       5.616   1.169   5.026  1.00  0.00     0.013 A 
ATOM     18  C   UNL     1       5.147  -0.906   6.783  1.00  0.00     0.001 A 
ATOM     19  C   UNL     1       6.711   0.662   5.742  1.00  0.00    -0.044 A 
ATOM     20  C   UNL     1       6.432  -0.368   6.653  1.00  0.00     0.004 A 
BRANCH  19  21
ATOM     21  C   UNL     1       8.139   1.118   5.499  1.00  0.00     0.019 C 
ATOM     22  C   UNL     1       8.548   1.717   4.167  1.00  0.00     0.009 C 
ATOM     23  C   UNL     1       8.506   2.576   5.398  1.00  0.00     0.009 C 
ENDBRANCH  19  21
ENDBRANCH  14  15
ENDBRANCH  11  14
ENDBRANCH   6   7
ENDBRANCH   5   6
ENDBRANCH   2   5
BRANCH   3  24
ATOM     24  C   UNL     1       3.546   4.839   1.680  1.00  0.00     0.117 C 
BRANCH  24  25
ATOM     25  C   UNL     1       2.184   5.333   1.208  1.00  0.00     0.042 C 
BRANCH  25  26
ATOM     26  C   UNL     1       1.197   4.235   0.818  1.00  0.00     0.118 C 
BRANCH  26  27
ATOM     27  N   UNL     1       0.738   3.430   1.940  1.00  0.00    -0.352 N 
ATOM     28  C   UNL     1      -0.545   3.185   2.371  1.00  0.00     0.251 C 
ATOM     29  H   UNL     1       1.449   2.998   2.467  1.00  0.00     0.163 HD
ATOM     30  O   UNL     1      -0.739   2.591   3.429  1.00  0.00    -0.269 OA
BRANCH  28  31
ATOM     31  C   UNL     1      -1.702   3.662   1.577  1.00  0.00     0.039 A 
ATOM     32  C   UNL     1      -2.753   4.309   2.233  1.00  0.00     0.014 A 
ATOM     33  C   UNL     1      -1.754   3.480   0.192  1.00  0.00     0.014 A 
ATOM     34  C   UNL     1      -3.806   4.854   1.492  1.00  0.00     0.010 A 
ATOM     35  C   UNL     1      -2.764   4.088  -0.552  1.00  0.00     0.010 A 
ATOM     36  C   UNL     1      -3.793   4.796   0.088  1.00  0.00    -0.014 A 
BRANCH  36  37
ATOM     37  C   UNL     1      -4.814   5.510  -0.725  1.00  0.00     0.031 A 
ATOM     38  C   UNL     1      -5.751   4.753  -1.626  1.00  0.00     0.074 A 
ATOM     39  C   UNL     1      -4.849   6.858  -0.709  1.00  0.00     0.049 A 
ATOM     40  N   UNL     1      -6.652   5.216  -2.456  1.00  0.00    -0.248 NA
ATOM     41  C   UNL     1      -5.650   3.286  -1.606  1.00  0.00     0.031 C 
ATOM     42  C   UNL     1      -3.977   7.719   0.094  1.00  0.00     0.029 A 
ATOM     43  N   UNL     1      -5.645   7.742  -1.396  1.00  0.00    -0.354 N 
ATOM     44  C   UNL     1      -7.216   4.102  -3.064  1.00  0.00     0.074 A 
ATOM     45  C   UNL     1      -6.524   2.943  -2.542  1.00  0.00     0.031 C 
ATOM     46  C   UNL     1      -4.301   9.003  -0.128  1.00  0.00     0.029 A 
ATOM     47  C   UNL     1      -5.366   9.061  -1.123  1.00  0.00     0.049 A 
ATOM     48  H   UNL     1      -6.348   7.459  -2.023  1.00  0.00     0.167 HD
ATOM     49  C   UNL     1      -8.227   4.045  -3.965  1.00  0.00     0.031 A 
ATOM     50  C   UNL     1      -5.893  10.193  -1.628  1.00  0.00     0.031 A 
ATOM     51  C   UNL     1      -8.914   5.197  -4.491  1.00  0.00     0.049 A 
ATOM     52  C   UNL     1      -6.981  10.103  -2.662  1.00  0.00     0.074 A 
ATOM     53  C   UNL     1      -9.986   5.234  -5.367  1.00  0.00     0.029 A 
ATOM     54  N   UNL     1      -8.591   6.513  -4.200  1.00  0.00    -0.354 N 
ATOM     55  N   UNL     1      -7.550   9.038  -3.173  1.00  0.00    -0.248 NA
ATOM     56  C   UNL     1      -7.502  11.374  -3.184  1.00  0.00     0.031 C 
ATOM     57  C   UNL     1     -10.268   6.573  -5.658  1.00  0.00     0.029 A 
ATOM     58  C   UNL     1      -9.417   7.370  -4.910  1.00  0.00     0.049 A 
ATOM     59  H   UNL     1      -7.880   6.797  -3.581  1.00  0.00     0.167 HD
ATOM     60  C   UNL     1      -8.511   9.511  -4.058  1.00  0.00     0.074 A 
ATOM     61  C   UNL     1      -8.464  10.957  -3.996  1.00  0.00     0.031 C 
ATOM     62  C   UNL     1      -9.356   8.808  -4.851  1.00  0.00     0.031 A 
BRANCH  49  63
ATOM     63  C   UNL     1      -8.646   2.686  -4.456  1.00  0.00    -0.014 A 
ATOM     64  C   UNL     1      -9.300   1.774  -3.612  1.00  0.00     0.009 A 
ATOM     65  C   UNL     1      -8.424   2.328  -5.795  1.00  0.00     0.009 A 
ATOM     66  C   UNL     1      -9.690   0.520  -4.089  1.00  0.00     0.001 A 
ATOM     67  C   UNL     1      -8.843   1.087  -6.278  1.00  0.00     0.001 A 
ATOM     68  C   UNL     1      -9.466   0.180  -5.422  1.00  0.00     0.000 A 
ENDBRANCH  49  63
BRANCH  50  69
ATOM     69  C   UNL     1      -5.395  11.517  -1.169  1.00  0.00    -0.014 A 
ATOM     70  C   UNL     1      -6.215  12.362  -0.406  1.00  0.00     0.009 A 
ATOM     71  C   UNL     1      -4.101  11.949  -1.504  1.00  0.00     0.009 A 
ATOM     72  C   UNL     1      -5.760  13.623  -0.011  1.00  0.00     0.001 A 
ATOM     73  C   UNL     1      -3.638  13.196  -1.079  1.00  0.00     0.001 A 
ATOM     74  C   UNL     1      -4.471  14.036  -0.344  1.00  0.00     0.000 A 
ENDBRANCH  50  69
BRANCH  62  75
ATOM     75  C   UNL     1     -10.318   9.595  -5.699  1.00  0.00    -0.014 A 
ATOM     76  C   UNL     1      -9.876  10.339  -6.804  1.00  0.00     0.009 A 
ATOM     77  C   UNL     1     -11.691   9.563  -5.408  1.00  0.00     0.009 A 
ATOM     78  C   UNL     1     -10.785  11.064  -7.578  1.00  0.00     0.001 A 
ATOM     79  C   UNL     1     -12.601  10.261  -6.203  1.00  0.00     0.001 A 
ATOM     80  C   UNL     1     -12.147  11.020  -7.280  1.00  0.00     0.000 A 
ENDBRANCH  62  75
ENDBRANCH  36  37
ENDBRANCH  28  31
ENDBRANCH  26  27
ENDBRANCH  25  26
ENDBRANCH  24  25
ENDBRANCH   3  24
TORSDOF 15
