REMARK SMILES O=C(NCCCNC(=O)c1ccc(-c2c3nc(c(-c4ccccc4)c4ccc([nH]4)c(-c4ccccc4)c4nc(c(-c5ccccc5)c5ccc2[nH]5)C=C4)C=C3)cc1)C1=Cc2c(ccc(Cl)c2Cl)O[C@H]1C(F)(F)F
REMARK SMILES IDX 5 1 4 2 3 3 1 4 2 5 58 7 59 8 69 9 60 10 68 11 61 12 66 13
REMARK SMILES IDX 62 14 64 15 67 16 63 17 65 18 70 19 71 20 72 21 73 22 6 23
REMARK SMILES IDX 7 24 8 25 9 27 10 28 11 29 57 30 12 31 56 32 13 33 14 34
REMARK SMILES IDX 15 35 50 36 16 37 55 38 49 39 51 40 17 41 54 42 48 43 47 44
REMARK SMILES IDX 18 46 40 47 25 48 39 49 26 50 29 51 38 52 52 53 27 54 28 55
REMARK SMILES IDX 37 57 53 58 30 59 19 60 20 61 24 62 21 63 23 64 22 65 41 66
REMARK SMILES IDX 42 67 46 68 43 69 45 70 44 71 31 72 32 73 36 74 33 75 35 76
REMARK SMILES IDX 34 77
REMARK H PARENT 3 6 7 26 51 45 29 56
REMARK Flexibility Score: inf
ROOT
ATOM      1  C   UNL     1       3.900   0.036   2.956  1.00  0.00     0.042 C 
ENDROOT
BRANCH   1   2
ATOM      2  C   UNL     1       3.721  -0.238   1.474  1.00  0.00     0.118 C 
BRANCH   2   3
ATOM      3  N   UNL     1       2.375  -0.035   0.939  1.00  0.00    -0.352 N 
ATOM      4  O   UNL     1       0.875   0.312  -0.747  1.00  0.00    -0.270 OA
ATOM      5  C   UNL     1       2.027   0.151  -0.389  1.00  0.00     0.251 C 
ATOM      6  H   UNL     1       1.638  -0.029   1.591  1.00  0.00     0.163 HD
BRANCH   5   7
ATOM      7  C   UNL     1       3.160   0.164  -1.349  1.00  0.00     0.067 C 
ATOM      8  C   UNL     1       3.691  -1.043  -1.581  1.00  0.00     0.027 C 
ATOM      9  C   UNL     1       3.880   1.466  -1.501  1.00  0.00     0.314 C 
ATOM     10  C   UNL     1       5.152  -1.111  -1.406  1.00  0.00     0.037 A 
ATOM     11  O   UNL     1       5.326   1.342  -1.457  1.00  0.00    -0.475 OA
ATOM     12  C   UNL     1       5.859   0.096  -1.247  1.00  0.00     0.129 A 
ATOM     13  C   UNL     1       5.785  -2.327  -1.056  1.00  0.00     0.070 A 
ATOM     14  C   UNL     1       7.151   0.100  -0.720  1.00  0.00     0.049 A 
ATOM     15  C   UNL     1       7.067  -2.305  -0.482  1.00  0.00     0.060 A 
ATOM     16  Cl  UNL     1       4.938  -3.841  -1.210  1.00  0.00    -0.082 Cl
ATOM     17  C   UNL     1       7.739  -1.093  -0.308  1.00  0.00     0.026 A 
ATOM     18  Cl  UNL     1       7.842  -3.729   0.119  1.00  0.00    -0.083 Cl
BRANCH   9  19
ATOM     19  C   UNL     1       3.447   2.235  -2.765  1.00  0.00     0.429 C 
ATOM     20  F   UNL     1       2.297   1.771  -3.302  1.00  0.00    -0.167 F 
ATOM     21  F   UNL     1       3.248   3.546  -2.477  1.00  0.00    -0.167 F 
ATOM     22  F   UNL     1       4.387   2.182  -3.739  1.00  0.00    -0.167 F 
ENDBRANCH   9  19
ENDBRANCH   5   7
ENDBRANCH   2   3
ENDBRANCH   1   2
BRANCH   1  23
ATOM     23  C   UNL     1       3.446  -1.099   3.861  1.00  0.00     0.118 C 
BRANCH  23  24
ATOM     24  N   UNL     1       4.242  -2.314   3.720  1.00  0.00    -0.352 N 
ATOM     25  C   UNL     1       5.224  -2.909   4.476  1.00  0.00     0.251 C 
ATOM     26  H   UNL     1       4.029  -2.820   2.903  1.00  0.00     0.163 HD
ATOM     27  O   UNL     1       5.785  -3.899   4.005  1.00  0.00    -0.269 OA
BRANCH  25  28
ATOM     28  C   UNL     1       5.657  -2.412   5.808  1.00  0.00     0.039 A 
ATOM     29  C   UNL     1       6.969  -2.689   6.227  1.00  0.00     0.014 A 
ATOM     30  C   UNL     1       4.804  -1.759   6.693  1.00  0.00     0.014 A 
ATOM     31  C   UNL     1       7.426  -2.266   7.482  1.00  0.00     0.010 A 
ATOM     32  C   UNL     1       5.289  -1.236   7.892  1.00  0.00     0.010 A 
ATOM     33  C   UNL     1       6.599  -1.500   8.315  1.00  0.00    -0.014 A 
BRANCH  33  34
ATOM     34  C   UNL     1       7.048  -1.005   9.646  1.00  0.00     0.031 A 
ATOM     35  C   UNL     1       6.282  -1.381  10.890  1.00  0.00     0.074 A 
ATOM     36  C   UNL     1       8.081  -0.144   9.739  1.00  0.00     0.049 A 
ATOM     37  N   UNL     1       6.401  -0.918  12.110  1.00  0.00    -0.248 NA
ATOM     38  C   UNL     1       5.206  -2.373  10.731  1.00  0.00     0.031 C 
ATOM     39  C   UNL     1       8.883   0.352   8.620  1.00  0.00     0.029 A 
ATOM     40  N   UNL     1       8.623   0.479  10.837  1.00  0.00    -0.354 N 
ATOM     41  C   UNL     1       5.372  -1.504  12.838  1.00  0.00     0.074 A 
ATOM     42  C   UNL     1       4.627  -2.337  11.921  1.00  0.00     0.031 C 
ATOM     43  C   UNL     1       9.834   1.176   9.091  1.00  0.00     0.029 A 
ATOM     44  C   UNL     1       9.685   1.296  10.537  1.00  0.00     0.049 A 
ATOM     45  H   UNL     1       8.283   0.351  11.752  1.00  0.00     0.167 HD
ATOM     46  C   UNL     1       5.078  -1.374  14.155  1.00  0.00     0.031 A 
ATOM     47  C   UNL     1      10.455   2.059  11.336  1.00  0.00     0.031 A 
ATOM     48  C   UNL     1       5.864  -0.618  15.090  1.00  0.00     0.049 A 
ATOM     49  C   UNL     1      10.185   2.092  12.812  1.00  0.00     0.074 A 
ATOM     50  C   UNL     1       5.696  -0.491  16.459  1.00  0.00     0.029 A 
ATOM     51  N   UNL     1       6.989   0.118  14.755  1.00  0.00    -0.354 N 
ATOM     52  N   UNL     1       9.225   1.511  13.488  1.00  0.00    -0.248 NA
ATOM     53  C   UNL     1      11.117   2.876  13.636  1.00  0.00     0.031 C 
ATOM     54  C   UNL     1       6.717   0.331  16.950  1.00  0.00     0.029 A 
ATOM     55  C   UNL     1       7.532   0.692  15.890  1.00  0.00     0.049 A 
ATOM     56  H   UNL     1       7.349   0.217  13.844  1.00  0.00     0.167 HD
ATOM     57  C   UNL     1       9.447   1.840  14.818  1.00  0.00     0.074 A 
ATOM     58  C   UNL     1      10.640   2.661  14.855  1.00  0.00     0.031 C 
ATOM     59  C   UNL     1       8.725   1.496  15.911  1.00  0.00     0.031 A 
BRANCH  46  60
ATOM     60  C   UNL     1       3.846  -2.074  14.656  1.00  0.00    -0.014 A 
ATOM     61  C   UNL     1       3.803  -3.470  14.794  1.00  0.00     0.009 A 
ATOM     62  C   UNL     1       2.712  -1.321  14.999  1.00  0.00     0.009 A 
ATOM     63  C   UNL     1       2.634  -4.102  15.222  1.00  0.00     0.001 A 
ATOM     64  C   UNL     1       1.553  -1.954  15.453  1.00  0.00     0.001 A 
ATOM     65  C   UNL     1       1.511  -3.344  15.552  1.00  0.00     0.000 A 
ENDBRANCH  46  60
BRANCH  47  66
ATOM     66  C   UNL     1      11.588   2.822  10.758  1.00  0.00    -0.014 A 
ATOM     67  C   UNL     1      12.902   2.353  10.912  1.00  0.00     0.009 A 
ATOM     68  C   UNL     1      11.366   4.009  10.044  1.00  0.00     0.009 A 
ATOM     69  C   UNL     1      13.975   3.070  10.379  1.00  0.00     0.001 A 
ATOM     70  C   UNL     1      12.441   4.713   9.495  1.00  0.00     0.001 A 
ATOM     71  C   UNL     1      13.744   4.247   9.669  1.00  0.00     0.000 A 
ENDBRANCH  47  66
BRANCH  59  72
ATOM     72  C   UNL     1       9.229   1.974  17.239  1.00  0.00    -0.014 A 
ATOM     73  C   UNL     1       9.042   3.303  17.648  1.00  0.00     0.009 A 
ATOM     74  C   UNL     1       9.871   1.074  18.103  1.00  0.00     0.009 A 
ATOM     75  C   UNL     1       9.516   3.728  18.891  1.00  0.00     0.001 A 
ATOM     76  C   UNL     1      10.327   1.499  19.351  1.00  0.00     0.001 A 
ATOM     77  C   UNL     1      10.155   2.826  19.741  1.00  0.00     0.000 A 
ENDBRANCH  59  72
ENDBRANCH  33  34
ENDBRANCH  25  28
ENDBRANCH  23  24
ENDBRANCH   1  23
TORSDOF 11
