REMARK SMILES CCOc1cccc(C(=O)Nc2ccc(Cl)c(C(=O)NCCCNC(=O)c3ccc(-c4c5nc(c(-c6ccccc6)c6ccc([nH]6)c(-c6ccccc6)c6nc(c(-c7ccccc7)c7ccc4[nH]7)C=C6)C=C5)cc3)c2)c1
REMARK SMILES IDX 21 1 20 2 18 3 19 4 17 6 12 7 13 8 75 9 14 10 15 11 16 12
REMARK SMILES IDX 11 13 9 14 10 15 8 17 4 18 5 19 76 20 6 21 7 22 3 23 2 24
REMARK SMILES IDX 1 25 22 26 23 27 24 28 25 29 26 31 27 32 28 33 74 34 29 35
REMARK SMILES IDX 73 36 30 37 31 38 32 39 67 40 33 41 72 42 66 43 68 44 34 45
REMARK SMILES IDX 71 46 65 47 64 48 35 50 57 51 42 52 56 53 43 54 46 55 55 56
REMARK SMILES IDX 69 57 44 58 45 59 54 61 70 62 47 63 36 64 37 65 41 66 38 67
REMARK SMILES IDX 40 68 39 69 58 70 59 71 63 72 60 73 62 74 61 75 48 76 49 77
REMARK SMILES IDX 53 78 50 79 52 80 51 81
REMARK H PARENT 20 5 11 16 24 30 68 49 46 60
REMARK Flexibility Score: inf
ROOT
ATOM      1  C   UNL     1       1.405  -0.016   3.584  1.00  0.00     0.118 C 
ENDROOT
BRANCH   1   2
ATOM      2  N   UNL     1       0.341   0.857   3.136  1.00  0.00    -0.352 N 
ATOM      3  C   UNL     1       0.240   1.771   2.116  1.00  0.00     0.252 C 
ATOM      4  O   UNL     1      -0.767   2.477   2.140  1.00  0.00    -0.269 OA
ATOM      5  H   UNL     1      -0.481   0.778   3.672  1.00  0.00     0.163 HD
BRANCH   3   6
ATOM      6  C   UNL     1       1.250   1.928   1.020  1.00  0.00     0.060 A 
ATOM      7  C   UNL     1       3.532   1.720   0.154  1.00  0.00     0.042 A 
ATOM      8  C   UNL     1       3.136   2.260  -1.064  1.00  0.00     0.028 A 
ATOM      9  C   UNL     1       2.617   1.653   1.211  1.00  0.00     0.041 A 
ATOM     10  C   UNL     1       1.796   2.575  -1.271  1.00  0.00     0.023 A 
ATOM     11  C   UNL     1       0.849   2.376  -0.255  1.00  0.00     0.053 A 
ATOM     12  Cl  UNL     1      -0.796   2.639  -0.728  1.00  0.00    -0.083 Cl
BRANCH   7  13
ATOM     13  N   UNL     1       4.847   1.246   0.253  1.00  0.00    -0.322 N 
ATOM     14  C   UNL     1       5.382   0.160   0.918  1.00  0.00     0.255 C 
ATOM     15  O   UNL     1       6.603   0.118   1.075  1.00  0.00    -0.269 OA
ATOM     16  H   UNL     1       5.509   1.784  -0.240  1.00  0.00     0.170 HD
BRANCH  14  17
ATOM     17  C   UNL     1       4.567  -1.015   1.360  1.00  0.00     0.043 A 
ATOM     18  C   UNL     1       2.578  -2.408   1.325  1.00  0.00     0.120 A 
ATOM     19  C   UNL     1       3.088  -3.165   2.380  1.00  0.00     0.046 A 
ATOM     20  C   UNL     1       3.345  -1.378   0.773  1.00  0.00     0.060 A 
ATOM     21  C   UNL     1       4.356  -2.895   2.889  1.00  0.00     0.005 A 
ATOM     22  C   UNL     1       5.085  -1.812   2.393  1.00  0.00     0.014 A 
BRANCH  18  23
ATOM     23  O   UNL     1       1.251  -2.599   1.060  1.00  0.00    -0.494 OA
BRANCH  23  24
ATOM     24  C   UNL     1       0.841  -2.638  -0.305  1.00  0.00     0.226 C 
ATOM     25  C   UNL     1       0.330  -1.294  -0.798  1.00  0.00     0.049 C 
ENDBRANCH  23  24
ENDBRANCH  18  23
ENDBRANCH  14  17
ENDBRANCH   7  13
ENDBRANCH   3   6
ENDBRANCH   1   2
BRANCH   1  26
ATOM     26  C   UNL     1       2.246   0.666   4.658  1.00  0.00     0.042 C 
BRANCH  26  27
ATOM     27  C   UNL     1       1.601   0.574   6.031  1.00  0.00     0.118 C 
BRANCH  27  28
ATOM     28  N   UNL     1       1.727  -0.764   6.591  1.00  0.00    -0.352 N 
ATOM     29  C   UNL     1       2.208  -1.154   7.811  1.00  0.00     0.251 C 
ATOM     30  H   UNL     1       1.422  -1.495   6.006  1.00  0.00     0.163 HD
ATOM     31  O   UNL     1       2.440  -2.348   8.019  1.00  0.00    -0.269 OA
BRANCH  29  32
ATOM     32  C   UNL     1       2.465  -0.161   8.875  1.00  0.00     0.039 A 
ATOM     33  C   UNL     1       3.571  -0.343   9.711  1.00  0.00     0.014 A 
ATOM     34  C   UNL     1       1.606   0.923   9.082  1.00  0.00     0.014 A 
ATOM     35  C   UNL     1       3.829   0.574  10.731  1.00  0.00     0.010 A 
ATOM     36  C   UNL     1       1.915   1.884  10.040  1.00  0.00     0.010 A 
ATOM     37  C   UNL     1       3.012   1.704  10.892  1.00  0.00    -0.014 A 
BRANCH  37  38
ATOM     38  C   UNL     1       3.269   2.679  11.980  1.00  0.00     0.031 A 
ATOM     39  C   UNL     1       2.260   2.861  13.083  1.00  0.00     0.074 A 
ATOM     40  C   UNL     1       4.392   3.421  11.960  1.00  0.00     0.049 A 
ATOM     41  N   UNL     1       2.306   3.659  14.121  1.00  0.00    -0.248 NA
ATOM     42  C   UNL     1       1.025   2.064  12.996  1.00  0.00     0.031 C 
ATOM     43  C   UNL     1       5.421   3.376  10.919  1.00  0.00     0.029 A 
ATOM     44  N   UNL     1       4.857   4.357  12.848  1.00  0.00    -0.354 N 
ATOM     45  C   UNL     1       1.104   3.474  14.792  1.00  0.00     0.074 A 
ATOM     46  C   UNL     1       0.326   2.533  14.018  1.00  0.00     0.031 C 
ATOM     47  C   UNL     1       6.415   4.216  11.249  1.00  0.00     0.029 A 
ATOM     48  C   UNL     1       6.081   4.878  12.506  1.00  0.00     0.049 A 
ATOM     49  H   UNL     1       4.361   4.630  13.654  1.00  0.00     0.167 HD
ATOM     50  C   UNL     1       0.691   4.018  15.962  1.00  0.00     0.031 A 
ATOM     51  C   UNL     1       6.851   5.780  13.140  1.00  0.00     0.031 A 
ATOM     52  C   UNL     1       1.473   4.937  16.743  1.00  0.00     0.049 A 
ATOM     53  C   UNL     1       6.385   6.349  14.450  1.00  0.00     0.074 A 
ATOM     54  C   UNL     1       1.172   5.501  17.971  1.00  0.00     0.029 A 
ATOM     55  N   UNL     1       2.716   5.424  16.371  1.00  0.00    -0.354 N 
ATOM     56  N   UNL     1       5.276   6.109  15.108  1.00  0.00    -0.248 NA
ATOM     57  C   UNL     1       7.288   7.298  15.115  1.00  0.00     0.031 C 
ATOM     58  C   UNL     1       2.217   6.362  18.322  1.00  0.00     0.029 A 
ATOM     59  C   UNL     1       3.190   6.295  17.338  1.00  0.00     0.049 A 
ATOM     60  H   UNL     1       3.191   5.187  15.542  1.00  0.00     0.167 HD
ATOM     61  C   UNL     1       5.359   6.857  16.275  1.00  0.00     0.074 A 
ATOM     62  C   UNL     1       6.637   7.541  16.243  1.00  0.00     0.031 C 
ATOM     63  C   UNL     1       4.460   6.970  17.283  1.00  0.00     0.031 A 
BRANCH  50  64
ATOM     64  C   UNL     1      -0.673   3.626  16.459  1.00  0.00    -0.014 A 
ATOM     65  C   UNL     1      -0.932   2.328  16.929  1.00  0.00     0.009 A 
ATOM     66  C   UNL     1      -1.711   4.571  16.471  1.00  0.00     0.009 A 
ATOM     67  C   UNL     1      -2.212   1.973  17.361  1.00  0.00     0.001 A 
ATOM     68  C   UNL     1      -2.982   4.221  16.931  1.00  0.00     0.001 A 
ATOM     69  C   UNL     1      -3.235   2.920  17.365  1.00  0.00     0.000 A 
ENDBRANCH  50  64
BRANCH  51  70
ATOM     70  C   UNL     1       8.164   6.172  12.566  1.00  0.00    -0.014 A 
ATOM     71  C   UNL     1       9.358   5.742  13.165  1.00  0.00     0.009 A 
ATOM     72  C   UNL     1       8.231   6.976  11.418  1.00  0.00     0.009 A 
ATOM     73  C   UNL     1      10.593   6.133  12.643  1.00  0.00     0.001 A 
ATOM     74  C   UNL     1       9.468   7.343  10.882  1.00  0.00     0.001 A 
ATOM     75  C   UNL     1      10.647   6.930  11.500  1.00  0.00     0.000 A 
ENDBRANCH  51  70
BRANCH  63  76
ATOM     76  C   UNL     1       4.847   7.843  18.443  1.00  0.00    -0.014 A 
ATOM     77  C   UNL     1       4.889   9.241  18.321  1.00  0.00     0.009 A 
ATOM     78  C   UNL     1       5.158   7.257  19.679  1.00  0.00     0.009 A 
ATOM     79  C   UNL     1       5.278  10.031  19.404  1.00  0.00     0.001 A 
ATOM     80  C   UNL     1       5.518   8.052  20.768  1.00  0.00     0.001 A 
ATOM     81  C   UNL     1       5.590   9.436  20.626  1.00  0.00     0.000 A 
ENDBRANCH  63  76
ENDBRANCH  37  38
ENDBRANCH  29  32
ENDBRANCH  27  28
ENDBRANCH  26  27
ENDBRANCH   1  26
TORSDOF 14
