REMARK SMILES NC(=O)N[C@@H]1CCCCC[C@H]1C(=O)NCCCNC(=O)c1ccc(-c2c3nc(c(-c4ccccc4)c4ccc([nH]4)c(-c4ccccc4)c4nc(c(-c5ccccc5)c5ccc2[nH]5)C=C4)C=C3)cc1
REMARK SMILES IDX 15 1 14 2 12 3 13 4 11 6 5 7 4 8 1 9 2 10 3 13 6 15 10 17
REMARK SMILES IDX 9 18 8 19 7 20 16 22 17 23 18 24 19 25 20 27 21 28 22 29
REMARK SMILES IDX 68 30 23 31 67 32 24 33 25 34 26 35 61 36 27 37 66 38 60 39
REMARK SMILES IDX 62 40 28 41 65 42 59 43 58 44 29 46 51 47 36 48 50 49 37 50
REMARK SMILES IDX 40 51 49 52 63 53 38 54 39 55 48 57 64 58 41 59 30 60 31 61
REMARK SMILES IDX 35 62 32 63 34 64 33 65 52 66 53 67 57 68 54 69 56 70 55 71
REMARK SMILES IDX 42 72 43 73 47 74 44 75 46 76 45 77
REMARK H PARENT 14 5 1 11 1 12 4 14 18 26 62 45 40 56
REMARK Flexibility Score: 90.00
ROOT
ATOM      1  C   UNL     1       5.878  -2.510   1.466  1.00  0.00     0.117 C 
ENDROOT
BRANCH   1   2
ATOM      2  N   UNL     1       5.216  -1.229   1.498  1.00  0.00    -0.356 N 
ATOM      3  C   UNL     1       3.974  -0.844   1.867  1.00  0.00     0.225 C 
ATOM      4  O   UNL     1       3.728   0.356   1.676  1.00  0.00    -0.275 OA
ATOM      5  H   UNL     1       5.782  -0.486   1.188  1.00  0.00     0.163 HD
BRANCH   3   6
ATOM      6  C   UNL     1       2.846  -1.753   2.385  1.00  0.00     0.101 C 
BRANCH   6   7
ATOM      7  C   UNL     1       2.136  -2.519   1.248  1.00  0.00     0.096 C 
BRANCH   7   8
ATOM      8  N   UNL     1       0.771  -1.984   1.036  1.00  0.00    -0.335 N 
ATOM      9  N   UNL     1       1.242   0.006  -0.029  1.00  0.00    -0.352 N 
ATOM     10  C   UNL     1       0.335  -0.867   0.428  1.00  0.00     0.312 C 
ATOM     11  H   UNL     1       0.949   0.831  -0.478  1.00  0.00     0.161 HD
ATOM     12  H   UNL     1       2.203  -0.178   0.085  1.00  0.00     0.161 HD
ATOM     13  O   UNL     1      -0.871  -0.665   0.287  1.00  0.00    -0.249 OA
ATOM     14  H   UNL     1       0.054  -2.547   1.408  1.00  0.00     0.165 HD
ENDBRANCH   7   8
BRANCH   7  15
ATOM     15  C   UNL     1       1.950  -4.031   1.455  1.00  0.00     0.026 CG0
ATOM     16  G   UNL     1       3.207  -4.838   1.700  1.00  0.00     0.000 G0
ENDBRANCH   7  15
ENDBRANCH   6   7
BRANCH   6  17
ATOM     17  C   UNL     1       2.999  -2.442   3.747  1.00  0.00     0.015 C 
BRANCH  17  18
ATOM     18  C   UNL     1       3.917  -3.637   3.948  1.00  0.00     0.001 C 
BRANCH  18  19
ATOM     19  C   UNL     1       3.636  -4.918   3.162  1.00  0.00     0.000 C 
BRANCH  19  20
ATOM     20  C   UNL     1       3.207  -4.838   1.700  1.00  0.00     0.002 CG0
ATOM     21  G   UNL     1       1.950  -4.031   1.455  1.00  0.00     0.000 G0
ENDBRANCH  19  20
ENDBRANCH  18  19
ENDBRANCH  17  18
ENDBRANCH   6  17
ENDBRANCH   3   6
ENDBRANCH   1   2
BRANCH   1  22
ATOM     22  C   UNL     1       6.117  -3.026   0.055  1.00  0.00     0.042 C 
BRANCH  22  23
ATOM     23  C   UNL     1       7.566  -2.893  -0.380  1.00  0.00     0.118 C 
BRANCH  23  24
ATOM     24  N   UNL     1       8.451  -3.793   0.358  1.00  0.00    -0.352 N 
ATOM     25  C   UNL     1       9.103  -4.946  -0.012  1.00  0.00     0.251 C 
ATOM     26  H   UNL     1       8.610  -3.524   1.292  1.00  0.00     0.163 HD
ATOM     27  O   UNL     1       9.625  -5.640   0.858  1.00  0.00    -0.269 OA
BRANCH  25  28
ATOM     28  C   UNL     1       9.171  -5.376  -1.427  1.00  0.00     0.039 A 
ATOM     29  C   UNL     1       9.188  -6.743  -1.728  1.00  0.00     0.014 A 
ATOM     30  C   UNL     1       9.257  -4.448  -2.463  1.00  0.00     0.014 A 
ATOM     31  C   UNL     1       9.215  -7.166  -3.062  1.00  0.00     0.010 A 
ATOM     32  C   UNL     1       9.148  -4.863  -3.783  1.00  0.00     0.010 A 
ATOM     33  C   UNL     1       9.149  -6.227  -4.103  1.00  0.00    -0.014 A 
BRANCH  33  34
ATOM     34  C   UNL     1       9.122  -6.627  -5.534  1.00  0.00     0.031 A 
ATOM     35  C   UNL     1      10.185  -6.118  -6.474  1.00  0.00     0.074 A 
ATOM     36  C   UNL     1       8.097  -7.361  -6.010  1.00  0.00     0.049 A 
ATOM     37  N   UNL     1      10.262  -6.230  -7.776  1.00  0.00    -0.248 NA
ATOM     38  C   UNL     1      11.285  -5.341  -5.876  1.00  0.00     0.031 C 
ATOM     39  C   UNL     1       6.976  -7.875  -5.219  1.00  0.00     0.029 A 
ATOM     40  N   UNL     1       7.826  -7.792  -7.285  1.00  0.00    -0.354 N 
ATOM     41  C   UNL     1      11.387  -5.504  -8.150  1.00  0.00     0.074 A 
ATOM     42  C   UNL     1      11.928  -4.909  -6.950  1.00  0.00     0.031 C 
ATOM     43  C   UNL     1       6.160  -8.580  -6.018  1.00  0.00     0.029 A 
ATOM     44  C   UNL     1       6.670  -8.527  -7.384  1.00  0.00     0.049 A 
ATOM     45  H   UNL     1       8.406  -7.594  -8.055  1.00  0.00     0.167 HD
ATOM     46  C   UNL     1      11.940  -5.364  -9.379  1.00  0.00     0.031 A 
ATOM     47  C   UNL     1       6.081  -9.089  -8.456  1.00  0.00     0.031 A 
ATOM     48  C   UNL     1      11.428  -5.993 -10.566  1.00  0.00     0.049 A 
ATOM     49  C   UNL     1       6.725  -8.940  -9.806  1.00  0.00     0.074 A 
ATOM     50  C   UNL     1      11.956  -5.980 -11.845  1.00  0.00     0.029 A 
ATOM     51  N   UNL     1      10.274  -6.759 -10.614  1.00  0.00    -0.354 N 
ATOM     52  N   UNL     1       7.822  -8.302 -10.132  1.00  0.00    -0.248 NA
ATOM     53  C   UNL     1       6.052  -9.599 -10.934  1.00  0.00     0.031 C 
ATOM     54  C   UNL     1      11.095  -6.703 -12.677  1.00  0.00     0.029 A 
ATOM     55  C   UNL     1      10.062  -7.209 -11.905  1.00  0.00     0.049 A 
ATOM     56  H   UNL     1       9.691  -6.953  -9.844  1.00  0.00     0.167 HD
ATOM     57  C   UNL     1       7.986  -8.504 -11.496  1.00  0.00     0.074 A 
ATOM     58  C   UNL     1       6.885  -9.338 -11.932  1.00  0.00     0.031 C 
ATOM     59  C   UNL     1       8.961  -8.040 -12.316  1.00  0.00     0.031 A 
BRANCH  46  60
ATOM     60  C   UNL     1      13.165  -4.498  -9.494  1.00  0.00    -0.014 A 
ATOM     61  C   UNL     1      14.392  -4.891  -8.935  1.00  0.00     0.009 A 
ATOM     62  C   UNL     1      13.098  -3.282 -10.191  1.00  0.00     0.009 A 
ATOM     63  C   UNL     1      15.513  -4.064  -9.031  1.00  0.00     0.001 A 
ATOM     64  C   UNL     1      14.228  -2.471 -10.314  1.00  0.00     0.001 A 
ATOM     65  C   UNL     1      15.431  -2.857  -9.725  1.00  0.00     0.000 A 
ENDBRANCH  46  60
BRANCH  47  66
ATOM     66  C   UNL     1       4.825  -9.867  -8.295  1.00  0.00    -0.014 A 
ATOM     67  C   UNL     1       4.833 -11.264  -8.435  1.00  0.00     0.009 A 
ATOM     68  C   UNL     1       3.613  -9.223  -8.001  1.00  0.00     0.009 A 
ATOM     69  C   UNL     1       3.650 -11.996  -8.311  1.00  0.00     0.001 A 
ATOM     70  C   UNL     1       2.437  -9.961  -7.848  1.00  0.00     0.001 A 
ATOM     71  C   UNL     1       2.454 -11.345  -8.013  1.00  0.00     0.000 A 
ENDBRANCH  47  66
BRANCH  59  72
ATOM     72  C   UNL     1       8.898  -8.455 -13.758  1.00  0.00    -0.014 A 
ATOM     73  C   UNL     1       7.940  -7.916 -14.630  1.00  0.00     0.009 A 
ATOM     74  C   UNL     1       9.842  -9.365 -14.259  1.00  0.00     0.009 A 
ATOM     75  C   UNL     1       7.909  -8.307 -15.970  1.00  0.00     0.001 A 
ATOM     76  C   UNL     1       9.827  -9.731 -15.605  1.00  0.00     0.001 A 
ATOM     77  C   UNL     1       8.855  -9.209 -16.457  1.00  0.00     0.000 A 
ENDBRANCH  59  72
ENDBRANCH  33  34
ENDBRANCH  25  28
ENDBRANCH  23  24
ENDBRANCH  22  23
ENDBRANCH   1  22
TORSDOF 11
