REMARK SMILES C[C@@H](C(=O)NCCCNC(=O)c1ccc(-c2c3nc(c(-c4ccccc4)c4ccc([nH]4)c(-c4ccccc4)c4nc(c(-c5ccccc5)c5ccc2[nH]5)C=C4)C=C3)cc1)c1ccc(-c2cccc(OC(=O)NC3CC3)c2)c(F)c1
REMARK SMILES IDX 3 1 4 2 5 3 2 5 1 6 60 7 61 8 79 9 62 10 77 11 63 12 78 13
REMARK SMILES IDX 64 14 65 15 76 16 66 17 68 18 67 19 69 20 70 21 71 22 72 23
REMARK SMILES IDX 73 25 74 26 75 27 6 28 7 29 8 30 9 31 10 32 11 34 12 35
REMARK SMILES IDX 13 36 59 37 14 38 58 39 15 40 16 41 17 42 52 43 18 44 57 45
REMARK SMILES IDX 51 46 53 47 19 48 56 49 50 50 49 51 20 53 42 54 27 55 41 56
REMARK SMILES IDX 28 57 31 58 40 59 54 60 29 61 30 62 39 64 55 65 32 66 21 67
REMARK SMILES IDX 22 68 26 69 23 70 25 71 24 72 43 73 44 74 48 75 45 76 47 77
REMARK SMILES IDX 46 78 33 79 34 80 38 81 35 82 37 83 36 84
REMARK H PARENT 5 4 72 24 9 33 53 52 31 63
REMARK Flexibility Score: inf
ROOT
ATOM      1  C   UNL     1       1.220  -0.707  -2.301  1.00  0.00     0.227 C 
ATOM      2  O   UNL     1       0.598  -1.523  -2.982  1.00  0.00    -0.274 OA
ATOM      3  N   UNL     1       2.562  -0.645  -2.529  1.00  0.00    -0.356 N 
ATOM      4  H   UNL     1       2.883  -1.222  -3.258  1.00  0.00     0.163 HD
ENDROOT
BRANCH   1   5
ATOM      5  C   UNL     1       0.567   0.236  -1.275  1.00  0.00     0.105 C 
ATOM      6  C   UNL     1       0.940  -0.101   0.172  1.00  0.00     0.023 C 
BRANCH   5   7
ATOM      7  C   UNL     1      -0.953   0.269  -1.372  1.00  0.00    -0.033 A 
ATOM      8  C   UNL     1      -1.633   1.494  -1.426  1.00  0.00     0.005 A 
ATOM      9  C   UNL     1      -1.704  -0.913  -1.319  1.00  0.00     0.044 A 
ATOM     10  C   UNL     1      -3.032   1.534  -1.406  1.00  0.00     0.012 A 
ATOM     11  C   UNL     1      -3.091  -0.867  -1.316  1.00  0.00     0.131 A 
ATOM     12  C   UNL     1      -3.783   0.351  -1.332  1.00  0.00     0.018 A 
ATOM     13  F   UNL     1      -3.760  -2.029  -1.257  1.00  0.00    -0.206 F 
BRANCH  12  14
ATOM     14  C   UNL     1      -5.239   0.386  -1.166  1.00  0.00    -0.012 A 
ATOM     15  C   UNL     1      -6.084   1.021  -2.086  1.00  0.00     0.009 A 
ATOM     16  C   UNL     1      -5.809  -0.224  -0.035  1.00  0.00     0.056 A 
ATOM     17  C   UNL     1      -7.467   1.035  -1.885  1.00  0.00     0.004 A 
ATOM     18  C   UNL     1      -7.182  -0.210   0.164  1.00  0.00     0.133 A 
ATOM     19  C   UNL     1      -8.017   0.420  -0.760  1.00  0.00     0.047 A 
BRANCH  18  20
ATOM     20  O   UNL     1      -7.828  -0.804   1.275  1.00  0.00    -0.410 OA
BRANCH  20  21
ATOM     21  C   UNL     1      -7.234  -1.623   2.231  1.00  0.00     0.412 C 
ATOM     22  O   UNL     1      -6.039  -1.896   2.320  1.00  0.00    -0.224 OA
ATOM     23  N   UNL     1      -8.116  -2.161   3.130  1.00  0.00    -0.318 N 
ATOM     24  H   UNL     1      -7.721  -2.781   3.785  1.00  0.00     0.167 HD
BRANCH  23  25
ATOM     25  C   UNL     1      -9.519  -1.959   3.260  1.00  0.00     0.085 C 
ATOM     26  C   UNL     1     -10.483  -1.592   2.169  1.00  0.00     0.027 C 
ATOM     27  C   UNL     1     -10.448  -2.997   2.684  1.00  0.00     0.027 C 
ENDBRANCH  23  25
ENDBRANCH  20  21
ENDBRANCH  18  20
ENDBRANCH  12  14
ENDBRANCH   5   7
ENDBRANCH   1   5
BRANCH   3  28
ATOM     28  C   UNL     1       3.591   0.131  -1.872  1.00  0.00     0.117 C 
BRANCH  28  29
ATOM     29  C   UNL     1       4.423  -0.733  -0.929  1.00  0.00     0.042 C 
BRANCH  29  30
ATOM     30  C   UNL     1       5.140  -1.894  -1.613  1.00  0.00     0.118 C 
BRANCH  30  31
ATOM     31  N   UNL     1       6.053  -1.450  -2.652  1.00  0.00    -0.352 N 
ATOM     32  C   UNL     1       7.403  -1.632  -2.792  1.00  0.00     0.251 C 
ATOM     33  H   UNL     1       5.631  -0.932  -3.376  1.00  0.00     0.163 HD
ATOM     34  O   UNL     1       8.009  -0.981  -3.639  1.00  0.00    -0.269 OA
BRANCH  32  35
ATOM     35  C   UNL     1       8.141  -2.585  -1.934  1.00  0.00     0.039 A 
ATOM     36  C   UNL     1       9.436  -2.244  -1.533  1.00  0.00     0.014 A 
ATOM     37  C   UNL     1       7.604  -3.822  -1.567  1.00  0.00     0.014 A 
ATOM     38  C   UNL     1      10.168  -3.119  -0.731  1.00  0.00     0.010 A 
ATOM     39  C   UNL     1       8.303  -4.658  -0.695  1.00  0.00     0.010 A 
ATOM     40  C   UNL     1       9.596  -4.319  -0.275  1.00  0.00    -0.014 A 
BRANCH  40  41
ATOM     41  C   UNL     1      10.349  -5.199   0.655  1.00  0.00     0.031 A 
ATOM     42  C   UNL     1      10.763  -6.586   0.249  1.00  0.00     0.074 A 
ATOM     43  C   UNL     1      10.655  -4.739   1.885  1.00  0.00     0.049 A 
ATOM     44  N   UNL     1      11.482  -7.458   0.913  1.00  0.00    -0.248 NA
ATOM     45  C   UNL     1      10.299  -7.068  -1.061  1.00  0.00     0.031 C 
ATOM     46  C   UNL     1      10.266  -3.431   2.419  1.00  0.00     0.029 A 
ATOM     47  N   UNL     1      11.377  -5.311   2.901  1.00  0.00    -0.354 N 
ATOM     48  C   UNL     1      11.553  -8.586   0.105  1.00  0.00     0.074 A 
ATOM     49  C   UNL     1      10.756  -8.312  -1.071  1.00  0.00     0.031 C 
ATOM     50  C   UNL     1      10.797  -3.280   3.642  1.00  0.00     0.029 A 
ATOM     51  C   UNL     1      11.527  -4.493   3.995  1.00  0.00     0.049 A 
ATOM     52  H   UNL     1      11.751  -6.220   2.852  1.00  0.00     0.167 HD
ATOM     53  C   UNL     1      12.236  -9.738   0.312  1.00  0.00     0.031 A 
ATOM     54  C   UNL     1      12.183  -4.692   5.153  1.00  0.00     0.031 A 
ATOM     55  C   UNL     1      13.021 -10.015   1.488  1.00  0.00     0.049 A 
ATOM     56  C   UNL     1      12.920  -5.984   5.363  1.00  0.00     0.074 A 
ATOM     57  C   UNL     1      13.788 -11.132   1.769  1.00  0.00     0.029 A 
ATOM     58  N   UNL     1      13.130  -9.170   2.582  1.00  0.00    -0.354 N 
ATOM     59  N   UNL     1      13.045  -7.007   4.552  1.00  0.00    -0.248 NA
ATOM     60  C   UNL     1      13.619  -6.140   6.645  1.00  0.00     0.031 C 
ATOM     61  C   UNL     1      14.310 -10.991   3.060  1.00  0.00     0.029 A 
ATOM     62  C   UNL     1      13.927  -9.755   3.554  1.00  0.00     0.049 A 
ATOM     63  H   UNL     1      12.705  -8.285   2.657  1.00  0.00     0.167 HD
ATOM     64  C   UNL     1      13.854  -7.919   5.217  1.00  0.00     0.074 A 
ATOM     65  C   UNL     1      14.215  -7.312   6.482  1.00  0.00     0.031 C 
ATOM     66  C   UNL     1      14.261  -9.149   4.818  1.00  0.00     0.031 A 
BRANCH  53  67
ATOM     67  C   UNL     1      12.155 -10.794  -0.758  1.00  0.00    -0.014 A 
ATOM     68  C   UNL     1      12.752 -10.606  -2.016  1.00  0.00     0.009 A 
ATOM     69  C   UNL     1      11.509 -12.012  -0.493  1.00  0.00     0.009 A 
ATOM     70  C   UNL     1      12.670 -11.598  -2.996  1.00  0.00     0.001 A 
ATOM     71  C   UNL     1      11.456 -13.015  -1.464  1.00  0.00     0.001 A 
ATOM     72  C   UNL     1      12.027 -12.803  -2.717  1.00  0.00     0.000 A 
ENDBRANCH  53  67
BRANCH  54  73
ATOM     73  C   UNL     1      12.189  -3.633   6.197  1.00  0.00    -0.014 A 
ATOM     74  C   UNL     1      13.371  -2.944   6.513  1.00  0.00     0.009 A 
ATOM     75  C   UNL     1      11.012  -3.311   6.891  1.00  0.00     0.009 A 
ATOM     76  C   UNL     1      13.379  -1.979   7.522  1.00  0.00     0.001 A 
ATOM     77  C   UNL     1      11.016  -2.321   7.875  1.00  0.00     0.001 A 
ATOM     78  C   UNL     1      12.202  -1.664   8.198  1.00  0.00     0.000 A 
ENDBRANCH  54  73
BRANCH  66  79
ATOM     79  C   UNL     1      15.159  -9.906   5.758  1.00  0.00    -0.014 A 
ATOM     80  C   UNL     1      14.686 -10.400   6.984  1.00  0.00     0.009 A 
ATOM     81  C   UNL     1      16.500 -10.132   5.409  1.00  0.00     0.009 A 
ATOM     82  C   UNL     1      15.550 -11.055   7.864  1.00  0.00     0.001 A 
ATOM     83  C   UNL     1      17.352 -10.820   6.274  1.00  0.00     0.001 A 
ATOM     84  C   UNL     1      16.881 -11.267   7.507  1.00  0.00     0.000 A 
ENDBRANCH  66  79
ENDBRANCH  40  41
ENDBRANCH  32  35
ENDBRANCH  30  31
ENDBRANCH  29  30
ENDBRANCH  28  29
ENDBRANCH   3  28
TORSDOF 15
