REMARK SMILES C[NH+]1CCC([N@@H+](C)Cc2ccc(C(=O)NCCCNC(=O)c3ccc(-c4c5nc(c(-c6ccccc6)c6ccc([nH]6)c(-c6ccccc6)c6nc(c(-c7ccccc7)c7ccc4[nH]7)C=C6)C=C5)cc3)cn2)CC1
REMARK SMILES IDX 16 1 15 2 13 3 14 4 12 6 9 7 10 8 71 9 11 10 70 11 8 12 6 13
REMARK SMILES IDX 7 14 5 16 1 17 2 18 3 19 73 20 4 22 72 23 17 24 18 25 19 26
REMARK SMILES IDX 20 27 21 29 22 30 23 31 69 32 24 33 68 34 25 35 26 36 27 37
REMARK SMILES IDX 62 38 28 39 67 40 61 41 63 42 29 43 66 44 60 45 59 46 30 48
REMARK SMILES IDX 52 49 37 50 51 51 38 52 41 53 50 54 64 55 39 56 40 57 49 59
REMARK SMILES IDX 65 60 42 61 31 62 32 63 36 64 33 65 35 66 34 67 53 68 54 69
REMARK SMILES IDX 58 70 55 71 57 72 56 73 43 74 44 75 48 76 45 77 47 78 46 79
REMARK H PARENT 15 5 6 15 2 21 19 28 63 47 41 58
REMARK Flexibility Score: inf
ROOT
ATOM      1  C   UNL     1      -1.234   3.811   4.427  1.00  0.00     0.118 C 
ENDROOT
BRANCH   1   2
ATOM      2  N   UNL     1      -0.195   4.804   4.220  1.00  0.00    -0.352 N 
ATOM      3  C   UNL     1       1.117   4.713   3.836  1.00  0.00     0.252 C 
ATOM      4  O   UNL     1       1.753   5.764   3.752  1.00  0.00    -0.269 OA
ATOM      5  H   UNL     1      -0.492   5.726   4.389  1.00  0.00     0.163 HD
BRANCH   3   6
ATOM      6  C   UNL     1       1.779   3.444   3.454  1.00  0.00     0.058 A 
ATOM      7  C   UNL     1       3.032   1.240   2.342  1.00  0.00     0.095 A 
ATOM      8  C   UNL     1       2.069   1.051   3.332  1.00  0.00     0.030 A 
ATOM      9  N   UNL     1       3.465   2.477   1.997  1.00  0.00    -0.255 NA
ATOM     10  C   UNL     1       1.450   2.167   3.900  1.00  0.00     0.017 A 
ATOM     11  C   UNL     1       2.828   3.540   2.547  1.00  0.00     0.125 A 
BRANCH   7  12
ATOM     12  C   UNL     1       3.548   0.056   1.542  1.00  0.00     0.319 C 
BRANCH  12  13
ATOM     13  N   UNL     1       3.248   0.030   0.092  1.00  0.00    -0.330 N 
ATOM     14  C   UNL     1       4.038   1.013  -0.648  1.00  0.00     0.333 C 
ATOM     15  H   UNL     1       3.550  -0.908  -0.171  1.00  0.00     0.348 HD
BRANCH  13  16
ATOM     16  C   UNL     1       1.829  -0.004  -0.330  1.00  0.00     0.195 C 
ATOM     17  C   UNL     1      -2.488  -0.102  -0.257  1.00  0.00     0.332 C 
ATOM     18  N   UNL     1      -1.071  -0.011   0.091  1.00  0.00    -0.337 N 
ATOM     19  C   UNL     1      -0.442   1.120  -0.602  1.00  0.00     0.268 C 
ATOM     20  C   UNL     1      -0.371  -1.260  -0.235  1.00  0.00     0.268 C 
ATOM     21  H   UNL     1      -1.003   0.143   1.097  1.00  0.00     0.347 HD
ATOM     22  C   UNL     1       1.009   1.290  -0.150  1.00  0.00     0.126 C 
ATOM     23  C   UNL     1       1.074  -1.205   0.265  1.00  0.00     0.126 C 
ENDBRANCH  13  16
ENDBRANCH  12  13
ENDBRANCH   7  12
ENDBRANCH   3   6
ENDBRANCH   1   2
BRANCH   1  24
ATOM     24  C   UNL     1      -1.325   3.419   5.901  1.00  0.00     0.042 C 
BRANCH  24  25
ATOM     25  C   UNL     1      -1.848   4.540   6.796  1.00  0.00     0.118 C 
BRANCH  25  26
ATOM     26  N   UNL     1      -3.261   4.805   6.577  1.00  0.00    -0.352 N 
ATOM     27  C   UNL     1      -4.316   4.753   7.453  1.00  0.00     0.251 C 
ATOM     28  H   UNL     1      -3.498   5.061   5.656  1.00  0.00     0.163 HD
ATOM     29  O   UNL     1      -5.463   4.803   7.021  1.00  0.00    -0.269 OA
BRANCH  27  30
ATOM     30  C   UNL     1      -4.088   4.630   8.910  1.00  0.00     0.039 A 
ATOM     31  C   UNL     1      -4.936   3.801   9.652  1.00  0.00     0.014 A 
ATOM     32  C   UNL     1      -3.091   5.364   9.559  1.00  0.00     0.014 A 
ATOM     33  C   UNL     1      -4.755   3.673  11.031  1.00  0.00     0.010 A 
ATOM     34  C   UNL     1      -2.869   5.185  10.923  1.00  0.00     0.010 A 
ATOM     35  C   UNL     1      -3.704   4.345  11.675  1.00  0.00    -0.014 A 
BRANCH  35  36
ATOM     36  C   UNL     1      -3.471   4.188  13.132  1.00  0.00     0.031 A 
ATOM     37  C   UNL     1      -3.642   5.360  14.060  1.00  0.00     0.074 A 
ATOM     38  C   UNL     1      -3.050   3.003  13.616  1.00  0.00     0.049 A 
ATOM     39  N   UNL     1      -3.429   5.431  15.350  1.00  0.00    -0.248 NA
ATOM     40  C   UNL     1      -4.091   6.624  13.455  1.00  0.00     0.031 C 
ATOM     41  C   UNL     1      -2.814   1.798  12.819  1.00  0.00     0.029 A 
ATOM     42  N   UNL     1      -2.739   2.622  14.896  1.00  0.00    -0.354 N 
ATOM     43  C   UNL     1      -3.696   6.747  15.705  1.00  0.00     0.074 A 
ATOM     44  C   UNL     1      -4.047   7.450  14.490  1.00  0.00     0.031 C 
ATOM     45  C   UNL     1      -2.420   0.805  13.632  1.00  0.00     0.029 A 
ATOM     46  C   UNL     1      -2.338   1.312  14.998  1.00  0.00     0.049 A 
ATOM     47  H   UNL     1      -2.798   3.228  15.669  1.00  0.00     0.167 HD
ATOM     48  C   UNL     1      -3.668   7.317  16.934  1.00  0.00     0.031 A 
ATOM     49  C   UNL     1      -1.944   0.599  16.069  1.00  0.00     0.031 A 
ATOM     50  C   UNL     1      -3.332   6.617  18.145  1.00  0.00     0.049 A 
ATOM     51  C   UNL     1      -1.915   1.256  17.420  1.00  0.00     0.074 A 
ATOM     52  C   UNL     1      -3.328   7.094  19.445  1.00  0.00     0.029 A 
ATOM     53  N   UNL     1      -2.940   5.289  18.205  1.00  0.00    -0.354 N 
ATOM     54  N   UNL     1      -2.228   2.486  17.747  1.00  0.00    -0.248 NA
ATOM     55  C   UNL     1      -1.489   0.420  18.551  1.00  0.00     0.031 C 
ATOM     56  C   UNL     1      -2.891   6.065  20.286  1.00  0.00     0.029 A 
ATOM     57  C   UNL     1      -2.672   4.934  19.516  1.00  0.00     0.049 A 
ATOM     58  H   UNL     1      -2.863   4.687  17.430  1.00  0.00     0.167 HD
ATOM     59  C   UNL     1      -2.062   2.565  19.124  1.00  0.00     0.074 A 
ATOM     60  C   UNL     1      -1.636   1.254  19.571  1.00  0.00     0.031 C 
ATOM     61  C   UNL     1      -2.248   3.627  19.944  1.00  0.00     0.031 A 
BRANCH  48  62
ATOM     62  C   UNL     1      -4.004   8.780  17.024  1.00  0.00    -0.014 A 
ATOM     63  C   UNL     1      -5.316   9.238  16.826  1.00  0.00     0.009 A 
ATOM     64  C   UNL     1      -3.001   9.709  17.340  1.00  0.00     0.009 A 
ATOM     65  C   UNL     1      -5.609  10.601  16.904  1.00  0.00     0.001 A 
ATOM     66  C   UNL     1      -3.302  11.069  17.444  1.00  0.00     0.001 A 
ATOM     67  C   UNL     1      -4.603  11.514  17.216  1.00  0.00     0.000 A 
ENDBRANCH  48  62
BRANCH  49  68
ATOM     68  C   UNL     1      -1.563  -0.828  15.912  1.00  0.00    -0.014 A 
ATOM     69  C   UNL     1      -2.400  -1.843  16.398  1.00  0.00     0.009 A 
ATOM     70  C   UNL     1      -0.362  -1.182  15.279  1.00  0.00     0.009 A 
ATOM     71  C   UNL     1      -2.031  -3.184  16.274  1.00  0.00     0.001 A 
ATOM     72  C   UNL     1      -0.008  -2.525  15.133  1.00  0.00     0.001 A 
ATOM     73  C   UNL     1      -0.839  -3.525  15.638  1.00  0.00     0.000 A 
ENDBRANCH  49  68
BRANCH  61  74
ATOM     74  C   UNL     1      -2.024   3.405  21.413  1.00  0.00    -0.014 A 
ATOM     75  C   UNL     1      -0.731   3.263  21.939  1.00  0.00     0.009 A 
ATOM     76  C   UNL     1      -3.123   3.369  22.285  1.00  0.00     0.009 A 
ATOM     77  C   UNL     1      -0.545   3.057  23.307  1.00  0.00     0.001 A 
ATOM     78  C   UNL     1      -2.933   3.191  23.656  1.00  0.00     0.001 A 
ATOM     79  C   UNL     1      -1.645   3.026  24.164  1.00  0.00     0.000 A 
ENDBRANCH  61  74
ENDBRANCH  35  36
ENDBRANCH  27  30
ENDBRANCH  25  26
ENDBRANCH  24  25
ENDBRANCH   1  24
TORSDOF 13
