REMARK SMILES NS(=O)(=O)c1ccc(-n2nc(NC(=O)NCCCCCCCCCCC(=O)NCCCNC(=O)c3ccc(-c4c5nc(c(-c6ccccc6)c6ccc([nH]6)c(-c6ccccc6)c6nc(c(-c7ccccc7)c7ccc4[nH]7)C=C6)C=C5)cc3)cc2-c2ccccc2)cc1
REMARK SMILES IDX 22 1 21 2 20 3 19 4 18 5 17 6 16 7 15 8 12 9 13 10 14 12
REMARK SMILES IDX 11 14 9 15 10 16 84 17 83 18 8 19 5 20 6 21 92 22 7 23 91 24
REMARK SMILES IDX 2 25 3 26 4 27 1 28 85 31 86 32 90 33 87 34 89 35 88 36
REMARK SMILES IDX 23 37 24 38 25 39 26 40 27 41 28 42 29 44 30 45 31 46 32 47
REMARK SMILES IDX 33 48 34 50 35 51 36 52 82 53 37 54 81 55 38 56 39 57 40 58
REMARK SMILES IDX 75 59 41 60 80 61 74 62 76 63 42 64 79 65 73 66 72 67 43 69
REMARK SMILES IDX 65 70 50 71 64 72 51 73 54 74 63 75 77 76 52 77 53 78 62 80
REMARK SMILES IDX 78 81 55 82 44 83 45 84 49 85 46 86 48 87 47 88 66 89 67 90
REMARK SMILES IDX 71 91 68 92 70 93 69 94 56 95 57 96 61 97 58 98 60 99 59 100
REMARK H PARENT 12 11 15 13 1 29 1 30 28 43 32 49 76 68 54 79
REMARK Flexibility Score: inf
ROOT
ATOM      1  C   UNL     1       0.270  -2.230   6.447  1.00  0.00     0.000 C 
ENDROOT
BRANCH   1   2
ATOM      2  C   UNL     1       0.618  -3.191   5.333  1.00  0.00     0.000 C 
BRANCH   2   3
ATOM      3  C   UNL     1       2.038  -3.739   5.422  1.00  0.00     0.000 C 
BRANCH   3   4
ATOM      4  C   UNL     1       2.420  -4.505   6.694  1.00  0.00     0.000 C 
BRANCH   4   5
ATOM      5  C   UNL     1       1.537  -5.698   7.078  1.00  0.00     0.002 C 
BRANCH   5   6
ATOM      6  C   UNL     1       1.168  -6.669   5.957  1.00  0.00     0.021 C 
BRANCH   6   7
ATOM      7  C   UNL     1       2.293  -7.087   5.026  1.00  0.00     0.117 C 
BRANCH   7   8
ATOM      8  N   UNL     1       3.215  -8.073   5.527  1.00  0.00    -0.338 N 
ATOM      9  N   UNL     1       3.895  -9.096   3.483  1.00  0.00    -0.291 N 
ATOM     10  C   UNL     1       3.934  -8.986   4.832  1.00  0.00     0.320 C 
ATOM     11  H   UNL     1       4.151  -9.985   3.147  1.00  0.00     0.173 HD
ATOM     12  O   UNL     1       4.559  -9.835   5.476  1.00  0.00    -0.248 OA
ATOM     13  H   UNL     1       3.339  -8.085   6.504  1.00  0.00     0.165 HD
BRANCH   9  14
ATOM     14  C   UNL     1       3.565  -8.197   2.491  1.00  0.00     0.157 A 
ATOM     15  N   UNL     1       2.900  -6.417   1.548  1.00  0.00    -0.231 N 
ATOM     16  N   UNL     1       3.627  -6.868   2.593  1.00  0.00    -0.149 NA
ATOM     17  C   UNL     1       2.769  -7.390   0.568  1.00  0.00     0.076 A 
ATOM     18  C   UNL     1       3.156  -8.566   1.187  1.00  0.00     0.078 A 
BRANCH  15  19
ATOM     19  C   UNL     1       2.330  -5.115   1.577  1.00  0.00     0.065 A 
ATOM     20  C   UNL     1       1.244  -2.550   1.585  1.00  0.00     0.082 A 
ATOM     21  C   UNL     1       0.482  -3.615   1.098  1.00  0.00     0.024 A 
ATOM     22  C   UNL     1       2.525  -2.765   2.106  1.00  0.00     0.024 A 
ATOM     23  C   UNL     1       1.033  -4.898   1.082  1.00  0.00     0.030 A 
ATOM     24  C   UNL     1       3.064  -4.054   2.117  1.00  0.00     0.030 A 
BRANCH  20  25
ATOM     25  S   UNL     1       0.556  -0.921   1.619  1.00  0.00     0.238 S 
ATOM     26  O   UNL     1       1.190  -0.169   2.687  1.00  0.00    -0.207 OA
ATOM     27  O   UNL     1      -0.870  -0.997   1.472  1.00  0.00    -0.207 OA
BRANCH  25  28
ATOM     28  N   UNL     1       1.149  -0.273   0.190  1.00  0.00    -0.225 NA
ATOM     29  H   UNL     1       0.817   0.686   0.088  1.00  0.00     0.137 HD
ATOM     30  H   UNL     1       0.822  -0.832  -0.598  1.00  0.00     0.137 HD
ENDBRANCH  25  28
ENDBRANCH  20  25
ENDBRANCH  15  19
BRANCH  17  31
ATOM     31  C   UNL     1       2.347  -7.102  -0.799  1.00  0.00     0.000 A 
ATOM     32  C   UNL     1       2.938  -6.029  -1.488  1.00  0.00     0.010 A 
ATOM     33  C   UNL     1       1.325  -7.827  -1.416  1.00  0.00     0.010 A 
ATOM     34  C   UNL     1       2.485  -5.655  -2.750  1.00  0.00     0.001 A 
ATOM     35  C   UNL     1       0.877  -7.455  -2.687  1.00  0.00     0.001 A 
ATOM     36  C   UNL     1       1.450  -6.367  -3.348  1.00  0.00     0.000 A 
ENDBRANCH  17  31
ENDBRANCH   9  14
ENDBRANCH   7   8
ENDBRANCH   6   7
ENDBRANCH   5   6
ENDBRANCH   4   5
ENDBRANCH   3   4
ENDBRANCH   2   3
ENDBRANCH   1   2
BRANCH   1  37
ATOM     37  C   UNL     1       1.052  -0.913   6.394  1.00  0.00     0.001 C 
BRANCH  37  38
ATOM     38  C   UNL     1       0.193   0.301   6.065  1.00  0.00     0.010 C 
BRANCH  38  39
ATOM     39  C   UNL     1      -0.997   0.545   6.994  1.00  0.00     0.100 C 
BRANCH  39  40
ATOM     40  C   UNL     1      -0.622   1.097   8.355  1.00  0.00     0.219 C 
ATOM     41  O   UNL     1      -0.538   2.314   8.534  1.00  0.00    -0.275 OA
ATOM     42  N   UNL     1      -0.379   0.283   9.423  1.00  0.00    -0.356 N 
ATOM     43  H   UNL     1      -0.110   0.761  10.240  1.00  0.00     0.163 HD
BRANCH  42  44
ATOM     44  C   UNL     1      -0.445  -1.167   9.573  1.00  0.00     0.117 C 
BRANCH  44  45
ATOM     45  C   UNL     1       0.937  -1.825   9.742  1.00  0.00     0.042 C 
BRANCH  45  46
ATOM     46  C   UNL     1       1.486  -1.762  11.145  1.00  0.00     0.118 C 
BRANCH  46  47
ATOM     47  N   UNL     1       0.947  -2.799  12.031  1.00  0.00    -0.352 N 
ATOM     48  C   UNL     1       1.283  -3.012  13.361  1.00  0.00     0.251 C 
ATOM     49  H   UNL     1       0.278  -3.407  11.643  1.00  0.00     0.163 HD
ATOM     50  O   UNL     1       1.098  -4.091  13.906  1.00  0.00    -0.269 OA
BRANCH  48  51
ATOM     51  C   UNL     1       1.877  -1.884  14.098  1.00  0.00     0.039 A 
ATOM     52  C   UNL     1       2.953  -2.023  14.976  1.00  0.00     0.014 A 
ATOM     53  C   UNL     1       1.382  -0.630  13.773  1.00  0.00     0.014 A 
ATOM     54  C   UNL     1       3.566  -0.865  15.451  1.00  0.00     0.010 A 
ATOM     55  C   UNL     1       2.175   0.456  13.972  1.00  0.00     0.010 A 
ATOM     56  C   UNL     1       3.177   0.374  14.920  1.00  0.00    -0.014 A 
BRANCH  56  57
ATOM     57  C   UNL     1       3.812   1.627  15.289  1.00  0.00     0.031 A 
ATOM     58  C   UNL     1       5.283   1.651  15.128  1.00  0.00     0.074 A 
ATOM     59  C   UNL     1       3.100   2.752  15.533  1.00  0.00     0.049 A 
ATOM     60  N   UNL     1       6.164   1.657  16.069  1.00  0.00    -0.248 NA
ATOM     61  C   UNL     1       5.847   1.506  13.777  1.00  0.00     0.031 C 
ATOM     62  C   UNL     1       1.654   2.985  15.394  1.00  0.00     0.029 A 
ATOM     63  N   UNL     1       3.561   3.991  15.831  1.00  0.00    -0.354 N 
ATOM     64  C   UNL     1       7.397   1.737  15.435  1.00  0.00     0.074 A 
ATOM     65  C   UNL     1       7.154   1.438  14.046  1.00  0.00     0.031 C 
ATOM     66  C   UNL     1       1.412   4.313  15.335  1.00  0.00     0.029 A 
ATOM     67  C   UNL     1       2.647   5.015  15.622  1.00  0.00     0.049 A 
ATOM     68  H   UNL     1       4.472   4.153  16.168  1.00  0.00     0.167 HD
ATOM     69  C   UNL     1       8.468   2.306  16.057  1.00  0.00     0.031 A 
ATOM     70  C   UNL     1       2.907   6.346  15.643  1.00  0.00     0.031 A 
ATOM     71  C   UNL     1       8.222   2.495  17.467  1.00  0.00     0.049 A 
ATOM     72  C   UNL     1       4.180   6.523  16.387  1.00  0.00     0.074 A 
ATOM     73  C   UNL     1       7.862   1.657  18.506  1.00  0.00     0.029 A 
ATOM     74  N   UNL     1       7.899   3.767  17.886  1.00  0.00    -0.354 N 
ATOM     75  N   UNL     1       4.303   6.266  17.659  1.00  0.00    -0.248 NA
ATOM     76  C   UNL     1       5.419   6.499  15.624  1.00  0.00     0.031 C 
ATOM     77  C   UNL     1       6.883   2.391  19.239  1.00  0.00     0.029 A 
ATOM     78  C   UNL     1       6.779   3.662  18.670  1.00  0.00     0.049 A 
ATOM     79  H   UNL     1       8.383   4.596  17.664  1.00  0.00     0.167 HD
ATOM     80  C   UNL     1       5.522   5.611  17.770  1.00  0.00     0.074 A 
ATOM     81  C   UNL     1       6.207   5.869  16.502  1.00  0.00     0.031 C 
ATOM     82  C   UNL     1       5.744   4.672  18.740  1.00  0.00     0.031 A 
BRANCH  69  83
ATOM     83  C   UNL     1       9.542   3.077  15.332  1.00  0.00    -0.014 A 
ATOM     84  C   UNL     1      10.619   3.588  16.079  1.00  0.00     0.009 A 
ATOM     85  C   UNL     1       9.397   3.562  14.019  1.00  0.00     0.009 A 
ATOM     86  C   UNL     1      11.450   4.591  15.566  1.00  0.00     0.001 A 
ATOM     87  C   UNL     1      10.251   4.531  13.488  1.00  0.00     0.001 A 
ATOM     88  C   UNL     1      11.258   5.068  14.274  1.00  0.00     0.000 A 
ENDBRANCH  69  83
BRANCH  70  89
ATOM     89  C   UNL     1       2.289   7.415  14.827  1.00  0.00    -0.014 A 
ATOM     90  C   UNL     1       2.494   8.768  15.138  1.00  0.00     0.009 A 
ATOM     91  C   UNL     1       1.705   7.117  13.580  1.00  0.00     0.009 A 
ATOM     92  C   UNL     1       2.167   9.778  14.220  1.00  0.00     0.001 A 
ATOM     93  C   UNL     1       1.374   8.124  12.666  1.00  0.00     0.001 A 
ATOM     94  C   UNL     1       1.621   9.455  12.980  1.00  0.00     0.000 A 
ENDBRANCH  70  89
BRANCH  82  95
ATOM     95  C   UNL     1       4.707   4.490  19.826  1.00  0.00    -0.014 A 
ATOM     96  C   UNL     1       3.368   4.145  19.568  1.00  0.00     0.009 A 
ATOM     97  C   UNL     1       5.142   4.489  21.160  1.00  0.00     0.009 A 
ATOM     98  C   UNL     1       2.490   3.836  20.613  1.00  0.00     0.001 A 
ATOM     99  C   UNL     1       4.272   4.159  22.202  1.00  0.00     0.001 A 
ATOM    100  C   UNL     1       2.945   3.838  21.930  1.00  0.00     0.000 A 
ENDBRANCH  82  95
ENDBRANCH  56  57
ENDBRANCH  48  51
ENDBRANCH  46  47
ENDBRANCH  45  46
ENDBRANCH  44  45
ENDBRANCH  42  44
ENDBRANCH  39  40
ENDBRANCH  38  39
ENDBRANCH  37  38
ENDBRANCH   1  37
TORSDOF 25
