REMARK SMILES Cc1ccc(S(=O)(=O)Nc2ccccn2)cc1C(=O)NCCCNC(=O)c1ccc(-c2c3nc(c(-c4ccccc4)c4ccc([nH]4)c(-c4ccccc4)c4nc(c(-c5ccccc5)c5ccc2[nH]5)C=C4)C=C3)cc1
REMARK SMILES IDX 21 1 20 2 18 3 19 4 17 6 1 7 2 8 3 9 4 10 16 11 5 12 6 13
REMARK SMILES IDX 7 14 8 15 9 16 10 18 11 19 15 20 12 21 14 22 13 23 22 24
REMARK SMILES IDX 23 25 24 26 25 27 26 29 27 30 28 31 74 32 29 33 73 34 30 35
REMARK SMILES IDX 31 36 32 37 67 38 33 39 72 40 66 41 68 42 34 43 71 44 65 45
REMARK SMILES IDX 64 46 35 48 57 49 42 50 56 51 43 52 46 53 55 54 69 55 44 56
REMARK SMILES IDX 45 57 54 59 70 60 47 61 36 62 37 63 41 64 38 65 40 66 39 67
REMARK SMILES IDX 58 68 59 69 63 70 60 71 62 72 61 73 48 74 49 75 53 76 50 77
REMARK SMILES IDX 52 78 51 79
REMARK H PARENT 20 5 9 17 24 28 68 47 46 58
REMARK Flexibility Score: inf
ROOT
ATOM      1  C   UNL     1       3.641   0.990   0.534  1.00  0.00     0.118 C 
ENDROOT
BRANCH   1   2
ATOM      2  N   UNL     1       2.505   1.869   0.331  1.00  0.00    -0.352 N 
ATOM      3  C   UNL     1       1.145   1.750   0.234  1.00  0.00     0.251 C 
ATOM      4  O   UNL     1       0.578   2.844   0.104  1.00  0.00    -0.269 OA
ATOM      5  H   UNL     1       2.790   2.807   0.238  1.00  0.00     0.163 HD
BRANCH   3   6
ATOM      6  C   UNL     1       0.268   0.515   0.278  1.00  0.00     0.044 A 
ATOM      7  C   UNL     1       1.837  -1.346  -0.608  1.00  0.00     0.045 C 
ATOM      8  C   UNL     1       0.556  -0.826  -0.051  1.00  0.00    -0.038 A 
ATOM      9  C   UNL     1      -0.468  -1.802   0.003  1.00  0.00     0.005 A 
ATOM     10  C   UNL     1      -1.796  -1.448   0.163  1.00  0.00     0.022 A 
ATOM     11  C   UNL     1      -1.101   0.829   0.516  1.00  0.00     0.036 A 
ATOM     12  C   UNL     1      -2.122  -0.110   0.338  1.00  0.00     0.088 A 
BRANCH  12  13
ATOM     13  S   UNL     1      -3.836   0.294   0.053  1.00  0.00     0.263 S 
ATOM     14  O   UNL     1      -4.037   0.119  -1.386  1.00  0.00    -0.201 OA
ATOM     15  O   UNL     1      -4.593  -0.481   0.994  1.00  0.00    -0.201 OA
BRANCH  13  16
ATOM     16  N   UNL     1      -4.125   1.874   0.425  1.00  0.00    -0.263 N 
ATOM     17  H   UNL     1      -4.857   2.060   1.056  1.00  0.00     0.182 HD
BRANCH  16  18
ATOM     18  C   UNL     1      -3.422   2.969  -0.074  1.00  0.00     0.139 A 
ATOM     19  C   UNL     1      -2.780   3.050  -1.301  1.00  0.00     0.048 A 
ATOM     20  N   UNL     1      -3.397   3.940   0.857  1.00  0.00    -0.239 NA
ATOM     21  C   UNL     1      -1.976   4.163  -1.535  1.00  0.00     0.005 A 
ATOM     22  C   UNL     1      -2.625   5.015   0.593  1.00  0.00     0.113 A 
ATOM     23  C   UNL     1      -1.886   5.160  -0.567  1.00  0.00     0.020 A 
ENDBRANCH  16  18
ENDBRANCH  13  16
ENDBRANCH  12  13
ENDBRANCH   3   6
ENDBRANCH   1   2
BRANCH   1  24
ATOM     24  C   UNL     1       4.228   0.536  -0.802  1.00  0.00     0.042 C 
BRANCH  24  25
ATOM     25  C   UNL     1       5.519   1.212  -1.221  1.00  0.00     0.118 C 
BRANCH  25  26
ATOM     26  N   UNL     1       6.716   0.398  -0.995  1.00  0.00    -0.352 N 
ATOM     27  C   UNL     1       8.014   0.671  -1.396  1.00  0.00     0.251 C 
ATOM     28  H   UNL     1       6.582  -0.442  -0.499  1.00  0.00     0.163 HD
ATOM     29  O   UNL     1       8.947  -0.057  -1.082  1.00  0.00    -0.269 OA
BRANCH  27  30
ATOM     30  C   UNL     1       8.256   1.953  -2.094  1.00  0.00     0.039 A 
ATOM     31  C   UNL     1       8.988   2.912  -1.394  1.00  0.00     0.014 A 
ATOM     32  C   UNL     1       7.434   2.308  -3.160  1.00  0.00     0.014 A 
ATOM     33  C   UNL     1       8.649   4.249  -1.551  1.00  0.00     0.010 A 
ATOM     34  C   UNL     1       7.026   3.625  -3.246  1.00  0.00     0.010 A 
ATOM     35  C   UNL     1       7.573   4.576  -2.380  1.00  0.00    -0.014 A 
BRANCH  35  36
ATOM     36  C   UNL     1       6.946   5.889  -2.348  1.00  0.00     0.031 A 
ATOM     37  C   UNL     1       7.366   6.890  -3.340  1.00  0.00     0.074 A 
ATOM     38  C   UNL     1       6.064   6.248  -1.387  1.00  0.00     0.049 A 
ATOM     39  N   UNL     1       7.508   8.146  -3.085  1.00  0.00    -0.248 NA
ATOM     40  C   UNL     1       7.725   6.520  -4.702  1.00  0.00     0.031 C 
ATOM     41  C   UNL     1       5.325   7.507  -1.307  1.00  0.00     0.029 A 
ATOM     42  N   UNL     1       5.842   5.653  -0.146  1.00  0.00    -0.354 N 
ATOM     43  C   UNL     1       7.654   8.780  -4.295  1.00  0.00     0.074 A 
ATOM     44  C   UNL     1       7.900   7.724  -5.251  1.00  0.00     0.031 C 
ATOM     45  C   UNL     1       5.031   7.748  -0.020  1.00  0.00     0.029 A 
ATOM     46  C   UNL     1       5.654   6.703   0.772  1.00  0.00     0.049 A 
ATOM     47  H   UNL     1       5.820   4.688   0.049  1.00  0.00     0.167 HD
ATOM     48  C   UNL     1       7.383  10.112  -4.398  1.00  0.00     0.031 A 
ATOM     49  C   UNL     1       6.430   6.887   1.878  1.00  0.00     0.031 A 
ATOM     50  C   UNL     1       7.007  10.704  -3.113  1.00  0.00     0.049 A 
ATOM     51  C   UNL     1       7.136   8.230   1.910  1.00  0.00     0.074 A 
ATOM     52  C   UNL     1       5.794  11.081  -2.558  1.00  0.00     0.029 A 
ATOM     53  N   UNL     1       7.923  10.709  -2.070  1.00  0.00    -0.354 N 
ATOM     54  N   UNL     1       7.072   9.122   0.961  1.00  0.00    -0.248 NA
ATOM     55  C   UNL     1       8.070   8.615   2.964  1.00  0.00     0.031 C 
ATOM     56  C   UNL     1       5.989  11.311  -1.168  1.00  0.00     0.029 A 
ATOM     57  C   UNL     1       7.323  11.090  -0.881  1.00  0.00     0.049 A 
ATOM     58  H   UNL     1       8.874  10.473  -2.163  1.00  0.00     0.167 HD
ATOM     59  C   UNL     1       7.954  10.145   1.218  1.00  0.00     0.074 A 
ATOM     60  C   UNL     1       8.555   9.775   2.487  1.00  0.00     0.031 C 
ATOM     61  C   UNL     1       8.131  11.176   0.334  1.00  0.00     0.031 A 
BRANCH  48  62
ATOM     62  C   UNL     1       7.159  10.782  -5.734  1.00  0.00    -0.014 A 
ATOM     63  C   UNL     1       6.266  11.864  -5.833  1.00  0.00     0.009 A 
ATOM     64  C   UNL     1       7.747  10.361  -6.939  1.00  0.00     0.009 A 
ATOM     65  C   UNL     1       5.891  12.407  -7.069  1.00  0.00     0.001 A 
ATOM     66  C   UNL     1       7.341  10.863  -8.184  1.00  0.00     0.001 A 
ATOM     67  C   UNL     1       6.399  11.879  -8.249  1.00  0.00     0.000 A 
ENDBRANCH  48  62
BRANCH  49  68
ATOM     68  C   UNL     1       6.988   5.620   2.422  1.00  0.00    -0.014 A 
ATOM     69  C   UNL     1       6.080   4.694   2.975  1.00  0.00     0.009 A 
ATOM     70  C   UNL     1       8.248   5.165   2.009  1.00  0.00     0.009 A 
ATOM     71  C   UNL     1       6.360   3.326   2.955  1.00  0.00     0.001 A 
ATOM     72  C   UNL     1       8.527   3.794   2.009  1.00  0.00     0.001 A 
ATOM     73  C   UNL     1       7.566   2.874   2.429  1.00  0.00     0.000 A 
ENDBRANCH  49  68
BRANCH  61  74
ATOM     74  C   UNL     1       9.074  12.362   0.469  1.00  0.00    -0.014 A 
ATOM     75  C   UNL     1       9.749  12.738   1.636  1.00  0.00     0.009 A 
ATOM     76  C   UNL     1       9.271  13.211  -0.649  1.00  0.00     0.009 A 
ATOM     77  C   UNL     1      10.626  13.836   1.663  1.00  0.00     0.001 A 
ATOM     78  C   UNL     1      10.133  14.312  -0.628  1.00  0.00     0.001 A 
ATOM     79  C   UNL     1      10.826  14.616   0.530  1.00  0.00     0.000 A 
ENDBRANCH  61  74
ENDBRANCH  35  36
ENDBRANCH  27  30
ENDBRANCH  25  26
ENDBRANCH  24  25
ENDBRANCH   1  24
TORSDOF 13
