REMARK SMILES CC[NH2+][C@@]1(C(=O)NCCCNC(=O)c2ccc(-c3c4nc(c(-c5ccccc5)c5ccc([nH]5)c(-c5ccccc5)c5nc(c(-c6ccccc6)c6ccc3[nH]6)C=C5)C=C4)cc2)CCC[C@@H]1CC[N@@H+](C)C1CCCC1
REMARK SMILES IDX 8 1 7 2 5 3 6 4 4 6 62 7 65 8 63 9 64 10 3 11 2 14 1 15
REMARK SMILES IDX 66 16 67 17 68 18 69 19 70 21 71 22 74 23 72 24 73 25 9 26
REMARK SMILES IDX 10 27 11 28 12 29 13 31 14 32 15 33 61 34 16 35 60 36 17 37
REMARK SMILES IDX 18 38 19 39 54 40 20 41 59 42 53 43 55 44 21 45 58 46 52 47
REMARK SMILES IDX 51 48 22 50 44 51 29 52 43 53 30 54 33 55 42 56 56 57 31 58
REMARK SMILES IDX 32 59 41 61 57 62 34 63 23 64 24 65 28 66 25 67 27 68 26 69
REMARK SMILES IDX 45 70 46 71 50 72 47 73 49 74 48 75 35 76 36 77 40 78 37 79
REMARK SMILES IDX 39 80 38 81
REMARK H PARENT 7 5 3 12 3 13 68 20 11 30 55 49 33 60
REMARK Flexibility Score: inf
ROOT
ATOM      1  C   UNL     1      -2.386   2.954  -4.672  1.00  0.00     0.118 C 
ENDROOT
BRANCH   1   2
ATOM      2  N   UNL     1      -2.237   1.619  -4.125  1.00  0.00    -0.351 N 
ATOM      3  C   UNL     1      -1.285   0.954  -3.418  1.00  0.00     0.281 C 
ATOM      4  O   UNL     1      -1.626  -0.210  -3.153  1.00  0.00    -0.268 OA
ATOM      5  H   UNL     1      -3.020   1.053  -4.314  1.00  0.00     0.163 HD
BRANCH   3   6
ATOM      6  C   UNL     1       0.136   1.521  -2.966  1.00  0.00     0.178 C 
ATOM      7  C   UNL     1       0.061   2.911  -2.295  1.00  0.00     0.079 C 
ATOM      8  C   UNL     1       1.166   1.730  -4.133  1.00  0.00     0.066 C 
ATOM      9  C   UNL     1       0.592   3.942  -3.276  1.00  0.00     0.008 C 
ATOM     10  C   UNL     1       1.000   3.191  -4.529  1.00  0.00     0.011 C 
BRANCH   6  11
ATOM     11  N   UNL     1       0.750   0.517  -2.033  1.00  0.00    -0.334 N 
ATOM     12  H   UNL     1       0.630  -0.408  -2.447  1.00  0.00     0.347 HD
ATOM     13  H   UNL     1       1.723   0.801  -1.924  1.00  0.00     0.347 HD
BRANCH  11  14
ATOM     14  C   UNL     1       0.193   0.478  -0.680  1.00  0.00     0.257 C 
ATOM     15  C   UNL     1       0.901  -0.594   0.137  1.00  0.00     0.071 C 
ENDBRANCH  11  14
ENDBRANCH   6  11
BRANCH   8  16
ATOM     16  C   UNL     1       1.247   0.600  -5.207  1.00  0.00     0.072 C 
BRANCH  16  17
ATOM     17  C   UNL     1       1.229   0.873  -6.736  1.00  0.00     0.262 C 
BRANCH  17  18
ATOM     18  N   UNL     1       2.385   1.358  -7.539  1.00  0.00    -0.335 N 
ATOM     19  C   UNL     1       1.885   1.665  -8.892  1.00  0.00     0.332 C 
ATOM     20  H   UNL     1       3.094   0.624  -7.561  1.00  0.00     0.348 HD
BRANCH  18  21
ATOM     21  C   UNL     1       3.066   2.509  -6.960  1.00  0.00     0.183 C 
ATOM     22  C   UNL     1       4.117   2.100  -5.924  1.00  0.00     0.065 C 
ATOM     23  C   UNL     1       3.921   3.453  -7.822  1.00  0.00     0.065 C 
ATOM     24  C   UNL     1       4.800   3.410  -5.549  1.00  0.00     0.006 C 
ATOM     25  C   UNL     1       4.609   4.321  -6.762  1.00  0.00     0.006 C 
ENDBRANCH  18  21
ENDBRANCH  17  18
ENDBRANCH  16  17
ENDBRANCH   8  16
ENDBRANCH   3   6
ENDBRANCH   1   2
BRANCH   1  26
ATOM     26  C   UNL     1      -2.087   2.995  -6.166  1.00  0.00     0.042 C 
BRANCH  26  27
ATOM     27  C   UNL     1      -3.287   2.739  -7.061  1.00  0.00     0.118 C 
BRANCH  27  28
ATOM     28  N   UNL     1      -4.140   3.913  -7.160  1.00  0.00    -0.352 N 
ATOM     29  C   UNL     1      -4.495   4.649  -8.261  1.00  0.00     0.251 C 
ATOM     30  H   UNL     1      -4.519   4.227  -6.307  1.00  0.00     0.163 HD
ATOM     31  O   UNL     1      -5.020   5.755  -8.100  1.00  0.00    -0.269 OA
BRANCH  29  32
ATOM     32  C   UNL     1      -4.258   4.148  -9.634  1.00  0.00     0.039 A 
ATOM     33  C   UNL     1      -3.916   5.061 -10.639  1.00  0.00     0.014 A 
ATOM     34  C   UNL     1      -4.432   2.800  -9.957  1.00  0.00     0.014 A 
ATOM     35  C   UNL     1      -3.713   4.618 -11.949  1.00  0.00     0.010 A 
ATOM     36  C   UNL     1      -4.152   2.347 -11.244  1.00  0.00     0.010 A 
ATOM     37  C   UNL     1      -3.809   3.253 -12.259  1.00  0.00    -0.014 A 
BRANCH  37  38
ATOM     38  C   UNL     1      -3.597   2.750 -13.640  1.00  0.00     0.031 A 
ATOM     39  C   UNL     1      -4.729   2.088 -14.379  1.00  0.00     0.074 A 
ATOM     40  C   UNL     1      -2.376   2.824 -14.203  1.00  0.00     0.049 A 
ATOM     41  N   UNL     1      -4.721   1.492 -15.545  1.00  0.00    -0.248 NA
ATOM     42  C   UNL     1      -6.038   2.067 -13.705  1.00  0.00     0.031 C 
ATOM     43  C   UNL     1      -1.189   3.416 -13.583  1.00  0.00     0.029 A 
ATOM     44  N   UNL     1      -1.928   2.385 -15.424  1.00  0.00    -0.354 N 
ATOM     45  C   UNL     1      -6.009   1.004 -15.728  1.00  0.00     0.074 A 
ATOM     46  C   UNL     1      -6.761   1.332 -14.537  1.00  0.00     0.031 C 
ATOM     47  C   UNL     1      -0.155   3.322 -14.435  1.00  0.00     0.029 A 
ATOM     48  C   UNL     1      -0.593   2.625 -15.640  1.00  0.00     0.049 A 
ATOM     49  H   UNL     1      -2.509   1.939 -16.083  1.00  0.00     0.167 HD
ATOM     50  C   UNL     1      -6.527   0.356 -16.799  1.00  0.00     0.031 A 
ATOM     51  C   UNL     1       0.193   2.308 -16.686  1.00  0.00     0.031 A 
ATOM     52  C   UNL     1      -5.786   0.051 -17.993  1.00  0.00     0.049 A 
ATOM     53  C   UNL     1      -0.400   1.574 -17.856  1.00  0.00     0.074 A 
ATOM     54  C   UNL     1      -6.237  -0.543 -19.159  1.00  0.00     0.029 A 
ATOM     55  N   UNL     1      -4.438   0.317 -18.172  1.00  0.00    -0.354 N 
ATOM     56  N   UNL     1      -1.635   1.174 -18.039  1.00  0.00    -0.248 NA
ATOM     57  C   UNL     1       0.509   1.251 -18.965  1.00  0.00     0.031 C 
ATOM     58  C   UNL     1      -5.148  -0.681 -20.026  1.00  0.00     0.029 A 
ATOM     59  C   UNL     1      -4.032  -0.126 -19.419  1.00  0.00     0.049 A 
ATOM     60  H   UNL     1      -3.855   0.755 -17.510  1.00  0.00     0.167 HD
ATOM     61  C   UNL     1      -1.656   0.572 -19.290  1.00  0.00     0.074 A 
ATOM     62  C   UNL     1      -0.316   0.675 -19.829  1.00  0.00     0.031 C 
ATOM     63  C   UNL     1      -2.693  -0.017 -19.935  1.00  0.00     0.031 A 
BRANCH  50  64
ATOM     64  C   UNL     1      -7.966  -0.073 -16.721  1.00  0.00    -0.014 A 
ATOM     65  C   UNL     1      -9.010   0.866 -16.756  1.00  0.00     0.009 A 
ATOM     66  C   UNL     1      -8.285  -1.438 -16.642  1.00  0.00     0.009 A 
ATOM     67  C   UNL     1     -10.341   0.449 -16.672  1.00  0.00     0.001 A 
ATOM     68  C   UNL     1      -9.617  -1.853 -16.589  1.00  0.00     0.001 A 
ATOM     69  C   UNL     1     -10.643  -0.909 -16.593  1.00  0.00     0.000 A 
ENDBRANCH  50  64
BRANCH  51  70
ATOM     70  C   UNL     1       1.630   2.688 -16.678  1.00  0.00    -0.014 A 
ATOM     71  C   UNL     1       2.103   3.699 -17.529  1.00  0.00     0.009 A 
ATOM     72  C   UNL     1       2.537   2.044 -15.821  1.00  0.00     0.009 A 
ATOM     73  C   UNL     1       3.457   4.042 -17.538  1.00  0.00     0.001 A 
ATOM     74  C   UNL     1       3.885   2.408 -15.812  1.00  0.00     0.001 A 
ATOM     75  C   UNL     1       4.346   3.400 -16.676  1.00  0.00     0.000 A 
ENDBRANCH  51  70
BRANCH  63  76
ATOM     76  C   UNL     1      -2.424  -0.574 -21.303  1.00  0.00    -0.014 A 
ATOM     77  C   UNL     1      -1.698  -1.762 -21.472  1.00  0.00     0.009 A 
ATOM     78  C   UNL     1      -2.952   0.070 -22.433  1.00  0.00     0.009 A 
ATOM     79  C   UNL     1      -1.484  -2.281 -22.750  1.00  0.00     0.001 A 
ATOM     80  C   UNL     1      -2.760  -0.466 -23.707  1.00  0.00     0.001 A 
ATOM     81  C   UNL     1      -2.020  -1.637 -23.865  1.00  0.00     0.000 A 
ENDBRANCH  63  76
ENDBRANCH  37  38
ENDBRANCH  29  32
ENDBRANCH  27  28
ENDBRANCH  26  27
ENDBRANCH   1  26
TORSDOF 16
