REMARK SMILES CCCC[C@@H](Sc1nc(OCCC2CCCCC2)cc(OCCC2CCCCC2)n1)C(=O)NCCCNC(=O)c1ccc(-c2c3nc(c(-c4ccccc4)c4ccc([nH]4)c(-c4ccccc4)c4nc(c(-c5ccccc5)c5ccc2[nH]5)C=C4)C=C3)cc1
REMARK SMILES IDX 31 1 32 2 33 3 5 5 4 6 3 7 2 8 1 9 6 10 7 11 8 12 30 13 9 14
REMARK SMILES IDX 20 15 19 16 10 17 11 18 12 19 13 20 14 21 18 22 15 23 17 24
REMARK SMILES IDX 16 25 21 26 22 27 23 28 24 29 25 30 29 31 26 32 28 33 27 34
REMARK SMILES IDX 34 35 35 36 36 37 37 38 38 39 39 41 40 42 41 43 87 44 42 45
REMARK SMILES IDX 86 46 43 47 44 48 45 49 80 50 46 51 85 52 79 53 81 54 47 55
REMARK SMILES IDX 84 56 78 57 77 58 48 60 70 61 55 62 69 63 56 64 59 65 68 66
REMARK SMILES IDX 82 67 57 68 58 69 67 71 83 72 60 73 49 74 50 75 54 76 51 77
REMARK SMILES IDX 53 78 52 79 71 80 72 81 76 82 73 83 75 84 74 85 61 86 62 87
REMARK SMILES IDX 66 88 63 89 65 90 64 91
REMARK H PARENT 33 4 37 40 81 59 59 70
REMARK Flexibility Score: inf
ROOT
ATOM      1  C   UNL     1      -1.816  -3.922  -1.392  1.00  0.00     0.233 C 
ATOM      2  O   UNL     1      -2.447  -4.132  -0.353  1.00  0.00    -0.274 OA
ATOM      3  N   UNL     1      -1.437  -5.006  -2.138  1.00  0.00    -0.355 N 
ATOM      4  H   UNL     1      -1.697  -5.879  -1.765  1.00  0.00     0.163 HD
ENDROOT
BRANCH   1   5
ATOM      5  C   UNL     1      -1.415  -2.502  -1.814  1.00  0.00     0.144 C 
BRANCH   5   6
ATOM      6  C   UNL     1       0.127  -2.415  -1.708  1.00  0.00     0.025 C 
BRANCH   6   7
ATOM      7  C   UNL     1       0.789  -1.043  -1.643  1.00  0.00     0.001 C 
BRANCH   7   8
ATOM      8  C   UNL     1       0.363  -0.151  -0.478  1.00  0.00    -0.003 C 
ATOM      9  C   UNL     1       0.888  -0.616   0.866  1.00  0.00     0.004 C 
ENDBRANCH   7   8
ENDBRANCH   6   7
ENDBRANCH   5   6
BRANCH   5  10
ATOM     10  S   UNL     1      -2.305  -2.207  -3.416  1.00  0.00    -0.073 SA
BRANCH  10  11
ATOM     11  C   UNL     1      -1.700  -0.630  -3.867  1.00  0.00     0.195 A 
ATOM     12  N   UNL     1      -1.818   0.347  -2.966  1.00  0.00    -0.187 NA
ATOM     13  N   UNL     1      -1.113  -0.525  -5.067  1.00  0.00    -0.187 NA
ATOM     14  C   UNL     1      -1.315   1.534  -3.304  1.00  0.00     0.221 A 
ATOM     15  C   UNL     1      -0.640   0.681  -5.392  1.00  0.00     0.221 A 
ATOM     16  C   UNL     1      -0.762   1.752  -4.543  1.00  0.00     0.136 A 
BRANCH  14  17
ATOM     17  O   UNL     1      -1.201   2.369  -2.229  1.00  0.00    -0.477 OA
BRANCH  17  18
ATOM     18  C   UNL     1      -1.012   3.769  -2.361  1.00  0.00     0.231 C 
BRANCH  18  19
ATOM     19  C   UNL     1       0.426   4.351  -2.408  1.00  0.00     0.045 C 
BRANCH  19  20
ATOM     20  C   UNL     1       1.530   3.632  -3.205  1.00  0.00    -0.008 C 
ATOM     21  C   UNL     1       2.841   4.428  -3.310  1.00  0.00     0.004 C 
ATOM     22  C   UNL     1       1.872   2.267  -2.614  1.00  0.00     0.004 C 
ATOM     23  C   UNL     1       3.876   3.665  -4.157  1.00  0.00     0.000 C 
ATOM     24  C   UNL     1       2.803   1.477  -3.514  1.00  0.00     0.000 C 
ATOM     25  C   UNL     1       4.108   2.227  -3.688  1.00  0.00     0.000 C 
ENDBRANCH  19  20
ENDBRANCH  18  19
ENDBRANCH  17  18
ENDBRANCH  14  17
BRANCH  15  26
ATOM     26  O   UNL     1      -0.068   0.721  -6.634  1.00  0.00    -0.477 OA
BRANCH  26  27
ATOM     27  C   UNL     1       0.762   1.817  -7.019  1.00  0.00     0.231 C 
BRANCH  27  28
ATOM     28  C   UNL     1       0.189   2.612  -8.206  1.00  0.00     0.045 C 
BRANCH  28  29
ATOM     29  C   UNL     1      -1.058   3.510  -7.967  1.00  0.00    -0.008 C 
ATOM     30  C   UNL     1      -2.321   2.704  -7.610  1.00  0.00     0.004 C 
ATOM     31  C   UNL     1      -0.721   4.734  -7.100  1.00  0.00     0.004 C 
ATOM     32  C   UNL     1      -3.272   3.250  -6.547  1.00  0.00     0.000 C 
ATOM     33  C   UNL     1      -1.923   5.372  -6.419  1.00  0.00     0.000 C 
ATOM     34  C   UNL     1      -2.704   4.330  -5.656  1.00  0.00     0.000 C 
ENDBRANCH  28  29
ENDBRANCH  27  28
ENDBRANCH  26  27
ENDBRANCH  15  26
ENDBRANCH  10  11
ENDBRANCH   5  10
ENDBRANCH   1   5
BRANCH   3  35
ATOM     35  C   UNL     1      -0.710  -5.066  -3.399  1.00  0.00     0.117 C 
BRANCH  35  36
ATOM     36  C   UNL     1       0.642  -5.739  -3.240  1.00  0.00     0.042 C 
BRANCH  36  37
ATOM     37  C   UNL     1       0.523  -7.208  -2.882  1.00  0.00     0.118 C 
BRANCH  37  38
ATOM     38  N   UNL     1      -0.197  -7.962  -3.900  1.00  0.00    -0.352 N 
ATOM     39  C   UNL     1       0.221  -9.022  -4.663  1.00  0.00     0.251 C 
ATOM     40  H   UNL     1      -1.122  -7.667  -4.064  1.00  0.00     0.163 HD
ATOM     41  O   UNL     1      -0.428  -9.379  -5.635  1.00  0.00    -0.269 OA
BRANCH  39  42
ATOM     42  C   UNL     1       1.470  -9.718  -4.303  1.00  0.00     0.039 A 
ATOM     43  C   UNL     1       2.343 -10.110  -5.318  1.00  0.00     0.014 A 
ATOM     44  C   UNL     1       1.776  -9.976  -2.964  1.00  0.00     0.014 A 
ATOM     45  C   UNL     1       3.554 -10.713  -4.981  1.00  0.00     0.010 A 
ATOM     46  C   UNL     1       3.025 -10.473  -2.627  1.00  0.00     0.010 A 
ATOM     47  C   UNL     1       3.918 -10.865  -3.633  1.00  0.00    -0.014 A 
BRANCH  47  48
ATOM     48  C   UNL     1       5.227 -11.444  -3.254  1.00  0.00     0.031 A 
ATOM     49  C   UNL     1       5.285 -12.716  -2.457  1.00  0.00     0.074 A 
ATOM     50  C   UNL     1       6.357 -10.785  -3.570  1.00  0.00     0.049 A 
ATOM     51  N   UNL     1       6.332 -13.356  -2.002  1.00  0.00    -0.248 NA
ATOM     52  C   UNL     1       3.999 -13.334  -2.093  1.00  0.00     0.031 C 
ATOM     53  C   UNL     1       6.422  -9.508  -4.287  1.00  0.00     0.029 A 
ATOM     54  N   UNL     1       7.669 -11.095  -3.323  1.00  0.00    -0.354 N 
ATOM     55  C   UNL     1       5.829 -14.433  -1.282  1.00  0.00     0.074 A 
ATOM     56  C   UNL     1       4.388 -14.328  -1.310  1.00  0.00     0.031 C 
ATOM     57  C   UNL     1       7.708  -9.162  -4.448  1.00  0.00     0.029 A 
ATOM     58  C   UNL     1       8.553 -10.164  -3.809  1.00  0.00     0.049 A 
ATOM     59  H   UNL     1       7.950 -11.907  -2.843  1.00  0.00     0.167 HD
ATOM     60  C   UNL     1       6.508 -15.431  -0.669  1.00  0.00     0.031 A 
ATOM     61  C   UNL     1       9.896 -10.119  -3.740  1.00  0.00     0.031 A 
ATOM     62  C   UNL     1       7.942 -15.531  -0.652  1.00  0.00     0.049 A 
ATOM     63  C   UNL     1      10.630 -11.240  -3.061  1.00  0.00     0.074 A 
ATOM     64  C   UNL     1       8.729 -16.542  -0.129  1.00  0.00     0.029 A 
ATOM     65  N   UNL     1       8.806 -14.578  -1.172  1.00  0.00    -0.354 N 
ATOM     66  N   UNL     1      10.144 -12.304  -2.469  1.00  0.00    -0.248 NA
ATOM     67  C   UNL     1      12.096 -11.161  -3.055  1.00  0.00     0.031 C 
ATOM     68  C   UNL     1      10.069 -16.166  -0.269  1.00  0.00     0.029 A 
ATOM     69  C   UNL     1      10.118 -14.957  -0.946  1.00  0.00     0.049 A 
ATOM     70  H   UNL     1       8.527 -13.754  -1.633  1.00  0.00     0.167 HD
ATOM     71  C   UNL     1      11.244 -13.033  -2.037  1.00  0.00     0.074 A 
ATOM     72  C   UNL     1      12.421 -12.298  -2.455  1.00  0.00     0.031 C 
ATOM     73  C   UNL     1      11.277 -14.205  -1.355  1.00  0.00     0.031 A 
BRANCH  60  74
ATOM     74  C   UNL     1       5.700 -16.474   0.054  1.00  0.00    -0.014 A 
ATOM     75  C   UNL     1       4.865 -17.369  -0.637  1.00  0.00     0.009 A 
ATOM     76  C   UNL     1       5.784 -16.573   1.451  1.00  0.00     0.009 A 
ATOM     77  C   UNL     1       4.095 -18.303   0.059  1.00  0.00     0.001 A 
ATOM     78  C   UNL     1       5.041 -17.531   2.142  1.00  0.00     0.001 A 
ATOM     79  C   UNL     1       4.187 -18.386   1.448  1.00  0.00     0.000 A 
ENDBRANCH  60  74
BRANCH  61  80
ATOM     80  C   UNL     1      10.624  -8.971  -4.341  1.00  0.00    -0.014 A 
ATOM     81  C   UNL     1      11.390  -9.137  -5.505  1.00  0.00     0.009 A 
ATOM     82  C   UNL     1      10.531  -7.693  -3.767  1.00  0.00     0.009 A 
ATOM     83  C   UNL     1      12.065  -8.051  -6.068  1.00  0.00     0.001 A 
ATOM     84  C   UNL     1      11.181  -6.604  -4.350  1.00  0.00     0.001 A 
ATOM     85  C   UNL     1      11.954  -6.785  -5.495  1.00  0.00     0.000 A 
ENDBRANCH  61  80
BRANCH  73  86
ATOM     86  C   UNL     1      12.632 -14.776  -1.040  1.00  0.00    -0.014 A 
ATOM     87  C   UNL     1      13.475 -14.178  -0.090  1.00  0.00     0.009 A 
ATOM     88  C   UNL     1      13.052 -15.956  -1.675  1.00  0.00     0.009 A 
ATOM     89  C   UNL     1      14.727 -14.730   0.189  1.00  0.00     0.001 A 
ATOM     90  C   UNL     1      14.289 -16.524  -1.369  1.00  0.00     0.001 A 
ATOM     91  C   UNL     1      15.130 -15.905  -0.446  1.00  0.00     0.000 A 
ENDBRANCH  73  86
ENDBRANCH  47  48
ENDBRANCH  39  42
ENDBRANCH  37  38
ENDBRANCH  36  37
ENDBRANCH  35  36
ENDBRANCH   3  35
TORSDOF 23
