REMARK SMILES C[C@H]1CC[C@H]([NH2+]Cc2c(C(=O)NCCCNC(=O)c3ccc(-c4c5nc(c(-c6ccccc6)c6ccc([nH]6)c(-c6ccccc6)c6nc(c(-c7ccccc7)c7ccc4[nH]7)C=C6)C=C5)cc3)n(Cc3ccccc3F)c3ccccc23)CC1
REMARK SMILES IDX 13 1 12 2 10 3 11 4 9 6 8 7 81 8 67 9 76 10 80 11 77 12
REMARK SMILES IDX 79 13 78 14 7 15 6 16 5 19 1 20 2 21 3 22 83 23 4 24 82 25
REMARK SMILES IDX 68 26 69 27 70 28 74 29 71 30 73 31 75 32 72 33 14 34 15 35
REMARK SMILES IDX 16 36 17 37 18 39 19 40 20 41 66 42 21 43 65 44 22 45 23 46
REMARK SMILES IDX 24 47 59 48 25 49 64 50 58 51 60 52 26 53 63 54 57 55 56 56
REMARK SMILES IDX 27 58 49 59 34 60 48 61 35 62 38 63 47 64 61 65 36 66 37 67
REMARK SMILES IDX 46 69 62 70 39 71 28 72 29 73 33 74 30 75 32 76 31 77 50 78
REMARK SMILES IDX 51 79 55 80 52 81 54 82 53 83 40 84 41 85 45 86 42 87 44 88
REMARK SMILES IDX 43 89
REMARK H PARENT 12 5 6 17 6 18 16 38 60 57 38 68
REMARK Flexibility Score: inf
ROOT
ATOM      1  C   UNL     1      -3.771   0.451   1.718  1.00  0.00     0.118 C 
ENDROOT
BRANCH   1   2
ATOM      2  N   UNL     1      -2.821  -0.264   2.526  1.00  0.00    -0.351 N 
ATOM      3  C   UNL     1      -2.252  -1.505   2.337  1.00  0.00     0.268 C 
ATOM      4  O   UNL     1      -1.334  -1.736   3.139  1.00  0.00    -0.268 OA
ATOM      5  H   UNL     1      -2.531   0.206   3.341  1.00  0.00     0.163 HD
BRANCH   3   6
ATOM      6  C   UNL     1      -2.693  -2.506   1.351  1.00  0.00     0.117 A 
ATOM      7  C   UNL     1      -3.359  -2.433   0.109  1.00  0.00     0.045 A 
ATOM      8  C   UNL     1      -3.876  -3.747  -0.142  1.00  0.00     0.009 A 
ATOM      9  N   UNL     1      -2.308  -3.874   1.422  1.00  0.00    -0.331 N 
ATOM     10  C   UNL     1      -3.021  -4.626   0.497  1.00  0.00     0.049 A 
ATOM     11  C   UNL     1      -4.875  -4.259  -0.999  1.00  0.00     0.011 A 
ATOM     12  C   UNL     1      -2.991  -5.987   0.139  1.00  0.00     0.027 A 
ATOM     13  C   UNL     1      -4.969  -5.635  -1.212  1.00  0.00     0.001 A 
ATOM     14  C   UNL     1      -4.006  -6.483  -0.684  1.00  0.00     0.002 A 
BRANCH   7  15
ATOM     15  C   UNL     1      -3.610  -1.368  -0.924  1.00  0.00     0.300 C 
BRANCH  15  16
ATOM     16  N   UNL     1      -2.707  -0.237  -0.949  1.00  0.00    -0.340 N 
ATOM     17  H   UNL     1      -3.126   0.438  -1.589  1.00  0.00     0.346 HD
ATOM     18  H   UNL     1      -2.626  -0.032   0.047  1.00  0.00     0.346 HD
BRANCH  16  19
ATOM     19  C   UNL     1      -1.298  -0.324  -1.330  1.00  0.00     0.182 C 
ATOM     20  C   UNL     1       3.003   0.032  -0.313  1.00  0.00     0.007 C 
ATOM     21  C   UNL     1       1.485  -0.080  -0.275  1.00  0.00    -0.014 C 
ATOM     22  C   UNL     1       1.002  -1.369  -0.947  1.00  0.00     0.009 C 
ATOM     23  C   UNL     1       0.815   1.117  -0.951  1.00  0.00     0.009 C 
ATOM     24  C   UNL     1      -0.505  -1.508  -0.772  1.00  0.00     0.065 C 
ATOM     25  C   UNL     1      -0.702   1.016  -0.837  1.00  0.00     0.065 C 
ENDBRANCH  16  19
ENDBRANCH  15  16
ENDBRANCH   7  15
BRANCH   9  26
ATOM     26  C   UNL     1      -1.230  -4.460   2.241  1.00  0.00     0.161 C 
BRANCH  26  27
ATOM     27  C   UNL     1      -1.695  -5.173   3.492  1.00  0.00     0.008 A 
ATOM     28  C   UNL     1      -2.473  -6.343   3.449  1.00  0.00     0.008 A 
ATOM     29  C   UNL     1      -1.292  -4.730   4.754  1.00  0.00     0.128 A 
ATOM     30  C   UNL     1      -2.870  -7.009   4.612  1.00  0.00     0.001 A 
ATOM     31  C   UNL     1      -1.692  -5.381   5.923  1.00  0.00     0.039 A 
ATOM     32  F   UNL     1      -0.463  -3.685   4.871  1.00  0.00    -0.207 F 
ATOM     33  C   UNL     1      -2.491  -6.518   5.853  1.00  0.00     0.003 A 
ENDBRANCH  26  27
ENDBRANCH   9  26
ENDBRANCH   3   6
ENDBRANCH   1   2
BRANCH   1  34
ATOM     34  C   UNL     1      -4.410   1.699   2.316  1.00  0.00     0.042 C 
BRANCH  34  35
ATOM     35  C   UNL     1      -3.564   2.986   2.263  1.00  0.00     0.118 C 
BRANCH  35  36
ATOM     36  N   UNL     1      -2.915   3.294   0.994  1.00  0.00    -0.352 N 
ATOM     37  C   UNL     1      -3.075   4.296   0.073  1.00  0.00     0.251 C 
ATOM     38  H   UNL     1      -2.216   2.646   0.747  1.00  0.00     0.163 HD
ATOM     39  O   UNL     1      -2.074   4.640  -0.561  1.00  0.00    -0.269 OA
BRANCH  37  40
ATOM     40  C   UNL     1      -4.385   4.883  -0.312  1.00  0.00     0.039 A 
ATOM     41  C   UNL     1      -5.608   4.399   0.141  1.00  0.00     0.014 A 
ATOM     42  C   UNL     1      -4.375   5.844  -1.344  1.00  0.00     0.014 A 
ATOM     43  C   UNL     1      -6.785   4.765  -0.501  1.00  0.00     0.010 A 
ATOM     44  C   UNL     1      -5.551   6.224  -1.983  1.00  0.00     0.010 A 
ATOM     45  C   UNL     1      -6.749   5.633  -1.598  1.00  0.00    -0.014 A 
BRANCH  45  46
ATOM     46  C   UNL     1      -8.015   5.916  -2.266  1.00  0.00     0.031 A 
ATOM     47  C   UNL     1      -9.049   6.576  -1.421  1.00  0.00     0.074 A 
ATOM     48  C   UNL     1      -8.252   5.669  -3.569  1.00  0.00     0.049 A 
ATOM     49  N   UNL     1     -10.225   6.135  -1.108  1.00  0.00    -0.248 NA
ATOM     50  C   UNL     1      -8.689   7.845  -0.775  1.00  0.00     0.031 C 
ATOM     51  C   UNL     1      -7.305   5.294  -4.620  1.00  0.00     0.029 A 
ATOM     52  N   UNL     1      -9.424   5.815  -4.249  1.00  0.00    -0.354 N 
ATOM     53  C   UNL     1     -10.811   7.119  -0.314  1.00  0.00     0.074 A 
ATOM     54  C   UNL     1      -9.787   8.102  -0.063  1.00  0.00     0.031 C 
ATOM     55  C   UNL     1      -7.886   5.486  -5.828  1.00  0.00     0.029 A 
ATOM     56  C   UNL     1      -9.279   5.851  -5.627  1.00  0.00     0.049 A 
ATOM     57  H   UNL     1     -10.297   5.889  -3.800  1.00  0.00     0.167 HD
ATOM     58  C   UNL     1     -12.142   7.134  -0.024  1.00  0.00     0.031 A 
ATOM     59  C   UNL     1     -10.221   6.245  -6.519  1.00  0.00     0.031 A 
ATOM     60  C   UNL     1     -12.765   5.863  -0.271  1.00  0.00     0.049 A 
ATOM     61  C   UNL     1     -11.543   6.127  -5.861  1.00  0.00     0.074 A 
ATOM     62  C   UNL     1     -12.616   4.597   0.260  1.00  0.00     0.029 A 
ATOM     63  N   UNL     1     -13.460   5.697  -1.445  1.00  0.00    -0.354 N 
ATOM     64  N   UNL     1     -12.087   4.991  -5.531  1.00  0.00    -0.248 NA
ATOM     65  C   UNL     1     -12.079   7.297  -5.182  1.00  0.00     0.031 C 
ATOM     66  C   UNL     1     -12.768   3.718  -0.849  1.00  0.00     0.029 A 
ATOM     67  C   UNL     1     -13.058   4.496  -1.972  1.00  0.00     0.049 A 
ATOM     68  H   UNL     1     -14.118   6.318  -1.832  1.00  0.00     0.167 HD
ATOM     69  C   UNL     1     -12.708   5.237  -4.315  1.00  0.00     0.074 A 
ATOM     70  C   UNL     1     -12.757   6.693  -4.202  1.00  0.00     0.031 C 
ATOM     71  C   UNL     1     -12.869   4.249  -3.385  1.00  0.00     0.031 A 
BRANCH  58  72
ATOM     72  C   UNL     1     -12.941   8.385   0.222  1.00  0.00    -0.014 A 
ATOM     73  C   UNL     1     -12.485   9.668  -0.133  1.00  0.00     0.009 A 
ATOM     74  C   UNL     1     -14.295   8.277   0.589  1.00  0.00     0.009 A 
ATOM     75  C   UNL     1     -13.328  10.783  -0.133  1.00  0.00     0.001 A 
ATOM     76  C   UNL     1     -15.154   9.383   0.550  1.00  0.00     0.001 A 
ATOM     77  C   UNL     1     -14.670  10.635   0.185  1.00  0.00     0.000 A 
ENDBRANCH  58  72
BRANCH  59  78
ATOM     78  C   UNL     1     -10.014   7.090  -7.718  1.00  0.00    -0.014 A 
ATOM     79  C   UNL     1      -8.913   7.963  -7.789  1.00  0.00     0.009 A 
ATOM     80  C   UNL     1     -11.045   7.262  -8.656  1.00  0.00     0.009 A 
ATOM     81  C   UNL     1      -8.863   8.999  -8.726  1.00  0.00     0.001 A 
ATOM     82  C   UNL     1     -10.998   8.304  -9.592  1.00  0.00     0.001 A 
ATOM     83  C   UNL     1      -9.916   9.182  -9.615  1.00  0.00     0.000 A 
ENDBRANCH  59  78
BRANCH  71  84
ATOM     84  C   UNL     1     -12.521   2.828  -3.768  1.00  0.00    -0.014 A 
ATOM     85  C   UNL     1     -13.436   1.807  -3.465  1.00  0.00     0.009 A 
ATOM     86  C   UNL     1     -11.241   2.455  -4.218  1.00  0.00     0.009 A 
ATOM     87  C   UNL     1     -13.080   0.461  -3.588  1.00  0.00     0.001 A 
ATOM     88  C   UNL     1     -10.893   1.108  -4.367  1.00  0.00     0.001 A 
ATOM     89  C   UNL     1     -11.809   0.112  -4.039  1.00  0.00     0.000 A 
ENDBRANCH  71  84
ENDBRANCH  45  46
ENDBRANCH  37  40
ENDBRANCH  35  36
ENDBRANCH  34  35
ENDBRANCH   1  34
TORSDOF 15
