REMARK SMILES COc1ccc(-n2c(SCc3cn(-c4ccc(C(=O)NCCCNC(=O)c5ccc(-c6c7nc(c(-c8ccccc8)c8ccc([nH]8)c(-c8ccccc8)c8nc(c(-c9ccccc9)c9ccc6[nH]9)C=C8)C=C7)cc5)cc4)nn3)nc3ccccc3c2=O)cc1
REMARK SMILES IDX 18 1 19 2 20 3 17 5 14 6 15 7 76 8 16 9 75 10 13 11 11 12
REMARK SMILES IDX 12 13 78 14 77 15 10 16 9 17 8 18 7 19 86 20 79 21 85 22
REMARK SMILES IDX 87 23 80 24 84 25 81 26 83 27 82 28 6 29 3 30 4 31 89 32
REMARK SMILES IDX 5 33 88 34 2 35 1 36 21 37 22 38 23 39 24 40 25 41 26 43
REMARK SMILES IDX 27 44 28 45 74 46 29 47 73 48 30 49 31 50 32 51 67 52 33 53
REMARK SMILES IDX 72 54 66 55 68 56 34 57 71 58 65 59 64 60 35 62 57 63 42 64
REMARK SMILES IDX 56 65 43 66 46 67 55 68 69 69 44 70 45 71 54 73 70 74 47 75
REMARK SMILES IDX 36 76 37 77 41 78 38 79 40 80 39 81 58 82 59 83 63 84 60 85
REMARK SMILES IDX 62 86 61 87 48 88 49 89 53 90 50 91 52 92 51 93
REMARK H PARENT 20 4 24 42 68 61 46 72
REMARK Flexibility Score: inf
ROOT
ATOM      1  C   UNL     1      -4.850   0.566  -4.851  1.00  0.00     0.251 C 
ATOM      2  O   UNL     1      -5.302   1.335  -5.700  1.00  0.00    -0.269 OA
ATOM      3  N   UNL     1      -5.731  -0.243  -4.176  1.00  0.00    -0.352 N 
ATOM      4  H   UNL     1      -6.678  -0.046  -4.362  1.00  0.00     0.163 HD
ENDROOT
BRANCH   1   5
ATOM      5  C   UNL     1      -3.383   0.541  -4.613  1.00  0.00     0.039 A 
ATOM      6  C   UNL     1      -0.629   0.635  -4.248  1.00  0.00     0.066 A 
ATOM      7  C   UNL     1      -1.153   0.959  -5.497  1.00  0.00     0.029 A 
ATOM      8  C   UNL     1      -1.445   0.252  -3.191  1.00  0.00     0.029 A 
ATOM      9  C   UNL     1      -2.538   0.931  -5.668  1.00  0.00     0.016 A 
ATOM     10  C   UNL     1      -2.817   0.217  -3.379  1.00  0.00     0.016 A 
BRANCH   6  11
ATOM     11  N   UNL     1       0.750   0.617  -4.054  1.00  0.00    -0.220 N 
ATOM     12  C   UNL     1       2.743  -0.178  -3.755  1.00  0.00     0.093 A 
ATOM     13  C   UNL     1       1.562  -0.419  -4.416  1.00  0.00     0.141 A 
ATOM     14  N   UNL     1       2.607   0.968  -3.015  1.00  0.00    -0.134 NA
ATOM     15  N   UNL     1       1.365   1.406  -3.154  1.00  0.00    -0.062 NA
BRANCH  12  16
ATOM     16  C   UNL     1       3.991  -0.955  -3.656  1.00  0.00     0.138 C 
BRANCH  16  17
ATOM     17  S   UNL     1       4.435  -1.904  -5.095  1.00  0.00    -0.081 SA
BRANCH  17  18
ATOM     18  C   UNL     1       3.031  -2.926  -5.483  1.00  0.00     0.176 A 
ATOM     19  N   UNL     1       2.892  -4.056  -4.693  1.00  0.00    -0.255 N 
ATOM     20  C   UNL     1       3.191  -5.269  -5.287  1.00  0.00     0.266 A 
ATOM     21  N   UNL     1       2.744  -2.980  -6.750  1.00  0.00    -0.223 NA
ATOM     22  C   UNL     1       3.880  -5.121  -6.596  1.00  0.00     0.066 A 
ATOM     23  O   UNL     1       2.971  -6.393  -4.825  1.00  0.00    -0.268 OA
ATOM     24  C   UNL     1       3.514  -3.996  -7.355  1.00  0.00     0.079 A 
ATOM     25  C   UNL     1       5.018  -5.853  -6.921  1.00  0.00     0.016 A 
ATOM     26  C   UNL     1       4.197  -3.692  -8.529  1.00  0.00     0.029 A 
ATOM     27  C   UNL     1       5.770  -5.465  -8.034  1.00  0.00     0.001 A 
ATOM     28  C   UNL     1       5.342  -4.415  -8.855  1.00  0.00     0.002 A 
BRANCH  19  29
ATOM     29  C   UNL     1       2.136  -3.961  -3.498  1.00  0.00     0.052 A 
ATOM     30  C   UNL     1       0.838  -2.790  -1.325  1.00  0.00     0.119 A 
ATOM     31  C   UNL     1       0.097  -3.176  -2.441  1.00  0.00     0.048 A 
ATOM     32  C   UNL     1       2.176  -3.164  -1.219  1.00  0.00     0.048 A 
ATOM     33  C   UNL     1       0.750  -3.742  -3.543  1.00  0.00     0.030 A 
ATOM     34  C   UNL     1       2.821  -3.771  -2.299  1.00  0.00     0.030 A 
BRANCH  30  35
ATOM     35  O   UNL     1       0.205  -2.070  -0.348  1.00  0.00    -0.497 OA
ATOM     36  C   UNL     1       0.847  -0.814  -0.086  1.00  0.00     0.278 C 
ENDBRANCH  30  35
ENDBRANCH  19  29
ENDBRANCH  17  18
ENDBRANCH  16  17
ENDBRANCH  12  16
ENDBRANCH   6  11
ENDBRANCH   1   5
BRANCH   3  37
ATOM     37  C   UNL     1      -5.525  -1.339  -3.237  1.00  0.00     0.118 C 
BRANCH  37  38
ATOM     38  C   UNL     1      -5.665  -0.899  -1.771  1.00  0.00     0.042 C 
BRANCH  38  39
ATOM     39  C   UNL     1      -7.110  -0.719  -1.357  1.00  0.00     0.118 C 
BRANCH  39  40
ATOM     40  N   UNL     1      -7.856  -1.982  -1.263  1.00  0.00    -0.352 N 
ATOM     41  C   UNL     1      -9.187  -2.189  -0.944  1.00  0.00     0.251 C 
ATOM     42  H   UNL     1      -7.335  -2.796  -1.452  1.00  0.00     0.163 HD
ATOM     43  O   UNL     1      -9.581  -3.306  -0.583  1.00  0.00    -0.269 OA
BRANCH  41  44
ATOM     44  C   UNL     1     -10.143  -1.080  -1.057  1.00  0.00     0.039 A 
ATOM     45  C   UNL     1     -11.296  -0.926  -0.278  1.00  0.00     0.014 A 
ATOM     46  C   UNL     1      -9.848  -0.128  -2.002  1.00  0.00     0.014 A 
ATOM     47  C   UNL     1     -12.108   0.189  -0.511  1.00  0.00     0.010 A 
ATOM     48  C   UNL     1     -10.303   1.114  -1.742  1.00  0.00     0.010 A 
ATOM     49  C   UNL     1     -11.600   1.202  -1.319  1.00  0.00    -0.014 A 
BRANCH  49  50
ATOM     50  C   UNL     1     -12.265   2.430  -1.700  1.00  0.00     0.031 A 
ATOM     51  C   UNL     1     -12.438   3.378  -0.586  1.00  0.00     0.074 A 
ATOM     52  C   UNL     1     -12.399   2.793  -2.998  1.00  0.00     0.049 A 
ATOM     53  N   UNL     1     -13.530   3.626   0.050  1.00  0.00    -0.248 NA
ATOM     54  C   UNL     1     -11.237   3.971   0.024  1.00  0.00     0.031 C 
ATOM     55  C   UNL     1     -11.917   2.119  -4.215  1.00  0.00     0.029 A 
ATOM     56  N   UNL     1     -12.916   3.944  -3.498  1.00  0.00    -0.354 N 
ATOM     57  C   UNL     1     -13.195   4.573   1.007  1.00  0.00     0.074 A 
ATOM     58  C   UNL     1     -11.759   4.550   1.106  1.00  0.00     0.031 C 
ATOM     59  C   UNL     1     -11.968   2.976  -5.264  1.00  0.00     0.029 A 
ATOM     60  C   UNL     1     -12.620   4.199  -4.832  1.00  0.00     0.049 A 
ATOM     61  H   UNL     1     -13.461   4.557  -2.954  1.00  0.00     0.167 HD
ATOM     62  C   UNL     1     -14.101   5.496   1.431  1.00  0.00     0.031 A 
ATOM     63  C   UNL     1     -12.866   5.356  -5.500  1.00  0.00     0.031 A 
ATOM     64  C   UNL     1     -15.418   5.203   0.914  1.00  0.00     0.049 A 
ATOM     65  C   UNL     1     -13.883   6.103  -4.714  1.00  0.00     0.074 A 
ATOM     66  C   UNL     1     -16.288   4.138   1.033  1.00  0.00     0.029 A 
ATOM     67  N   UNL     1     -15.797   5.885  -0.222  1.00  0.00    -0.354 N 
ATOM     68  N   UNL     1     -15.109   5.686  -4.564  1.00  0.00    -0.248 NA
ATOM     69  C   UNL     1     -13.411   7.021  -3.686  1.00  0.00     0.031 C 
ATOM     70  C   UNL     1     -16.822   3.959  -0.277  1.00  0.00     0.029 A 
ATOM     71  C   UNL     1     -16.330   4.976  -1.099  1.00  0.00     0.049 A 
ATOM     72  H   UNL     1     -15.703   6.853  -0.375  1.00  0.00     0.167 HD
ATOM     73  C   UNL     1     -15.398   5.910  -3.224  1.00  0.00     0.074 A 
ATOM     74  C   UNL     1     -14.355   6.826  -2.759  1.00  0.00     0.031 C 
ATOM     75  C   UNL     1     -16.259   5.096  -2.541  1.00  0.00     0.031 A 
BRANCH  62  76
ATOM     76  C   UNL     1     -13.749   6.866   1.944  1.00  0.00    -0.014 A 
ATOM     77  C   UNL     1     -14.792   7.689   2.404  1.00  0.00     0.009 A 
ATOM     78  C   UNL     1     -12.494   7.477   1.762  1.00  0.00     0.009 A 
ATOM     79  C   UNL     1     -14.608   9.062   2.591  1.00  0.00     0.001 A 
ATOM     80  C   UNL     1     -12.296   8.841   1.988  1.00  0.00     0.001 A 
ATOM     81  C   UNL     1     -13.362   9.639   2.373  1.00  0.00     0.000 A 
ENDBRANCH  62  76
BRANCH  63  82
ATOM     82  C   UNL     1     -12.102   5.978  -6.607  1.00  0.00    -0.014 A 
ATOM     83  C   UNL     1     -12.663   6.996  -7.397  1.00  0.00     0.009 A 
ATOM     84  C   UNL     1     -10.717   5.758  -6.721  1.00  0.00     0.009 A 
ATOM     85  C   UNL     1     -11.861   7.785  -8.237  1.00  0.00     0.001 A 
ATOM     86  C   UNL     1      -9.916   6.544  -7.559  1.00  0.00     0.001 A 
ATOM     87  C   UNL     1     -10.486   7.569  -8.306  1.00  0.00     0.000 A 
ENDBRANCH  63  82
BRANCH  75  88
ATOM     88  C   UNL     1     -17.026   4.057  -3.330  1.00  0.00    -0.014 A 
ATOM     89  C   UNL     1     -16.405   3.008  -4.033  1.00  0.00     0.009 A 
ATOM     90  C   UNL     1     -18.422   4.031  -3.206  1.00  0.00     0.009 A 
ATOM     91  C   UNL     1     -17.160   1.980  -4.610  1.00  0.00     0.001 A 
ATOM     92  C   UNL     1     -19.175   2.995  -3.763  1.00  0.00     0.001 A 
ATOM     93  C   UNL     1     -18.545   1.972  -4.468  1.00  0.00     0.000 A 
ENDBRANCH  75  88
ENDBRANCH  49  50
ENDBRANCH  41  44
ENDBRANCH  39  40
ENDBRANCH  38  39
ENDBRANCH  37  38
ENDBRANCH   3  37
TORSDOF 16
