REMARK SMILES Cc1c(C[NH2+]C2CCCCCC2)c(C(=O)NCCCNC(=O)c2ccc(-c3c4nc(c(-c5ccccc5)c5ccc([nH]5)c(-c5ccccc5)c5nc(c(-c6ccccc6)c6ccc3[nH]6)C=C5)C=C4)cc2)c(C)n1Cc1cccc(F)c1
REMARK SMILES IDX 14 1 15 2 16 3 13 5 1 6 2 7 3 8 73 9 71 10 72 11 4 12 5 13
REMARK SMILES IDX 6 16 7 17 8 18 9 19 12 21 11 22 10 23 74 25 75 26 76 27
REMARK SMILES IDX 81 28 77 29 79 30 78 31 80 32 17 33 18 34 19 35 20 36 21 37
REMARK SMILES IDX 22 39 23 40 24 41 70 42 25 43 69 44 26 45 27 46 28 47 63 48
REMARK SMILES IDX 29 49 68 50 62 51 64 52 30 53 67 54 61 55 60 56 31 58 53 59
REMARK SMILES IDX 38 60 52 61 39 62 42 63 51 64 65 65 40 66 41 67 50 69 66 70
REMARK SMILES IDX 43 71 32 72 33 73 37 74 34 75 36 76 35 77 54 78 55 79 59 80
REMARK SMILES IDX 56 81 58 82 57 83 44 84 45 85 49 86 46 87 48 88 47 89
REMARK H PARENT 16 4 5 14 5 15 20 38 64 57 42 68
REMARK Flexibility Score: 90.00
ROOT
ATOM      1  C   UNL     1      -1.568   4.650   1.672  1.00  0.00     0.253 C 
ATOM      2  O   UNL     1      -2.613   4.256   2.181  1.00  0.00    -0.269 OA
ATOM      3  N   UNL     1      -1.536   6.022   1.560  1.00  0.00    -0.352 N 
ATOM      4  H   UNL     1      -2.358   6.420   1.926  1.00  0.00     0.163 HD
ENDROOT
BRANCH   1   5
ATOM      5  C   UNL     1      -0.558   3.692   1.158  1.00  0.00     0.069 A 
ATOM      6  C   UNL     1       0.584   0.219   0.204  1.00  0.00     0.065 C 
ATOM      7  C   UNL     1       0.297   1.662   0.464  1.00  0.00     0.025 A 
ATOM      8  C   UNL     1      -0.794   2.244   1.109  1.00  0.00     0.040 A 
ATOM      9  N   UNL     1       1.109   2.694   0.035  1.00  0.00    -0.343 N 
ATOM     10  C   UNL     1       0.787   3.819   0.790  1.00  0.00     0.028 A 
ATOM     11  C   UNL     1       1.829   4.824   1.139  1.00  0.00     0.065 C 
BRANCH   8  12
ATOM     12  C   UNL     1      -2.011   1.486   1.610  1.00  0.00     0.300 C 
BRANCH  12  13
ATOM     13  N   UNL     1      -1.937   1.258   3.060  1.00  0.00    -0.340 N 
ATOM     14  H   UNL     1      -1.739   2.148   3.517  1.00  0.00     0.346 HD
ATOM     15  H   UNL     1      -1.202   0.569   3.219  1.00  0.00     0.346 HD
BRANCH  13  16
ATOM     16  C   UNL     1      -3.186   0.703   3.635  1.00  0.00     0.182 C 
BRANCH  16  17
ATOM     17  C   UNL     1      -3.659  -0.620   3.001  1.00  0.00     0.065 C 
BRANCH  17  18
ATOM     18  C   UNL     1      -2.924  -1.864   3.494  1.00  0.00     0.006 C 
BRANCH  18  19
ATOM     19  C   UNL     1      -3.660  -2.535   4.652  1.00  0.00     0.000 CG0
ATOM     20  G   UNL     1      -3.658  -1.759   5.967  1.00  0.00     0.000 G0
ENDBRANCH  18  19
ENDBRANCH  17  18
ENDBRANCH  16  17
BRANCH  16  21
ATOM     21  C   UNL     1      -3.028   0.599   5.173  1.00  0.00     0.065 C 
BRANCH  21  22
ATOM     22  C   UNL     1      -4.066  -0.284   5.886  1.00  0.00     0.006 C 
BRANCH  22  23
ATOM     23  C   UNL     1      -3.658  -1.759   5.967  1.00  0.00     0.000 CG0
ATOM     24  G   UNL     1      -3.660  -2.535   4.652  1.00  0.00     0.000 G0
ENDBRANCH  22  23
ENDBRANCH  21  22
ENDBRANCH  16  21
ENDBRANCH  13  16
ENDBRANCH  12  13
ENDBRANCH   8  12
BRANCH   9  25
ATOM     25  C   UNL     1       2.260   2.548  -0.873  1.00  0.00     0.157 C 
BRANCH  25  26
ATOM     26  C   UNL     1       2.095   3.190  -2.241  1.00  0.00    -0.025 A 
ATOM     27  C   UNL     1       2.264   2.421  -3.409  1.00  0.00     0.006 A 
ATOM     28  C   UNL     1       1.894   4.568  -2.402  1.00  0.00     0.044 A 
ATOM     29  C   UNL     1       2.225   3.010  -4.681  1.00  0.00     0.003 A 
ATOM     30  C   UNL     1       1.856   5.147  -3.669  1.00  0.00     0.123 A 
ATOM     31  C   UNL     1       2.021   4.381  -4.811  1.00  0.00     0.039 A 
ATOM     32  F   UNL     1       1.676   6.470  -3.779  1.00  0.00    -0.207 F 
ENDBRANCH  25  26
ENDBRANCH   9  25
ENDBRANCH   1   5
BRANCH   3  33
ATOM     33  C   UNL     1      -0.649   7.053   1.061  1.00  0.00     0.118 C 
BRANCH  33  34
ATOM     34  C   UNL     1      -0.918   7.474  -0.387  1.00  0.00     0.042 C 
BRANCH  34  35
ATOM     35  C   UNL     1      -2.197   8.312  -0.591  1.00  0.00     0.118 C 
BRANCH  35  36
ATOM     36  N   UNL     1      -1.987   9.749  -0.546  1.00  0.00    -0.352 N 
ATOM     37  C   UNL     1      -2.752  10.748  -1.122  1.00  0.00     0.251 C 
ATOM     38  H   UNL     1      -1.198  10.051  -0.040  1.00  0.00     0.163 HD
ATOM     39  O   UNL     1      -2.357  11.908  -1.026  1.00  0.00    -0.269 OA
BRANCH  37  40
ATOM     40  C   UNL     1      -3.953  10.439  -1.977  1.00  0.00     0.039 A 
ATOM     41  C   UNL     1      -3.797  10.640  -3.330  1.00  0.00     0.014 A 
ATOM     42  C   UNL     1      -5.250  10.095  -1.548  1.00  0.00     0.014 A 
ATOM     43  C   UNL     1      -4.885  10.424  -4.213  1.00  0.00     0.010 A 
ATOM     44  C   UNL     1      -6.394   9.983  -2.467  1.00  0.00     0.010 A 
ATOM     45  C   UNL     1      -6.263  10.156  -3.856  1.00  0.00    -0.014 A 
BRANCH  45  46
ATOM     46  C   UNL     1      -7.382  10.432  -5.030  1.00  0.00     0.031 A 
ATOM     47  C   UNL     1      -6.769  11.549  -5.796  1.00  0.00     0.074 A 
ATOM     48  C   UNL     1      -8.696  10.227  -5.469  1.00  0.00     0.049 A 
ATOM     49  N   UNL     1      -6.563  12.645  -5.133  1.00  0.00    -0.248 NA
ATOM     50  C   UNL     1      -5.995  11.416  -7.030  1.00  0.00     0.031 C 
ATOM     51  C   UNL     1      -9.800   9.522  -4.798  1.00  0.00     0.029 A 
ATOM     52  N   UNL     1      -9.383  10.641  -6.665  1.00  0.00    -0.354 N 
ATOM     53  C   UNL     1      -5.768  13.446  -5.906  1.00  0.00     0.074 A 
ATOM     54  C   UNL     1      -5.325  12.578  -6.994  1.00  0.00     0.031 C 
ATOM     55  C   UNL     1     -10.900   9.410  -5.605  1.00  0.00     0.029 A 
ATOM     56  C   UNL     1     -10.691  10.075  -6.892  1.00  0.00     0.049 A 
ATOM     57  H   UNL     1      -8.980  11.279  -7.298  1.00  0.00     0.167 HD
ATOM     58  C   UNL     1      -6.128  14.759  -5.920  1.00  0.00     0.031 A 
ATOM     59  C   UNL     1     -11.572  10.194  -7.970  1.00  0.00     0.031 A 
ATOM     60  C   UNL     1      -6.949  15.027  -7.072  1.00  0.00     0.049 A 
ATOM     61  C   UNL     1     -11.315  11.521  -8.541  1.00  0.00     0.074 A 
ATOM     62  C   UNL     1      -6.814  14.668  -8.400  1.00  0.00     0.029 A 
ATOM     63  N   UNL     1      -8.292  15.250  -6.852  1.00  0.00    -0.354 N 
ATOM     64  N   UNL     1     -11.823  12.583  -7.993  1.00  0.00    -0.248 NA
ATOM     65  C   UNL     1     -10.642  11.735  -9.815  1.00  0.00     0.031 C 
ATOM     66  C   UNL     1      -8.085  14.169  -8.756  1.00  0.00     0.029 A 
ATOM     67  C   UNL     1      -9.025  14.620  -7.838  1.00  0.00     0.049 A 
ATOM     68  H   UNL     1      -8.669  15.774  -6.109  1.00  0.00     0.167 HD
ATOM     69  C   UNL     1     -11.061  13.579  -8.513  1.00  0.00     0.074 A 
ATOM     70  C   UNL     1     -10.599  13.070  -9.792  1.00  0.00     0.031 C 
ATOM     71  C   UNL     1     -10.431  14.382  -7.619  1.00  0.00     0.031 A 
BRANCH  58  72
ATOM     72  C   UNL     1      -6.376  15.304  -4.527  1.00  0.00    -0.014 A 
ATOM     73  C   UNL     1      -5.435  16.173  -3.964  1.00  0.00     0.009 A 
ATOM     74  C   UNL     1      -7.391  14.796  -3.684  1.00  0.00     0.009 A 
ATOM     75  C   UNL     1      -5.465  16.458  -2.592  1.00  0.00     0.001 A 
ATOM     76  C   UNL     1      -7.387  15.036  -2.310  1.00  0.00     0.001 A 
ATOM     77  C   UNL     1      -6.416  15.863  -1.762  1.00  0.00     0.000 A 
ENDBRANCH  58  72
BRANCH  59  78
ATOM     78  C   UNL     1     -12.866   9.645  -8.643  1.00  0.00    -0.014 A 
ATOM     79  C   UNL     1     -13.729  10.540  -9.370  1.00  0.00     0.009 A 
ATOM     80  C   UNL     1     -13.059   8.294  -8.954  1.00  0.00     0.009 A 
ATOM     81  C   UNL     1     -14.597  10.145 -10.409  1.00  0.00     0.001 A 
ATOM     82  C   UNL     1     -13.967   7.887  -9.977  1.00  0.00     0.001 A 
ATOM     83  C   UNL     1     -14.700   8.807 -10.729  1.00  0.00     0.000 A 
ENDBRANCH  59  78
BRANCH  71  84
ATOM     84  C   UNL     1     -11.201  14.774  -6.364  1.00  0.00    -0.014 A 
ATOM     85  C   UNL     1     -11.971  13.897  -5.565  1.00  0.00     0.009 A 
ATOM     86  C   UNL     1     -11.211  16.127  -6.000  1.00  0.00     0.009 A 
ATOM     87  C   UNL     1     -12.771  14.360  -4.513  1.00  0.00     0.001 A 
ATOM     88  C   UNL     1     -11.968  16.586  -4.915  1.00  0.00     0.001 A 
ATOM     89  C   UNL     1     -12.767  15.708  -4.188  1.00  0.00     0.000 A 
ENDBRANCH  71  84
ENDBRANCH  45  46
ENDBRANCH  37  40
ENDBRANCH  35  36
ENDBRANCH  34  35
ENDBRANCH  33  34
ENDBRANCH   3  33
TORSDOF 15
