REMARK SMILES COc1cc(/C=C2/SC(=O)N(c3ccc(C)c(C)c3)C2=O)ccc1OCCC(=O)NCCCNC(=O)c1ccc(-c2c3nc(c(-c4ccccc4)c4ccc([nH]4)c(-c4ccccc4)c4nc(c(-c5ccccc5)c5ccc2[nH]5)C=C4)C=C3)cc1
REMARK SMILES IDX 28 1 29 2 30 3 27 5 26 6 25 7 24 8 3 9 4 10 5 11 23 12 22 13
REMARK SMILES IDX 2 14 1 15 6 16 7 17 8 18 20 19 9 20 11 21 21 22 10 23 12 24
REMARK SMILES IDX 13 25 19 26 14 27 17 28 15 29 18 30 16 31 31 32 32 33 33 34
REMARK SMILES IDX 34 35 35 36 36 38 37 39 38 40 84 41 39 42 83 43 40 44 41 45
REMARK SMILES IDX 42 46 77 47 43 48 82 49 76 50 78 51 44 52 81 53 75 54 74 55
REMARK SMILES IDX 45 57 67 58 52 59 66 60 53 61 56 62 65 63 79 64 54 65 55 66
REMARK SMILES IDX 64 68 80 69 57 70 46 71 47 72 51 73 48 74 50 75 49 76 68 77
REMARK SMILES IDX 69 78 73 79 70 80 72 81 71 82 58 83 59 84 63 85 60 86 62 87
REMARK SMILES IDX 61 88
REMARK H PARENT 30 4 34 37 78 56 56 67
REMARK Flexibility Score: inf
ROOT
ATOM      1  C   UNL     1       1.019   1.845   0.016  1.00  0.00     0.223 C 
ATOM      2  O   UNL     1       0.347   1.350   0.921  1.00  0.00    -0.275 OA
ATOM      3  N   UNL     1       0.359   2.462  -1.022  1.00  0.00    -0.356 N 
ATOM      4  H   UNL     1      -0.472   2.947  -0.812  1.00  0.00     0.163 HD
ENDROOT
BRANCH   1   5
ATOM      5  C   UNL     1       2.549   1.804   0.032  1.00  0.00     0.141 C 
BRANCH   5   6
ATOM      6  C   UNL     1       3.236   0.466  -0.268  1.00  0.00     0.239 C 
BRANCH   6   7
ATOM      7  O   UNL     1       3.843   0.418  -1.578  1.00  0.00    -0.489 OA
BRANCH   7   8
ATOM      8  C   UNL     1       2.916   0.197  -2.560  1.00  0.00     0.161 A 
ATOM      9  C   UNL     1       1.738  -1.149  -2.442  1.00  0.00     0.161 A 
ATOM     10  C   UNL     1       0.275  -1.145  -3.432  1.00  0.00     0.058 A 
ATOM     11  C   UNL     1      -0.036   0.125  -4.647  1.00  0.00    -0.020 A 
ATOM     12  C   UNL     1       2.645   1.538  -3.749  1.00  0.00     0.051 A 
ATOM     13  C   UNL     1       1.103   1.543  -4.752  1.00  0.00     0.012 A 
BRANCH   9  14
ATOM     14  O   UNL     1       1.784  -2.023  -1.383  1.00  0.00    -0.493 OA
ATOM     15  C   UNL     1       0.566  -1.980  -0.620  1.00  0.00     0.278 C 
ENDBRANCH   9  14
BRANCH  11  16
ATOM     16  C   UNL     1      -0.953  -0.317  -5.721  1.00  0.00     0.029 C 
ATOM     17  C   UNL     1      -0.933  -1.572  -6.242  1.00  0.00     0.083 C 
ATOM     18  S   UNL     1      -1.729  -1.976  -7.720  1.00  0.00    -0.022 SA
ATOM     19  C   UNL     1      -0.126  -2.818  -5.896  1.00  0.00     0.272 C 
ATOM     20  C   UNL     1      -0.517  -3.229  -8.105  1.00  0.00     0.298 C 
ATOM     21  N   UNL     1       0.328  -3.443  -7.038  1.00  0.00    -0.236 N 
ATOM     22  O   UNL     1      -0.077  -3.300  -4.774  1.00  0.00    -0.268 OA
ATOM     23  O   UNL     1      -0.527  -3.748  -9.209  1.00  0.00    -0.260 OA
BRANCH  21  24
ATOM     24  C   UNL     1       1.468  -4.351  -7.049  1.00  0.00     0.053 A 
ATOM     25  C   UNL     1       2.155  -4.731  -5.879  1.00  0.00     0.027 A 
ATOM     26  C   UNL     1       2.004  -4.857  -8.246  1.00  0.00     0.030 A 
ATOM     27  C   UNL     1       3.299  -5.556  -5.907  1.00  0.00     0.006 A 
ATOM     28  C   UNL     1       3.169  -5.669  -8.293  1.00  0.00    -0.046 A 
ATOM     29  C   UNL     1       3.838  -6.010  -7.112  1.00  0.00    -0.048 A 
ATOM     30  C   UNL     1       3.653  -6.174  -9.624  1.00  0.00     0.044 C 
ATOM     31  C   UNL     1       5.062  -6.891  -7.099  1.00  0.00     0.044 C 
ENDBRANCH  21  24
ENDBRANCH  11  16
ENDBRANCH   7   8
ENDBRANCH   6   7
ENDBRANCH   5   6
ENDBRANCH   1   5
BRANCH   3  32
ATOM     32  C   UNL     1       0.806   2.449  -2.417  1.00  0.00     0.117 C 
BRANCH  32  33
ATOM     33  C   UNL     1       0.924   0.805  -2.886  1.00  0.00     0.042 C 
BRANCH  33  34
ATOM     34  C   UNL     1       2.011  -0.277  -4.438  1.00  0.00     0.118 C 
BRANCH  34  35
ATOM     35  N   UNL     1       2.039  -0.120  -6.114  1.00  0.00    -0.352 N 
ATOM     36  C   UNL     1       2.470   0.887  -6.996  1.00  0.00     0.251 C 
ATOM     37  H   UNL     1       1.672  -0.906  -6.579  1.00  0.00     0.163 HD
ATOM     38  O   UNL     1       2.897   1.998  -6.713  1.00  0.00    -0.269 OA
BRANCH  36  39
ATOM     39  C   UNL     1       2.484   0.489  -8.432  1.00  0.00     0.039 A 
ATOM     40  C   UNL     1       3.554   0.892  -9.232  1.00  0.00     0.014 A 
ATOM     41  C   UNL     1       1.648  -0.529  -8.856  1.00  0.00     0.014 A 
ATOM     42  C   UNL     1       3.968   0.062 -10.273  1.00  0.00     0.010 A 
ATOM     43  C   UNL     1       2.137  -1.428  -9.778  1.00  0.00     0.010 A 
ATOM     44  C   UNL     1       3.356  -1.188 -10.425  1.00  0.00    -0.014 A 
BRANCH  44  45
ATOM     45  C   UNL     1       4.050  -2.343 -11.057  1.00  0.00     0.031 A 
ATOM     46  C   UNL     1       3.312  -3.205 -12.048  1.00  0.00     0.074 A 
ATOM     47  C   UNL     1       5.207  -2.766 -10.495  1.00  0.00     0.049 A 
ATOM     48  N   UNL     1       3.621  -4.393 -12.499  1.00  0.00    -0.248 NA
ATOM     49  C   UNL     1       1.988  -2.726 -12.486  1.00  0.00     0.031 C 
ATOM     50  C   UNL     1       5.874  -2.137  -9.343  1.00  0.00     0.029 A 
ATOM     51  N   UNL     1       5.998  -3.859 -10.754  1.00  0.00    -0.354 N 
ATOM     52  C   UNL     1       2.488  -4.844 -13.170  1.00  0.00     0.074 A 
ATOM     53  C   UNL     1       1.481  -3.818 -13.037  1.00  0.00     0.031 C 
ATOM     54  C   UNL     1       6.965  -2.841  -9.009  1.00  0.00     0.029 A 
ATOM     55  C   UNL     1       7.051  -4.005  -9.874  1.00  0.00     0.049 A 
ATOM     56  H   UNL     1       5.829  -4.481 -11.499  1.00  0.00     0.167 HD
ATOM     57  C   UNL     1       2.303  -6.017 -13.821  1.00  0.00     0.031 A 
ATOM     58  C   UNL     1       7.956  -4.992  -9.742  1.00  0.00     0.031 A 
ATOM     59  C   UNL     1       3.320  -7.030 -13.911  1.00  0.00     0.049 A 
ATOM     60  C   UNL     1       7.822  -6.199 -10.623  1.00  0.00     0.074 A 
ATOM     61  C   UNL     1       3.329  -8.179 -14.680  1.00  0.00     0.029 A 
ATOM     62  N   UNL     1       4.506  -7.017 -13.190  1.00  0.00    -0.354 N 
ATOM     63  N   UNL     1       6.856  -6.501 -11.457  1.00  0.00    -0.248 NA
ATOM     64  C   UNL     1       8.887  -7.205 -10.538  1.00  0.00     0.031 C 
ATOM     65  C   UNL     1       4.493  -8.893 -14.377  1.00  0.00     0.029 A 
ATOM     66  C   UNL     1       5.237  -8.157 -13.468  1.00  0.00     0.049 A 
ATOM     67  H   UNL     1       4.785  -6.303 -12.573  1.00  0.00     0.167 HD
ATOM     68  C   UNL     1       7.203  -7.724 -12.009  1.00  0.00     0.074 A 
ATOM     69  C   UNL     1       8.482  -8.093 -11.434  1.00  0.00     0.031 C 
ATOM     70  C   UNL     1       6.520  -8.482 -12.899  1.00  0.00     0.031 A 
BRANCH  57  71
ATOM     71  C   UNL     1       0.975  -6.250 -14.499  1.00  0.00    -0.014 A 
ATOM     72  C   UNL     1       0.524  -5.400 -15.524  1.00  0.00     0.009 A 
ATOM     73  C   UNL     1       0.181  -7.356 -14.155  1.00  0.00     0.009 A 
ATOM     74  C   UNL     1      -0.703  -5.620 -16.152  1.00  0.00     0.001 A 
ATOM     75  C   UNL     1      -1.027  -7.602 -14.816  1.00  0.00     0.001 A 
ATOM     76  C   UNL     1      -1.473  -6.728 -15.805  1.00  0.00     0.000 A 
ENDBRANCH  57  71
BRANCH  58  77
ATOM     77  C   UNL     1       9.049  -4.903  -8.734  1.00  0.00    -0.014 A 
ATOM     78  C   UNL     1      10.373  -4.683  -9.147  1.00  0.00     0.009 A 
ATOM     79  C   UNL     1       8.788  -5.050  -7.363  1.00  0.00     0.009 A 
ATOM     80  C   UNL     1      11.415  -4.653  -8.216  1.00  0.00     0.001 A 
ATOM     81  C   UNL     1       9.828  -4.991  -6.430  1.00  0.00     0.001 A 
ATOM     82  C   UNL     1      11.141  -4.805  -6.858  1.00  0.00     0.000 A 
ENDBRANCH  58  77
BRANCH  70  83
ATOM     83  C   UNL     1       7.177  -9.751 -13.354  1.00  0.00    -0.014 A 
ATOM     84  C   UNL     1       7.276 -10.868 -12.511  1.00  0.00     0.009 A 
ATOM     85  C   UNL     1       7.660  -9.838 -14.668  1.00  0.00     0.009 A 
ATOM     86  C   UNL     1       7.879 -12.040 -12.970  1.00  0.00     0.001 A 
ATOM     87  C   UNL     1       8.231 -11.020 -15.134  1.00  0.00     0.001 A 
ATOM     88  C   UNL     1       8.350 -12.117 -14.281  1.00  0.00     0.000 A 
ENDBRANCH  70  83
ENDBRANCH  44  45
ENDBRANCH  36  39
ENDBRANCH  34  35
ENDBRANCH  33  34
ENDBRANCH  32  33
ENDBRANCH   3  32
TORSDOF 16
