REMARK SMILES CCC(C)(C)c1cccc(C(=O)NCCCNC(=O)c2ccc(-c3c4nc(c(-c5ccccc5)c5ccc([nH]5)c(-c5ccccc5)c5nc(c(-c6ccccc6)c6ccc3[nH]6)C=C5)C=C4)cc2)c1
REMARK SMILES IDX 15 1 14 2 13 3 11 4 12 5 10 7 6 8 7 9 68 10 8 11 9 12 3 13
REMARK SMILES IDX 4 14 5 15 2 16 1 17 16 18 17 19 18 20 19 22 20 23 21 24
REMARK SMILES IDX 67 25 22 26 66 27 23 28 24 29 25 30 60 31 26 32 65 33 59 34
REMARK SMILES IDX 61 35 27 36 64 37 58 38 57 39 28 41 50 42 35 43 49 44 36 45
REMARK SMILES IDX 39 46 48 47 62 48 37 49 38 50 47 52 63 53 40 54 29 55 30 56
REMARK SMILES IDX 34 57 31 58 33 59 32 60 51 61 52 62 56 63 53 64 55 65 54 66
REMARK SMILES IDX 41 67 42 68 46 69 43 70 45 71 44 72
REMARK H PARENT 13 6 17 21 61 40 39 51
REMARK Flexibility Score: inf
ROOT
ATOM      1  C   UNL     1       2.698   7.069   1.239  1.00  0.00     0.042 C 
ENDROOT
BRANCH   1   2
ATOM      2  C   UNL     1       3.107   6.381  -0.052  1.00  0.00     0.118 C 
BRANCH   2   3
ATOM      3  N   UNL     1       4.524   6.073  -0.153  1.00  0.00    -0.352 N 
ATOM      4  C   UNL     1       5.239   4.902  -0.266  1.00  0.00     0.251 C 
ATOM      5  O   UNL     1       6.465   5.000  -0.342  1.00  0.00    -0.269 OA
ATOM      6  H   UNL     1       5.096   6.875  -0.139  1.00  0.00     0.163 HD
BRANCH   4   7
ATOM      7  C   UNL     1       4.626   3.543  -0.214  1.00  0.00     0.040 A 
ATOM      8  C   UNL     1       2.666   2.062  -0.208  1.00  0.00    -0.042 A 
ATOM      9  C   UNL     1       3.484   1.037   0.281  1.00  0.00     0.004 A 
ATOM     10  C   UNL     1       3.309   3.261  -0.580  1.00  0.00     0.018 A 
ATOM     11  C   UNL     1       4.856   1.234   0.468  1.00  0.00     0.001 A 
ATOM     12  C   UNL     1       5.415   2.494   0.268  1.00  0.00     0.014 A 
BRANCH   8  13
ATOM     13  C   UNL     1       1.124   1.987  -0.257  1.00  0.00    -0.011 C 
ATOM     14  C   UNL     1       0.641   2.016  -1.719  1.00  0.00     0.016 C 
ATOM     15  C   UNL     1       0.560   3.261   0.451  1.00  0.00     0.016 C 
BRANCH  13  16
ATOM     16  C   UNL     1       0.477   0.794   0.522  1.00  0.00     0.008 C 
ATOM     17  C   UNL     1       0.505  -0.588  -0.121  1.00  0.00     0.005 C 
ENDBRANCH  13  16
ENDBRANCH   8  13
ENDBRANCH   4   7
ENDBRANCH   2   3
ENDBRANCH   1   2
BRANCH   1  18
ATOM     18  C   UNL     1       3.227   8.483   1.396  1.00  0.00     0.118 C 
BRANCH  18  19
ATOM     19  N   UNL     1       2.791   9.373   0.326  1.00  0.00    -0.352 N 
ATOM     20  C   UNL     1       1.890  10.405   0.306  1.00  0.00     0.251 C 
ATOM     21  H   UNL     1       3.224   9.201  -0.541  1.00  0.00     0.163 HD
ATOM     22  O   UNL     1       1.544  10.872  -0.783  1.00  0.00    -0.269 OA
BRANCH  20  23
ATOM     23  C   UNL     1       1.311  10.962   1.548  1.00  0.00     0.039 A 
ATOM     24  C   UNL     1      -0.002  11.445   1.524  1.00  0.00     0.014 A 
ATOM     25  C   UNL     1       2.059  11.071   2.721  1.00  0.00     0.014 A 
ATOM     26  C   UNL     1      -0.575  11.975   2.683  1.00  0.00     0.010 A 
ATOM     27  C   UNL     1       1.454  11.494   3.901  1.00  0.00     0.010 A 
ATOM     28  C   UNL     1       0.138  11.971   3.892  1.00  0.00    -0.014 A 
BRANCH  28  29
ATOM     29  C   UNL     1      -0.468  12.485   5.146  1.00  0.00     0.031 A 
ATOM     30  C   UNL     1       0.142  13.663   5.860  1.00  0.00     0.074 A 
ATOM     31  C   UNL     1      -1.538  11.858   5.674  1.00  0.00     0.049 A 
ATOM     32  N   UNL     1      -0.230  14.234   6.979  1.00  0.00    -0.248 NA
ATOM     33  C   UNL     1       1.347  14.258   5.258  1.00  0.00     0.031 C 
ATOM     34  C   UNL     1      -2.189  10.671   5.114  1.00  0.00     0.029 A 
ATOM     35  N   UNL     1      -2.269  12.136   6.801  1.00  0.00    -0.354 N 
ATOM     36  C   UNL     1       0.706  15.233   7.222  1.00  0.00     0.074 A 
ATOM     37  C   UNL     1       1.693  15.154   6.169  1.00  0.00     0.031 C 
ATOM     38  C   UNL     1      -3.247  10.351   5.875  1.00  0.00     0.029 A 
ATOM     39  C   UNL     1      -3.329  11.285   6.992  1.00  0.00     0.049 A 
ATOM     40  H   UNL     1      -2.054  12.876   7.414  1.00  0.00     0.167 HD
ATOM     41  C   UNL     1       0.730  16.152   8.217  1.00  0.00     0.031 A 
ATOM     42  C   UNL     1      -4.269  11.264   7.955  1.00  0.00     0.031 A 
ATOM     43  C   UNL     1      -0.265  16.248   9.251  1.00  0.00     0.049 A 
ATOM     44  C   UNL     1      -4.239  12.312   9.031  1.00  0.00     0.074 A 
ATOM     45  C   UNL     1      -0.366  17.181  10.268  1.00  0.00     0.029 A 
ATOM     46  N   UNL     1      -1.336  15.381   9.394  1.00  0.00    -0.354 N 
ATOM     47  N   UNL     1      -3.386  13.292   9.206  1.00  0.00    -0.248 NA
ATOM     48  C   UNL     1      -5.312  12.258  10.032  1.00  0.00     0.031 C 
ATOM     49  C   UNL     1      -1.478  16.854  11.052  1.00  0.00     0.029 A 
ATOM     50  C   UNL     1      -2.096  15.747  10.492  1.00  0.00     0.049 A 
ATOM     51  H   UNL     1      -1.528  14.617   8.803  1.00  0.00     0.167 HD
ATOM     52  C   UNL     1      -3.834  13.987  10.321  1.00  0.00     0.074 A 
ATOM     53  C   UNL     1      -5.045  13.328  10.767  1.00  0.00     0.031 C 
ATOM     54  C   UNL     1      -3.293  15.074  10.924  1.00  0.00     0.031 A 
BRANCH  41  55
ATOM     55  C   UNL     1       1.874  17.128   8.226  1.00  0.00    -0.014 A 
ATOM     56  C   UNL     1       1.981  18.132   7.249  1.00  0.00     0.009 A 
ATOM     57  C   UNL     1       2.847  17.058   9.235  1.00  0.00     0.009 A 
ATOM     58  C   UNL     1       3.061  19.017   7.258  1.00  0.00     0.001 A 
ATOM     59  C   UNL     1       3.910  17.964   9.259  1.00  0.00     0.001 A 
ATOM     60  C   UNL     1       4.022  18.936   8.265  1.00  0.00     0.000 A 
ENDBRANCH  41  55
BRANCH  42  61
ATOM     61  C   UNL     1      -5.345  10.240   7.923  1.00  0.00    -0.014 A 
ATOM     62  C   UNL     1      -6.660  10.603   7.592  1.00  0.00     0.009 A 
ATOM     63  C   UNL     1      -5.066   8.898   8.223  1.00  0.00     0.009 A 
ATOM     64  C   UNL     1      -7.679   9.649   7.589  1.00  0.00     0.001 A 
ATOM     65  C   UNL     1      -6.083   7.940   8.192  1.00  0.00     0.001 A 
ATOM     66  C   UNL     1      -7.389   8.318   7.885  1.00  0.00     0.000 A 
ENDBRANCH  42  61
BRANCH  54  67
ATOM     67  C   UNL     1      -4.026  15.627  12.113  1.00  0.00    -0.014 A 
ATOM     68  C   UNL     1      -4.035  14.950  13.342  1.00  0.00     0.009 A 
ATOM     69  C   UNL     1      -4.704  16.850  12.002  1.00  0.00     0.009 A 
ATOM     70  C   UNL     1      -4.745  15.468  14.426  1.00  0.00     0.001 A 
ATOM     71  C   UNL     1      -5.389  17.380  13.096  1.00  0.00     0.001 A 
ATOM     72  C   UNL     1      -5.419  16.683  14.303  1.00  0.00     0.000 A 
ENDBRANCH  54  67
ENDBRANCH  28  29
ENDBRANCH  20  23
ENDBRANCH  18  19
ENDBRANCH   1  18
TORSDOF 12
