REMARK SMILES CC[C@@H](C)[C@H](NC(=O)NCc1ccc(C)cc1)C(=O)NCCCNC(=O)c1ccc(-c2c3nc(c(-c4ccccc4)c4ccc([nH]4)c(-c4ccccc4)c4nc(c(-c5ccccc5)c5ccc2[nH]5)C=C4)C=C3)cc1
REMARK SMILES IDX 21 1 20 2 18 3 19 4 5 6 3 7 4 8 2 9 1 10 6 11 7 12 8 14 9 15
REMARK SMILES IDX 10 17 11 18 12 19 17 20 13 21 16 22 14 23 15 24 22 25 23 26
REMARK SMILES IDX 24 27 25 28 26 30 27 31 28 32 74 33 29 34 73 35 30 36 31 37
REMARK SMILES IDX 32 38 67 39 33 40 72 41 66 42 68 43 34 44 71 45 65 46 64 47
REMARK SMILES IDX 35 49 57 50 42 51 56 52 43 53 46 54 55 55 69 56 44 57 45 58
REMARK SMILES IDX 54 60 70 61 47 62 36 63 37 64 41 65 38 66 40 67 39 68 58 69
REMARK SMILES IDX 59 70 63 71 60 72 62 73 61 74 48 75 49 76 53 77 50 78 52 79
REMARK SMILES IDX 51 80
REMARK H PARENT 20 5 6 13 9 16 24 29 68 48 46 59
REMARK Flexibility Score: inf
ROOT
ATOM      1  C   UNL     1       3.693  -4.148   1.945  1.00  0.00     0.117 C 
ENDROOT
BRANCH   1   2
ATOM      2  N   UNL     1       2.368  -4.409   2.464  1.00  0.00    -0.354 N 
ATOM      3  C   UNL     1       1.145  -4.357   1.865  1.00  0.00     0.242 C 
ATOM      4  O   UNL     1       0.204  -4.889   2.466  1.00  0.00    -0.273 OA
ATOM      5  H   UNL     1       2.346  -4.669   3.413  1.00  0.00     0.163 HD
BRANCH   3   6
ATOM      6  C   UNL     1       0.919  -3.741   0.465  1.00  0.00     0.175 C 
BRANCH   6   7
ATOM      7  C   UNL     1       1.249  -4.699  -0.737  1.00  0.00     0.018 C 
ATOM      8  C   UNL     1       2.720  -4.904  -1.105  1.00  0.00     0.010 C 
BRANCH   7   9
ATOM      9  C   UNL     1       0.463  -4.228  -1.975  1.00  0.00     0.002 C 
ATOM     10  C   UNL     1       0.713  -4.988  -3.269  1.00  0.00     0.004 C 
ENDBRANCH   7   9
ENDBRANCH   6   7
BRANCH   6  11
ATOM     11  N   UNL     1       1.533  -2.416   0.389  1.00  0.00    -0.326 N 
ATOM     12  C   UNL     1       1.157  -1.200   0.803  1.00  0.00     0.315 C 
ATOM     13  H   UNL     1       2.408  -2.419  -0.061  1.00  0.00     0.166 HD
ATOM     14  O   UNL     1       2.040  -0.341   0.881  1.00  0.00    -0.249 OA
ATOM     15  N   UNL     1      -0.088  -0.829   1.109  1.00  0.00    -0.334 N 
ATOM     16  H   UNL     1      -0.127   0.102   1.426  1.00  0.00     0.165 HD
BRANCH  15  17
ATOM     17  C   UNL     1      -1.399  -1.455   1.092  1.00  0.00     0.153 C 
BRANCH  17  18
ATOM     18  C   UNL     1      -1.919  -1.821  -0.278  1.00  0.00    -0.029 A 
ATOM     19  C   UNL     1      -2.924  -2.796  -0.377  1.00  0.00     0.006 A 
ATOM     20  C   UNL     1      -1.405  -1.270  -1.459  1.00  0.00     0.006 A 
ATOM     21  C   UNL     1      -3.285  -3.322  -1.619  1.00  0.00     0.004 A 
ATOM     22  C   UNL     1      -1.762  -1.799  -2.703  1.00  0.00     0.004 A 
ATOM     23  C   UNL     1      -2.655  -2.873  -2.784  1.00  0.00    -0.051 A 
ATOM     24  C   UNL     1      -2.853  -3.617  -4.072  1.00  0.00     0.044 C 
ENDBRANCH  17  18
ENDBRANCH  15  17
ENDBRANCH   6  11
ENDBRANCH   3   6
ENDBRANCH   1   2
BRANCH   1  25
ATOM     25  C   UNL     1       4.261  -2.786   2.288  1.00  0.00     0.042 C 
BRANCH  25  26
ATOM     26  C   UNL     1       5.615  -2.926   2.953  1.00  0.00     0.118 C 
BRANCH  26  27
ATOM     27  N   UNL     1       6.723  -3.344   2.091  1.00  0.00    -0.352 N 
ATOM     28  C   UNL     1       7.991  -3.790   2.465  1.00  0.00     0.251 C 
ATOM     29  H   UNL     1       6.550  -3.304   1.122  1.00  0.00     0.163 HD
ATOM     30  O   UNL     1       8.816  -4.106   1.631  1.00  0.00    -0.269 OA
BRANCH  28  31
ATOM     31  C   UNL     1       8.259  -4.014   3.912  1.00  0.00     0.039 A 
ATOM     32  C   UNL     1       8.674  -5.293   4.295  1.00  0.00     0.014 A 
ATOM     33  C   UNL     1       7.722  -3.140   4.846  1.00  0.00     0.014 A 
ATOM     34  C   UNL     1       8.231  -5.801   5.511  1.00  0.00     0.010 A 
ATOM     35  C   UNL     1       7.135  -3.696   5.963  1.00  0.00     0.010 A 
ATOM     36  C   UNL     1       7.322  -5.051   6.255  1.00  0.00    -0.014 A 
BRANCH  36  37
ATOM     37  C   UNL     1       6.455  -5.635   7.276  1.00  0.00     0.031 A 
ATOM     38  C   UNL     1       6.618  -5.211   8.690  1.00  0.00     0.074 A 
ATOM     39  C   UNL     1       5.495  -6.541   6.957  1.00  0.00     0.049 A 
ATOM     40  N   UNL     1       6.311  -5.948   9.705  1.00  0.00    -0.248 NA
ATOM     41  C   UNL     1       7.220  -3.938   9.080  1.00  0.00     0.031 C 
ATOM     42  C   UNL     1       4.445  -7.041   7.849  1.00  0.00     0.029 A 
ATOM     43  N   UNL     1       5.324  -7.334   5.820  1.00  0.00    -0.354 N 
ATOM     44  C   UNL     1       6.367  -5.152  10.827  1.00  0.00     0.074 A 
ATOM     45  C   UNL     1       7.059  -3.962  10.404  1.00  0.00     0.031 C 
ATOM     46  C   UNL     1       4.006  -8.221   7.382  1.00  0.00     0.029 A 
ATOM     47  C   UNL     1       4.863  -8.580   6.269  1.00  0.00     0.049 A 
ATOM     48  H   UNL     1       5.493  -7.070   4.887  1.00  0.00     0.167 HD
ATOM     49  C   UNL     1       5.687  -5.528  11.946  1.00  0.00     0.031 A 
ATOM     50  C   UNL     1       5.537  -9.764   6.159  1.00  0.00     0.031 A 
ATOM     51  C   UNL     1       5.120  -6.871  11.809  1.00  0.00     0.049 A 
ATOM     52  C   UNL     1       5.756 -10.463   7.495  1.00  0.00     0.074 A 
ATOM     53  C   UNL     1       3.835  -7.337  11.589  1.00  0.00     0.029 A 
ATOM     54  N   UNL     1       5.970  -7.955  11.616  1.00  0.00    -0.354 N 
ATOM     55  N   UNL     1       5.614  -9.873   8.650  1.00  0.00    -0.248 NA
ATOM     56  C   UNL     1       6.214 -11.845   7.642  1.00  0.00     0.031 C 
ATOM     57  C   UNL     1       3.922  -8.702  11.207  1.00  0.00     0.029 A 
ATOM     58  C   UNL     1       5.256  -9.070  11.225  1.00  0.00     0.049 A 
ATOM     59  H   UNL     1       6.946  -7.930  11.742  1.00  0.00     0.167 HD
ATOM     60  C   UNL     1       5.959 -10.730   9.662  1.00  0.00     0.074 A 
ATOM     61  C   UNL     1       6.314 -11.961   8.980  1.00  0.00     0.031 C 
ATOM     62  C   UNL     1       5.942 -10.332  10.969  1.00  0.00     0.031 A 
BRANCH  49  63
ATOM     63  C   UNL     1       5.296  -4.579  13.063  1.00  0.00    -0.014 A 
ATOM     64  C   UNL     1       4.288  -4.960  13.970  1.00  0.00     0.009 A 
ATOM     65  C   UNL     1       5.800  -3.279  13.238  1.00  0.00     0.009 A 
ATOM     66  C   UNL     1       3.767  -4.075  14.926  1.00  0.00     0.001 A 
ATOM     67  C   UNL     1       5.279  -2.382  14.181  1.00  0.00     0.001 A 
ATOM     68  C   UNL     1       4.249  -2.777  15.018  1.00  0.00     0.000 A 
ENDBRANCH  49  63
BRANCH  50  69
ATOM     69  C   UNL     1       6.483  -9.841   5.017  1.00  0.00    -0.014 A 
ATOM     70  C   UNL     1       5.954  -9.882   3.713  1.00  0.00     0.009 A 
ATOM     71  C   UNL     1       7.835  -9.515   5.183  1.00  0.00     0.009 A 
ATOM     72  C   UNL     1       6.721  -9.475   2.619  1.00  0.00     0.001 A 
ATOM     73  C   UNL     1       8.603  -9.116   4.082  1.00  0.00     0.001 A 
ATOM     74  C   UNL     1       8.036  -9.057   2.810  1.00  0.00     0.000 A 
ENDBRANCH  50  69
BRANCH  62  75
ATOM     75  C   UNL     1       6.506 -11.082  12.157  1.00  0.00    -0.014 A 
ATOM     76  C   UNL     1       7.436 -12.126  12.077  1.00  0.00     0.009 A 
ATOM     77  C   UNL     1       6.180 -10.633  13.459  1.00  0.00     0.009 A 
ATOM     78  C   UNL     1       7.981 -12.711  13.232  1.00  0.00     0.001 A 
ATOM     79  C   UNL     1       6.754 -11.180  14.610  1.00  0.00     0.001 A 
ATOM     80  C   UNL     1       7.650 -12.230  14.496  1.00  0.00     0.000 A 
ENDBRANCH  62  75
ENDBRANCH  36  37
ENDBRANCH  28  31
ENDBRANCH  26  27
ENDBRANCH  25  26
ENDBRANCH   1  25
TORSDOF 15
