REMARK SMILES O=C(NCCCNC(=O)[C@@H]1[C@H](C(=O)Nc2ccccc2OC(F)F)[C@@H]2C=C[C@H]1C2)c1ccc(-c2c3nc(c(-c4ccccc4)c4ccc([nH]4)c(-c4ccccc4)c4nc(c(-c5ccccc5)c5ccc2[nH]5)C=C4)C=C3)cc1
REMARK SMILES IDX 6 1 5 2 4 3 3 4 1 5 2 6 30 8 31 9 77 10 32 11 76 12 33 13
REMARK SMILES IDX 34 14 35 15 70 16 36 17 75 18 69 19 71 20 37 21 74 22 68 23
REMARK SMILES IDX 67 24 38 26 60 27 45 28 59 29 46 30 49 31 58 32 72 33 47 34
REMARK SMILES IDX 48 35 57 37 73 38 50 39 39 40 40 41 44 42 41 43 43 44 42 45
REMARK SMILES IDX 61 46 62 47 66 48 63 49 65 50 64 51 51 52 52 53 56 54 53 55
REMARK SMILES IDX 55 56 54 57 7 58 8 59 9 61 10 62 11 63 28 64 25 65 27 66
REMARK SMILES IDX 29 67 26 68 12 69 13 70 14 71 15 73 16 74 20 75 17 76 19 77
REMARK SMILES IDX 18 78 21 79 22 80 23 81 24 82
REMARK H PARENT 3 7 71 25 49 36 7 60 14 72
REMARK Flexibility Score: inf
ROOT
ATOM      1  C   UNL     1       3.724   2.692  -3.541  1.00  0.00     0.117 C 
ENDROOT
BRANCH   1   2
ATOM      2  C   UNL     1       3.630   1.717  -2.314  1.00  0.00     0.042 C 
BRANCH   2   3
ATOM      3  C   UNL     1       3.618   2.192  -0.854  1.00  0.00     0.118 C 
BRANCH   3   4
ATOM      4  N   UNL     1       2.435   1.669  -0.151  1.00  0.00    -0.352 N 
ATOM      5  O   UNL     1       0.945   0.297   0.764  1.00  0.00    -0.269 OA
ATOM      6  C   UNL     1       2.155   0.560   0.608  1.00  0.00     0.251 C 
ATOM      7  H   UNL     1       1.653   2.259  -0.250  1.00  0.00     0.163 HD
BRANCH   6   8
ATOM      8  C   UNL     1       3.138  -0.324   1.300  1.00  0.00     0.039 A 
ATOM      9  C   UNL     1       4.399   0.104   1.709  1.00  0.00     0.014 A 
ATOM     10  C   UNL     1       2.706  -1.597   1.737  1.00  0.00     0.014 A 
ATOM     11  C   UNL     1       5.216  -0.728   2.495  1.00  0.00     0.010 A 
ATOM     12  C   UNL     1       3.494  -2.401   2.584  1.00  0.00     0.010 A 
ATOM     13  C   UNL     1       4.761  -1.968   2.986  1.00  0.00    -0.014 A 
BRANCH  13  14
ATOM     14  C   UNL     1       5.567  -2.682   4.027  1.00  0.00     0.031 A 
ATOM     15  C   UNL     1       6.193  -4.031   3.791  1.00  0.00     0.074 A 
ATOM     16  C   UNL     1       5.774  -2.065   5.211  1.00  0.00     0.049 A 
ATOM     17  N   UNL     1       7.025  -4.697   4.558  1.00  0.00    -0.248 NA
ATOM     18  C   UNL     1       5.840  -4.729   2.548  1.00  0.00     0.031 C 
ATOM     19  C   UNL     1       5.179  -0.785   5.604  1.00  0.00     0.029 A 
ATOM     20  N   UNL     1       6.566  -2.401   6.284  1.00  0.00    -0.354 N 
ATOM     21  C   UNL     1       7.296  -5.887   3.893  1.00  0.00     0.074 A 
ATOM     22  C   UNL     1       6.513  -5.867   2.674  1.00  0.00     0.031 C 
ATOM     23  C   UNL     1       5.691  -0.403   6.784  1.00  0.00     0.029 A 
ATOM     24  C   UNL     1       6.604  -1.434   7.261  1.00  0.00     0.049 A 
ATOM     25  H   UNL     1       7.059  -3.251   6.345  1.00  0.00     0.167 HD
ATOM     26  C   UNL     1       8.123  -6.900   4.257  1.00  0.00     0.031 A 
ATOM     27  C   UNL     1       7.297  -1.369   8.415  1.00  0.00     0.031 A 
ATOM     28  C   UNL     1       8.890  -6.938   5.478  1.00  0.00     0.049 A 
ATOM     29  C   UNL     1       8.216  -2.496   8.786  1.00  0.00     0.074 A 
ATOM     30  C   UNL     1       9.759  -7.922   5.924  1.00  0.00     0.029 A 
ATOM     31  N   UNL     1       8.880  -5.951   6.452  1.00  0.00    -0.354 N 
ATOM     32  N   UNL     1       8.491  -3.589   8.116  1.00  0.00    -0.248 NA
ATOM     33  C   UNL     1       8.921  -2.377  10.070  1.00  0.00     0.031 C 
ATOM     34  C   UNL     1      10.244  -7.548   7.183  1.00  0.00     0.029 A 
ATOM     35  C   UNL     1       9.716  -6.307   7.499  1.00  0.00     0.049 A 
ATOM     36  H   UNL     1       8.355  -5.119   6.406  1.00  0.00     0.167 HD
ATOM     37  C   UNL     1       9.398  -4.289   8.898  1.00  0.00     0.074 A 
ATOM     38  C   UNL     1       9.661  -3.482  10.070  1.00  0.00     0.031 C 
ATOM     39  C   UNL     1       9.956  -5.504   8.669  1.00  0.00     0.031 A 
BRANCH  26  40
ATOM     40  C   UNL     1       8.242  -8.073   3.320  1.00  0.00    -0.014 A 
ATOM     41  C   UNL     1       8.952  -7.965   2.113  1.00  0.00     0.009 A 
ATOM     42  C   UNL     1       7.694  -9.316   3.674  1.00  0.00     0.009 A 
ATOM     43  C   UNL     1       9.085  -9.069   1.268  1.00  0.00     0.001 A 
ATOM     44  C   UNL     1       7.849 -10.425   2.838  1.00  0.00     0.001 A 
ATOM     45  C   UNL     1       8.537 -10.299   1.632  1.00  0.00     0.000 A 
ENDBRANCH  26  40
BRANCH  27  46
ATOM     46  C   UNL     1       7.141  -0.191   9.310  1.00  0.00    -0.014 A 
ATOM     47  C   UNL     1       8.191   0.722   9.491  1.00  0.00     0.009 A 
ATOM     48  C   UNL     1       5.930   0.026   9.987  1.00  0.00     0.009 A 
ATOM     49  C   UNL     1       8.038   1.816  10.347  1.00  0.00     0.001 A 
ATOM     50  C   UNL     1       5.769   1.138  10.815  1.00  0.00     0.001 A 
ATOM     51  C   UNL     1       6.825   2.027  11.002  1.00  0.00     0.000 A 
ENDBRANCH  27  46
BRANCH  39  52
ATOM     52  C   UNL     1      10.906  -6.018   9.712  1.00  0.00    -0.014 A 
ATOM     53  C   UNL     1      10.440  -6.469  10.958  1.00  0.00     0.009 A 
ATOM     54  C   UNL     1      12.284  -6.053   9.448  1.00  0.00     0.009 A 
ATOM     55  C   UNL     1      11.339  -6.904  11.933  1.00  0.00     0.001 A 
ATOM     56  C   UNL     1      13.178  -6.513  10.415  1.00  0.00     0.001 A 
ATOM     57  C   UNL     1      12.707  -6.927  11.661  1.00  0.00     0.000 A 
ENDBRANCH  39  52
ENDBRANCH  13  14
ENDBRANCH   6   8
ENDBRANCH   3   4
ENDBRANCH   2   3
ENDBRANCH   1   2
BRANCH   1  58
ATOM     58  N   UNL     1       4.972   3.099  -4.302  1.00  0.00    -0.356 N 
ATOM     59  C   UNL     1       5.999   2.869  -5.161  1.00  0.00     0.224 C 
ATOM     60  H   UNL     1       5.114   4.033  -4.024  1.00  0.00     0.163 HD
ATOM     61  O   UNL     1       6.472   4.006  -5.419  1.00  0.00    -0.275 OA
BRANCH  59  62
ATOM     62  C   UNL     1       6.675   1.652  -6.030  1.00  0.00     0.098 C 
ATOM     63  C   UNL     1       7.185   0.076  -6.033  1.00  0.00     0.099 C 
ATOM     64  C   UNL     1       8.031   2.292  -6.590  1.00  0.00     0.025 C 
ATOM     65  C   UNL     1       8.646   0.160  -6.590  1.00  0.00     0.025 C 
ATOM     66  C   UNL     1       9.117   2.131  -5.543  1.00  0.00    -0.027 C 
ATOM     67  C   UNL     1       8.529   1.270  -7.612  1.00  0.00     0.017 C 
ATOM     68  C   UNL     1       9.504   0.850  -5.564  1.00  0.00    -0.027 C 
BRANCH  63  69
ATOM     69  C   UNL     1       7.289  -1.227  -5.167  1.00  0.00     0.229 C 
ATOM     70  O   UNL     1       7.086  -2.318  -5.724  1.00  0.00    -0.274 OA
ATOM     71  N   UNL     1       7.691  -1.306  -3.871  1.00  0.00    -0.323 N 
ATOM     72  H   UNL     1       7.987  -2.189  -3.551  1.00  0.00     0.170 HD
BRANCH  71  73
ATOM     73  C   UNL     1       7.726  -0.271  -2.956  1.00  0.00     0.084 A 
ATOM     74  C   UNL     1       8.795  -0.180  -2.058  1.00  0.00     0.030 A 
ATOM     75  C   UNL     1       6.784   0.725  -3.035  1.00  0.00     0.149 A 
ATOM     76  C   UNL     1       9.058   1.030  -1.411  1.00  0.00     0.002 A 
ATOM     77  C   UNL     1       7.072   1.942  -2.391  1.00  0.00     0.049 A 
ATOM     78  C   UNL     1       8.220   2.114  -1.621  1.00  0.00     0.004 A 
BRANCH  75  79
ATOM     79  O   UNL     1       5.685   0.640  -3.845  1.00  0.00    -0.433 OA
BRANCH  79  80
ATOM     80  C   UNL     1       4.821  -0.494  -4.024  1.00  0.00     0.542 C 
ATOM     81  F   UNL     1       4.637  -1.146  -2.858  1.00  0.00    -0.167 F 
ATOM     82  F   UNL     1       3.609   0.006  -4.404  1.00  0.00    -0.167 F 
ENDBRANCH  79  80
ENDBRANCH  75  79
ENDBRANCH  71  73
ENDBRANCH  63  69
ENDBRANCH  59  62
ENDBRANCH   1  58
TORSDOF 14
