REMARK SMILES O=C(CNc1nc(-c2ccccc2)c(-c2ccccc2)s1)NCCCNC(=O)c1ccc(-c2c3nc(c(-c4ccccc4)c4ccc([nH]4)c(-c4ccccc4)c4nc(c(-c5ccccc5)c5ccc2[nH]5)C=C4)C=C3)cc1
REMARK SMILES IDX 23 1 22 2 1 3 2 4 3 6 4 7 5 9 6 10 21 11 7 12 14 13 8 14
REMARK SMILES IDX 9 15 13 16 10 17 12 18 11 19 15 20 16 21 20 22 17 23 19 24
REMARK SMILES IDX 18 25 24 26 25 27 26 28 27 29 28 31 29 32 30 33 76 34 31 35
REMARK SMILES IDX 75 36 32 37 33 38 34 39 69 40 35 41 74 42 68 43 70 44 36 45
REMARK SMILES IDX 73 46 67 47 66 48 37 50 59 51 44 52 58 53 45 54 48 55 57 56
REMARK SMILES IDX 71 57 46 58 47 59 56 61 72 62 49 63 38 64 39 65 43 66 40 67
REMARK SMILES IDX 42 68 41 69 60 70 61 71 65 72 62 73 64 74 63 75 50 76 51 77
REMARK SMILES IDX 55 78 52 79 54 80 53 81
REMARK H PARENT 22 5 4 8 26 30 70 49 48 60
REMARK Flexibility Score: inf
ROOT
ATOM      1  C   UNL     1       2.206   1.446   1.895  1.00  0.00     0.117 C 
ENDROOT
BRANCH   1   2
ATOM      2  N   UNL     1       2.898   0.721   0.853  1.00  0.00    -0.355 N 
ATOM      3  O   UNL     1       1.116  -0.554   0.149  1.00  0.00    -0.273 OA
ATOM      4  C   UNL     1       2.280  -0.189   0.013  1.00  0.00     0.239 C 
ATOM      5  H   UNL     1       3.862   0.882   0.735  1.00  0.00     0.163 HD
BRANCH   4   6
ATOM      6  C   UNL     1       3.204  -0.721  -1.098  1.00  0.00     0.215 C 
BRANCH   6   7
ATOM      7  N   UNL     1       4.165   0.314  -1.462  1.00  0.00    -0.352 N 
ATOM      8  H   UNL     1       3.850   1.240  -1.577  1.00  0.00     0.163 HD
BRANCH   7   9
ATOM      9  C   UNL     1       5.468   0.042  -1.647  1.00  0.00     0.184 A 
ATOM     10  N   UNL     1       5.985  -1.150  -1.819  1.00  0.00    -0.220 NA
ATOM     11  S   UNL     1       6.601   1.336  -1.623  1.00  0.00    -0.096 S 
ATOM     12  C   UNL     1       7.365  -1.059  -1.926  1.00  0.00     0.091 A 
ATOM     13  C   UNL     1       7.891   0.216  -1.779  1.00  0.00     0.064 A 
BRANCH  12  14
ATOM     14  C   UNL     1       8.175  -2.236  -2.199  1.00  0.00     0.002 A 
ATOM     15  C   UNL     1       9.179  -2.645  -1.312  1.00  0.00     0.010 A 
ATOM     16  C   UNL     1       7.989  -2.935  -3.397  1.00  0.00     0.010 A 
ATOM     17  C   UNL     1      10.009  -3.720  -1.638  1.00  0.00     0.001 A 
ATOM     18  C   UNL     1       8.823  -4.006  -3.723  1.00  0.00     0.001 A 
ATOM     19  C   UNL     1       9.836  -4.394  -2.846  1.00  0.00     0.000 A 
ENDBRANCH  12  14
BRANCH  13  20
ATOM     20  C   UNL     1       9.272   0.697  -1.782  1.00  0.00    -0.006 A 
ATOM     21  C   UNL     1       9.809   1.314  -0.643  1.00  0.00     0.009 A 
ATOM     22  C   UNL     1      10.093   0.503  -2.901  1.00  0.00     0.009 A 
ATOM     23  C   UNL     1      11.142   1.727  -0.622  1.00  0.00     0.001 A 
ATOM     24  C   UNL     1      11.426   0.917  -2.879  1.00  0.00     0.001 A 
ATOM     25  C   UNL     1      11.950   1.527  -1.740  1.00  0.00     0.000 A 
ENDBRANCH  13  20
ENDBRANCH   7   9
ENDBRANCH   6   7
ENDBRANCH   4   6
ENDBRANCH   1   2
BRANCH   1  26
ATOM     26  C   UNL     1       2.457   0.883   3.290  1.00  0.00     0.042 C 
BRANCH  26  27
ATOM     27  C   UNL     1       3.915   0.899   3.746  1.00  0.00     0.118 C 
BRANCH  27  28
ATOM     28  N   UNL     1       4.490   2.234   3.818  1.00  0.00    -0.352 N 
ATOM     29  C   UNL     1       5.243   2.839   4.792  1.00  0.00     0.251 C 
ATOM     30  H   UNL     1       4.307   2.800   3.034  1.00  0.00     0.163 HD
ATOM     31  O   UNL     1       5.540   4.027   4.656  1.00  0.00    -0.269 OA
BRANCH  29  32
ATOM     32  C   UNL     1       5.685   2.119   6.011  1.00  0.00     0.039 A 
ATOM     33  C   UNL     1       5.713   2.828   7.219  1.00  0.00     0.014 A 
ATOM     34  C   UNL     1       6.124   0.792   5.986  1.00  0.00     0.014 A 
ATOM     35  C   UNL     1       6.122   2.197   8.398  1.00  0.00     0.010 A 
ATOM     36  C   UNL     1       6.472   0.144   7.175  1.00  0.00     0.010 A 
ATOM     37  C   UNL     1       6.477   0.839   8.394  1.00  0.00    -0.014 A 
BRANCH  37  38
ATOM     38  C   UNL     1       6.835   0.149   9.660  1.00  0.00     0.031 A 
ATOM     39  C   UNL     1       8.230  -0.364   9.897  1.00  0.00     0.074 A 
ATOM     40  C   UNL     1       5.889  -0.045  10.600  1.00  0.00     0.049 A 
ATOM     41  N   UNL     1       8.719  -0.966  10.954  1.00  0.00    -0.248 NA
ATOM     42  C   UNL     1       9.196  -0.198   8.800  1.00  0.00     0.031 C 
ATOM     43  C   UNL     1       4.485   0.356  10.484  1.00  0.00     0.029 A 
ATOM     44  N   UNL     1       5.967  -0.625  11.842  1.00  0.00    -0.354 N 
ATOM     45  C   UNL     1      10.041  -1.262  10.645  1.00  0.00     0.074 A 
ATOM     46  C   UNL     1      10.266  -0.811   9.288  1.00  0.00     0.031 C 
ATOM     47  C   UNL     1       3.844   0.042  11.621  1.00  0.00     0.029 A 
ATOM     48  C   UNL     1       4.781  -0.604  12.535  1.00  0.00     0.049 A 
ATOM     49  H   UNL     1       6.795  -1.018  12.202  1.00  0.00     0.167 HD
ATOM     50  C   UNL     1      10.989  -1.839  11.422  1.00  0.00     0.031 A 
ATOM     51  C   UNL     1       4.480  -1.045  13.770  1.00  0.00     0.031 A 
ATOM     52  C   UNL     1      10.779  -2.280  12.776  1.00  0.00     0.049 A 
ATOM     53  C   UNL     1       5.554  -1.661  14.620  1.00  0.00     0.074 A 
ATOM     54  C   UNL     1      11.696  -2.826  13.658  1.00  0.00     0.029 A 
ATOM     55  N   UNL     1       9.566  -2.227  13.445  1.00  0.00    -0.354 N 
ATOM     56  N   UNL     1       6.816  -1.866  14.337  1.00  0.00    -0.248 NA
ATOM     57  C   UNL     1       5.160  -2.090  15.970  1.00  0.00     0.031 C 
ATOM     58  C   UNL     1      11.030  -3.137  14.849  1.00  0.00     0.029 A 
ATOM     59  C   UNL     1       9.708  -2.743  14.723  1.00  0.00     0.049 A 
ATOM     60  H   UNL     1       8.728  -1.874  13.067  1.00  0.00     0.167 HD
ATOM     61  C   UNL     1       7.373  -2.424  15.480  1.00  0.00     0.074 A 
ATOM     62  C   UNL     1       6.316  -2.509  16.466  1.00  0.00     0.031 C 
ATOM     63  C   UNL     1       8.649  -2.828  15.693  1.00  0.00     0.031 A 
BRANCH  50  64
ATOM     64  C   UNL     1      12.352  -2.030  10.818  1.00  0.00    -0.014 A 
ATOM     65  C   UNL     1      13.206  -0.938  10.599  1.00  0.00     0.009 A 
ATOM     66  C   UNL     1      12.802  -3.320  10.499  1.00  0.00     0.009 A 
ATOM     67  C   UNL     1      14.471  -1.130  10.039  1.00  0.00     0.001 A 
ATOM     68  C   UNL     1      14.077  -3.512   9.963  1.00  0.00     0.001 A 
ATOM     69  C   UNL     1      14.906  -2.417   9.725  1.00  0.00     0.000 A 
ENDBRANCH  50  64
BRANCH  51  70
ATOM     70  C   UNL     1       3.102  -0.883  14.299  1.00  0.00    -0.014 A 
ATOM     71  C   UNL     1       2.830   0.078  15.285  1.00  0.00     0.009 A 
ATOM     72  C   UNL     1       2.056  -1.690  13.826  1.00  0.00     0.009 A 
ATOM     73  C   UNL     1       1.541   0.210  15.806  1.00  0.00     0.001 A 
ATOM     74  C   UNL     1       0.763  -1.538  14.331  1.00  0.00     0.001 A 
ATOM     75  C   UNL     1       0.509  -0.595  15.326  1.00  0.00     0.000 A 
ENDBRANCH  51  70
BRANCH  63  76
ATOM     76  C   UNL     1       8.973  -3.372  17.055  1.00  0.00    -0.014 A 
ATOM     77  C   UNL     1       8.526  -4.639  17.459  1.00  0.00     0.009 A 
ATOM     78  C   UNL     1       9.747  -2.608  17.943  1.00  0.00     0.009 A 
ATOM     79  C   UNL     1       8.816  -5.115  18.739  1.00  0.00     0.001 A 
ATOM     80  C   UNL     1      10.057  -3.097  19.213  1.00  0.00     0.001 A 
ATOM     81  C   UNL     1       9.582  -4.345  19.614  1.00  0.00     0.000 A 
ENDBRANCH  63  76
ENDBRANCH  37  38
ENDBRANCH  29  32
ENDBRANCH  27  28
ENDBRANCH  26  27
ENDBRANCH   1  26
TORSDOF 14
