REMARK SMILES C#CCN(CC(=O)NCCCNC(=O)c1ccc(-c2c3nc(c(-c4ccccc4)c4ccc([nH]4)c(-c4ccccc4)c4nc(c(-c5ccccc5)c5ccc2[nH]5)C=C4)C=C3)cc1)C(=O)c1c[nH]c(=O)[nH]1
REMARK SMILES IDX 9 1 8 2 6 3 7 4 5 6 4 7 3 8 2 9 1 10 63 11 64 12 65 13 66 14
REMARK SMILES IDX 70 15 67 16 68 17 69 20 10 21 11 22 12 23 13 24 14 26 15 27
REMARK SMILES IDX 16 28 62 29 17 30 61 31 18 32 19 33 20 34 55 35 21 36 60 37
REMARK SMILES IDX 54 38 56 39 22 40 59 41 53 42 52 43 23 45 45 46 30 47 44 48
REMARK SMILES IDX 31 49 34 50 43 51 57 52 32 53 33 54 42 56 58 57 35 58 24 59
REMARK SMILES IDX 25 60 29 61 26 62 28 63 27 64 46 65 47 66 51 67 48 68 50 69
REMARK SMILES IDX 49 70 36 71 37 72 41 73 38 74 40 75 39 76
REMARK H PARENT 8 5 70 18 67 19 12 25 56 44 34 55
REMARK Flexibility Score: inf
ROOT
ATOM      1  C   UNL     1      -5.157  -0.194  -0.004  1.00  0.00     0.117 C 
ENDROOT
BRANCH   1   2
ATOM      2  N   UNL     1      -5.409   0.878  -0.942  1.00  0.00    -0.354 N 
ATOM      3  C   UNL     1      -4.596   1.411  -1.897  1.00  0.00     0.239 C 
ATOM      4  O   UNL     1      -5.142   2.072  -2.785  1.00  0.00    -0.273 OA
ATOM      5  H   UNL     1      -6.303   1.285  -0.880  1.00  0.00     0.163 HD
BRANCH   3   6
ATOM      6  C   UNL     1      -3.084   1.128  -1.951  1.00  0.00     0.220 C 
BRANCH   6   7
ATOM      7  N   UNL     1      -2.384   1.217  -0.665  1.00  0.00    -0.317 N 
BRANCH   7   8
ATOM      8  C   UNL     1      -1.839  -0.015  -0.098  1.00  0.00     0.210 C 
BRANCH   8   9
ATOM      9  C   UNL     1      -0.319  -0.015  -0.098  1.00  0.00    -0.085 C 
ATOM     10  C   UNL     1       0.985  -0.015  -0.098  1.00  0.00     0.006 C 
ENDBRANCH   8   9
ENDBRANCH   7   8
BRANCH   7  11
ATOM     11  C   UNL     1      -2.113   2.411  -0.005  1.00  0.00     0.273 C 
ATOM     12  O   UNL     1      -1.555   2.458   1.091  1.00  0.00    -0.267 OA
BRANCH  11  13
ATOM     13  C   UNL     1      -2.457   3.693  -0.671  1.00  0.00     0.125 A 
ATOM     14  C   UNL     1      -3.661   4.239  -0.899  1.00  0.00     0.119 A 
ATOM     15  N   UNL     1      -1.492   4.589  -1.075  1.00  0.00    -0.302 N 
ATOM     16  N   UNL     1      -3.481   5.465  -1.490  1.00  0.00    -0.312 N 
ATOM     17  C   UNL     1      -2.110   5.723  -1.608  1.00  0.00     0.323 A 
ATOM     18  H   UNL     1      -0.520   4.452  -0.999  1.00  0.00     0.172 HD
ATOM     19  H   UNL     1      -4.202   6.067  -1.785  1.00  0.00     0.171 HD
ATOM     20  O   UNL     1      -1.579   6.719  -2.065  1.00  0.00    -0.248 OA
ENDBRANCH  11  13
ENDBRANCH   7  11
ENDBRANCH   6   7
ENDBRANCH   3   6
ENDBRANCH   1   2
BRANCH   1  21
ATOM     21  C   UNL     1      -4.957   0.284   1.431  1.00  0.00     0.042 C 
BRANCH  21  22
ATOM     22  C   UNL     1      -6.203   0.871   2.084  1.00  0.00     0.118 C 
BRANCH  22  23
ATOM     23  N   UNL     1      -7.312  -0.070   2.117  1.00  0.00    -0.352 N 
ATOM     24  C   UNL     1      -8.001  -0.615   3.168  1.00  0.00     0.251 C 
ATOM     25  H   UNL     1      -7.621  -0.367   1.230  1.00  0.00     0.163 HD
ATOM     26  O   UNL     1      -8.753  -1.563   2.955  1.00  0.00    -0.269 OA
BRANCH  24  27
ATOM     27  C   UNL     1      -7.858  -0.089   4.544  1.00  0.00     0.039 A 
ATOM     28  C   UNL     1      -7.942  -0.989   5.612  1.00  0.00     0.014 A 
ATOM     29  C   UNL     1      -7.720   1.277   4.800  1.00  0.00     0.014 A 
ATOM     30  C   UNL     1      -7.850  -0.524   6.925  1.00  0.00     0.010 A 
ATOM     31  C   UNL     1      -7.539   1.730   6.106  1.00  0.00     0.010 A 
ATOM     32  C   UNL     1      -7.622   0.837   7.184  1.00  0.00    -0.014 A 
BRANCH  32  33
ATOM     33  C   UNL     1      -7.485   1.334   8.577  1.00  0.00     0.031 A 
ATOM     34  C   UNL     1      -8.481   2.313   9.141  1.00  0.00     0.074 A 
ATOM     35  C   UNL     1      -6.444   0.925   9.328  1.00  0.00     0.049 A 
ATOM     36  N   UNL     1      -8.523   2.852  10.334  1.00  0.00    -0.248 NA
ATOM     37  C   UNL     1      -9.558   2.762   8.243  1.00  0.00     0.031 C 
ATOM     38  C   UNL     1      -5.389   0.011   8.886  1.00  0.00     0.029 A 
ATOM     39  N   UNL     1      -6.105   1.222  10.624  1.00  0.00    -0.354 N 
ATOM     40  C   UNL     1      -9.617   3.708  10.324  1.00  0.00     0.074 A 
ATOM     41  C   UNL     1     -10.178   3.662   8.992  1.00  0.00     0.031 C 
ATOM     42  C   UNL     1      -4.544  -0.210   9.906  1.00  0.00     0.029 A 
ATOM     43  C   UNL     1      -4.970   0.580  11.056  1.00  0.00     0.049 A 
ATOM     44  H   UNL     1      -6.626   1.837  11.190  1.00  0.00     0.167 HD
ATOM     45  C   UNL     1     -10.125   4.450  11.337  1.00  0.00     0.031 A 
ATOM     46  C   UNL     1      -4.340   0.623  12.245  1.00  0.00     0.031 A 
ATOM     47  C   UNL     1      -9.568   4.496  12.663  1.00  0.00     0.049 A 
ATOM     48  C   UNL     1      -4.910   1.474  13.345  1.00  0.00     0.074 A 
ATOM     49  C   UNL     1     -10.039   5.176  13.773  1.00  0.00     0.029 A 
ATOM     50  N   UNL     1      -8.411   3.841  13.056  1.00  0.00    -0.354 N 
ATOM     51  N   UNL     1      -5.991   2.217  13.342  1.00  0.00    -0.248 NA
ATOM     52  C   UNL     1      -4.178   1.481  14.619  1.00  0.00     0.031 C 
ATOM     53  C   UNL     1      -9.132   4.983  14.820  1.00  0.00     0.029 A 
ATOM     54  C   UNL     1      -8.135   4.126  14.384  1.00  0.00     0.049 A 
ATOM     55  H   UNL     1      -7.867   3.260  12.478  1.00  0.00     0.167 HD
ATOM     56  C   UNL     1      -6.083   2.756  14.619  1.00  0.00     0.074 A 
ATOM     57  C   UNL     1      -4.963   2.235  15.375  1.00  0.00     0.031 C 
ATOM     58  C   UNL     1      -7.012   3.607  15.121  1.00  0.00     0.031 A 
BRANCH  45  59
ATOM     59  C   UNL     1     -11.344   5.285  11.044  1.00  0.00    -0.014 A 
ATOM     60  C   UNL     1     -12.590   4.692  10.782  1.00  0.00     0.009 A 
ATOM     61  C   UNL     1     -11.253   6.685  11.065  1.00  0.00     0.009 A 
ATOM     62  C   UNL     1     -13.709   5.482  10.508  1.00  0.00     0.001 A 
ATOM     63  C   UNL     1     -12.380   7.474  10.823  1.00  0.00     0.001 A 
ATOM     64  C   UNL     1     -13.604   6.872  10.534  1.00  0.00     0.000 A 
ENDBRANCH  45  59
BRANCH  46  65
ATOM     65  C   UNL     1      -3.104  -0.174  12.464  1.00  0.00    -0.014 A 
ATOM     66  C   UNL     1      -3.103  -1.263  13.350  1.00  0.00     0.009 A 
ATOM     67  C   UNL     1      -1.914   0.157  11.798  1.00  0.00     0.009 A 
ATOM     68  C   UNL     1      -1.929  -1.982  13.588  1.00  0.00     0.001 A 
ATOM     69  C   UNL     1      -0.750  -0.584  12.012  1.00  0.00     0.001 A 
ATOM     70  C   UNL     1      -0.756  -1.645  12.916  1.00  0.00     0.000 A 
ENDBRANCH  46  65
BRANCH  58  71
ATOM     71  C   UNL     1      -6.872   4.000  16.567  1.00  0.00    -0.014 A 
ATOM     72  C   UNL     1      -5.827   4.831  17.002  1.00  0.00     0.009 A 
ATOM     73  C   UNL     1      -7.817   3.552  17.502  1.00  0.00     0.009 A 
ATOM     74  C   UNL     1      -5.709   5.168  18.352  1.00  0.00     0.001 A 
ATOM     75  C   UNL     1      -7.717   3.919  18.845  1.00  0.00     0.001 A 
ATOM     76  C   UNL     1      -6.656   4.716  19.271  1.00  0.00     0.000 A 
ENDBRANCH  58  71
ENDBRANCH  32  33
ENDBRANCH  24  27
ENDBRANCH  22  23
ENDBRANCH  21  22
ENDBRANCH   1  21
TORSDOF 15
