REMARK SMILES CC1(C)S[C@H](c2ccc(-c3ccccc3)o2)[NH2+][C@H]1C(=O)NCCCNC(=O)c1ccc(-c2c3nc(c(-c4ccccc4)c4ccc([nH]4)c(-c4ccccc4)c4nc(c(-c5ccccc5)c5ccc2[nH]5)C=C4)C=C3)cc1
REMARK SMILES IDX 23 1 22 2 21 3 19 4 20 5 18 7 1 8 2 9 3 10 4 11 5 12 17 13
REMARK SMILES IDX 6 16 7 17 16 18 8 19 9 20 10 21 11 22 15 23 12 24 14 25
REMARK SMILES IDX 13 26 24 27 25 28 26 29 27 31 28 32 29 33 75 34 30 35 74 36
REMARK SMILES IDX 31 37 32 38 33 39 68 40 34 41 73 42 67 43 69 44 35 45 72 46
REMARK SMILES IDX 66 47 65 48 36 50 58 51 43 52 57 53 44 54 47 55 56 56 70 57
REMARK SMILES IDX 45 58 46 59 55 61 71 62 48 63 37 64 38 65 42 66 39 67 41 68
REMARK SMILES IDX 40 69 59 70 60 71 64 72 61 73 63 74 62 75 49 76 50 77 54 78
REMARK SMILES IDX 51 79 53 80 52 81
REMARK H PARENT 21 6 17 14 17 15 25 30 69 49 47 60
REMARK Flexibility Score: inf
ROOT
ATOM      1  C   UNL     1       1.128   2.227   3.413  1.00  0.00     0.042 C 
ENDROOT
BRANCH   1   2
ATOM      2  C   UNL     1      -0.000   2.419   2.400  1.00  0.00     0.118 C 
BRANCH   2   3
ATOM      3  N   UNL     1       0.469   2.934   1.120  1.00  0.00    -0.351 N 
ATOM      4  C   UNL     1       0.500   2.471  -0.161  1.00  0.00     0.279 C 
ATOM      5  O   UNL     1       1.089   3.204  -0.968  1.00  0.00    -0.268 OA
ATOM      6  H   UNL     1       0.857   3.836   1.200  1.00  0.00     0.163 HD
BRANCH   4   7
ATOM      7  C   UNL     1      -0.059   1.113  -0.637  1.00  0.00     0.289 C 
ATOM      8  C   UNL     1       1.655  -0.138   0.899  1.00  0.00     0.030 C 
ATOM      9  C   UNL     1       0.906  -0.073  -0.428  1.00  0.00     0.078 C 
ATOM     10  C   UNL     1       1.913  -0.178  -1.581  1.00  0.00     0.030 C 
ATOM     11  S   UNL     1      -0.191  -1.525  -0.470  1.00  0.00    -0.078 SA
ATOM     12  C   UNL     1      -1.723  -0.571  -0.317  1.00  0.00     0.311 C 
ATOM     13  N   UNL     1      -1.424   0.848  -0.136  1.00  0.00    -0.317 N 
ATOM     14  H   UNL     1      -1.478   1.087   0.854  1.00  0.00     0.348 HD
ATOM     15  H   UNL     1      -2.098   1.414  -0.651  1.00  0.00     0.348 HD
BRANCH  12  16
ATOM     16  C   UNL     1      -2.636  -0.893  -1.454  1.00  0.00     0.172 A 
ATOM     17  C   UNL     1      -3.410  -2.014  -1.694  1.00  0.00     0.054 A 
ATOM     18  O   UNL     1      -2.781  -0.003  -2.486  1.00  0.00    -0.454 OA
ATOM     19  C   UNL     1      -4.077  -1.792  -2.915  1.00  0.00     0.051 A 
ATOM     20  C   UNL     1      -3.676  -0.550  -3.363  1.00  0.00     0.134 A 
BRANCH  20  21
ATOM     21  C   UNL     1      -4.034   0.237  -4.532  1.00  0.00     0.017 A 
ATOM     22  C   UNL     1      -3.067   0.929  -5.268  1.00  0.00     0.012 A 
ATOM     23  C   UNL     1      -5.367   0.267  -4.969  1.00  0.00     0.012 A 
ATOM     24  C   UNL     1      -3.423   1.620  -6.431  1.00  0.00     0.001 A 
ATOM     25  C   UNL     1      -5.725   0.967  -6.123  1.00  0.00     0.001 A 
ATOM     26  C   UNL     1      -4.750   1.637  -6.858  1.00  0.00     0.000 A 
ENDBRANCH  20  21
ENDBRANCH  12  16
ENDBRANCH   4   7
ENDBRANCH   2   3
ENDBRANCH   1   2
BRANCH   1  27
ATOM     27  C   UNL     1       1.839   3.506   3.828  1.00  0.00     0.118 C 
BRANCH  27  28
ATOM     28  N   UNL     1       1.120   4.224   4.867  1.00  0.00    -0.352 N 
ATOM     29  C   UNL     1       1.393   4.349   6.208  1.00  0.00     0.251 C 
ATOM     30  H   UNL     1       0.311   4.695   4.562  1.00  0.00     0.163 HD
ATOM     31  O   UNL     1       0.538   4.819   6.954  1.00  0.00    -0.269 OA
BRANCH  29  32
ATOM     32  C   UNL     1       2.692   3.910   6.775  1.00  0.00     0.039 A 
ATOM     33  C   UNL     1       2.702   3.291   8.030  1.00  0.00     0.014 A 
ATOM     34  C   UNL     1       3.902   4.154   6.120  1.00  0.00     0.014 A 
ATOM     35  C   UNL     1       3.911   2.876   8.598  1.00  0.00     0.010 A 
ATOM     36  C   UNL     1       5.097   3.663   6.646  1.00  0.00     0.010 A 
ATOM     37  C   UNL     1       5.118   3.034   7.899  1.00  0.00    -0.014 A 
BRANCH  37  38
ATOM     38  C   UNL     1       6.412   2.585   8.479  1.00  0.00     0.031 A 
ATOM     39  C   UNL     1       7.490   3.589   8.794  1.00  0.00     0.074 A 
ATOM     40  C   UNL     1       6.643   1.273   8.679  1.00  0.00     0.049 A 
ATOM     41  N   UNL     1       8.702   3.386   9.249  1.00  0.00    -0.248 NA
ATOM     42  C   UNL     1       7.175   5.005   8.543  1.00  0.00     0.031 C 
ATOM     43  C   UNL     1       5.702   0.190   8.388  1.00  0.00     0.029 A 
ATOM     44  N   UNL     1       7.749   0.628   9.176  1.00  0.00    -0.354 N 
ATOM     45  C   UNL     1       9.297   4.640   9.313  1.00  0.00     0.074 A 
ATOM     46  C   UNL     1       8.331   5.592   8.810  1.00  0.00     0.031 C 
ATOM     47  C   UNL     1       6.258  -0.981   8.741  1.00  0.00     0.029 A 
ATOM     48  C   UNL     1       7.605  -0.737   9.247  1.00  0.00     0.049 A 
ATOM     49  H   UNL     1       8.567   1.098   9.455  1.00  0.00     0.167 HD
ATOM     50  C   UNL     1      10.527   4.977   9.769  1.00  0.00     0.031 A 
ATOM     51  C   UNL     1       8.460  -1.686   9.671  1.00  0.00     0.031 A 
ATOM     52  C   UNL     1      11.483   4.041  10.296  1.00  0.00     0.049 A 
ATOM     53  C   UNL     1       9.819  -1.288  10.174  1.00  0.00     0.074 A 
ATOM     54  C   UNL     1      12.734   4.296  10.832  1.00  0.00     0.029 A 
ATOM     55  N   UNL     1      11.292   2.671  10.357  1.00  0.00    -0.354 N 
ATOM     56  N   UNL     1      10.344  -0.091  10.276  1.00  0.00    -0.248 NA
ATOM     57  C   UNL     1      10.698  -2.374  10.631  1.00  0.00     0.031 C 
ATOM     58  C   UNL     1      13.316   3.073  11.184  1.00  0.00     0.029 A 
ATOM     59  C   UNL     1      12.408   2.063  10.907  1.00  0.00     0.049 A 
ATOM     60  H   UNL     1      10.484   2.199  10.053  1.00  0.00     0.167 HD
ATOM     61  C   UNL     1      11.604  -0.278  10.829  1.00  0.00     0.074 A 
ATOM     62  C   UNL     1      11.758  -1.700  11.055  1.00  0.00     0.031 C 
ATOM     63  C   UNL     1      12.548   0.648  11.126  1.00  0.00     0.031 A 
BRANCH  50  64
ATOM     64  C   UNL     1      10.907   6.430   9.716  1.00  0.00    -0.014 A 
ATOM     65  C   UNL     1      10.325   7.366  10.586  1.00  0.00     0.009 A 
ATOM     66  C   UNL     1      11.880   6.866   8.803  1.00  0.00     0.009 A 
ATOM     67  C   UNL     1      10.682   8.714  10.518  1.00  0.00     0.001 A 
ATOM     68  C   UNL     1      12.255   8.210   8.755  1.00  0.00     0.001 A 
ATOM     69  C   UNL     1      11.649   9.134   9.605  1.00  0.00     0.000 A 
ENDBRANCH  50  64
BRANCH  51  70
ATOM     70  C   UNL     1       8.048  -3.113   9.663  1.00  0.00    -0.014 A 
ATOM     71  C   UNL     1       7.763  -3.774  10.868  1.00  0.00     0.009 A 
ATOM     72  C   UNL     1       7.944  -3.822   8.457  1.00  0.00     0.009 A 
ATOM     73  C   UNL     1       7.403  -5.123  10.866  1.00  0.00     0.001 A 
ATOM     74  C   UNL     1       7.560  -5.165   8.457  1.00  0.00     0.001 A 
ATOM     75  C   UNL     1       7.298  -5.816   9.661  1.00  0.00     0.000 A 
ENDBRANCH  51  70
BRANCH  63  76
ATOM     76  C   UNL     1      13.818   0.154  11.755  1.00  0.00    -0.014 A 
ATOM     77  C   UNL     1      14.787  -0.525  11.001  1.00  0.00     0.009 A 
ATOM     78  C   UNL     1      14.063   0.405  13.114  1.00  0.00     0.009 A 
ATOM     79  C   UNL     1      15.964  -0.970  11.604  1.00  0.00     0.001 A 
ATOM     80  C   UNL     1      15.252  -0.020  13.709  1.00  0.00     0.001 A 
ATOM     81  C   UNL     1      16.198  -0.714  12.956  1.00  0.00     0.000 A 
ENDBRANCH  63  76
ENDBRANCH  37  38
ENDBRANCH  29  32
ENDBRANCH  27  28
ENDBRANCH   1  27
TORSDOF 12
