REMARK SMILES O=C(CCN1C(=O)[C@@H]2[C@@H](C1=O)[C@H]1c3ccccc3[C@]2(Br)c2ccccc21)NCCCNC(=O)c1ccc(-c2c3nc(c(-c4ccccc4)c4ccc([nH]4)c(-c4ccccc4)c4nc(c(-c5ccccc5)c5ccc2[nH]5)C=C4)C=C3)cc1
REMARK SMILES IDX 29 1 28 2 27 3 1 4 2 5 3 7 4 8 5 9 6 10 10 11 7 12 8 13 9 14
REMARK SMILES IDX 11 15 19 16 12 17 21 18 20 19 18 20 26 21 13 22 22 23 17 24
REMARK SMILES IDX 25 25 14 26 23 27 16 28 24 29 15 30 30 31 31 32 32 33 33 35
REMARK SMILES IDX 34 36 35 37 81 38 36 39 80 40 37 41 38 42 39 43 74 44 40 45
REMARK SMILES IDX 79 46 73 47 75 48 41 49 78 50 72 51 71 52 42 54 64 55 49 56
REMARK SMILES IDX 63 57 50 58 53 59 62 60 76 61 51 62 52 63 61 65 77 66 54 67
REMARK SMILES IDX 43 68 44 69 48 70 45 71 47 72 46 73 65 74 66 75 70 76 67 77
REMARK SMILES IDX 69 78 68 79 55 80 56 81 60 82 57 83 59 84 58 85
REMARK H PARENT 27 6 31 34 75 53 53 64
REMARK Flexibility Score: inf
ROOT
ATOM      1  C   UNL     1       2.010  -3.235  -1.423  1.00  0.00     0.042 C 
ENDROOT
BRANCH   1   2
ATOM      2  C   UNL     1       1.758  -2.400  -0.177  1.00  0.00     0.117 C 
BRANCH   2   3
ATOM      3  N   UNL     1       2.445  -1.129  -0.253  1.00  0.00    -0.356 N 
ATOM      4  O   UNL     1       0.746   0.168   0.587  1.00  0.00    -0.275 OA
ATOM      5  C   UNL     1       1.895   0.051   0.180  1.00  0.00     0.221 C 
ATOM      6  H   UNL     1       3.353  -1.110  -0.634  1.00  0.00     0.163 HD
BRANCH   5   7
ATOM      7  C   UNL     1       2.858   1.211   0.115  1.00  0.00     0.122 C 
BRANCH   7   8
ATOM      8  C   UNL     1       3.869   1.164   1.259  1.00  0.00     0.138 C 
BRANCH   8   9
ATOM      9  N   UNL     1       4.863   0.091   1.217  1.00  0.00    -0.281 N 
ATOM     10  C   UNL     1       5.276  -0.597   2.366  1.00  0.00     0.235 C 
ATOM     11  C   UNL     1       5.607  -0.292   0.106  1.00  0.00     0.234 C 
ATOM     12  O   UNL     1       4.749  -0.613   3.456  1.00  0.00    -0.274 OA
ATOM     13  C   UNL     1       6.615  -1.157   1.980  1.00  0.00     0.118 C 
ATOM     14  C   UNL     1       6.272  -1.556   0.541  1.00  0.00     0.105 C 
ATOM     15  O   UNL     1       5.574   0.153  -1.025  1.00  0.00    -0.274 OA
ATOM     16  C   UNL     1       7.527  -2.238   2.574  1.00  0.00     0.088 C 
ATOM     17  C   UNL     1       7.455  -2.292  -0.095  1.00  0.00     0.063 C 
ATOM     18  C   UNL     1       8.887  -1.832   1.882  1.00  0.00    -0.022 A 
ATOM     19  Br  UNL     1       7.595  -2.128   4.491  1.00  0.00    -0.074 Br
ATOM     20  C   UNL     1       7.223  -3.639   2.001  1.00  0.00    -0.022 A 
ATOM     21  C   UNL     1       8.776  -1.766   0.447  1.00  0.00    -0.035 A 
ATOM     22  C   UNL     1       7.338  -3.685   0.568  1.00  0.00    -0.035 A 
ATOM     23  C   UNL     1      10.118  -1.577   2.471  1.00  0.00     0.006 A 
ATOM     24  C   UNL     1       7.026  -4.825   2.701  1.00  0.00     0.006 A 
ATOM     25  C   UNL     1       9.848  -1.401  -0.355  1.00  0.00     0.005 A 
ATOM     26  C   UNL     1       7.448  -4.894  -0.102  1.00  0.00     0.005 A 
ATOM     27  C   UNL     1      11.199  -1.224   1.655  1.00  0.00     0.000 A 
ATOM     28  C   UNL     1       7.050  -6.036   2.004  1.00  0.00     0.000 A 
ATOM     29  C   UNL     1      11.063  -1.122   0.262  1.00  0.00     0.000 A 
ATOM     30  C   UNL     1       7.308  -6.072   0.627  1.00  0.00     0.000 A 
ENDBRANCH   8   9
ENDBRANCH   7   8
ENDBRANCH   5   7
ENDBRANCH   2   3
ENDBRANCH   1   2
BRANCH   1  31
ATOM     31  C   UNL     1       3.461  -3.666  -1.596  1.00  0.00     0.118 C 
BRANCH  31  32
ATOM     32  N   UNL     1       3.877  -4.646  -0.605  1.00  0.00    -0.352 N 
ATOM     33  C   UNL     1       4.356  -5.922  -0.788  1.00  0.00     0.251 C 
ATOM     34  H   UNL     1       3.805  -4.354   0.332  1.00  0.00     0.163 HD
ATOM     35  O   UNL     1       4.314  -6.721   0.143  1.00  0.00    -0.269 OA
BRANCH  33  36
ATOM     36  C   UNL     1       4.875  -6.353  -2.109  1.00  0.00     0.039 A 
ATOM     37  C   UNL     1       5.472  -5.459  -3.003  1.00  0.00     0.014 A 
ATOM     38  C   UNL     1       4.718  -7.693  -2.473  1.00  0.00     0.014 A 
ATOM     39  C   UNL     1       5.656  -5.827  -4.328  1.00  0.00     0.010 A 
ATOM     40  C   UNL     1       4.988  -8.090  -3.780  1.00  0.00     0.010 A 
ATOM     41  C   UNL     1       5.354  -7.132  -4.737  1.00  0.00    -0.014 A 
BRANCH  41  42
ATOM     42  C   UNL     1       5.259  -7.446  -6.180  1.00  0.00     0.031 A 
ATOM     43  C   UNL     1       3.906  -7.755  -6.769  1.00  0.00     0.074 A 
ATOM     44  C   UNL     1       6.349  -7.383  -6.963  1.00  0.00     0.049 A 
ATOM     45  N   UNL     1       3.599  -8.106  -7.990  1.00  0.00    -0.248 NA
ATOM     46  C   UNL     1       2.744  -7.657  -5.867  1.00  0.00     0.031 C 
ATOM     47  C   UNL     1       7.691  -7.013  -6.512  1.00  0.00     0.029 A 
ATOM     48  N   UNL     1       6.497  -7.614  -8.306  1.00  0.00    -0.354 N 
ATOM     49  C   UNL     1       2.222  -8.296  -7.992  1.00  0.00     0.074 A 
ATOM     50  C   UNL     1       1.752  -8.055  -6.649  1.00  0.00     0.031 C 
ATOM     51  C   UNL     1       8.520  -7.014  -7.566  1.00  0.00     0.029 A 
ATOM     52  C   UNL     1       7.787  -7.456  -8.749  1.00  0.00     0.049 A 
ATOM     53  H   UNL     1       5.751  -7.867  -8.896  1.00  0.00     0.167 HD
ATOM     54  C   UNL     1       1.421  -8.629  -9.030  1.00  0.00     0.031 A 
ATOM     55  C   UNL     1       8.325  -7.671  -9.966  1.00  0.00     0.031 A 
ATOM     56  C   UNL     1       1.901  -8.842 -10.368  1.00  0.00     0.049 A 
ATOM     57  C   UNL     1       7.430  -8.131 -11.083  1.00  0.00     0.074 A 
ATOM     58  C   UNL     1       1.172  -9.172 -11.495  1.00  0.00     0.029 A 
ATOM     59  N   UNL     1       3.228  -8.743 -10.757  1.00  0.00    -0.354 N 
ATOM     60  N   UNL     1       6.131  -8.316 -11.073  1.00  0.00    -0.248 NA
ATOM     61  C   UNL     1       8.066  -8.414 -12.377  1.00  0.00     0.031 C 
ATOM     62  C   UNL     1       2.067  -9.350 -12.550  1.00  0.00     0.029 A 
ATOM     63  C   UNL     1       3.343  -9.045 -12.102  1.00  0.00     0.049 A 
ATOM     64  H   UNL     1       3.975  -8.496 -10.166  1.00  0.00     0.167 HD
ATOM     65  C   UNL     1       5.792  -8.716 -12.358  1.00  0.00     0.074 A 
ATOM     66  C   UNL     1       7.019  -8.730 -13.128  1.00  0.00     0.031 C 
ATOM     67  C   UNL     1       4.574  -9.046 -12.853  1.00  0.00     0.031 A 
BRANCH  54  68
ATOM     68  C   UNL     1      -0.052  -8.803  -8.774  1.00  0.00    -0.014 A 
ATOM     69  C   UNL     1      -0.634 -10.074  -8.922  1.00  0.00     0.009 A 
ATOM     70  C   UNL     1      -0.882  -7.708  -8.489  1.00  0.00     0.009 A 
ATOM     71  C   UNL     1      -2.016 -10.240  -8.817  1.00  0.00     0.001 A 
ATOM     72  C   UNL     1      -2.261  -7.884  -8.350  1.00  0.00     0.001 A 
ATOM     73  C   UNL     1      -2.828  -9.146  -8.528  1.00  0.00     0.000 A 
ENDBRANCH  54  68
BRANCH  55  74
ATOM     74  C   UNL     1       9.784  -7.455 -10.164  1.00  0.00    -0.014 A 
ATOM     75  C   UNL     1      10.722  -8.252  -9.485  1.00  0.00     0.009 A 
ATOM     76  C   UNL     1      10.249  -6.409 -10.973  1.00  0.00     0.009 A 
ATOM     77  C   UNL     1      12.089  -7.981  -9.577  1.00  0.00     0.001 A 
ATOM     78  C   UNL     1      11.620  -6.162 -11.092  1.00  0.00     0.001 A 
ATOM     79  C   UNL     1      12.537  -6.938 -10.384  1.00  0.00     0.000 A 
ENDBRANCH  55  74
BRANCH  67  80
ATOM     80  C   UNL     1       4.476  -9.442 -14.300  1.00  0.00    -0.014 A 
ATOM     81  C   UNL     1       3.764  -8.627 -15.197  1.00  0.00     0.009 A 
ATOM     82  C   UNL     1       4.946 -10.688 -14.740  1.00  0.00     0.009 A 
ATOM     83  C   UNL     1       3.492  -9.068 -16.492  1.00  0.00     0.001 A 
ATOM     84  C   UNL     1       4.703 -11.111 -16.048  1.00  0.00     0.001 A 
ATOM     85  C   UNL     1       3.963 -10.309 -16.917  1.00  0.00     0.000 A 
ENDBRANCH  67  80
ENDBRANCH  41  42
ENDBRANCH  33  36
ENDBRANCH  31  32
ENDBRANCH   1  31
TORSDOF 12
