REMARK SMILES CCOc1ccc(-c2csc3ncn([C@H](C)C(=O)NCCCNC(=O)c4ccc(-c5c6nc(c(-c7ccccc7)c7ccc([nH]7)c(-c7ccccc7)c7nc(c(-c8ccccc8)c8ccc5[nH]8)C=C7)C=C6)cc4)c(=O)c23)cc1
REMARK SMILES IDX 20 1 19 2 17 3 18 4 15 6 16 7 14 8 8 9 9 10 76 11 10 12
REMARK SMILES IDX 11 13 74 14 12 15 75 16 13 17 7 18 4 19 5 20 78 21 6 22
REMARK SMILES IDX 77 23 3 24 2 25 1 26 21 27 22 28 23 29 24 30 25 32 26 33
REMARK SMILES IDX 27 34 73 35 28 36 72 37 29 38 30 39 31 40 66 41 32 42 71 43
REMARK SMILES IDX 65 44 67 45 33 46 70 47 64 48 63 49 34 51 56 52 41 53 55 54
REMARK SMILES IDX 42 55 45 56 54 57 68 58 43 59 44 60 53 62 69 63 46 64 35 65
REMARK SMILES IDX 36 66 40 67 37 68 39 69 38 70 57 71 58 72 62 73 59 74 61 75
REMARK SMILES IDX 60 76 47 77 48 78 52 79 49 80 51 81 50 82
REMARK H PARENT 19 5 23 31 67 50 45 61
REMARK Flexibility Score: inf
ROOT
ATOM      1  C   UNL     1       5.272   3.487  -3.586  1.00  0.00     0.117 C 
ENDROOT
BRANCH   1   2
ATOM      2  N   UNL     1       6.220   4.360  -2.913  1.00  0.00    -0.354 N 
ATOM      3  C   UNL     1       7.506   4.710  -3.204  1.00  0.00     0.242 C 
ATOM      4  O   UNL     1       8.144   5.259  -2.299  1.00  0.00    -0.273 OA
ATOM      5  H   UNL     1       5.868   4.777  -2.093  1.00  0.00     0.163 HD
BRANCH   3   6
ATOM      6  C   UNL     1       8.217   4.281  -4.509  1.00  0.00     0.177 C 
ATOM      7  C   UNL     1       8.753   2.866  -4.296  1.00  0.00     0.042 C 
BRANCH   6   8
ATOM      8  N   UNL     1       7.372   4.492  -5.696  1.00  0.00    -0.286 N 
ATOM      9  C   UNL     1       5.261   7.131  -7.419  1.00  0.00     0.007 A 
ATOM     10  C   UNL     1       4.415   6.814  -8.468  1.00  0.00     0.076 A 
ATOM     11  C   UNL     1       6.005   5.974  -7.000  1.00  0.00     0.085 A 
ATOM     12  S   UNL     1       4.506   5.169  -8.919  1.00  0.00    -0.123 S 
ATOM     13  C   UNL     1       5.684   4.850  -7.731  1.00  0.00     0.131 A 
ATOM     14  C   UNL     1       6.974   5.816  -5.930  1.00  0.00     0.263 A 
ATOM     15  N   UNL     1       6.194   3.605  -7.568  1.00  0.00    -0.227 NA
ATOM     16  O   UNL     1       7.396   6.757  -5.266  1.00  0.00    -0.268 OA
ATOM     17  C   UNL     1       7.008   3.487  -6.569  1.00  0.00     0.204 A 
BRANCH   9  18
ATOM     18  C   UNL     1       5.281   8.486  -6.873  1.00  0.00    -0.016 A 
ATOM     19  C   UNL     1       5.292  11.088  -5.824  1.00  0.00     0.119 A 
ATOM     20  C   UNL     1       6.490  10.481  -6.190  1.00  0.00     0.047 A 
ATOM     21  C   UNL     1       4.087  10.418  -6.014  1.00  0.00     0.047 A 
ATOM     22  C   UNL     1       6.484   9.184  -6.716  1.00  0.00     0.012 A 
ATOM     23  C   UNL     1       4.082   9.116  -6.516  1.00  0.00     0.012 A 
BRANCH  19  24
ATOM     24  O   UNL     1       5.328  12.390  -5.410  1.00  0.00    -0.494 OA
BRANCH  24  25
ATOM     25  C   UNL     1       4.923  12.576  -4.048  1.00  0.00     0.226 C 
ATOM     26  C   UNL     1       3.429  12.835  -3.927  1.00  0.00     0.049 C 
ENDBRANCH  24  25
ENDBRANCH  19  24
ENDBRANCH   9  18
ENDBRANCH   6   8
ENDBRANCH   3   6
ENDBRANCH   1   2
BRANCH   1  27
ATOM     27  C   UNL     1       5.141   2.124  -2.904  1.00  0.00     0.042 C 
BRANCH  27  28
ATOM     28  C   UNL     1       4.359   2.197  -1.606  1.00  0.00     0.118 C 
BRANCH  28  29
ATOM     29  N   UNL     1       2.947   2.535  -1.807  1.00  0.00    -0.352 N 
ATOM     30  C   UNL     1       1.968   2.740  -0.847  1.00  0.00     0.251 C 
ATOM     31  H   UNL     1       2.657   2.628  -2.744  1.00  0.00     0.163 HD
ATOM     32  O   UNL     1       0.786   2.681  -1.125  1.00  0.00    -0.269 OA
BRANCH  30  33
ATOM     33  C   UNL     1       2.404   3.032   0.530  1.00  0.00     0.039 A 
ATOM     34  C   UNL     1       1.793   2.439   1.637  1.00  0.00     0.014 A 
ATOM     35  C   UNL     1       3.503   3.867   0.683  1.00  0.00     0.014 A 
ATOM     36  C   UNL     1       2.367   2.625   2.893  1.00  0.00     0.010 A 
ATOM     37  C   UNL     1       4.179   3.874   1.871  1.00  0.00     0.010 A 
ATOM     38  C   UNL     1       3.581   3.323   2.996  1.00  0.00    -0.014 A 
BRANCH  38  39
ATOM     39  C   UNL     1       4.308   3.408   4.256  1.00  0.00     0.031 A 
ATOM     40  C   UNL     1       4.573   2.101   4.906  1.00  0.00     0.074 A 
ATOM     41  C   UNL     1       4.896   4.544   4.692  1.00  0.00     0.049 A 
ATOM     42  N   UNL     1       4.024   1.640   5.979  1.00  0.00    -0.248 NA
ATOM     43  C   UNL     1       5.442   1.135   4.215  1.00  0.00     0.031 C 
ATOM     44  C   UNL     1       4.998   5.841   4.006  1.00  0.00     0.029 A 
ATOM     45  N   UNL     1       5.649   4.743   5.806  1.00  0.00    -0.354 N 
ATOM     46  C   UNL     1       4.647   0.422   6.230  1.00  0.00     0.074 A 
ATOM     47  C   UNL     1       5.346   0.073   5.019  1.00  0.00     0.031 C 
ATOM     48  C   UNL     1       5.961   6.589   4.587  1.00  0.00     0.029 A 
ATOM     49  C   UNL     1       6.402   5.912   5.791  1.00  0.00     0.049 A 
ATOM     50  H   UNL     1       5.660   4.112   6.561  1.00  0.00     0.167 HD
ATOM     51  C   UNL     1       4.776  -0.046   7.503  1.00  0.00     0.031 A 
ATOM     52  C   UNL     1       7.335   6.291   6.697  1.00  0.00     0.031 A 
ATOM     53  C   UNL     1       3.931   0.681   8.422  1.00  0.00     0.049 A 
ATOM     54  C   UNL     1       7.077   5.525   7.936  1.00  0.00     0.074 A 
ATOM     55  C   UNL     1       2.577   0.937   8.516  1.00  0.00     0.029 A 
ATOM     56  N   UNL     1       4.546   1.623   9.213  1.00  0.00    -0.354 N 
ATOM     57  N   UNL     1       6.018   5.695   8.673  1.00  0.00    -0.248 NA
ATOM     58  C   UNL     1       7.769   4.260   8.117  1.00  0.00     0.031 C 
ATOM     59  C   UNL     1       2.489   2.292   8.955  1.00  0.00     0.029 A 
ATOM     60  C   UNL     1       3.785   2.760   9.182  1.00  0.00     0.049 A 
ATOM     61  H   UNL     1       5.385   1.500   9.713  1.00  0.00     0.167 HD
ATOM     62  C   UNL     1       5.646   4.412   9.047  1.00  0.00     0.074 A 
ATOM     63  C   UNL     1       6.824   3.587   8.781  1.00  0.00     0.031 C 
ATOM     64  C   UNL     1       4.333   4.097   9.257  1.00  0.00     0.031 A 
BRANCH  51  65
ATOM     65  C   UNL     1       5.987  -0.810   7.991  1.00  0.00    -0.014 A 
ATOM     66  C   UNL     1       6.013  -1.232   9.334  1.00  0.00     0.009 A 
ATOM     67  C   UNL     1       7.207  -0.861   7.292  1.00  0.00     0.009 A 
ATOM     68  C   UNL     1       7.212  -1.582   9.965  1.00  0.00     0.001 A 
ATOM     69  C   UNL     1       8.399  -1.253   7.907  1.00  0.00     0.001 A 
ATOM     70  C   UNL     1       8.407  -1.580   9.254  1.00  0.00     0.000 A 
ENDBRANCH  51  65
BRANCH  52  71
ATOM     71  C   UNL     1       8.564   7.087   6.506  1.00  0.00    -0.014 A 
ATOM     72  C   UNL     1       9.227   7.654   7.606  1.00  0.00     0.009 A 
ATOM     73  C   UNL     1       9.248   7.048   5.277  1.00  0.00     0.009 A 
ATOM     74  C   UNL     1      10.545   8.115   7.493  1.00  0.00     0.001 A 
ATOM     75  C   UNL     1      10.563   7.511   5.164  1.00  0.00     0.001 A 
ATOM     76  C   UNL     1      11.218   8.027   6.277  1.00  0.00     0.000 A 
ENDBRANCH  52  71
BRANCH  64  77
ATOM     77  C   UNL     1       3.338   5.232   9.330  1.00  0.00    -0.014 A 
ATOM     78  C   UNL     1       3.105   6.129   8.272  1.00  0.00     0.009 A 
ATOM     79  C   UNL     1       2.514   5.315  10.461  1.00  0.00     0.009 A 
ATOM     80  C   UNL     1       2.102   7.101   8.362  1.00  0.00     0.001 A 
ATOM     81  C   UNL     1       1.499   6.270  10.543  1.00  0.00     0.001 A 
ATOM     82  C   UNL     1       1.298   7.168   9.497  1.00  0.00     0.000 A 
ENDBRANCH  64  77
ENDBRANCH  38  39
ENDBRANCH  30  33
ENDBRANCH  28  29
ENDBRANCH  27  28
ENDBRANCH   1  27
TORSDOF 14
