REMARK SMILES O=C(NCCCNC(=O)c1ccc(-c2c3nc(c(-c4ccccc4)c4ccc([nH]4)c(-c4ccccc4)c4nc(c(-c5ccccc5)c5ccc2[nH]5)C=C4)C=C3)cc1)C1=Cc2cc(S(F)(F)(F)(F)F)cc(Br)c2O[C@H]1C(F)(F)F
REMARK SMILES IDX 5 1 4 2 3 3 1 4 2 5 58 7 59 8 74 9 60 10 73 11 61 12 72 13
REMARK SMILES IDX 62 14 70 15 69 16 71 17 75 18 76 19 77 20 78 21 63 22 64 23
REMARK SMILES IDX 65 24 66 25 67 26 68 27 6 28 7 29 8 30 9 32 10 33 11 34
REMARK SMILES IDX 57 35 12 36 56 37 13 38 14 39 15 40 50 41 16 42 55 43 49 44
REMARK SMILES IDX 51 45 17 46 54 47 48 48 47 49 18 51 40 52 25 53 39 54 26 55
REMARK SMILES IDX 29 56 38 57 52 58 27 59 28 60 37 62 53 63 30 64 19 65 20 66
REMARK SMILES IDX 24 67 21 68 23 69 22 70 41 71 42 72 46 73 43 74 45 75 44 76
REMARK SMILES IDX 31 77 32 78 36 79 33 80 35 81 34 82
REMARK H PARENT 3 6 7 31 51 50 29 61
REMARK Flexibility Score: inf
ROOT
ATOM      1  C   UNL     1       5.052   0.153   2.281  1.00  0.00     0.042 C 
ENDROOT
BRANCH   1   2
ATOM      2  C   UNL     1       4.545  -0.626   1.077  1.00  0.00     0.118 C 
BRANCH   2   3
ATOM      3  N   UNL     1       3.075  -0.626   1.077  1.00  0.00    -0.352 N 
ATOM      4  O   UNL     1       1.069  -0.046  -0.056  1.00  0.00    -0.270 OA
ATOM      5  C   UNL     1       2.340  -0.046  -0.056  1.00  0.00     0.251 C 
ATOM      6  H   UNL     1       2.583  -1.014   1.836  1.00  0.00     0.163 HD
BRANCH   5   7
ATOM      7  C   UNL     1       3.100   0.554  -1.228  1.00  0.00     0.067 C 
ATOM      8  C   UNL     1       4.461   0.554  -1.228  1.00  0.00     0.025 C 
ATOM      9  C   UNL     1       2.340   1.154  -2.399  1.00  0.00     0.314 C 
ATOM     10  C   UNL     1       5.221  -0.046  -0.056  1.00  0.00     0.020 A 
ATOM     11  O   UNL     1       3.606  -1.783   0.095  1.00  0.00    -0.474 OA
ATOM     12  C   UNL     1       6.357   0.610   0.388  1.00  0.00     0.036 A 
ATOM     13  C   UNL     1       4.857  -1.216   0.455  1.00  0.00     0.142 A 
ATOM     14  C   UNL     1       7.211  -0.194   1.179  1.00  0.00     0.109 A 
ATOM     15  C   UNL     1       5.680  -1.884   1.329  1.00  0.00     0.062 A 
ATOM     16  C   UNL     1       6.848  -1.321   1.764  1.00  0.00     0.044 A 
ATOM     17  Br  UNL     1       5.174  -3.669   1.961  1.00  0.00    -0.047 Br
BRANCH   9  18
ATOM     18  C   UNL     1       0.846   1.028  -2.152  1.00  0.00     0.429 C 
ATOM     19  F   UNL     1       0.532   1.577  -0.983  1.00  0.00    -0.167 F 
ATOM     20  F   UNL     1       0.197   1.658  -3.127  1.00  0.00    -0.167 F 
ATOM     21  F   UNL     1       0.497  -0.256  -2.146  1.00  0.00    -0.167 F 
ENDBRANCH   9  18
BRANCH  14  22
ATOM     22  S   UNL     1       8.919   0.360   1.405  1.00  0.00     0.310 S 
ATOM     23  F   UNL     1       8.775   0.359   2.985  1.00  0.00    -0.094 F 
ATOM     24  F   UNL     1       8.401   1.847   1.427  1.00  0.00    -0.094 F 
ATOM     25  F   UNL     1      10.386   0.839   1.601  1.00  0.00    -0.094 F 
ATOM     26  F   UNL     1       9.402  -1.140   1.522  1.00  0.00    -0.094 F 
ATOM     27  F   UNL     1       7.423  -0.144   1.320  1.00  0.00    -0.094 F 
ENDBRANCH  14  22
ENDBRANCH   5   7
ENDBRANCH   2   3
ENDBRANCH   1   2
BRANCH   1  28
ATOM     28  C   UNL     1       4.545  -0.500   3.556  1.00  0.00     0.118 C 
BRANCH  28  29
ATOM     29  N   UNL     1       5.035  -1.885   3.626  1.00  0.00    -0.352 N 
ATOM     30  C   UNL     1       5.880  -2.309   4.752  1.00  0.00     0.251 C 
ATOM     31  H   UNL     1       4.797  -2.527   2.920  1.00  0.00     0.163 HD
ATOM     32  O   UNL     1       6.304  -3.506   4.812  1.00  0.00    -0.269 OA
BRANCH  30  33
ATOM     33  C   UNL     1       6.248  -1.317   5.843  1.00  0.00     0.039 A 
ATOM     34  C   UNL     1       7.508  -1.369   6.414  1.00  0.00     0.014 A 
ATOM     35  C   UNL     1       5.298  -0.531   6.339  1.00  0.00     0.014 A 
ATOM     36  C   UNL     1       7.584  -0.765   7.692  1.00  0.00     0.010 A 
ATOM     37  C   UNL     1       5.492   0.136   7.524  1.00  0.00     0.010 A 
ATOM     38  C   UNL     1       6.693   0.082   8.174  1.00  0.00    -0.014 A 
BRANCH  38  39
ATOM     39  C   UNL     1       6.988   0.951   9.386  1.00  0.00     0.031 A 
ATOM     40  C   UNL     1       6.152   0.782  10.491  1.00  0.00     0.074 A 
ATOM     41  C   UNL     1       8.130   1.733   9.391  1.00  0.00     0.049 A 
ATOM     42  N   UNL     1       6.307   1.292  11.714  1.00  0.00    -0.248 NA
ATOM     43  C   UNL     1       4.920  -0.021  10.478  1.00  0.00     0.031 C 
ATOM     44  C   UNL     1       8.983   1.901   8.283  1.00  0.00     0.029 A 
ATOM     45  N   UNL     1       8.641   2.475  10.433  1.00  0.00    -0.354 N 
ATOM     46  C   UNL     1       5.313   0.893  12.510  1.00  0.00     0.074 A 
ATOM     47  C   UNL     1       4.403   0.047  11.725  1.00  0.00     0.031 C 
ATOM     48  C   UNL     1       9.987   2.741   8.648  1.00  0.00     0.029 A 
ATOM     49  C   UNL     1       9.780   3.111   9.990  1.00  0.00     0.049 A 
ATOM     50  H   UNL     1       8.259   2.539  11.338  1.00  0.00     0.167 HD
ATOM     51  C   UNL     1       5.130   1.199  13.859  1.00  0.00     0.031 A 
ATOM     52  C   UNL     1      10.602   3.971  10.700  1.00  0.00     0.031 A 
ATOM     53  C   UNL     1       5.977   2.024  14.582  1.00  0.00     0.049 A 
ATOM     54  C   UNL     1      10.387   4.324  12.035  1.00  0.00     0.074 A 
ATOM     55  C   UNL     1       5.812   2.337  15.944  1.00  0.00     0.029 A 
ATOM     56  N   UNL     1       7.102   2.680  14.132  1.00  0.00    -0.354 N 
ATOM     57  N   UNL     1       9.416   3.893  12.841  1.00  0.00    -0.248 NA
ATOM     58  C   UNL     1      11.234   5.259  12.788  1.00  0.00     0.031 C 
ATOM     59  C   UNL     1       6.817   3.177  16.309  1.00  0.00     0.029 A 
ATOM     60  C   UNL     1       7.626   3.403  15.180  1.00  0.00     0.049 A 
ATOM     61  H   UNL     1       7.468   2.639  13.219  1.00  0.00     0.167 HD
ATOM     62  C   UNL     1       9.548   4.437  14.052  1.00  0.00     0.074 A 
ATOM     63  C   UNL     1      10.716   5.329  14.034  1.00  0.00     0.031 C 
ATOM     64  C   UNL     1       8.745   4.222  15.174  1.00  0.00     0.031 A 
BRANCH  51  65
ATOM     65  C   UNL     1       3.935   0.593  14.577  1.00  0.00    -0.014 A 
ATOM     66  C   UNL     1       3.776  -0.781  14.637  1.00  0.00     0.009 A 
ATOM     67  C   UNL     1       3.038   1.415  15.109  1.00  0.00     0.009 A 
ATOM     68  C   UNL     1       2.480  -1.192  15.032  1.00  0.00     0.001 A 
ATOM     69  C   UNL     1       1.850   0.929  15.600  1.00  0.00     0.001 A 
ATOM     70  C   UNL     1       1.600  -0.414  15.636  1.00  0.00     0.000 A 
ENDBRANCH  51  65
BRANCH  52  71
ATOM     71  C   UNL     1      11.807   4.563   9.987  1.00  0.00    -0.014 A 
ATOM     72  C   UNL     1      13.090   4.303  10.441  1.00  0.00     0.009 A 
ATOM     73  C   UNL     1      11.596   5.305   8.906  1.00  0.00     0.009 A 
ATOM     74  C   UNL     1      14.084   5.116   9.847  1.00  0.00     0.001 A 
ATOM     75  C   UNL     1      12.636   5.963   8.296  1.00  0.00     0.001 A 
ATOM     76  C   UNL     1      13.923   5.799   8.728  1.00  0.00     0.000 A 
ENDBRANCH  52  71
BRANCH  64  77
ATOM     77  C   UNL     1       9.120   4.928  16.466  1.00  0.00    -0.014 A 
ATOM     78  C   UNL     1       9.315   6.300  16.465  1.00  0.00     0.009 A 
ATOM     79  C   UNL     1       9.397   4.194  17.537  1.00  0.00     0.009 A 
ATOM     80  C   UNL     1      10.086   6.769  17.555  1.00  0.00     0.001 A 
ATOM     81  C   UNL     1      10.031   4.750  18.622  1.00  0.00     0.001 A 
ATOM     82  C   UNL     1      10.308   6.088  18.665  1.00  0.00     0.000 A 
ENDBRANCH  64  77
ENDBRANCH  38  39
ENDBRANCH  30  33
ENDBRANCH  28  29
ENDBRANCH   1  28
TORSDOF 12
