REMARK SMILES COCCNC(=O)Cn1ccc(C(=O)NCCCNC(=O)c2ccc(-c3c4nc(c(-c5ccccc5)c5ccc([nH]5)c(-c5ccccc5)c5nc(c(-c6ccccc6)c6ccc3[nH]6)C=C5)C=C4)cc2)c1
REMARK SMILES IDX 13 1 14 2 15 3 12 5 9 6 10 7 70 8 11 9 8 10 6 11 5 12 7 14
REMARK SMILES IDX 4 15 3 16 2 17 1 18 16 19 17 20 18 21 19 22 20 23 21 25
REMARK SMILES IDX 22 26 23 27 69 28 24 29 68 30 25 31 26 32 27 33 62 34 28 35
REMARK SMILES IDX 67 36 61 37 63 38 29 39 66 40 60 41 59 42 30 44 52 45 37 46
REMARK SMILES IDX 51 47 38 48 41 49 50 50 64 51 39 52 40 53 49 55 65 56 42 57
REMARK SMILES IDX 31 58 32 59 36 60 33 61 35 62 34 63 53 64 54 65 58 66 55 67
REMARK SMILES IDX 57 68 56 69 43 70 44 71 48 72 45 73 47 74 46 75
REMARK H PARENT 15 4 5 13 19 24 63 43 41 54
REMARK Flexibility Score: inf
ROOT
ATOM      1  C   UNL     1       4.787  -4.209   4.641  1.00  0.00     0.252 C 
ATOM      2  O   UNL     1       5.199  -3.338   5.399  1.00  0.00    -0.269 OA
ATOM      3  N   UNL     1       4.897  -5.505   5.082  1.00  0.00    -0.352 N 
ATOM      4  H   UNL     1       5.290  -5.588   5.981  1.00  0.00     0.163 HD
ENDROOT
BRANCH   1   5
ATOM      5  C   UNL     1       4.208  -3.863   3.338  1.00  0.00     0.057 A 
ATOM      6  N   UNL     1       3.123  -3.828   1.363  1.00  0.00    -0.344 N 
ATOM      7  C   UNL     1       3.554  -2.554   1.579  1.00  0.00     0.087 A 
ATOM      8  C   UNL     1       3.621  -4.642   2.358  1.00  0.00     0.100 A 
ATOM      9  C   UNL     1       4.151  -2.526   2.821  1.00  0.00     0.033 A 
BRANCH   6  10
ATOM     10  C   UNL     1       2.251  -4.331   0.310  1.00  0.00     0.221 C 
BRANCH  10  11
ATOM     11  C   UNL     1       1.622  -3.306  -0.600  1.00  0.00     0.239 C 
ATOM     12  N   UNL     1       0.610  -2.508  -0.160  1.00  0.00    -0.352 N 
ATOM     13  H   UNL     1       0.163  -1.988  -0.866  1.00  0.00     0.163 HD
ATOM     14  O   UNL     1       1.954  -3.219  -1.784  1.00  0.00    -0.273 OA
BRANCH  12  15
ATOM     15  C   UNL     1       0.077  -2.295   1.179  1.00  0.00     0.144 C 
BRANCH  15  16
ATOM     16  C   UNL     1       0.445  -0.925   1.771  1.00  0.00     0.181 C 
BRANCH  16  17
ATOM     17  O   UNL     1      -0.077   0.172   1.015  1.00  0.00    -0.383 OA
ATOM     18  C   UNL     1       0.764   0.593  -0.053  1.00  0.00     0.194 C 
ENDBRANCH  16  17
ENDBRANCH  15  16
ENDBRANCH  12  15
ENDBRANCH  10  11
ENDBRANCH   6  10
ENDBRANCH   1   5
BRANCH   3  19
ATOM     19  C   UNL     1       4.545  -6.771   4.479  1.00  0.00     0.118 C 
BRANCH  19  20
ATOM     20  C   UNL     1       5.633  -7.280   3.528  1.00  0.00     0.042 C 
BRANCH  20  21
ATOM     21  C   UNL     1       6.729  -8.035   4.282  1.00  0.00     0.118 C 
BRANCH  21  22
ATOM     22  N   UNL     1       6.203  -9.284   4.815  1.00  0.00    -0.352 N 
ATOM     23  C   UNL     1       6.757 -10.244   5.615  1.00  0.00     0.251 C 
ATOM     24  H   UNL     1       5.274  -9.473   4.550  1.00  0.00     0.163 HD
ATOM     25  O   UNL     1       6.191 -11.333   5.691  1.00  0.00    -0.269 OA
BRANCH  23  26
ATOM     26  C   UNL     1       8.011 -10.033   6.364  1.00  0.00     0.039 A 
ATOM     27  C   UNL     1       8.857 -11.140   6.514  1.00  0.00     0.014 A 
ATOM     28  C   UNL     1       8.327  -8.822   6.991  1.00  0.00     0.014 A 
ATOM     29  C   UNL     1      10.042 -11.020   7.230  1.00  0.00     0.010 A 
ATOM     30  C   UNL     1       9.525  -8.688   7.687  1.00  0.00     0.010 A 
ATOM     31  C   UNL     1      10.390  -9.782   7.786  1.00  0.00    -0.014 A 
BRANCH  31  32
ATOM     32  C   UNL     1      11.776  -9.606   8.270  1.00  0.00     0.031 A 
ATOM     33  C   UNL     1      12.750  -9.424   7.089  1.00  0.00     0.074 A 
ATOM     34  C   UNL     1      11.987  -9.689   9.618  1.00  0.00     0.049 A 
ATOM     35  N   UNL     1      14.009  -9.718   6.998  1.00  0.00    -0.248 NA
ATOM     36  C   UNL     1      12.235  -8.893   5.794  1.00  0.00     0.031 C 
ATOM     37  C   UNL     1      10.913  -9.796  10.633  1.00  0.00     0.029 A 
ATOM     38  N   UNL     1      13.114  -9.707  10.417  1.00  0.00    -0.354 N 
ATOM     39  C   UNL     1      14.467  -9.286   5.731  1.00  0.00     0.074 A 
ATOM     40  C   UNL     1      13.310  -8.867   5.003  1.00  0.00     0.031 C 
ATOM     41  C   UNL     1      11.430  -9.950  11.872  1.00  0.00     0.029 A 
ATOM     42  C   UNL     1      12.878  -9.959  11.795  1.00  0.00     0.049 A 
ATOM     43  H   UNL     1      14.018  -9.556  10.056  1.00  0.00     0.167 HD
ATOM     44  C   UNL     1      15.791  -9.182   5.413  1.00  0.00     0.031 A 
ATOM     45  C   UNL     1      13.778 -10.214  12.796  1.00  0.00     0.031 A 
ATOM     46  C   UNL     1      16.587  -9.703   6.470  1.00  0.00     0.049 A 
ATOM     47  C   UNL     1      15.106 -10.026  12.199  1.00  0.00     0.074 A 
ATOM     48  C   UNL     1      16.791 -10.973   6.941  1.00  0.00     0.029 A 
ATOM     49  N   UNL     1      16.983  -8.797   7.422  1.00  0.00    -0.354 N 
ATOM     50  N   UNL     1      15.639  -8.878  11.916  1.00  0.00    -0.248 NA
ATOM     51  C   UNL     1      15.885 -11.213  11.824  1.00  0.00     0.031 C 
ATOM     52  C   UNL     1      16.808 -10.791   8.340  1.00  0.00     0.029 A 
ATOM     53  C   UNL     1      16.855  -9.424   8.633  1.00  0.00     0.049 A 
ATOM     54  H   UNL     1      17.297  -7.877   7.265  1.00  0.00     0.167 HD
ATOM     55  C   UNL     1      16.589  -9.228  10.991  1.00  0.00     0.074 A 
ATOM     56  C   UNL     1      16.918 -10.616  11.236  1.00  0.00     0.031 C 
ATOM     57  C   UNL     1      16.612  -8.599   9.789  1.00  0.00     0.031 A 
BRANCH  44  58
ATOM     58  C   UNL     1      16.502  -8.401   4.340  1.00  0.00    -0.014 A 
ATOM     59  C   UNL     1      17.899  -8.608   4.206  1.00  0.00     0.009 A 
ATOM     60  C   UNL     1      15.965  -7.268   3.723  1.00  0.00     0.009 A 
ATOM     61  C   UNL     1      18.735  -7.660   3.613  1.00  0.00     0.001 A 
ATOM     62  C   UNL     1      16.801  -6.335   3.088  1.00  0.00     0.001 A 
ATOM     63  C   UNL     1      18.184  -6.510   3.071  1.00  0.00     0.000 A 
ENDBRANCH  44  58
BRANCH  45  64
ATOM     64  C   UNL     1      13.777 -10.694  14.228  1.00  0.00    -0.014 A 
ATOM     65  C   UNL     1      12.665 -10.808  15.064  1.00  0.00     0.009 A 
ATOM     66  C   UNL     1      15.009 -11.130  14.798  1.00  0.00     0.009 A 
ATOM     67  C   UNL     1      12.771 -11.406  16.342  1.00  0.00     0.001 A 
ATOM     68  C   UNL     1      15.114 -11.763  16.039  1.00  0.00     0.001 A 
ATOM     69  C   UNL     1      13.983 -11.915  16.812  1.00  0.00     0.000 A 
ENDBRANCH  45  64
BRANCH  57  70
ATOM     70  C   UNL     1      15.974  -7.220   9.763  1.00  0.00    -0.014 A 
ATOM     71  C   UNL     1      16.498  -6.198  10.570  1.00  0.00     0.009 A 
ATOM     72  C   UNL     1      14.800  -6.930   9.043  1.00  0.00     0.009 A 
ATOM     73  C   UNL     1      15.871  -4.949  10.667  1.00  0.00     0.001 A 
ATOM     74  C   UNL     1      14.168  -5.680   9.138  1.00  0.00     0.001 A 
ATOM     75  C   UNL     1      14.704  -4.689   9.953  1.00  0.00     0.000 A 
ENDBRANCH  57  70
ENDBRANCH  31  32
ENDBRANCH  23  26
ENDBRANCH  21  22
ENDBRANCH  20  21
ENDBRANCH  19  20
ENDBRANCH   3  19
TORSDOF 15
