REMARK SMILES COc1cccc([C@@H]2CC(c3cccc(C)c3)=NN2C(=O)CCC(=O)NCCCNC(=O)c2ccc(-c3c4nc(c(-c5ccccc5)c5ccc([nH]5)c(-c5ccccc5)c5nc(c(-c6ccccc6)c6ccc3[nH]6)C=C5)C=C4)cc2)c1
REMARK SMILES IDX 24 1 25 2 26 3 23 5 22 6 20 7 21 8 19 9 8 10 9 11 10 12
REMARK SMILES IDX 18 13 7 14 3 15 4 16 81 17 5 18 6 19 2 20 1 21 11 22 12 23
REMARK SMILES IDX 17 24 13 25 15 26 14 27 16 28 27 29 28 30 29 31 30 32 31 33
REMARK SMILES IDX 32 35 33 36 34 37 80 38 35 39 79 40 36 41 37 42 38 43 73 44
REMARK SMILES IDX 39 45 78 46 72 47 74 48 40 49 77 50 71 51 70 52 41 54 63 55
REMARK SMILES IDX 48 56 62 57 49 58 52 59 61 60 75 61 50 62 51 63 60 65 76 66
REMARK SMILES IDX 53 67 42 68 43 69 47 70 44 71 46 72 45 73 64 74 65 75 69 76
REMARK SMILES IDX 66 77 68 78 67 79 54 80 55 81 59 82 56 83 58 84 57 85
REMARK H PARENT 26 4 30 34 74 53 52 64
REMARK Flexibility Score: inf
ROOT
ATOM      1  C   UNL     1       2.357   2.666   1.699  1.00  0.00     0.220 C 
ATOM      2  O   UNL     1       1.506   1.899   2.159  1.00  0.00    -0.275 OA
ATOM      3  N   UNL     1       3.378   2.146   0.954  1.00  0.00    -0.356 N 
ATOM      4  H   UNL     1       3.499   1.173   1.049  1.00  0.00     0.163 HD
ENDROOT
BRANCH   1   5
ATOM      5  C   UNL     1       2.328   4.136   2.076  1.00  0.00     0.110 C 
BRANCH   5   6
ATOM      6  C   UNL     1       3.036   4.433   3.401  1.00  0.00     0.112 C 
BRANCH   6   7
ATOM      7  C   UNL     1       4.345   3.699   3.527  1.00  0.00     0.243 C 
ATOM      8  O   UNL     1       5.399   4.298   3.294  1.00  0.00    -0.273 OA
BRANCH   7   9
ATOM      9  N   UNL     1       4.271   2.341   3.780  1.00  0.00    -0.225 N 
ATOM     10  C   UNL     1       3.428   1.611   4.731  1.00  0.00     0.147 C 
ATOM     11  C   UNL     1       3.870   0.143   4.604  1.00  0.00     0.091 C 
ATOM     12  C   UNL     1       4.975   0.338   3.629  1.00  0.00     0.071 C 
ATOM     13  N   UNL     1       5.199   1.547   3.238  1.00  0.00    -0.174 NA
BRANCH  10  14
ATOM     14  C   UNL     1       3.652   2.254   6.083  1.00  0.00    -0.019 A 
ATOM     15  C   UNL     1       2.708   3.764   7.725  1.00  0.00     0.119 A 
ATOM     16  C   UNL     1       3.994   4.061   8.179  1.00  0.00     0.046 A 
ATOM     17  C   UNL     1       2.545   2.848   6.692  1.00  0.00     0.052 A 
ATOM     18  C   UNL     1       5.108   3.429   7.621  1.00  0.00     0.004 A 
ATOM     19  C   UNL     1       4.939   2.519   6.581  1.00  0.00     0.006 A 
BRANCH  15  20
ATOM     20  O   UNL     1       1.681   4.458   8.303  1.00  0.00    -0.497 OA
ATOM     21  C   UNL     1       0.371   4.064   7.896  1.00  0.00     0.278 C 
ENDBRANCH  15  20
ENDBRANCH  10  14
BRANCH  12  22
ATOM     22  C   UNL     1       5.960  -0.655   3.256  1.00  0.00    -0.002 A 
ATOM     23  C   UNL     1       7.537   0.088   3.435  1.00  0.00     0.010 A 
ATOM     24  C   UNL     1       5.686  -2.293   2.620  1.00  0.00     0.013 A 
ATOM     25  C   UNL     1       8.949  -0.837   2.938  1.00  0.00     0.001 A 
ATOM     26  C   UNL     1       7.026  -3.350   2.099  1.00  0.00    -0.050 A 
ATOM     27  C   UNL     1       8.715  -2.718   2.251  1.00  0.00     0.003 A 
ATOM     28  C   UNL     1       6.765  -4.570   1.269  1.00  0.00     0.044 C 
ENDBRANCH  12  22
ENDBRANCH   7   9
ENDBRANCH   6   7
ENDBRANCH   5   6
ENDBRANCH   1   5
BRANCH   3  29
ATOM     29  C   UNL     1       4.317   2.784   0.046  1.00  0.00     0.117 C 
BRANCH  29  30
ATOM     30  C   UNL     1       5.814   2.857   0.392  1.00  0.00     0.042 C 
BRANCH  30  31
ATOM     31  C   UNL     1       6.685   1.619   0.669  1.00  0.00     0.118 C 
BRANCH  31  32
ATOM     32  N   UNL     1       6.158   0.340   0.250  1.00  0.00    -0.352 N 
ATOM     33  C   UNL     1       6.503  -0.949   0.603  1.00  0.00     0.251 C 
ATOM     34  H   UNL     1       5.423   0.399  -0.402  1.00  0.00     0.163 HD
ATOM     35  O   UNL     1       6.031  -1.841  -0.106  1.00  0.00    -0.269 OA
BRANCH  33  36
ATOM     36  C   UNL     1       7.560  -1.288   1.721  1.00  0.00     0.039 A 
ATOM     37  C   UNL     1       9.129  -1.168   0.833  1.00  0.00     0.014 A 
ATOM     38  C   UNL     1       7.636  -2.011   3.613  1.00  0.00     0.014 A 
ATOM     39  C   UNL     1      10.617  -1.634   1.662  1.00  0.00     0.010 A 
ATOM     40  C   UNL     1       9.229  -2.397   4.338  1.00  0.00     0.010 A 
ATOM     41  C   UNL     1      10.684  -2.166   3.362  1.00  0.00    -0.014 A 
BRANCH  41  42
ATOM     42  C   UNL     1      11.973  -1.982   4.136  1.00  0.00     0.031 A 
ATOM     43  C   UNL     1      12.313  -2.942   5.249  1.00  0.00     0.074 A 
ATOM     44  C   UNL     1      12.710  -0.846   4.020  1.00  0.00     0.049 A 
ATOM     45  N   UNL     1      13.258  -2.867   6.153  1.00  0.00    -0.248 NA
ATOM     46  C   UNL     1      11.416  -4.095   5.423  1.00  0.00     0.031 C 
ATOM     47  C   UNL     1      12.453   0.287   3.124  1.00  0.00     0.029 A 
ATOM     48  N   UNL     1      13.841  -0.435   4.701  1.00  0.00    -0.354 N 
ATOM     49  C   UNL     1      13.030  -3.932   7.016  1.00  0.00     0.074 A 
ATOM     50  C   UNL     1      11.776  -4.529   6.619  1.00  0.00     0.031 C 
ATOM     51  C   UNL     1      13.395   1.227   3.279  1.00  0.00     0.029 A 
ATOM     52  C   UNL     1      14.328   0.793   4.300  1.00  0.00     0.049 A 
ATOM     53  H   UNL     1      14.262  -0.971   5.410  1.00  0.00     0.167 HD
ATOM     54  C   UNL     1      13.821  -4.432   7.995  1.00  0.00     0.031 A 
ATOM     55  C   UNL     1      15.408   1.502   4.684  1.00  0.00     0.031 A 
ATOM     56  C   UNL     1      15.090  -3.867   8.358  1.00  0.00     0.049 A 
ATOM     57  C   UNL     1      16.316   0.919   5.728  1.00  0.00     0.074 A 
ATOM     58  C   UNL     1      16.033  -4.351   9.246  1.00  0.00     0.029 A 
ATOM     59  N   UNL     1      15.592  -2.680   7.844  1.00  0.00    -0.354 N 
ATOM     60  N   UNL     1      16.172  -0.187   6.416  1.00  0.00    -0.248 NA
ATOM     61  C   UNL     1      17.547   1.661   6.027  1.00  0.00     0.031 C 
ATOM     62  C   UNL     1      17.075  -3.421   9.319  1.00  0.00     0.029 A 
ATOM     63  C   UNL     1      16.819  -2.400   8.418  1.00  0.00     0.049 A 
ATOM     64  H   UNL     1      15.141  -2.121   7.170  1.00  0.00     0.167 HD
ATOM     65  C   UNL     1      17.308  -0.291   7.206  1.00  0.00     0.074 A 
ATOM     66  C   UNL     1      18.139   0.855   6.897  1.00  0.00     0.031 C 
ATOM     67  C   UNL     1      17.634  -1.254   8.103  1.00  0.00     0.031 A 
BRANCH  54  68
ATOM     68  C   UNL     1      13.328  -5.671   8.701  1.00  0.00    -0.014 A 
ATOM     69  C   UNL     1      13.103  -6.869   7.995  1.00  0.00     0.009 A 
ATOM     70  C   UNL     1      13.032  -5.635  10.070  1.00  0.00     0.009 A 
ATOM     71  C   UNL     1      12.495  -7.960   8.617  1.00  0.00     0.001 A 
ATOM     72  C   UNL     1      12.472  -6.747  10.704  1.00  0.00     0.001 A 
ATOM     73  C   UNL     1      12.179  -7.897   9.971  1.00  0.00     0.000 A 
ENDBRANCH  54  68
BRANCH  55  74
ATOM     74  C   UNL     1      15.733   2.806   4.030  1.00  0.00    -0.014 A 
ATOM     75  C   UNL     1      16.829   2.915   3.156  1.00  0.00     0.009 A 
ATOM     76  C   UNL     1      14.951   3.948   4.266  1.00  0.00     0.009 A 
ATOM     77  C   UNL     1      17.154   4.140   2.565  1.00  0.00     0.001 A 
ATOM     78  C   UNL     1      15.259   5.165   3.647  1.00  0.00     0.001 A 
ATOM     79  C   UNL     1      16.366   5.263   2.806  1.00  0.00     0.000 A 
ENDBRANCH  55  74
BRANCH  67  80
ATOM     80  C   UNL     1      18.963  -1.137   8.792  1.00  0.00    -0.014 A 
ATOM     81  C   UNL     1      19.213  -0.136   9.743  1.00  0.00     0.009 A 
ATOM     82  C   UNL     1      19.958  -2.093   8.532  1.00  0.00     0.009 A 
ATOM     83  C   UNL     1      20.444  -0.081  10.400  1.00  0.00     0.001 A 
ATOM     84  C   UNL     1      21.171  -2.059   9.218  1.00  0.00     0.001 A 
ATOM     85  C   UNL     1      21.417  -1.047  10.144  1.00  0.00     0.000 A 
ENDBRANCH  67  80
ENDBRANCH  41  42
ENDBRANCH  33  36
ENDBRANCH  31  32
ENDBRANCH  30  31
ENDBRANCH  29  30
ENDBRANCH   3  29
TORSDOF 16
