REMARK SMILES CCn1c(CC2CC[NH+](Cc3cn[nH]c3C(=O)NCCCNC(=O)c3ccc(-c4c5nc(c(-c6ccccc6)c6ccc([nH]6)c(-c6ccccc6)c6nc(c(-c7ccccc7)c7ccc4[nH]7)C=C6)C=C5)cc3)CC2)nn(C)c1=O
REMARK SMILES IDX 16 1 17 2 18 3 15 5 11 6 12 7 13 8 14 9 10 11 9 12 6 13 7 14
REMARK SMILES IDX 74 15 8 16 73 17 5 19 4 20 3 21 78 22 75 23 76 24 79 25
REMARK SMILES IDX 77 26 2 27 1 28 19 29 20 30 21 31 22 32 23 33 24 35 25 36
REMARK SMILES IDX 26 37 72 38 27 39 71 40 28 41 29 42 30 43 65 44 31 45 70 46
REMARK SMILES IDX 64 47 66 48 32 49 69 50 63 51 62 52 33 54 55 55 40 56 54 57
REMARK SMILES IDX 41 58 44 59 53 60 67 61 42 62 43 63 52 65 68 66 45 67 34 68
REMARK SMILES IDX 35 69 39 70 36 71 38 72 37 73 56 74 57 75 61 76 58 77 60 78
REMARK SMILES IDX 59 79 46 80 47 81 51 82 48 83 50 84 49 85
REMARK H PARENT 18 4 14 10 9 18 22 34 66 53 44 64
REMARK Flexibility Score: inf
ROOT
ATOM      1  C   UNL     1      -2.930  -3.919   1.381  1.00  0.00     0.269 C 
ATOM      2  O   UNL     1      -3.172  -3.466   0.261  1.00  0.00    -0.268 OA
ATOM      3  N   UNL     1      -3.968  -3.906   2.276  1.00  0.00    -0.351 N 
ATOM      4  H   UNL     1      -4.826  -3.588   1.913  1.00  0.00     0.163 HD
ENDROOT
BRANCH   1   5
ATOM      5  C   UNL     1      -1.677  -4.576   1.667  1.00  0.00     0.131 A 
ATOM      6  C   UNL     1      -0.772  -4.745   2.721  1.00  0.00     0.057 A 
ATOM      7  C   UNL     1       0.080  -5.777   2.254  1.00  0.00     0.145 A 
ATOM      8  N   UNL     1      -0.147  -6.127   0.996  1.00  0.00    -0.183 NA
ATOM      9  N   UNL     1      -1.102  -5.269   0.620  1.00  0.00    -0.272 N 
ATOM     10  H   UNL     1      -1.371  -5.144  -0.319  1.00  0.00     0.190 HD
BRANCH   6  11
ATOM     11  C   UNL     1      -0.637  -4.233   4.117  1.00  0.00     0.303 C 
BRANCH  11  12
ATOM     12  N   UNL     1      -0.046  -2.897   4.327  1.00  0.00    -0.331 N 
ATOM     13  C   UNL     1       1.908  -0.720   3.803  1.00  0.00     0.008 C 
ATOM     14  C   UNL     1       2.119  -1.730   4.930  1.00  0.00     0.065 C 
ATOM     15  C   UNL     1       0.407  -0.550   3.606  1.00  0.00     0.065 C 
ATOM     16  C   UNL     1       1.357  -3.037   4.735  1.00  0.00     0.262 C 
ATOM     17  C   UNL     1      -0.296  -1.875   3.315  1.00  0.00     0.262 C 
ATOM     18  H   UNL     1      -0.575  -2.482   5.094  1.00  0.00     0.348 HD
BRANCH  13  19
ATOM     19  C   UNL     1       2.732  -0.965   2.520  1.00  0.00     0.081 C 
BRANCH  19  20
ATOM     20  C   UNL     1       2.516  -2.197   1.665  1.00  0.00     0.133 A 
ATOM     21  N   UNL     1       1.801  -2.250   0.521  1.00  0.00    -0.279 N 
ATOM     22  C   UNL     1       1.933  -3.553   0.067  1.00  0.00     0.345 A 
ATOM     23  N   UNL     1       3.110  -3.317   1.982  1.00  0.00    -0.155 NA
ATOM     24  N   UNL     1       2.748  -4.189   0.994  1.00  0.00    -0.216 N 
ATOM     25  O   UNL     1       1.430  -4.028  -0.941  1.00  0.00    -0.246 OA
ATOM     26  C   UNL     1       3.157  -5.568   0.973  1.00  0.00     0.179 C 
BRANCH  21  27
ATOM     27  C   UNL     1       0.892  -1.356  -0.190  1.00  0.00     0.125 C 
ATOM     28  C   UNL     1       1.172   0.129  -0.138  1.00  0.00     0.028 C 
ENDBRANCH  21  27
ENDBRANCH  19  20
ENDBRANCH  13  19
ENDBRANCH  11  12
ENDBRANCH   6  11
ENDBRANCH   1   5
BRANCH   3  29
ATOM     29  C   UNL     1      -3.999  -4.285   3.674  1.00  0.00     0.118 C 
BRANCH  29  30
ATOM     30  C   UNL     1      -3.526  -3.117   4.539  1.00  0.00     0.042 C 
BRANCH  30  31
ATOM     31  C   UNL     1      -4.596  -2.167   4.976  1.00  0.00     0.118 C 
BRANCH  31  32
ATOM     32  N   UNL     1      -5.374  -2.756   6.064  1.00  0.00    -0.352 N 
ATOM     33  C   UNL     1      -6.574  -2.321   6.594  1.00  0.00     0.251 C 
ATOM     34  H   UNL     1      -4.994  -3.567   6.472  1.00  0.00     0.163 HD
ATOM     35  O   UNL     1      -6.929  -2.636   7.710  1.00  0.00    -0.269 OA
BRANCH  33  36
ATOM     36  C   UNL     1      -7.389  -1.447   5.738  1.00  0.00     0.039 A 
ATOM     37  C   UNL     1      -7.991  -0.292   6.228  1.00  0.00     0.014 A 
ATOM     38  C   UNL     1      -7.367  -1.735   4.381  1.00  0.00     0.014 A 
ATOM     39  C   UNL     1      -8.500   0.608   5.301  1.00  0.00     0.010 A 
ATOM     40  C   UNL     1      -7.535  -0.705   3.508  1.00  0.00     0.010 A 
ATOM     41  C   UNL     1      -8.228   0.407   3.934  1.00  0.00    -0.014 A 
BRANCH  41  42
ATOM     42  C   UNL     1      -8.586   1.376   2.916  1.00  0.00     0.031 A 
ATOM     43  C   UNL     1      -8.240   2.764   3.273  1.00  0.00     0.074 A 
ATOM     44  C   UNL     1      -9.083   1.059   1.700  1.00  0.00     0.049 A 
ATOM     45  N   UNL     1      -9.039   3.619   3.811  1.00  0.00    -0.248 NA
ATOM     46  C   UNL     1      -6.835   3.188   3.231  1.00  0.00     0.031 C 
ATOM     47  C   UNL     1      -9.223  -0.249   1.045  1.00  0.00     0.029 A 
ATOM     48  N   UNL     1      -9.537   1.910   0.746  1.00  0.00    -0.354 N 
ATOM     49  C   UNL     1      -8.302   4.779   3.964  1.00  0.00     0.074 A 
ATOM     50  C   UNL     1      -6.920   4.399   3.789  1.00  0.00     0.031 C 
ATOM     51  C   UNL     1      -9.529  -0.080  -0.262  1.00  0.00     0.029 A 
ATOM     52  C   UNL     1      -9.803   1.325  -0.484  1.00  0.00     0.049 A 
ATOM     53  H   UNL     1      -9.668   2.871   0.914  1.00  0.00     0.167 HD
ATOM     54  C   UNL     1      -8.924   5.989   3.945  1.00  0.00     0.031 A 
ATOM     55  C   UNL     1     -10.248   1.960  -1.596  1.00  0.00     0.031 A 
ATOM     56  C   UNL     1     -10.358   5.843   4.073  1.00  0.00     0.049 A 
ATOM     57  C   UNL     1     -10.904   3.209  -1.143  1.00  0.00     0.074 A 
ATOM     58  C   UNL     1     -11.193   5.291   5.026  1.00  0.00     0.029 A 
ATOM     59  N   UNL     1     -11.093   5.885   2.909  1.00  0.00    -0.354 N 
ATOM     60  N   UNL     1     -12.006   3.218  -0.449  1.00  0.00    -0.248 NA
ATOM     61  C   UNL     1     -10.092   4.410  -1.043  1.00  0.00     0.031 C 
ATOM     62  C   UNL     1     -12.189   4.590   4.281  1.00  0.00     0.029 A 
ATOM     63  C   UNL     1     -11.969   4.827   2.922  1.00  0.00     0.049 A 
ATOM     64  H   UNL     1     -11.006   6.555   2.194  1.00  0.00     0.167 HD
ATOM     65  C   UNL     1     -11.807   4.199   0.512  1.00  0.00     0.074 A 
ATOM     66  C   UNL     1     -10.656   4.965   0.034  1.00  0.00     0.031 C 
ATOM     67  C   UNL     1     -12.410   4.122   1.736  1.00  0.00     0.031 A 
BRANCH  54  68
ATOM     68  C   UNL     1      -8.293   7.227   3.369  1.00  0.00    -0.014 A 
ATOM     69  C   UNL     1      -9.012   8.433   3.424  1.00  0.00     0.009 A 
ATOM     70  C   UNL     1      -7.155   7.204   2.540  1.00  0.00     0.009 A 
ATOM     71  C   UNL     1      -8.651   9.529   2.632  1.00  0.00     0.001 A 
ATOM     72  C   UNL     1      -6.769   8.308   1.779  1.00  0.00     0.001 A 
ATOM     73  C   UNL     1      -7.535   9.463   1.804  1.00  0.00     0.000 A 
ENDBRANCH  54  68
BRANCH  55  74
ATOM     74  C   UNL     1      -9.905   1.718  -3.012  1.00  0.00    -0.014 A 
ATOM     75  C   UNL     1     -10.675   2.283  -4.041  1.00  0.00     0.009 A 
ATOM     76  C   UNL     1      -8.644   1.194  -3.348  1.00  0.00     0.009 A 
ATOM     77  C   UNL     1     -10.177   2.372  -5.348  1.00  0.00     0.001 A 
ATOM     78  C   UNL     1      -8.146   1.284  -4.653  1.00  0.00     0.001 A 
ATOM     79  C   UNL     1      -8.905   1.890  -5.649  1.00  0.00     0.000 A 
ENDBRANCH  55  74
BRANCH  67  80
ATOM     80  C   UNL     1     -13.475   3.062   1.931  1.00  0.00    -0.014 A 
ATOM     81  C   UNL     1     -13.234   1.681   1.802  1.00  0.00     0.009 A 
ATOM     82  C   UNL     1     -14.734   3.470   2.394  1.00  0.00     0.009 A 
ATOM     83  C   UNL     1     -14.234   0.745   2.095  1.00  0.00     0.001 A 
ATOM     84  C   UNL     1     -15.725   2.536   2.707  1.00  0.00     0.001 A 
ATOM     85  C   UNL     1     -15.478   1.174   2.551  1.00  0.00     0.000 A 
ENDBRANCH  67  80
ENDBRANCH  41  42
ENDBRANCH  33  36
ENDBRANCH  31  32
ENDBRANCH  30  31
ENDBRANCH  29  30
ENDBRANCH   3  29
TORSDOF 15
