REMARK SMILES Cc1cc(Br)ccc1NS(=O)(=O)c1ccc(C(=O)NCCCNC(=O)c2ccc(-c3c4nc(c(-c5ccccc5)c5ccc([nH]5)c(-c5ccccc5)c5nc(c(-c6ccccc6)c6ccc3[nH]6)C=C5)C=C4)cc2)cc1
REMARK SMILES IDX 20 1 19 2 17 3 18 4 16 6 13 7 14 8 75 9 15 10 74 11 10 12
REMARK SMILES IDX 11 13 12 14 9 15 8 17 1 18 2 19 3 20 4 21 7 22 5 23 6 24
REMARK SMILES IDX 21 25 22 26 23 27 24 28 25 30 26 31 27 32 73 33 28 34 72 35
REMARK SMILES IDX 29 36 30 37 31 38 66 39 32 40 71 41 65 42 67 43 33 44 70 45
REMARK SMILES IDX 64 46 63 47 34 49 56 50 41 51 55 52 42 53 45 54 54 55 68 56
REMARK SMILES IDX 43 57 44 58 53 60 69 61 46 62 35 63 36 64 40 65 37 66 39 67
REMARK SMILES IDX 38 68 57 69 58 70 62 71 59 72 61 73 60 74 47 75 48 76 52 77
REMARK SMILES IDX 49 78 51 79 50 80
REMARK H PARENT 19 5 9 16 23 29 67 48 45 59
REMARK Flexibility Score: inf
ROOT
ATOM      1  C   UNL     1      -1.505   8.564  -0.566  1.00  0.00     0.118 C 
ENDROOT
BRANCH   1   2
ATOM      2  N   UNL     1      -0.361   7.808  -0.093  1.00  0.00    -0.352 N 
ATOM      3  C   UNL     1      -0.254   6.478   0.199  1.00  0.00     0.251 C 
ATOM      4  O   UNL     1       0.823   6.014   0.562  1.00  0.00    -0.269 OA
ATOM      5  H   UNL     1       0.462   8.333   0.039  1.00  0.00     0.163 HD
BRANCH   3   6
ATOM      6  C   UNL     1      -1.406   5.571   0.025  1.00  0.00     0.039 A 
ATOM      7  C   UNL     1      -3.414   3.650  -0.194  1.00  0.00     0.087 A 
ATOM      8  C   UNL     1      -2.233   3.510  -0.931  1.00  0.00     0.023 A 
ATOM      9  C   UNL     1      -3.637   4.804   0.571  1.00  0.00     0.023 A 
ATOM     10  C   UNL     1      -1.211   4.445  -0.781  1.00  0.00     0.015 A 
ATOM     11  C   UNL     1      -2.626   5.765   0.684  1.00  0.00     0.015 A 
BRANCH   7  12
ATOM     12  S   UNL     1      -4.643   2.367  -0.269  1.00  0.00     0.261 S 
ATOM     13  O   UNL     1      -4.729   1.934  -1.653  1.00  0.00    -0.201 OA
ATOM     14  O   UNL     1      -5.822   2.855   0.409  1.00  0.00    -0.201 OA
BRANCH  12  15
ATOM     15  N   UNL     1      -4.109   1.023   0.653  1.00  0.00    -0.279 N 
ATOM     16  H   UNL     1      -4.732   0.589   1.280  1.00  0.00     0.180 HD
BRANCH  15  17
ATOM     17  C   UNL     1      -2.766   0.517   0.529  1.00  0.00     0.052 A 
ATOM     18  C   UNL     1      -3.479  -1.823  -0.300  1.00  0.00     0.046 C 
ATOM     19  C   UNL     1      -2.464  -0.754   0.002  1.00  0.00    -0.026 A 
ATOM     20  C   UNL     1      -1.108  -1.131  -0.129  1.00  0.00     0.021 A 
ATOM     21  C   UNL     1      -0.083  -0.284   0.287  1.00  0.00     0.018 A 
ATOM     22  C   UNL     1      -1.725   1.292   1.053  1.00  0.00     0.028 A 
ATOM     23  Br  UNL     1       1.720  -0.797   0.064  1.00  0.00    -0.051 Br
ATOM     24  C   UNL     1      -0.388   0.919   0.903  1.00  0.00     0.018 A 
ENDBRANCH  15  17
ENDBRANCH  12  15
ENDBRANCH   7  12
ENDBRANCH   3   6
ENDBRANCH   1   2
BRANCH   1  25
ATOM     25  C   UNL     1      -2.026   9.493   0.524  1.00  0.00     0.042 C 
BRANCH  25  26
ATOM     26  C   UNL     1      -1.067  10.636   0.845  1.00  0.00     0.118 C 
BRANCH  26  27
ATOM     27  N   UNL     1      -0.920  11.549  -0.279  1.00  0.00    -0.352 N 
ATOM     28  C   UNL     1      -1.181  12.891  -0.358  1.00  0.00     0.251 C 
ATOM     29  H   UNL     1      -0.581  11.140  -1.108  1.00  0.00     0.163 HD
ATOM     30  O   UNL     1      -1.251  13.432  -1.457  1.00  0.00    -0.269 OA
BRANCH  28  31
ATOM     31  C   UNL     1      -1.373  13.690   0.870  1.00  0.00     0.039 A 
ATOM     32  C   UNL     1      -2.321  14.716   0.862  1.00  0.00     0.014 A 
ATOM     33  C   UNL     1      -0.585  13.473   2.004  1.00  0.00     0.014 A 
ATOM     34  C   UNL     1      -2.495  15.505   1.998  1.00  0.00     0.010 A 
ATOM     35  C   UNL     1      -0.820  14.203   3.165  1.00  0.00     0.010 A 
ATOM     36  C   UNL     1      -1.759  15.242   3.166  1.00  0.00    -0.014 A 
BRANCH  36  37
ATOM     37  C   UNL     1      -1.947  16.068   4.383  1.00  0.00     0.031 A 
ATOM     38  C   UNL     1      -0.816  16.911   4.909  1.00  0.00     0.074 A 
ATOM     39  C   UNL     1      -3.127  16.034   5.030  1.00  0.00     0.049 A 
ATOM     40  N   UNL     1      -0.792  17.699   5.954  1.00  0.00    -0.248 NA
ATOM     41  C   UNL     1       0.462  16.841   4.183  1.00  0.00     0.031 C 
ATOM     42  C   UNL     1      -4.283  15.223   4.641  1.00  0.00     0.029 A 
ATOM     43  N   UNL     1      -3.552  16.703   6.149  1.00  0.00    -0.354 N 
ATOM     44  C   UNL     1       0.500  18.206   6.016  1.00  0.00     0.074 A 
ATOM     45  C   UNL     1       1.247  17.592   4.941  1.00  0.00     0.031 C 
ATOM     46  C   UNL     1      -5.298  15.474   5.482  1.00  0.00     0.029 A 
ATOM     47  C   UNL     1      -4.854  16.429   6.491  1.00  0.00     0.049 A 
ATOM     48  H   UNL     1      -2.978  17.320   6.658  1.00  0.00     0.167 HD
ATOM     49  C   UNL     1       1.014  19.117   6.875  1.00  0.00     0.031 A 
ATOM     50  C   UNL     1      -5.606  16.899   7.503  1.00  0.00     0.031 A 
ATOM     51  C   UNL     1       0.266  19.729   7.941  1.00  0.00     0.049 A 
ATOM     52  C   UNL     1      -5.010  17.905   8.447  1.00  0.00     0.074 A 
ATOM     53  C   UNL     1       0.677  20.698   8.839  1.00  0.00     0.029 A 
ATOM     54  N   UNL     1      -1.051  19.426   8.254  1.00  0.00    -0.354 N 
ATOM     55  N   UNL     1      -3.807  18.426   8.451  1.00  0.00    -0.248 NA
ATOM     56  C   UNL     1      -5.886  18.403   9.516  1.00  0.00     0.031 C 
ATOM     57  C   UNL     1      -0.373  20.941   9.730  1.00  0.00     0.029 A 
ATOM     58  C   UNL     1      -1.461  20.174   9.344  1.00  0.00     0.049 A 
ATOM     59  H   UNL     1      -1.611  18.775   7.772  1.00  0.00     0.167 HD
ATOM     60  C   UNL     1      -3.792  19.338   9.498  1.00  0.00     0.074 A 
ATOM     61  C   UNL     1      -5.112  19.310  10.094  1.00  0.00     0.031 C 
ATOM     62  C   UNL     1      -2.779  20.131   9.925  1.00  0.00     0.031 A 
BRANCH  49  63
ATOM     63  C   UNL     1       2.459  19.500   6.699  1.00  0.00    -0.014 A 
ATOM     64  C   UNL     1       2.891  20.230   5.580  1.00  0.00     0.009 A 
ATOM     65  C   UNL     1       3.400  19.150   7.681  1.00  0.00     0.009 A 
ATOM     66  C   UNL     1       4.239  20.566   5.428  1.00  0.00     0.001 A 
ATOM     67  C   UNL     1       4.740  19.516   7.543  1.00  0.00     0.001 A 
ATOM     68  C   UNL     1       5.161  20.213   6.412  1.00  0.00     0.000 A 
ENDBRANCH  49  63
BRANCH  50  69
ATOM     69  C   UNL     1      -7.013  16.446   7.658  1.00  0.00    -0.014 A 
ATOM     70  C   UNL     1      -8.078  17.329   7.425  1.00  0.00     0.009 A 
ATOM     71  C   UNL     1      -7.300  15.127   8.045  1.00  0.00     0.009 A 
ATOM     72  C   UNL     1      -9.399  16.912   7.606  1.00  0.00     0.001 A 
ATOM     73  C   UNL     1      -8.622  14.703   8.194  1.00  0.00     0.001 A 
ATOM     74  C   UNL     1      -9.669  15.598   7.986  1.00  0.00     0.000 A 
ENDBRANCH  50  69
BRANCH  62  75
ATOM     75  C   UNL     1      -3.078  21.070  11.062  1.00  0.00    -0.014 A 
ATOM     76  C   UNL     1      -3.297  20.600  12.366  1.00  0.00     0.009 A 
ATOM     77  C   UNL     1      -3.120  22.452  10.821  1.00  0.00     0.009 A 
ATOM     78  C   UNL     1      -3.599  21.494  13.396  1.00  0.00     0.001 A 
ATOM     79  C   UNL     1      -3.387  23.345  11.859  1.00  0.00     0.001 A 
ATOM     80  C   UNL     1      -3.639  22.864  13.143  1.00  0.00     0.000 A 
ENDBRANCH  62  75
ENDBRANCH  36  37
ENDBRANCH  28  31
ENDBRANCH  26  27
ENDBRANCH  25  26
ENDBRANCH   1  25
TORSDOF 13
