REMARK SMILES Cc1noc(-c2ccc(CCl)cc2)c1C(=O)NCCCNC(=O)c1ccc(-c2c3nc(c(-c4ccccc4)c4ccc([nH]4)c(-c4ccccc4)c4nc(c(-c5ccccc5)c5ccc2[nH]5)C=C4)C=C3)cc1
REMARK SMILES IDX 19 1 18 2 17 3 15 4 16 5 14 7 1 8 2 9 3 10 4 11 5 12 6 13
REMARK SMILES IDX 7 14 13 15 8 16 12 17 9 18 10 19 11 20 20 21 21 22 22 23
REMARK SMILES IDX 23 25 24 26 25 27 71 28 26 29 70 30 27 31 28 32 29 33 64 34
REMARK SMILES IDX 30 35 69 36 63 37 65 38 31 39 68 40 62 41 61 42 32 44 54 45
REMARK SMILES IDX 39 46 53 47 40 48 43 49 52 50 66 51 41 52 42 53 51 55 67 56
REMARK SMILES IDX 44 57 33 58 34 59 38 60 35 61 37 62 36 63 55 64 56 65 60 66
REMARK SMILES IDX 57 67 59 68 58 69 45 70 46 71 50 72 47 73 49 74 48 75
REMARK H PARENT 17 6 21 24 65 43 43 54
REMARK Flexibility Score: inf
ROOT
ATOM      1  C   UNL     1       3.755  -2.151   0.733  1.00  0.00     0.042 C 
ENDROOT
BRANCH   1   2
ATOM      2  C   UNL     1       2.903  -2.327  -0.524  1.00  0.00     0.118 C 
BRANCH   2   3
ATOM      3  N   UNL     1       1.645  -2.932  -0.193  1.00  0.00    -0.352 N 
ATOM      4  C   UNL     1       0.386  -2.466   0.034  1.00  0.00     0.257 C 
ATOM      5  O   UNL     1      -0.409  -3.388   0.247  1.00  0.00    -0.269 OA
ATOM      6  H   UNL     1       1.706  -3.911  -0.110  1.00  0.00     0.163 HD
BRANCH   4   7
ATOM      7  C   UNL     1      -0.047  -1.069   0.007  1.00  0.00     0.110 A 
ATOM      8  C   UNL     1       1.907   0.805   0.173  1.00  0.00     0.071 C 
ATOM      9  C   UNL     1       0.540   0.248   0.026  1.00  0.00     0.094 A 
ATOM     10  N   UNL     1      -0.399   1.204  -0.066  1.00  0.00    -0.084 NA
ATOM     11  O   UNL     1      -1.603   0.568  -0.091  1.00  0.00    -0.355 OA
ATOM     12  C   UNL     1      -1.412  -0.768  -0.015  1.00  0.00     0.179 A 
BRANCH  12  13
ATOM     13  C   UNL     1      -2.655  -1.524   0.032  1.00  0.00     0.021 A 
ATOM     14  C   UNL     1      -3.588  -1.413  -1.004  1.00  0.00     0.012 A 
ATOM     15  C   UNL     1      -2.941  -2.366   1.113  1.00  0.00     0.012 A 
ATOM     16  C   UNL     1      -4.765  -2.165  -0.980  1.00  0.00     0.006 A 
ATOM     17  C   UNL     1      -4.114  -3.123   1.137  1.00  0.00     0.006 A 
ATOM     18  C   UNL     1      -5.035  -3.038   0.085  1.00  0.00    -0.033 A 
BRANCH  18  19
ATOM     19  C   UNL     1      -6.279  -3.880   0.093  1.00  0.00     0.145 C 
ATOM     20  Cl  UNL     1      -7.725  -2.880   0.335  1.00  0.00    -0.122 Cl
ENDBRANCH  18  19
ENDBRANCH  12  13
ENDBRANCH   4   7
ENDBRANCH   2   3
ENDBRANCH   1   2
BRANCH   1  21
ATOM     21  C   UNL     1       4.485  -3.430   1.139  1.00  0.00     0.118 C 
BRANCH  21  22
ATOM     22  N   UNL     1       5.473  -3.818   0.138  1.00  0.00    -0.352 N 
ATOM     23  C   UNL     1       6.829  -3.959   0.243  1.00  0.00     0.251 C 
ATOM     24  H   UNL     1       5.105  -4.009  -0.754  1.00  0.00     0.163 HD
ATOM     25  O   UNL     1       7.512  -4.023  -0.781  1.00  0.00    -0.269 OA
BRANCH  23  26
ATOM     26  C   UNL     1       7.477  -4.037   1.565  1.00  0.00     0.039 A 
ATOM     27  C   UNL     1       8.714  -3.415   1.749  1.00  0.00     0.014 A 
ATOM     28  C   UNL     1       6.891  -4.762   2.606  1.00  0.00     0.014 A 
ATOM     29  C   UNL     1       9.340  -3.479   2.994  1.00  0.00     0.010 A 
ATOM     30  C   UNL     1       7.474  -4.754   3.867  1.00  0.00     0.010 A 
ATOM     31  C   UNL     1       8.709  -4.122   4.071  1.00  0.00    -0.014 A 
BRANCH  31  32
ATOM     32  C   UNL     1       9.326  -4.146   5.418  1.00  0.00     0.031 A 
ATOM     33  C   UNL     1       9.724  -5.453   6.045  1.00  0.00     0.074 A 
ATOM     34  C   UNL     1       9.466  -2.993   6.101  1.00  0.00     0.049 A 
ATOM     35  N   UNL     1      10.223  -5.679   7.234  1.00  0.00    -0.248 NA
ATOM     36  C   UNL     1       9.507  -6.669   5.244  1.00  0.00     0.031 C 
ATOM     37  C   UNL     1       9.080  -1.667   5.613  1.00  0.00     0.029 A 
ATOM     38  N   UNL     1       9.970  -2.753   7.353  1.00  0.00    -0.354 N 
ATOM     39  C   UNL     1      10.357  -7.059   7.330  1.00  0.00     0.074 A 
ATOM     40  C   UNL     1       9.842  -7.622   6.102  1.00  0.00     0.031 C 
ATOM     41  C   UNL     1       9.393  -0.749   6.541  1.00  0.00     0.029 A 
ATOM     42  C   UNL     1       9.956  -1.425   7.705  1.00  0.00     0.049 A 
ATOM     43  H   UNL     1      10.308  -3.464   7.944  1.00  0.00     0.167 HD
ATOM     44  C   UNL     1      10.881  -7.790   8.342  1.00  0.00     0.031 A 
ATOM     45  C   UNL     1      10.349  -0.820   8.841  1.00  0.00     0.031 A 
ATOM     46  C   UNL     1      11.404  -7.223   9.556  1.00  0.00     0.049 A 
ATOM     47  C   UNL     1      10.915  -1.655   9.954  1.00  0.00     0.074 A 
ATOM     48  C   UNL     1      12.014  -7.870  10.616  1.00  0.00     0.029 A 
ATOM     49  N   UNL     1      11.374  -5.873   9.874  1.00  0.00    -0.354 N 
ATOM     50  N   UNL     1      11.101  -2.952  10.001  1.00  0.00    -0.248 NA
ATOM     51  C   UNL     1      11.334  -0.940  11.167  1.00  0.00     0.031 C 
ATOM     52  C   UNL     1      12.298  -6.920  11.602  1.00  0.00     0.029 A 
ATOM     53  C   UNL     1      11.927  -5.672  11.127  1.00  0.00     0.049 A 
ATOM     54  H   UNL     1      11.013  -5.164   9.294  1.00  0.00     0.167 HD
ATOM     55  C   UNL     1      11.687  -3.205  11.235  1.00  0.00     0.074 A 
ATOM     56  C   UNL     1      11.839  -1.925  11.896  1.00  0.00     0.031 C 
ATOM     57  C   UNL     1      12.066  -4.391  11.771  1.00  0.00     0.031 A 
BRANCH  44  58
ATOM     58  C   UNL     1      10.901  -9.285   8.182  1.00  0.00    -0.014 A 
ATOM     59  C   UNL     1      11.737  -9.910   7.242  1.00  0.00     0.009 A 
ATOM     60  C   UNL     1      10.098 -10.085   9.011  1.00  0.00     0.009 A 
ATOM     61  C   UNL     1      11.738 -11.300   7.108  1.00  0.00     0.001 A 
ATOM     62  C   UNL     1      10.126 -11.476   8.897  1.00  0.00     0.001 A 
ATOM     63  C   UNL     1      10.937 -12.082   7.939  1.00  0.00     0.000 A 
ENDBRANCH  44  58
BRANCH  45  64
ATOM     64  C   UNL     1      10.238   0.657   8.974  1.00  0.00    -0.014 A 
ATOM     65  C   UNL     1      11.390   1.457   8.998  1.00  0.00     0.009 A 
ATOM     66  C   UNL     1       8.981   1.274   9.074  1.00  0.00     0.009 A 
ATOM     67  C   UNL     1      11.287   2.842   9.147  1.00  0.00     0.001 A 
ATOM     68  C   UNL     1       8.880   2.662   9.191  1.00  0.00     0.001 A 
ATOM     69  C   UNL     1      10.033   3.444   9.237  1.00  0.00     0.000 A 
ENDBRANCH  45  64
BRANCH  57  70
ATOM     70  C   UNL     1      12.717  -4.355  13.126  1.00  0.00    -0.014 A 
ATOM     71  C   UNL     1      11.981  -4.061  14.284  1.00  0.00     0.009 A 
ATOM     72  C   UNL     1      14.082  -4.664  13.246  1.00  0.00     0.009 A 
ATOM     73  C   UNL     1      12.608  -4.041  15.531  1.00  0.00     0.001 A 
ATOM     74  C   UNL     1      14.698  -4.676  14.498  1.00  0.00     0.001 A 
ATOM     75  C   UNL     1      13.963  -4.355  15.637  1.00  0.00     0.000 A 
ENDBRANCH  57  70
ENDBRANCH  31  32
ENDBRANCH  23  26
ENDBRANCH  21  22
ENDBRANCH   1  21
TORSDOF 12
