REMARK SMILES CCCCC[C@@H]1C[C@H](CC(=O)NCCCNC(=O)c2ccc(-c3c4nc(c(-c5ccccc5)c5ccc([nH]5)c(-c5ccccc5)c5nc(c(-c6ccccc6)c6ccc3[nH]6)C=C5)C=C4)cc2)C(=O)O1
REMARK SMILES IDX 10 1 11 2 12 3 9 5 8 6 6 7 7 8 69 9 67 10 68 11 5 12 4 13
REMARK SMILES IDX 3 14 2 15 1 16 13 17 14 18 15 19 16 20 17 21 18 23 19 24
REMARK SMILES IDX 20 25 66 26 21 27 65 28 22 29 23 30 24 31 59 32 25 33 64 34
REMARK SMILES IDX 58 35 60 36 26 37 63 38 57 39 56 40 27 42 49 43 34 44 48 45
REMARK SMILES IDX 35 46 38 47 47 48 61 49 36 50 37 51 46 53 62 54 39 55 28 56
REMARK SMILES IDX 29 57 33 58 30 59 32 60 31 61 50 62 51 63 55 64 52 65 54 66
REMARK SMILES IDX 53 67 40 68 41 69 45 70 42 71 44 72 43 73
REMARK H PARENT 12 4 16 22 60 41 38 52
REMARK Flexibility Score: inf
ROOT
ATOM      1  C   UNL     1       1.014  -4.944   3.670  1.00  0.00     0.220 C 
ATOM      2  O   UNL     1       1.895  -4.356   4.302  1.00  0.00    -0.275 OA
ATOM      3  N   UNL     1       1.245  -5.195   2.355  1.00  0.00    -0.356 N 
ATOM      4  H   UNL     1       2.090  -4.822   2.014  1.00  0.00     0.163 HD
ENDROOT
BRANCH   1   5
ATOM      5  C   UNL     1      -0.284  -5.341   4.352  1.00  0.00     0.115 C 
BRANCH   5   6
ATOM      6  C   UNL     1      -1.378  -4.270   4.356  1.00  0.00     0.112 C 
ATOM      7  C   UNL     1      -1.751  -2.010   3.688  1.00  0.00     0.177 C 
ATOM      8  C   UNL     1      -0.948  -2.845   4.666  1.00  0.00     0.061 C 
ATOM      9  O   UNL     1      -1.994  -2.863   2.571  1.00  0.00    -0.462 OA
ATOM     10  C   UNL     1      -2.032  -4.154   3.011  1.00  0.00     0.309 C 
ATOM     11  O   UNL     1      -2.512  -5.079   2.381  1.00  0.00    -0.252 OA
BRANCH   7  12
ATOM     12  C   UNL     1      -1.164  -0.663   3.239  1.00  0.00     0.045 C 
BRANCH  12  13
ATOM     13  C   UNL     1       0.359  -0.539   3.087  1.00  0.00     0.004 C 
BRANCH  13  14
ATOM     14  C   UNL     1       0.992  -1.343   1.953  1.00  0.00    -0.000 C 
BRANCH  14  15
ATOM     15  C   UNL     1       0.622  -0.892   0.540  1.00  0.00    -0.003 C 
ATOM     16  C   UNL     1       0.994   0.546   0.218  1.00  0.00     0.004 C 
ENDBRANCH  14  15
ENDBRANCH  13  14
ENDBRANCH  12  13
ENDBRANCH   7  12
ENDBRANCH   5   6
ENDBRANCH   1   5
BRANCH   3  17
ATOM     17  C   UNL     1       0.466  -5.918   1.361  1.00  0.00     0.117 C 
BRANCH  17  18
ATOM     18  C   UNL     1      -0.167  -4.997   0.320  1.00  0.00     0.042 C 
BRANCH  18  19
ATOM     19  C   UNL     1       0.806  -4.281  -0.605  1.00  0.00     0.118 C 
BRANCH  19  20
ATOM     20  N   UNL     1       1.301  -5.107  -1.688  1.00  0.00    -0.352 N 
ATOM     21  C   UNL     1       1.269  -4.872  -3.044  1.00  0.00     0.251 C 
ATOM     22  H   UNL     1       1.718  -5.956  -1.416  1.00  0.00     0.163 HD
ATOM     23  O   UNL     1       1.631  -5.754  -3.819  1.00  0.00    -0.269 OA
BRANCH  21  24
ATOM     24  C   UNL     1       0.775  -3.582  -3.589  1.00  0.00     0.039 A 
ATOM     25  C   UNL     1      -0.091  -3.610  -4.685  1.00  0.00     0.014 A 
ATOM     26  C   UNL     1       1.181  -2.350  -3.067  1.00  0.00     0.014 A 
ATOM     27  C   UNL     1      -0.589  -2.416  -5.219  1.00  0.00     0.010 A 
ATOM     28  C   UNL     1       0.626  -1.162  -3.555  1.00  0.00     0.010 A 
ATOM     29  C   UNL     1      -0.261  -1.178  -4.642  1.00  0.00    -0.014 A 
BRANCH  29  30
ATOM     30  C   UNL     1      -0.839   0.090  -5.175  1.00  0.00     0.031 A 
ATOM     31  C   UNL     1       0.047   1.149  -5.780  1.00  0.00     0.074 A 
ATOM     32  C   UNL     1      -2.168   0.307  -5.104  1.00  0.00     0.049 A 
ATOM     33  N   UNL     1      -0.286   2.304  -6.305  1.00  0.00    -0.248 NA
ATOM     34  C   UNL     1       1.494   0.887  -5.784  1.00  0.00     0.031 C 
ATOM     35  C   UNL     1      -3.147  -0.611  -4.519  1.00  0.00     0.029 A 
ATOM     36  N   UNL     1      -2.928   1.367  -5.537  1.00  0.00    -0.354 N 
ATOM     37  C   UNL     1       0.906   2.905  -6.692  1.00  0.00     0.074 A 
ATOM     38  C   UNL     1       1.973   2.013  -6.293  1.00  0.00     0.031 C 
ATOM     39  C   UNL     1      -4.377  -0.095  -4.665  1.00  0.00     0.029 A 
ATOM     40  C   UNL     1      -4.275   1.209  -5.316  1.00  0.00     0.049 A 
ATOM     41  H   UNL     1      -2.543   2.166  -5.966  1.00  0.00     0.167 HD
ATOM     42  C   UNL     1       1.100   4.080  -7.340  1.00  0.00     0.031 A 
ATOM     43  C   UNL     1      -5.316   2.016  -5.599  1.00  0.00     0.031 A 
ATOM     44  C   UNL     1       0.047   4.974  -7.744  1.00  0.00     0.049 A 
ATOM     45  C   UNL     1      -5.071   3.332  -6.286  1.00  0.00     0.074 A 
ATOM     46  C   UNL     1       0.150   6.163  -8.448  1.00  0.00     0.029 A 
ATOM     47  N   UNL     1      -1.299   4.785  -7.478  1.00  0.00    -0.354 N 
ATOM     48  N   UNL     1      -3.942   3.850  -6.703  1.00  0.00    -0.248 NA
ATOM     49  C   UNL     1      -6.251   4.170  -6.549  1.00  0.00     0.031 C 
ATOM     50  C   UNL     1      -1.127   6.721  -8.556  1.00  0.00     0.029 A 
ATOM     51  C   UNL     1      -2.034   5.848  -7.977  1.00  0.00     0.049 A 
ATOM     52  H   UNL     1      -1.678   4.009  -7.005  1.00  0.00     0.167 HD
ATOM     53  C   UNL     1      -4.279   5.058  -7.303  1.00  0.00     0.074 A 
ATOM     54  C   UNL     1      -5.717   5.187  -7.211  1.00  0.00     0.031 C 
ATOM     55  C   UNL     1      -3.465   5.975  -7.881  1.00  0.00     0.031 A 
BRANCH  42  56
ATOM     56  C   UNL     1       2.520   4.473  -7.649  1.00  0.00    -0.014 A 
ATOM     57  C   UNL     1       3.273   3.782  -8.612  1.00  0.00     0.009 A 
ATOM     58  C   UNL     1       3.097   5.578  -7.003  1.00  0.00     0.009 A 
ATOM     59  C   UNL     1       4.587   4.164  -8.892  1.00  0.00     0.001 A 
ATOM     60  C   UNL     1       4.400   5.977  -7.308  1.00  0.00     0.001 A 
ATOM     61  C   UNL     1       5.147   5.264  -8.244  1.00  0.00     0.000 A 
ENDBRANCH  42  56
BRANCH  43  62
ATOM     62  C   UNL     1      -6.700   1.601  -5.246  1.00  0.00    -0.014 A 
ATOM     63  C   UNL     1      -7.625   1.275  -6.250  1.00  0.00     0.009 A 
ATOM     64  C   UNL     1      -7.108   1.545  -3.904  1.00  0.00     0.009 A 
ATOM     65  C   UNL     1      -8.937   0.928  -5.918  1.00  0.00     0.001 A 
ATOM     66  C   UNL     1      -8.412   1.167  -3.574  1.00  0.00     0.001 A 
ATOM     67  C   UNL     1      -9.328   0.870  -4.581  1.00  0.00     0.000 A 
ENDBRANCH  43  62
BRANCH  55  68
ATOM     68  C   UNL     1      -4.111   7.187  -8.493  1.00  0.00    -0.014 A 
ATOM     69  C   UNL     1      -4.680   8.194  -7.697  1.00  0.00     0.009 A 
ATOM     70  C   UNL     1      -4.115   7.343  -9.888  1.00  0.00     0.009 A 
ATOM     71  C   UNL     1      -5.268   9.315  -8.289  1.00  0.00     0.001 A 
ATOM     72  C   UNL     1      -4.676   8.478 -10.476  1.00  0.00     0.001 A 
ATOM     73  C   UNL     1      -5.260   9.458  -9.676  1.00  0.00     0.000 A 
ENDBRANCH  55  68
ENDBRANCH  29  30
ENDBRANCH  21  24
ENDBRANCH  19  20
ENDBRANCH  18  19
ENDBRANCH  17  18
ENDBRANCH   3  17
TORSDOF 15
