REMARK SMILES C=CC[N@H+](CC(=O)NCCCNC(=O)c1ccc(-c2c3nc(c(-c4ccccc4)c4ccc([nH]4)c(-c4ccccc4)c4nc(c(-c5ccccc5)c5ccc2[nH]5)C=C4)C=C3)cc1)[C@H](C)c1ccc(F)cc1O
REMARK SMILES IDX 9 1 8 2 6 3 7 4 5 6 4 7 3 9 2 10 1 11 63 12 64 13 65 14
REMARK SMILES IDX 66 15 71 16 67 17 70 18 68 19 69 20 72 21 10 23 11 24 12 25
REMARK SMILES IDX 13 26 14 28 15 29 16 30 62 31 17 32 61 33 18 34 19 35 20 36
REMARK SMILES IDX 55 37 21 38 60 39 54 40 56 41 22 42 59 43 53 44 52 45 23 47
REMARK SMILES IDX 45 48 30 49 44 50 31 51 34 52 43 53 57 54 32 55 33 56 42 58
REMARK SMILES IDX 58 59 35 60 24 61 25 62 29 63 26 64 28 65 27 66 46 67 47 68
REMARK SMILES IDX 51 69 48 70 50 71 49 72 36 73 37 74 41 75 38 76 40 77 39 78
REMARK H PARENT 8 5 4 8 72 22 12 27 56 46 34 57
REMARK Flexibility Score: inf
ROOT
ATOM      1  C   UNL     1      -3.388   1.266   1.878  1.00  0.00     0.118 C 
ENDROOT
BRANCH   1   2
ATOM      2  N   UNL     1      -3.490   2.570   1.230  1.00  0.00    -0.351 N 
ATOM      3  C   UNL     1      -3.264   2.970  -0.063  1.00  0.00     0.275 C 
ATOM      4  O   UNL     1      -3.434   4.163  -0.327  1.00  0.00    -0.269 OA
ATOM      5  H   UNL     1      -3.772   3.297   1.831  1.00  0.00     0.163 HD
BRANCH   3   6
ATOM      6  C   UNL     1      -2.809   1.971  -1.144  1.00  0.00     0.364 C 
BRANCH   6   7
ATOM      7  N   UNL     1      -1.322   1.959  -1.351  1.00  0.00    -0.318 N 
ATOM      8  H   UNL     1      -0.953   2.888  -1.554  1.00  0.00     0.349 HD
BRANCH   7   9
ATOM      9  C   UNL     1      -0.689   1.537  -0.096  1.00  0.00     0.291 C 
BRANCH   9  10
ATOM     10  C   UNL     1       0.799   1.481   0.063  1.00  0.00     0.025 C 
ATOM     11  C   UNL     1       1.531   2.391   0.722  1.00  0.00     0.010 C 
ENDBRANCH   9  10
ENDBRANCH   7   9
BRANCH   7  12
ATOM     12  C   UNL     1      -0.963   1.173  -2.574  1.00  0.00     0.216 C 
ATOM     13  C   UNL     1      -1.543  -0.254  -2.610  1.00  0.00     0.081 C 
BRANCH  12  14
ATOM     14  C   UNL     1       0.537   1.261  -2.885  1.00  0.00     0.051 A 
ATOM     15  C   UNL     1       1.348   0.114  -3.006  1.00  0.00     0.017 A 
ATOM     16  C   UNL     1       1.175   2.518  -2.959  1.00  0.00     0.127 A 
ATOM     17  C   UNL     1       2.736   0.227  -3.119  1.00  0.00     0.040 A 
ATOM     18  C   UNL     1       2.555   2.635  -3.092  1.00  0.00     0.085 A 
ATOM     19  C   UNL     1       3.326   1.484  -3.146  1.00  0.00     0.126 A 
ATOM     20  F   UNL     1       4.661   1.580  -3.194  1.00  0.00    -0.207 F 
BRANCH  16  21
ATOM     21  O   UNL     1       0.475   3.684  -2.803  1.00  0.00    -0.507 OA
ATOM     22  H   UNL     1      -0.457   3.662  -2.709  1.00  0.00     0.293 HD
ENDBRANCH  16  21
ENDBRANCH  12  14
ENDBRANCH   7  12
ENDBRANCH   6   7
ENDBRANCH   3   6
ENDBRANCH   1   2
BRANCH   1  23
ATOM     23  C   UNL     1      -2.212   1.150   2.857  1.00  0.00     0.042 C 
BRANCH  23  24
ATOM     24  C   UNL     1      -2.318   2.044   4.088  1.00  0.00     0.118 C 
BRANCH  24  25
ATOM     25  N   UNL     1      -2.727   1.280   5.253  1.00  0.00    -0.352 N 
ATOM     26  C   UNL     1      -2.002   0.843   6.335  1.00  0.00     0.251 C 
ATOM     27  H   UNL     1      -3.680   1.036   5.270  1.00  0.00     0.163 HD
ATOM     28  O   UNL     1      -2.485  -0.034   7.047  1.00  0.00    -0.269 OA
BRANCH  26  29
ATOM     29  C   UNL     1      -0.663   1.395   6.671  1.00  0.00     0.039 A 
ATOM     30  C   UNL     1       0.267   0.549   7.291  1.00  0.00     0.014 A 
ATOM     31  C   UNL     1      -0.342   2.744   6.498  1.00  0.00     0.014 A 
ATOM     32  C   UNL     1       1.504   1.045   7.718  1.00  0.00     0.010 A 
ATOM     33  C   UNL     1       0.923   3.221   6.851  1.00  0.00     0.010 A 
ATOM     34  C   UNL     1       1.849   2.386   7.494  1.00  0.00    -0.014 A 
BRANCH  34  35
ATOM     35  C   UNL     1       3.140   2.942   7.985  1.00  0.00     0.031 A 
ATOM     36  C   UNL     1       3.151   4.005   9.055  1.00  0.00     0.074 A 
ATOM     37  C   UNL     1       4.307   2.518   7.463  1.00  0.00     0.049 A 
ATOM     38  N   UNL     1       4.169   4.633   9.589  1.00  0.00    -0.248 NA
ATOM     39  C   UNL     1       1.843   4.432   9.578  1.00  0.00     0.031 C 
ATOM     40  C   UNL     1       4.450   1.509   6.413  1.00  0.00     0.029 A 
ATOM     41  N   UNL     1       5.598   2.885   7.752  1.00  0.00    -0.354 N 
ATOM     42  C   UNL     1       3.624   5.542  10.489  1.00  0.00     0.074 A 
ATOM     43  C   UNL     1       2.186   5.416  10.395  1.00  0.00     0.031 C 
ATOM     44  C   UNL     1       5.756   1.309   6.173  1.00  0.00     0.029 A 
ATOM     45  C   UNL     1       6.540   2.201   7.023  1.00  0.00     0.049 A 
ATOM     46  H   UNL     1       5.827   3.573   8.418  1.00  0.00     0.167 HD
ATOM     47  C   UNL     1       4.256   6.393  11.333  1.00  0.00     0.031 A 
ATOM     48  C   UNL     1       7.884   2.278   7.039  1.00  0.00     0.031 A 
ATOM     49  C   UNL     1       5.684   6.513  11.451  1.00  0.00     0.049 A 
ATOM     50  C   UNL     1       8.565   3.240   7.971  1.00  0.00     0.074 A 
ATOM     51  C   UNL     1       6.416   7.311  12.314  1.00  0.00     0.029 A 
ATOM     52  N   UNL     1       6.599   5.811  10.683  1.00  0.00    -0.354 N 
ATOM     53  N   UNL     1       8.035   4.060   8.844  1.00  0.00    -0.248 NA
ATOM     54  C   UNL     1      10.034   3.277   7.921  1.00  0.00     0.031 C 
ATOM     55  C   UNL     1       7.776   7.120  12.041  1.00  0.00     0.029 A 
ATOM     56  C   UNL     1       7.889   6.170  11.039  1.00  0.00     0.049 A 
ATOM     57  H   UNL     1       6.367   5.155   9.987  1.00  0.00     0.167 HD
ATOM     58  C   UNL     1       9.103   4.691   9.467  1.00  0.00     0.074 A 
ATOM     59  C   UNL     1      10.312   4.153   8.878  1.00  0.00     0.031 C 
ATOM     60  C   UNL     1       9.083   5.630  10.444  1.00  0.00     0.031 A 
BRANCH  47  61
ATOM     61  C   UNL     1       3.390   7.271  12.193  1.00  0.00    -0.014 A 
ATOM     62  C   UNL     1       2.647   6.738  13.259  1.00  0.00     0.009 A 
ATOM     63  C   UNL     1       3.318   8.649  11.937  1.00  0.00     0.009 A 
ATOM     64  C   UNL     1       1.813   7.560  14.021  1.00  0.00     0.001 A 
ATOM     65  C   UNL     1       2.505   9.473  12.718  1.00  0.00     0.001 A 
ATOM     66  C   UNL     1       1.744   8.926  13.750  1.00  0.00     0.000 A 
ENDBRANCH  47  61
BRANCH  48  67
ATOM     67  C   UNL     1       8.684   1.384   6.163  1.00  0.00    -0.014 A 
ATOM     68  C   UNL     1       9.377   0.295   6.714  1.00  0.00     0.009 A 
ATOM     69  C   UNL     1       8.755   1.607   4.780  1.00  0.00     0.009 A 
ATOM     70  C   UNL     1      10.137  -0.545   5.898  1.00  0.00     0.001 A 
ATOM     71  C   UNL     1       9.498   0.752   3.963  1.00  0.00     0.001 A 
ATOM     72  C   UNL     1      10.193  -0.319   4.523  1.00  0.00     0.000 A 
ENDBRANCH  48  67
BRANCH  60  73
ATOM     73  C   UNL     1      10.409   6.109  10.963  1.00  0.00    -0.014 A 
ATOM     74  C   UNL     1      11.209   6.985  10.213  1.00  0.00     0.009 A 
ATOM     75  C   UNL     1      10.845   5.705  12.234  1.00  0.00     0.009 A 
ATOM     76  C   UNL     1      12.436   7.422  10.717  1.00  0.00     0.001 A 
ATOM     77  C   UNL     1      12.060   6.162  12.744  1.00  0.00     0.001 A 
ATOM     78  C   UNL     1      12.859   7.014  11.982  1.00  0.00     0.000 A 
ENDBRANCH  60  73
ENDBRANCH  34  35
ENDBRANCH  26  29
ENDBRANCH  24  25
ENDBRANCH  23  24
ENDBRANCH   1  23
TORSDOF 16
