REMARK SMILES O=C(NCCCNC(=O)[C@H](c1ccccc1)C(c1ccccc1)c1ccccc1)c1ccc(-c2c3nc(c(-c4ccccc4)c4ccc([nH]4)c(-c4ccccc4)c4nc(c(-c5ccccc5)c5ccc2[nH]5)C=C4)C=C3)cc1
REMARK SMILES IDX 5 1 4 2 3 3 1 4 2 5 30 7 31 8 77 9 32 10 76 11 33 12 34 13
REMARK SMILES IDX 35 14 70 15 36 16 75 17 69 18 71 19 37 20 74 21 68 22 67 23
REMARK SMILES IDX 38 25 60 26 45 27 59 28 46 29 49 30 58 31 72 32 47 33 48 34
REMARK SMILES IDX 57 36 73 37 50 38 39 39 40 40 44 41 41 42 43 43 42 44 61 45
REMARK SMILES IDX 62 46 66 47 63 48 65 49 64 50 51 51 52 52 56 53 53 54 55 55
REMARK SMILES IDX 54 56 6 57 7 58 8 59 9 61 10 62 17 63 18 64 19 65 23 66
REMARK SMILES IDX 20 67 22 68 21 69 24 70 25 71 29 72 26 73 28 74 27 75 11 76
REMARK SMILES IDX 12 77 16 78 13 79 15 80 14 81
REMARK H PARENT 3 6 71 24 49 35 7 60
REMARK Flexibility Score: inf
ROOT
ATOM      1  C   UNL     1       4.329  -4.063   0.048  1.00  0.00     0.042 C 
ENDROOT
BRANCH   1   2
ATOM      2  C   UNL     1       5.046  -4.044   1.386  1.00  0.00     0.118 C 
BRANCH   2   3
ATOM      3  N   UNL     1       4.971  -2.737   2.026  1.00  0.00    -0.352 N 
ATOM      4  O   UNL     1       4.052  -1.007   3.128  1.00  0.00    -0.269 OA
ATOM      5  C   UNL     1       4.058  -2.213   2.915  1.00  0.00     0.251 C 
ATOM      6  H   UNL     1       5.700  -2.122   1.782  1.00  0.00     0.163 HD
BRANCH   5   7
ATOM      7  C   UNL     1       3.066  -3.081   3.594  1.00  0.00     0.039 A 
ATOM      8  C   UNL     1       3.400  -4.366   4.011  1.00  0.00     0.014 A 
ATOM      9  C   UNL     1       1.787  -2.583   3.870  1.00  0.00     0.014 A 
ATOM     10  C   UNL     1       2.418  -5.217   4.502  1.00  0.00     0.010 A 
ATOM     11  C   UNL     1       0.834  -3.398   4.497  1.00  0.00     0.010 A 
ATOM     12  C   UNL     1       1.128  -4.740   4.779  1.00  0.00    -0.014 A 
BRANCH  12  13
ATOM     13  C   UNL     1       0.147  -5.663   5.412  1.00  0.00     0.031 A 
ATOM     14  C   UNL     1      -1.147  -6.021   4.732  1.00  0.00     0.074 A 
ATOM     15  C   UNL     1       0.469  -6.240   6.588  1.00  0.00     0.049 A 
ATOM     16  N   UNL     1      -2.068  -6.871   5.116  1.00  0.00    -0.248 NA
ATOM     17  C   UNL     1      -1.459  -5.333   3.470  1.00  0.00     0.031 C 
ATOM     18  C   UNL     1       1.690  -5.971   7.354  1.00  0.00     0.029 A 
ATOM     19  N   UNL     1      -0.172  -7.206   7.322  1.00  0.00    -0.354 N 
ATOM     20  C   UNL     1      -3.079  -6.794   4.166  1.00  0.00     0.074 A 
ATOM     21  C   UNL     1      -2.669  -5.802   3.196  1.00  0.00     0.031 C 
ATOM     22  C   UNL     1       1.756  -6.816   8.392  1.00  0.00     0.029 A 
ATOM     23  C   UNL     1       0.546  -7.628   8.416  1.00  0.00     0.049 A 
ATOM     24  H   UNL     1      -1.060  -7.562   7.088  1.00  0.00     0.167 HD
ATOM     25  C   UNL     1      -4.243  -7.487   4.106  1.00  0.00     0.031 A 
ATOM     26  C   UNL     1       0.265  -8.560   9.345  1.00  0.00     0.031 A 
ATOM     27  C   UNL     1      -4.642  -8.488   5.060  1.00  0.00     0.049 A 
ATOM     28  C   UNL     1      -1.031  -9.308   9.254  1.00  0.00     0.074 A 
ATOM     29  C   UNL     1      -5.785  -9.270   5.063  1.00  0.00     0.029 A 
ATOM     30  N   UNL     1      -3.911  -8.848   6.182  1.00  0.00    -0.354 N 
ATOM     31  N   UNL     1      -1.961  -9.237   8.334  1.00  0.00    -0.248 NA
ATOM     32  C   UNL     1      -1.316 -10.261  10.334  1.00  0.00     0.031 C 
ATOM     33  C   UNL     1      -5.768 -10.068   6.212  1.00  0.00     0.029 A 
ATOM     34  C   UNL     1      -4.588  -9.823   6.896  1.00  0.00     0.049 A 
ATOM     35  H   UNL     1      -3.039  -8.466   6.434  1.00  0.00     0.167 HD
ATOM     36  C   UNL     1      -2.937 -10.145   8.716  1.00  0.00     0.074 A 
ATOM     37  C   UNL     1      -2.472 -10.773   9.937  1.00  0.00     0.031 C 
ATOM     38  C   UNL     1      -4.115 -10.432   8.111  1.00  0.00     0.031 A 
BRANCH  25  39
ATOM     39  C   UNL     1      -5.191  -7.158   2.984  1.00  0.00    -0.014 A 
ATOM     40  C   UNL     1      -4.923  -7.538   1.660  1.00  0.00     0.009 A 
ATOM     41  C   UNL     1      -6.393  -6.490   3.268  1.00  0.00     0.009 A 
ATOM     42  C   UNL     1      -5.825  -7.224   0.639  1.00  0.00     0.001 A 
ATOM     43  C   UNL     1      -7.304  -6.202   2.251  1.00  0.00     0.001 A 
ATOM     44  C   UNL     1      -7.015  -6.561   0.935  1.00  0.00     0.000 A 
ENDBRANCH  25  39
BRANCH  26  45
ATOM     45  C   UNL     1       1.230  -8.829  10.441  1.00  0.00    -0.014 A 
ATOM     46  C   UNL     1       1.930 -10.044  10.495  1.00  0.00     0.009 A 
ATOM     47  C   UNL     1       1.468  -7.864  11.434  1.00  0.00     0.009 A 
ATOM     48  C   UNL     1       2.834 -10.293  11.531  1.00  0.00     0.001 A 
ATOM     49  C   UNL     1       2.395  -8.103  12.449  1.00  0.00     0.001 A 
ATOM     50  C   UNL     1       3.071  -9.321  12.501  1.00  0.00     0.000 A 
ENDBRANCH  26  45
BRANCH  38  51
ATOM     51  C   UNL     1      -4.962 -11.494   8.750  1.00  0.00    -0.014 A 
ATOM     52  C   UNL     1      -5.649 -11.254   9.951  1.00  0.00     0.009 A 
ATOM     53  C   UNL     1      -5.082 -12.749   8.134  1.00  0.00     0.009 A 
ATOM     54  C   UNL     1      -6.407 -12.266  10.543  1.00  0.00     0.001 A 
ATOM     55  C   UNL     1      -5.863 -13.749   8.714  1.00  0.00     0.001 A 
ATOM     56  C   UNL     1      -6.516 -13.511   9.922  1.00  0.00     0.000 A 
ENDBRANCH  38  51
ENDBRANCH  12  13
ENDBRANCH   5   7
ENDBRANCH   2   3
ENDBRANCH   1   2
BRANCH   1  57
ATOM     57  C   UNL     1       5.135  -3.416  -1.065  1.00  0.00     0.117 C 
BRANCH  57  58
ATOM     58  N   UNL     1       6.302  -4.181  -1.468  1.00  0.00    -0.355 N 
ATOM     59  C   UNL     1       6.702  -4.627  -2.694  1.00  0.00     0.228 C 
ATOM     60  H   UNL     1       6.909  -4.417  -0.730  1.00  0.00     0.163 HD
ATOM     61  O   UNL     1       7.869  -5.032  -2.770  1.00  0.00    -0.274 OA
BRANCH  59  62
ATOM     62  C   UNL     1       5.786  -4.664  -3.936  1.00  0.00     0.120 C 
BRANCH  62  63
ATOM     63  C   UNL     1       4.696  -5.799  -3.864  1.00  0.00     0.066 C 
BRANCH  63  64
ATOM     64  C   UNL     1       3.823  -5.997  -5.141  1.00  0.00    -0.039 A 
ATOM     65  C   UNL     1       3.915  -5.191  -6.289  1.00  0.00     0.004 A 
ATOM     66  C   UNL     1       2.846  -7.013  -5.158  1.00  0.00     0.004 A 
ATOM     67  C   UNL     1       3.034  -5.339  -7.365  1.00  0.00     0.000 A 
ATOM     68  C   UNL     1       2.011  -7.208  -6.264  1.00  0.00     0.000 A 
ATOM     69  C   UNL     1       2.088  -6.353  -7.357  1.00  0.00     0.000 A 
ENDBRANCH  63  64
BRANCH  63  70
ATOM     70  C   UNL     1       5.260  -7.150  -3.353  1.00  0.00    -0.039 A 
ATOM     71  C   UNL     1       5.689  -8.168  -4.221  1.00  0.00     0.004 A 
ATOM     72  C   UNL     1       5.275  -7.425  -1.974  1.00  0.00     0.004 A 
ATOM     73  C   UNL     1       6.034  -9.433  -3.728  1.00  0.00     0.000 A 
ATOM     74  C   UNL     1       5.653  -8.675  -1.479  1.00  0.00     0.000 A 
ATOM     75  C   UNL     1       6.010  -9.688  -2.359  1.00  0.00     0.000 A 
ENDBRANCH  63  70
ENDBRANCH  62  63
BRANCH  62  76
ATOM     76  C   UNL     1       5.335  -3.240  -4.320  1.00  0.00    -0.035 A 
ATOM     77  C   UNL     1       4.014  -2.778  -4.163  1.00  0.00     0.004 A 
ATOM     78  C   UNL     1       6.268  -2.369  -4.910  1.00  0.00     0.004 A 
ATOM     79  C   UNL     1       3.645  -1.490  -4.553  1.00  0.00     0.000 A 
ATOM     80  C   UNL     1       5.888  -1.092  -5.331  1.00  0.00     0.000 A 
ATOM     81  C   UNL     1       4.580  -0.651  -5.146  1.00  0.00     0.000 A 
ENDBRANCH  62  76
ENDBRANCH  59  62
ENDBRANCH  57  58
ENDBRANCH   1  57
TORSDOF 14
