REMARK SMILES Cc1ccc(S(=O)(=O)n2cc(C(=O)C(=O)N[C@@H](Cc3cnc[nH]3)C(=O)NCCCNC(=O)c3ccc(-c4c5nc(c(-c6ccccc6)c6ccc([nH]6)c(-c6ccccc6)c6nc(c(-c7ccccc7)c7ccc4[nH]7)C=C6)C=C5)cc3)c3ccccc32)cc1
REMARK SMILES IDX 24 1 25 2 26 3 17 5 16 6 14 7 15 8 12 10 13 11 11 12 9 13
REMARK SMILES IDX 10 14 86 15 81 16 85 17 82 18 84 19 83 20 6 21 7 22 8 23
REMARK SMILES IDX 5 24 1 25 2 26 3 27 88 28 4 29 87 30 18 31 19 32 20 33 23 34
REMARK SMILES IDX 21 35 22 36 27 38 28 39 29 40 30 41 31 42 32 44 33 45 34 46
REMARK SMILES IDX 80 47 35 48 79 49 36 50 37 51 38 52 73 53 39 54 78 55 72 56
REMARK SMILES IDX 74 57 40 58 77 59 71 60 70 61 41 63 63 64 48 65 62 66 49 67
REMARK SMILES IDX 52 68 61 69 75 70 50 71 51 72 60 74 76 75 53 76 42 77 43 78
REMARK SMILES IDX 47 79 44 80 46 81 45 82 64 83 65 84 69 85 66 86 68 87 67 88
REMARK SMILES IDX 54 89 55 90 59 91 56 92 58 93 57 94
REMARK H PARENT 26 4 16 9 23 37 30 43 74 62 52 73
REMARK Flexibility Score: inf
ROOT
ATOM      1  C   UNL     1      -7.418   7.262   3.824  1.00  0.00     0.242 C 
ATOM      2  O   UNL     1      -6.810   8.293   3.519  1.00  0.00    -0.273 OA
ATOM      3  N   UNL     1      -7.554   6.998   5.162  1.00  0.00    -0.354 N 
ATOM      4  H   UNL     1      -6.844   7.341   5.752  1.00  0.00     0.163 HD
ENDROOT
BRANCH   1   5
ATOM      5  C   UNL     1      -8.069   6.371   2.727  1.00  0.00     0.177 C 
BRANCH   5   6
ATOM      6  N   UNL     1      -7.821   4.941   2.978  1.00  0.00    -0.337 N 
ATOM      7  C   UNL     1      -6.838   4.099   2.483  1.00  0.00     0.293 C 
ATOM      8  O   UNL     1      -6.682   3.015   3.039  1.00  0.00    -0.265 OA
ATOM      9  H   UNL     1      -8.457   4.514   3.598  1.00  0.00     0.164 HD
BRANCH   7  10
ATOM     10  C   UNL     1      -5.971   4.478   1.251  1.00  0.00     0.252 C 
ATOM     11  O   UNL     1      -5.953   5.651   0.891  1.00  0.00    -0.283 OA
BRANCH  10  12
ATOM     12  C   UNL     1      -5.188   3.482   0.496  1.00  0.00     0.054 A 
ATOM     13  N   UNL     1      -4.160   1.608  -0.165  1.00  0.00    -0.240 N 
ATOM     14  C   UNL     1      -4.933   2.161   0.828  1.00  0.00     0.117 A 
ATOM     15  C   UNL     1      -3.905   2.517  -1.167  1.00  0.00     0.065 A 
ATOM     16  C   UNL     1      -4.510   3.713  -0.759  1.00  0.00     0.012 A 
ATOM     17  C   UNL     1      -3.183   2.421  -2.373  1.00  0.00     0.028 A 
ATOM     18  C   UNL     1      -4.368   4.849  -1.590  1.00  0.00     0.011 A 
ATOM     19  C   UNL     1      -3.052   3.567  -3.161  1.00  0.00     0.002 A 
ATOM     20  C   UNL     1      -3.634   4.767  -2.776  1.00  0.00     0.001 A 
BRANCH  13  21
ATOM     21  S   UNL     1      -3.571   0.008  -0.113  1.00  0.00     0.268 S 
ATOM     22  O   UNL     1      -3.904  -0.550  -1.425  1.00  0.00    -0.201 OA
ATOM     23  O   UNL     1      -4.067  -0.564   1.107  1.00  0.00    -0.201 OA
BRANCH  21  24
ATOM     24  C   UNL     1      -1.801   0.066   0.003  1.00  0.00     0.088 A 
ATOM     25  C   UNL     1       2.502  -0.043   0.038  1.00  0.00     0.044 C 
ATOM     26  C   UNL     1       1.001   0.001   0.045  1.00  0.00    -0.051 A 
ATOM     27  C   UNL     1       0.270  -1.188  -0.059  1.00  0.00     0.005 A 
ATOM     28  C   UNL     1       0.316   1.217   0.160  1.00  0.00     0.005 A 
ATOM     29  C   UNL     1      -1.125  -1.157  -0.086  1.00  0.00     0.022 A 
ATOM     30  C   UNL     1      -1.083   1.254   0.151  1.00  0.00     0.022 A 
ENDBRANCH  21  24
ENDBRANCH  13  21
ENDBRANCH  10  12
ENDBRANCH   7  10
ENDBRANCH   5   6
BRANCH   5  31
ATOM     31  C   UNL     1      -9.528   6.726   2.340  1.00  0.00     0.090 C 
BRANCH  31  32
ATOM     32  C   UNL     1     -10.611   6.404   3.316  1.00  0.00     0.037 A 
ATOM     33  C   UNL     1     -11.194   5.213   3.707  1.00  0.00     0.134 A 
ATOM     34  N   UNL     1     -11.235   7.358   4.091  1.00  0.00    -0.348 N 
ATOM     35  N   UNL     1     -12.021   5.409   4.783  1.00  0.00    -0.245 NA
ATOM     36  C   UNL     1     -12.035   6.705   4.987  1.00  0.00     0.196 A 
ATOM     37  H   UNL     1     -11.125   8.334   4.012  1.00  0.00     0.167 HD
ENDBRANCH  31  32
ENDBRANCH   5  31
ENDBRANCH   1   5
BRANCH   3  38
ATOM     38  C   UNL     1      -8.626   6.273   5.800  1.00  0.00     0.117 C 
BRANCH  38  39
ATOM     39  C   UNL     1      -8.230   5.091   6.647  1.00  0.00     0.042 C 
BRANCH  39  40
ATOM     40  C   UNL     1      -8.320   5.408   8.120  1.00  0.00     0.118 C 
BRANCH  40  41
ATOM     41  N   UNL     1      -9.673   5.530   8.667  1.00  0.00    -0.352 N 
ATOM     42  C   UNL     1     -10.082   5.818   9.964  1.00  0.00     0.251 C 
ATOM     43  H   UNL     1     -10.402   5.387   8.020  1.00  0.00     0.163 HD
ATOM     44  O   UNL     1     -11.281   5.865  10.227  1.00  0.00    -0.269 OA
BRANCH  42  45
ATOM     45  C   UNL     1      -9.091   6.246  10.991  1.00  0.00     0.039 A 
ATOM     46  C   UNL     1      -9.451   7.295  11.848  1.00  0.00     0.014 A 
ATOM     47  C   UNL     1      -7.756   5.934  10.826  1.00  0.00     0.014 A 
ATOM     48  C   UNL     1      -8.486   8.226  12.212  1.00  0.00     0.010 A 
ATOM     49  C   UNL     1      -6.863   6.962  10.946  1.00  0.00     0.010 A 
ATOM     50  C   UNL     1      -7.242   8.129  11.610  1.00  0.00    -0.014 A 
BRANCH  50  51
ATOM     51  C   UNL     1      -6.218   9.154  11.602  1.00  0.00     0.031 A 
ATOM     52  C   UNL     1      -4.989   8.887  12.370  1.00  0.00     0.074 A 
ATOM     53  C   UNL     1      -6.320  10.173  10.721  1.00  0.00     0.049 A 
ATOM     54  N   UNL     1      -4.072   9.757  12.586  1.00  0.00    -0.248 NA
ATOM     55  C   UNL     1      -4.702   7.592  12.991  1.00  0.00     0.031 C 
ATOM     56  C   UNL     1      -5.269  11.070  10.252  1.00  0.00     0.029 A 
ATOM     57  N   UNL     1      -7.495  10.734  10.217  1.00  0.00    -0.354 N 
ATOM     58  C   UNL     1      -2.987   9.099  13.115  1.00  0.00     0.074 A 
ATOM     59  C   UNL     1      -3.440   7.760  13.391  1.00  0.00     0.031 C 
ATOM     60  C   UNL     1      -5.834  12.194   9.777  1.00  0.00     0.029 A 
ATOM     61  C   UNL     1      -7.255  12.116  10.074  1.00  0.00     0.049 A 
ATOM     62  H   UNL     1      -8.329  10.257  10.003  1.00  0.00     0.167 HD
ATOM     63  C   UNL     1      -1.796   9.751  13.150  1.00  0.00     0.031 A 
ATOM     64  C   UNL     1      -7.928  13.010  10.861  1.00  0.00     0.031 A 
ATOM     65  C   UNL     1      -1.965  11.140  12.740  1.00  0.00     0.049 A 
ATOM     66  C   UNL     1      -7.018  13.754  11.820  1.00  0.00     0.074 A 
ATOM     67  C   UNL     1      -1.794  11.800  11.535  1.00  0.00     0.029 A 
ATOM     68  N   UNL     1      -2.744  11.965  13.539  1.00  0.00    -0.354 N 
ATOM     69  N   UNL     1      -5.830  13.336  12.168  1.00  0.00    -0.248 NA
ATOM     70  C   UNL     1      -7.359  15.027  12.448  1.00  0.00     0.031 C 
ATOM     71  C   UNL     1      -2.562  12.997  11.586  1.00  0.00     0.029 A 
ATOM     72  C   UNL     1      -3.159  13.075  12.833  1.00  0.00     0.049 A 
ATOM     73  H   UNL     1      -2.971  11.782  14.480  1.00  0.00     0.167 HD
ATOM     74  C   UNL     1      -5.242  14.249  13.004  1.00  0.00     0.074 A 
ATOM     75  C   UNL     1      -6.245  15.287  13.158  1.00  0.00     0.031 C 
ATOM     76  C   UNL     1      -3.979  14.079  13.496  1.00  0.00     0.031 A 
BRANCH  63  77
ATOM     77  C   UNL     1      -0.461   9.091  13.345  1.00  0.00    -0.014 A 
ATOM     78  C   UNL     1       0.689   9.740  12.861  1.00  0.00     0.009 A 
ATOM     79  C   UNL     1      -0.260   7.837  13.944  1.00  0.00     0.009 A 
ATOM     80  C   UNL     1       1.957   9.150  12.925  1.00  0.00     0.001 A 
ATOM     81  C   UNL     1       1.002   7.229  13.990  1.00  0.00     0.001 A 
ATOM     82  C   UNL     1       2.112   7.886  13.476  1.00  0.00     0.000 A 
ENDBRANCH  63  77
BRANCH  64  83
ATOM     83  C   UNL     1      -9.335  12.575  11.125  1.00  0.00    -0.014 A 
ATOM     84  C   UNL     1     -10.208  12.516  10.016  1.00  0.00     0.009 A 
ATOM     85  C   UNL     1      -9.649  11.810  12.258  1.00  0.00     0.009 A 
ATOM     86  C   UNL     1     -11.255  11.589   9.973  1.00  0.00     0.001 A 
ATOM     87  C   UNL     1     -10.720  10.902  12.218  1.00  0.00     0.001 A 
ATOM     88  C   UNL     1     -11.483  10.752  11.060  1.00  0.00     0.000 A 
ENDBRANCH  64  83
BRANCH  76  89
ATOM     89  C   UNL     1      -3.343  14.846  14.633  1.00  0.00    -0.014 A 
ATOM     90  C   UNL     1      -4.054  15.573  15.593  1.00  0.00     0.009 A 
ATOM     91  C   UNL     1      -1.953  14.692  14.861  1.00  0.00     0.009 A 
ATOM     92  C   UNL     1      -3.409  16.132  16.706  1.00  0.00     0.001 A 
ATOM     93  C   UNL     1      -1.318  15.195  15.997  1.00  0.00     0.001 A 
ATOM     94  C   UNL     1      -2.049  15.927  16.918  1.00  0.00     0.000 A 
ENDBRANCH  76  89
ENDBRANCH  50  51
ENDBRANCH  42  45
ENDBRANCH  40  41
ENDBRANCH  39  40
ENDBRANCH  38  39
ENDBRANCH   3  38
TORSDOF 17
