REMARK SMILES CCSc1nc(CC(=O)N[C@@H](C(=O)NCCCNC(=O)c2ccc(-c3c4nc(c(-c5ccccc5)c5ccc([nH]5)c(-c5ccccc5)c5nc(c(-c6ccccc6)c6ccc3[nH]6)C=C5)C=C4)cc2)C2=C(C)N=N[C@@H]2C)cs1
REMARK SMILES IDX 12 1 13 2 14 3 11 5 10 6 8 7 9 8 7 10 6 11 4 12 5 13 77 14
REMARK SMILES IDX 76 15 3 16 2 17 1 18 69 19 70 20 74 21 71 22 72 23 73 24
REMARK SMILES IDX 75 25 15 26 16 27 17 28 18 29 19 30 20 32 21 33 22 34 68 35
REMARK SMILES IDX 23 36 67 37 24 38 25 39 26 40 61 41 27 42 66 43 60 44 62 45
REMARK SMILES IDX 28 46 65 47 59 48 58 49 29 51 51 52 36 53 50 54 37 55 40 56
REMARK SMILES IDX 49 57 63 58 38 59 39 60 48 62 64 63 41 64 30 65 31 66 35 67
REMARK SMILES IDX 32 68 34 69 33 70 52 71 53 72 57 73 54 74 56 75 55 76 42 77
REMARK SMILES IDX 43 78 47 79 44 80 46 81 45 82
REMARK H PARENT 14 4 10 9 18 31 62 50 40 61
REMARK Flexibility Score: inf
ROOT
ATOM      1  C   UNL     1       3.937  -3.614  -2.726  1.00  0.00     0.247 C 
ATOM      2  O   UNL     1       2.937  -3.765  -3.435  1.00  0.00    -0.272 OA
ATOM      3  N   UNL     1       4.389  -2.323  -2.629  1.00  0.00    -0.354 N 
ATOM      4  H   UNL     1       4.402  -1.782  -3.451  1.00  0.00     0.163 HD
ENDROOT
BRANCH   1   5
ATOM      5  C   UNL     1       4.607  -4.815  -1.934  1.00  0.00     0.202 C 
BRANCH   5   6
ATOM      6  N   UNL     1       5.989  -4.548  -1.523  1.00  0.00    -0.340 N 
ATOM      7  C   UNL     1       6.516  -4.349  -0.276  1.00  0.00     0.226 C 
ATOM      8  O   UNL     1       7.670  -3.914  -0.211  1.00  0.00    -0.275 OA
ATOM      9  H   UNL     1       6.640  -4.504  -2.260  1.00  0.00     0.164 HD
BRANCH   7  10
ATOM     10  C   UNL     1       5.727  -4.642   0.993  1.00  0.00     0.157 C 
BRANCH  10  11
ATOM     11  C   UNL     1       4.834  -3.524   1.425  1.00  0.00     0.062 A 
ATOM     12  C   UNL     1       2.836  -2.563   1.586  1.00  0.00     0.150 A 
ATOM     13  N   UNL     1       3.484  -3.594   1.091  1.00  0.00    -0.234 NA
ATOM     14  S   UNL     1       3.801  -1.417   2.416  1.00  0.00    -0.116 S 
ATOM     15  C   UNL     1       5.188  -2.386   2.127  1.00  0.00     0.092 A 
BRANCH  12  16
ATOM     16  S   UNL     1       1.099  -2.446   1.454  1.00  0.00    -0.096 SA
BRANCH  16  17
ATOM     17  C   UNL     1       0.895  -1.545  -0.108  1.00  0.00     0.074 C 
ATOM     18  C   UNL     1       1.082  -0.048   0.076  1.00  0.00     0.016 C 
ENDBRANCH  16  17
ENDBRANCH  12  16
ENDBRANCH  10  11
ENDBRANCH   7  10
ENDBRANCH   5   6
BRANCH   5  19
ATOM     19  C   UNL     1       4.633  -6.078  -2.760  1.00  0.00     0.011 C 
ATOM     20  C   UNL     1       4.887  -7.347  -2.406  1.00  0.00     0.064 C 
ATOM     21  C   UNL     1       4.255  -6.172  -4.210  1.00  0.00     0.156 C 
ATOM     22  C   UNL     1       5.288  -7.915  -1.092  1.00  0.00     0.069 C 
ATOM     23  N   UNL     1       4.732  -8.232  -3.444  1.00  0.00    -0.160 NA
ATOM     24  N   UNL     1       4.368  -7.630  -4.486  1.00  0.00    -0.181 NA
ATOM     25  C   UNL     1       5.184  -5.447  -5.175  1.00  0.00     0.040 C 
ENDBRANCH   5  19
ENDBRANCH   1   5
BRANCH   3  26
ATOM     26  C   UNL     1       4.846  -1.702  -1.414  1.00  0.00     0.117 C 
BRANCH  26  27
ATOM     27  C   UNL     1       6.069  -0.824  -1.561  1.00  0.00     0.042 C 
BRANCH  27  28
ATOM     28  C   UNL     1       5.727   0.596  -1.974  1.00  0.00     0.118 C 
BRANCH  28  29
ATOM     29  N   UNL     1       4.908   1.294  -0.986  1.00  0.00    -0.352 N 
ATOM     30  C   UNL     1       5.107   2.491  -0.338  1.00  0.00     0.251 C 
ATOM     31  H   UNL     1       4.075   0.830  -0.743  1.00  0.00     0.163 HD
ATOM     32  O   UNL     1       4.357   2.825   0.566  1.00  0.00    -0.269 OA
BRANCH  30  33
ATOM     33  C   UNL     1       6.244   3.351  -0.721  1.00  0.00     0.039 A 
ATOM     34  C   UNL     1       6.984   3.985   0.281  1.00  0.00     0.014 A 
ATOM     35  C   UNL     1       6.591   3.514  -2.062  1.00  0.00     0.014 A 
ATOM     36  C   UNL     1       8.127   4.709  -0.061  1.00  0.00     0.010 A 
ATOM     37  C   UNL     1       7.784   4.140  -2.390  1.00  0.00     0.010 A 
ATOM     38  C   UNL     1       8.562   4.750  -1.395  1.00  0.00    -0.014 A 
BRANCH  38  39
ATOM     39  C   UNL     1       9.812   5.440  -1.794  1.00  0.00     0.031 A 
ATOM     40  C   UNL     1       9.748   6.582  -2.772  1.00  0.00     0.074 A 
ATOM     41  C   UNL     1      11.000   4.988  -1.350  1.00  0.00     0.049 A 
ATOM     42  N   UNL     1      10.726   7.225  -3.356  1.00  0.00    -0.248 NA
ATOM     43  C   UNL     1       8.405   7.036  -3.174  1.00  0.00     0.031 C 
ATOM     44  C   UNL     1      11.198   3.866  -0.428  1.00  0.00     0.029 A 
ATOM     45  N   UNL     1      12.274   5.416  -1.626  1.00  0.00    -0.354 N 
ATOM     46  C   UNL     1      10.117   8.136  -4.210  1.00  0.00     0.074 A 
ATOM     47  C   UNL     1       8.690   7.924  -4.114  1.00  0.00     0.031 C 
ATOM     48  C   UNL     1      12.511   3.718  -0.190  1.00  0.00     0.029 A 
ATOM     49  C   UNL     1      13.250   4.698  -0.977  1.00  0.00     0.049 A 
ATOM     50  H   UNL     1      12.471   6.167  -2.232  1.00  0.00     0.167 HD
ATOM     51  C   UNL     1      10.692   9.084  -4.986  1.00  0.00     0.031 A 
ATOM     52  C   UNL     1      14.590   4.815  -1.021  1.00  0.00     0.031 A 
ATOM     53  C   UNL     1      12.108   9.314  -5.058  1.00  0.00     0.049 A 
ATOM     54  C   UNL     1      15.202   5.872  -1.897  1.00  0.00     0.074 A 
ATOM     55  C   UNL     1      12.790  10.275  -5.782  1.00  0.00     0.029 A 
ATOM     56  N   UNL     1      13.058   8.581  -4.366  1.00  0.00    -0.354 N 
ATOM     57  N   UNL     1      14.610   6.752  -2.669  1.00  0.00    -0.248 NA
ATOM     58  C   UNL     1      16.670   5.957  -1.901  1.00  0.00     0.031 C 
ATOM     59  C   UNL     1      14.158  10.103  -5.553  1.00  0.00     0.029 A 
ATOM     60  C   UNL     1      14.322   9.064  -4.650  1.00  0.00     0.049 A 
ATOM     61  H   UNL     1      12.863   7.827  -3.763  1.00  0.00     0.167 HD
ATOM     62  C   UNL     1      15.630   7.517  -3.220  1.00  0.00     0.074 A 
ATOM     63  C   UNL     1      16.875   7.006  -2.686  1.00  0.00     0.031 C 
ATOM     64  C   UNL     1      15.545   8.551  -4.090  1.00  0.00     0.031 A 
BRANCH  51  65
ATOM     65  C   UNL     1       9.779   9.952  -5.804  1.00  0.00    -0.014 A 
ATOM     66  C   UNL     1       8.956  10.912  -5.194  1.00  0.00     0.009 A 
ATOM     67  C   UNL     1       9.761   9.832  -7.202  1.00  0.00     0.009 A 
ATOM     68  C   UNL     1       8.107  11.710  -5.963  1.00  0.00     0.001 A 
ATOM     69  C   UNL     1       8.932  10.651  -7.972  1.00  0.00     0.001 A 
ATOM     70  C   UNL     1       8.100  11.582  -7.352  1.00  0.00     0.000 A 
ENDBRANCH  51  65
BRANCH  52  71
ATOM     71  C   UNL     1      15.452   3.926  -0.199  1.00  0.00    -0.014 A 
ATOM     72  C   UNL     1      16.165   4.444   0.893  1.00  0.00     0.009 A 
ATOM     73  C   UNL     1      15.594   2.566  -0.516  1.00  0.00     0.009 A 
ATOM     74  C   UNL     1      17.030   3.630   1.627  1.00  0.00     0.001 A 
ATOM     75  C   UNL     1      16.437   1.747   0.238  1.00  0.00     0.001 A 
ATOM     76  C   UNL     1      17.164   2.282   1.300  1.00  0.00     0.000 A 
ENDBRANCH  52  71
BRANCH  64  77
ATOM     77  C   UNL     1      16.826   9.233  -4.473  1.00  0.00    -0.014 A 
ATOM     78  C   UNL     1      17.742   8.628  -5.346  1.00  0.00     0.009 A 
ATOM     79  C   UNL     1      17.095  10.521  -3.984  1.00  0.00     0.009 A 
ATOM     80  C   UNL     1      18.919   9.290  -5.698  1.00  0.00     0.001 A 
ATOM     81  C   UNL     1      18.259  11.191  -4.360  1.00  0.00     0.001 A 
ATOM     82  C   UNL     1      19.174  10.572  -5.210  1.00  0.00     0.000 A 
ENDBRANCH  64  77
ENDBRANCH  38  39
ENDBRANCH  30  33
ENDBRANCH  28  29
ENDBRANCH  27  28
ENDBRANCH  26  27
ENDBRANCH   3  26
TORSDOF 16
