REMARK SMILES Cc1ncc(CC(=O)N2CCc3c(c(C(=O)NCCCNC(=O)c4ccc(-c5c6nc(c(-c7ccccc7)c7ccc([nH]7)c(-c7ccccc7)c7nc(c(-c8ccccc8)c8ccc5[nH]8)C=C7)C=C6)cc4)nn3CC3CC3)C2)c(=O)[nH]1
REMARK SMILES IDX 18 1 17 2 15 3 16 4 14 6 9 7 10 8 78 9 11 10 13 11 12 12
REMARK SMILES IDX 73 13 72 14 7 15 8 16 6 17 5 18 1 19 2 20 3 21 81 22 4 23
REMARK SMILES IDX 79 24 80 26 74 27 75 28 76 29 77 30 19 31 20 32 21 33 22 34
REMARK SMILES IDX 23 36 24 37 25 38 71 39 26 40 70 41 27 42 28 43 29 44 64 45
REMARK SMILES IDX 30 46 69 47 63 48 65 49 31 50 68 51 62 52 61 53 32 55 54 56
REMARK SMILES IDX 39 57 53 58 40 59 43 60 52 61 66 62 41 63 42 64 51 66 67 67
REMARK SMILES IDX 44 68 33 69 34 70 38 71 35 72 37 73 36 74 55 75 56 76 60 77
REMARK SMILES IDX 57 78 59 79 58 80 45 81 46 82 50 83 47 84 49 85 48 86
REMARK H PARENT 17 5 81 25 21 35 65 54 43 65
REMARK Flexibility Score: inf
ROOT
ATOM      1  C   UNL     1       1.643   7.255   7.169  1.00  0.00     0.118 C 
ENDROOT
BRANCH   1   2
ATOM      2  N   UNL     1       2.798   6.390   6.940  1.00  0.00    -0.351 N 
ATOM      3  C   UNL     1       2.935   5.271   6.139  1.00  0.00     0.272 C 
ATOM      4  O   UNL     1       4.057   4.768   6.050  1.00  0.00    -0.267 OA
ATOM      5  H   UNL     1       3.609   6.644   7.436  1.00  0.00     0.163 HD
BRANCH   3   6
ATOM      6  C   UNL     1       1.776   4.691   5.436  1.00  0.00     0.155 A 
ATOM      7  N   UNL     1       2.332   2.008   2.797  1.00  0.00    -0.338 N 
ATOM      8  C   UNL     1       1.062   1.325   3.099  1.00  0.00     0.126 C 
ATOM      9  C   UNL     1       2.901   2.788   3.925  1.00  0.00     0.159 C 
ATOM     10  C   UNL     1      -0.072   2.343   3.301  1.00  0.00     0.078 C 
ATOM     11  C   UNL     1       1.781   3.609   4.505  1.00  0.00     0.026 A 
ATOM     12  C   UNL     1       0.446   3.396   4.208  1.00  0.00     0.046 A 
ATOM     13  N   UNL     1      -0.264   4.334   4.878  1.00  0.00    -0.268 N 
ATOM     14  N   UNL     1       0.516   5.123   5.630  1.00  0.00    -0.167 NA
BRANCH   7  15
ATOM     15  C   UNL     1       3.033   1.971   1.604  1.00  0.00     0.227 C 
ATOM     16  O   UNL     1       4.257   2.148   1.597  1.00  0.00    -0.275 OA
BRANCH  15  17
ATOM     17  C   UNL     1       2.288   2.011   0.252  1.00  0.00     0.143 C 
BRANCH  17  18
ATOM     18  C   UNL     1       1.081   1.169   0.026  1.00  0.00     0.045 A 
ATOM     19  C   UNL     1      -2.349  -1.299  -0.112  1.00  0.00     0.087 C 
ATOM     20  C   UNL     1      -1.158  -0.387  -0.132  1.00  0.00     0.105 A 
ATOM     21  N   UNL     1      -1.304   0.896  -0.185  1.00  0.00    -0.243 NA
ATOM     22  N   UNL     1       0.061  -1.001  -0.063  1.00  0.00    -0.311 N 
ATOM     23  C   UNL     1      -0.162   1.649  -0.132  1.00  0.00     0.123 A 
ATOM     24  C   UNL     1       1.231  -0.300  -0.006  1.00  0.00     0.254 A 
ATOM     25  H   UNL     1       0.096  -1.985  -0.055  1.00  0.00     0.171 HD
ATOM     26  O   UNL     1       2.321  -0.852   0.061  1.00  0.00    -0.269 OA
ENDBRANCH  17  18
ENDBRANCH  15  17
ENDBRANCH   7  15
BRANCH  13  27
ATOM     27  C   UNL     1      -1.700   4.578   4.845  1.00  0.00     0.148 C 
BRANCH  27  28
ATOM     28  C   UNL     1      -2.447   4.125   6.071  1.00  0.00     0.011 C 
ATOM     29  C   UNL     1      -1.797   3.605   7.337  1.00  0.00     0.006 C 
ATOM     30  C   UNL     1      -2.404   4.978   7.318  1.00  0.00     0.006 C 
ENDBRANCH  27  28
ENDBRANCH  13  27
ENDBRANCH   3   6
ENDBRANCH   1   2
BRANCH   1  31
ATOM     31  C   UNL     1       0.920   6.967   8.492  1.00  0.00     0.042 C 
BRANCH  31  32
ATOM     32  C   UNL     1       1.597   7.673   9.654  1.00  0.00     0.118 C 
BRANCH  32  33
ATOM     33  N   UNL     1       1.478   9.143   9.585  1.00  0.00    -0.352 N 
ATOM     34  C   UNL     1       1.976  10.127  10.431  1.00  0.00     0.251 C 
ATOM     35  H   UNL     1       0.962   9.480   8.818  1.00  0.00     0.163 HD
ATOM     36  O   UNL     1       1.554  11.267  10.386  1.00  0.00    -0.269 OA
BRANCH  34  37
ATOM     37  C   UNL     1       3.038   9.764  11.389  1.00  0.00     0.039 A 
ATOM     38  C   UNL     1       3.177  10.346  12.654  1.00  0.00     0.014 A 
ATOM     39  C   UNL     1       3.909   8.770  10.983  1.00  0.00     0.014 A 
ATOM     40  C   UNL     1       4.188   9.876  13.494  1.00  0.00     0.010 A 
ATOM     41  C   UNL     1       4.620   8.088  11.913  1.00  0.00     0.010 A 
ATOM     42  C   UNL     1       4.907   8.746  13.094  1.00  0.00    -0.014 A 
BRANCH  42  43
ATOM     43  C   UNL     1       6.008   8.162  13.834  1.00  0.00     0.031 A 
ATOM     44  C   UNL     1       5.604   7.412  15.042  1.00  0.00     0.074 A 
ATOM     45  C   UNL     1       7.208   7.981  13.235  1.00  0.00     0.049 A 
ATOM     46  N   UNL     1       5.846   7.717  16.271  1.00  0.00    -0.248 NA
ATOM     47  C   UNL     1       4.692   6.267  14.874  1.00  0.00     0.031 C 
ATOM     48  C   UNL     1       7.598   8.305  11.852  1.00  0.00     0.029 A 
ATOM     49  N   UNL     1       8.284   7.288  13.684  1.00  0.00    -0.354 N 
ATOM     50  C   UNL     1       5.301   6.684  17.025  1.00  0.00     0.074 A 
ATOM     51  C   UNL     1       4.403   5.982  16.145  1.00  0.00     0.031 C 
ATOM     52  C   UNL     1       8.691   7.585  11.514  1.00  0.00     0.029 A 
ATOM     53  C   UNL     1       9.157   6.869  12.687  1.00  0.00     0.049 A 
ATOM     54  H   UNL     1       8.434   7.097  14.638  1.00  0.00     0.167 HD
ATOM     55  C   UNL     1       5.856   6.304  18.210  1.00  0.00     0.031 A 
ATOM     56  C   UNL     1      10.134   5.934  12.814  1.00  0.00     0.031 A 
ATOM     57  C   UNL     1       6.860   7.248  18.644  1.00  0.00     0.049 A 
ATOM     58  C   UNL     1      10.397   5.777  14.269  1.00  0.00     0.074 A 
ATOM     59  C   UNL     1       6.875   8.609  18.885  1.00  0.00     0.029 A 
ATOM     60  N   UNL     1       8.177   6.887  18.459  1.00  0.00    -0.354 N 
ATOM     61  N   UNL     1      10.892   6.726  15.014  1.00  0.00    -0.248 NA
ATOM     62  C   UNL     1       9.646   4.755  14.987  1.00  0.00     0.031 C 
ATOM     63  C   UNL     1       8.107   9.061  18.325  1.00  0.00     0.029 A 
ATOM     64  C   UNL     1       8.811   7.946  17.864  1.00  0.00     0.049 A 
ATOM     65  H   UNL     1       8.586   6.027  18.707  1.00  0.00     0.167 HD
ATOM     66  C   UNL     1      10.149   6.681  16.188  1.00  0.00     0.074 A 
ATOM     67  C   UNL     1       9.467   5.385  16.153  1.00  0.00     0.031 C 
ATOM     68  C   UNL     1       9.900   7.810  16.920  1.00  0.00     0.031 A 
BRANCH  55  69
ATOM     69  C   UNL     1       5.829   4.889  18.744  1.00  0.00    -0.014 A 
ATOM     70  C   UNL     1       6.466   4.636  19.973  1.00  0.00     0.009 A 
ATOM     71  C   UNL     1       5.460   3.762  17.987  1.00  0.00     0.009 A 
ATOM     72  C   UNL     1       6.815   3.338  20.362  1.00  0.00     0.001 A 
ATOM     73  C   UNL     1       5.765   2.461  18.393  1.00  0.00     0.001 A 
ATOM     74  C   UNL     1       6.476   2.252  19.564  1.00  0.00     0.000 A 
ENDBRANCH  55  69
BRANCH  56  75
ATOM     75  C   UNL     1      10.597   4.962  11.791  1.00  0.00    -0.014 A 
ATOM     76  C   UNL     1      11.766   4.205  11.979  1.00  0.00     0.009 A 
ATOM     77  C   UNL     1       9.758   4.593  10.721  1.00  0.00     0.009 A 
ATOM     78  C   UNL     1      12.063   3.111  11.149  1.00  0.00     0.001 A 
ATOM     79  C   UNL     1      10.056   3.508   9.888  1.00  0.00     0.001 A 
ATOM     80  C   UNL     1      11.203   2.757  10.111  1.00  0.00     0.000 A 
ENDBRANCH  56  75
BRANCH  68  81
ATOM     81  C   UNL     1      10.608   9.091  16.543  1.00  0.00    -0.014 A 
ATOM     82  C   UNL     1      10.479   9.700  15.282  1.00  0.00     0.009 A 
ATOM     83  C   UNL     1      11.261   9.809  17.556  1.00  0.00     0.009 A 
ATOM     84  C   UNL     1      11.002  10.975  15.039  1.00  0.00     0.001 A 
ATOM     85  C   UNL     1      11.765  11.091  17.320  1.00  0.00     0.001 A 
ATOM     86  C   UNL     1      11.638  11.672  16.061  1.00  0.00     0.000 A 
ENDBRANCH  68  81
ENDBRANCH  42  43
ENDBRANCH  34  37
ENDBRANCH  32  33
ENDBRANCH  31  32
ENDBRANCH   1  31
TORSDOF 15
