REMARK SMILES COc1cccc(C2=NN3[C@@H](c4ccc(OC)c(OC)c4C(=O)NCCCNC(=O)c4ccc(-c5c6nc(c(-c7ccccc7)c7ccc([nH]7)c(-c7ccccc7)c7nc(c(-c8ccccc8)c8ccc5[nH]8)C=C7)C=C6)cc4)Oc4c(OC)cccc4[C@@H]3C2)c1
REMARK SMILES IDX 25 1 24 2 22 3 23 4 21 6 12 7 13 8 14 9 18 10 15 11 11 12
REMARK SMILES IDX 8 13 9 14 89 15 10 16 88 17 87 18 79 19 80 20 86 21 81 22
REMARK SMILES IDX 85 23 84 24 7 25 3 26 4 27 90 28 5 29 6 30 2 31 1 32 82 33
REMARK SMILES IDX 83 34 19 35 20 36 16 37 17 38 26 39 27 40 28 41 29 42 30 44
REMARK SMILES IDX 31 45 32 46 78 47 33 48 77 49 34 50 35 51 36 52 71 53 37 54
REMARK SMILES IDX 76 55 70 56 72 57 38 58 75 59 69 60 68 61 39 63 61 64 46 65
REMARK SMILES IDX 60 66 47 67 50 68 59 69 73 70 48 71 49 72 58 74 74 75 51 76
REMARK SMILES IDX 40 77 41 78 45 79 42 80 44 81 43 82 62 83 63 84 67 85 64 86
REMARK SMILES IDX 66 87 65 88 52 89 53 90 57 91 54 92 56 93 55 94
REMARK H PARENT 24 5 28 43 72 62 50 73
REMARK Flexibility Score: inf
ROOT
ATOM      1  C   UNL     1       5.357   5.431   0.980  1.00  0.00     0.118 C 
ENDROOT
BRANCH   1   2
ATOM      2  N   UNL     1       6.736   4.954   0.807  1.00  0.00    -0.352 N 
ATOM      3  C   UNL     1       7.841   5.777   0.738  1.00  0.00     0.255 C 
ATOM      4  O   UNL     1       7.879   6.915   1.200  1.00  0.00    -0.269 OA
ATOM      5  H   UNL     1       6.880   3.982   0.735  1.00  0.00     0.163 HD
BRANCH   3   6
ATOM      6  C   UNL     1       8.996   5.207  -0.024  1.00  0.00     0.094 A 
ATOM      7  C   UNL     1       8.784   4.850  -1.386  1.00  0.00     0.032 A 
ATOM      8  C   UNL     1       9.842   4.295  -2.121  1.00  0.00     0.014 A 
ATOM      9  C   UNL     1      11.096   4.147  -1.546  1.00  0.00     0.051 A 
ATOM     10  C   UNL     1      10.286   5.092   0.547  1.00  0.00     0.173 A 
ATOM     11  C   UNL     1      11.340   4.581  -0.239  1.00  0.00     0.161 A 
BRANCH   7  12
ATOM     12  C   UNL     1       7.504   5.212  -2.119  1.00  0.00     0.321 C 
ATOM     13  C   UNL     1       5.284   3.043  -3.549  1.00  0.00     0.070 C 
ATOM     14  N   UNL     1       6.120   3.238  -2.570  1.00  0.00    -0.178 NA
ATOM     15  C   UNL     1       5.725   3.647  -4.854  1.00  0.00     0.090 C 
ATOM     16  N   UNL     1       7.042   4.153  -3.064  1.00  0.00    -0.246 NA
ATOM     17  C   UNL     1       6.504   4.808  -4.281  1.00  0.00     0.146 C 
ATOM     18  C   UNL     1       5.720   6.049  -3.896  1.00  0.00     0.023 A 
ATOM     19  O   UNL     1       7.699   6.526  -2.716  1.00  0.00    -0.460 OA
ATOM     20  C   UNL     1       6.458   6.965  -3.126  1.00  0.00     0.169 A 
ATOM     21  C   UNL     1       4.384   6.332  -4.182  1.00  0.00     0.010 A 
ATOM     22  C   UNL     1       5.928   8.197  -2.752  1.00  0.00     0.161 A 
ATOM     23  C   UNL     1       3.812   7.521  -3.725  1.00  0.00     0.004 A 
ATOM     24  C   UNL     1       4.591   8.464  -3.050  1.00  0.00     0.050 A 
BRANCH  13  25
ATOM     25  C   UNL     1       3.974   2.383  -3.402  1.00  0.00     0.001 A 
ATOM     26  C   UNL     1       2.457   0.986  -2.169  1.00  0.00     0.119 A 
ATOM     27  C   UNL     1       1.447   1.402  -3.028  1.00  0.00     0.046 A 
ATOM     28  C   UNL     1       3.736   1.492  -2.342  1.00  0.00     0.056 A 
ATOM     29  C   UNL     1       1.658   2.291  -4.067  1.00  0.00     0.005 A 
ATOM     30  C   UNL     1       2.936   2.769  -4.264  1.00  0.00     0.010 A 
BRANCH  26  31
ATOM     31  O   UNL     1       2.018   0.075  -1.256  1.00  0.00    -0.497 OA
ATOM     32  C   UNL     1       2.769  -0.091  -0.071  1.00  0.00     0.278 C 
ENDBRANCH  26  31
ENDBRANCH  13  25
BRANCH  22  33
ATOM     33  O   UNL     1       6.626   9.227  -2.190  1.00  0.00    -0.493 OA
ATOM     34  C   UNL     1       7.278   8.900  -0.970  1.00  0.00     0.278 C 
ENDBRANCH  22  33
ENDBRANCH   7  12
BRANCH  10  35
ATOM     35  O   UNL     1      10.603   5.538   1.802  1.00  0.00    -0.492 OA
ATOM     36  C   UNL     1       9.811   5.032   2.869  1.00  0.00     0.278 C 
ENDBRANCH  10  35
BRANCH  11  37
ATOM     37  O   UNL     1      12.649   4.389   0.127  1.00  0.00    -0.493 OA
ATOM     38  C   UNL     1      13.200   5.272   1.093  1.00  0.00     0.278 C 
ENDBRANCH  11  37
ENDBRANCH   3   6
ENDBRANCH   1   2
BRANCH   1  39
ATOM     39  C   UNL     1       4.426   4.621   0.063  1.00  0.00     0.042 C 
BRANCH  39  40
ATOM     40  C   UNL     1       2.938   4.617   0.404  1.00  0.00     0.118 C 
BRANCH  40  41
ATOM     41  N   UNL     1       2.164   5.678  -0.222  1.00  0.00    -0.352 N 
ATOM     42  C   UNL     1       0.932   5.668  -0.848  1.00  0.00     0.251 C 
ATOM     43  H   UNL     1       2.595   6.563  -0.194  1.00  0.00     0.163 HD
ATOM     44  O   UNL     1       0.539   6.720  -1.356  1.00  0.00    -0.269 OA
BRANCH  42  45
ATOM     45  C   UNL     1       0.066   4.450  -0.975  1.00  0.00     0.039 A 
ATOM     46  C   UNL     1      -0.854   4.383  -2.041  1.00  0.00     0.014 A 
ATOM     47  C   UNL     1       0.084   3.394  -0.071  1.00  0.00     0.014 A 
ATOM     48  C   UNL     1      -1.681   3.256  -2.240  1.00  0.00     0.010 A 
ATOM     49  C   UNL     1      -0.674   2.242  -0.313  1.00  0.00     0.010 A 
ATOM     50  C   UNL     1      -1.575   2.148  -1.396  1.00  0.00    -0.014 A 
BRANCH  50  51
ATOM     51  C   UNL     1      -2.352   0.873  -1.542  1.00  0.00     0.031 A 
ATOM     52  C   UNL     1      -3.143   0.379  -0.359  1.00  0.00     0.074 A 
ATOM     53  C   UNL     1      -2.194   0.038  -2.594  1.00  0.00     0.049 A 
ATOM     54  N   UNL     1      -3.613  -0.817  -0.115  1.00  0.00    -0.248 NA
ATOM     55  C   UNL     1      -3.439   1.372   0.687  1.00  0.00     0.031 C 
ATOM     56  C   UNL     1      -1.535   0.343  -3.860  1.00  0.00     0.029 A 
ATOM     57  N   UNL     1      -2.445  -1.317  -2.686  1.00  0.00    -0.354 N 
ATOM     58  C   UNL     1      -4.292  -0.709   1.090  1.00  0.00     0.074 A 
ATOM     59  C   UNL     1      -4.062   0.630   1.589  1.00  0.00     0.031 C 
ATOM     60  C   UNL     1      -1.202  -0.805  -4.475  1.00  0.00     0.029 A 
ATOM     61  C   UNL     1      -1.726  -1.920  -3.698  1.00  0.00     0.049 A 
ATOM     62  H   UNL     1      -3.067  -1.799  -2.095  1.00  0.00     0.167 HD
ATOM     63  C   UNL     1      -5.104  -1.612   1.689  1.00  0.00     0.031 A 
ATOM     64  C   UNL     1      -1.489  -3.220  -3.961  1.00  0.00     0.031 A 
ATOM     65  C   UNL     1      -5.354  -2.933   1.187  1.00  0.00     0.049 A 
ATOM     66  C   UNL     1      -2.249  -4.267  -3.204  1.00  0.00     0.074 A 
ATOM     67  C   UNL     1      -6.270  -3.872   1.629  1.00  0.00     0.029 A 
ATOM     68  N   UNL     1      -4.667  -3.509   0.132  1.00  0.00    -0.354 N 
ATOM     69  N   UNL     1      -3.020  -4.125  -2.156  1.00  0.00    -0.248 NA
ATOM     70  C   UNL     1      -2.194  -5.638  -3.734  1.00  0.00     0.031 C 
ATOM     71  C   UNL     1      -6.115  -5.030   0.855  1.00  0.00     0.029 A 
ATOM     72  C   UNL     1      -5.122  -4.799  -0.081  1.00  0.00     0.049 A 
ATOM     73  H   UNL     1      -3.960  -3.066  -0.391  1.00  0.00     0.167 HD
ATOM     74  C   UNL     1      -3.634  -5.357  -1.974  1.00  0.00     0.074 A 
ATOM     75  C   UNL     1      -3.092  -6.252  -2.975  1.00  0.00     0.031 C 
ATOM     76  C   UNL     1      -4.606  -5.685  -1.090  1.00  0.00     0.031 A 
BRANCH  63  77
ATOM     77  C   UNL     1      -5.830  -1.144   2.915  1.00  0.00    -0.014 A 
ATOM     78  C   UNL     1      -6.844  -0.176   2.808  1.00  0.00     0.009 A 
ATOM     79  C   UNL     1      -5.493  -1.643   4.179  1.00  0.00     0.009 A 
ATOM     80  C   UNL     1      -7.465   0.328   3.951  1.00  0.00     0.001 A 
ATOM     81  C   UNL     1      -6.136  -1.156   5.319  1.00  0.00     0.001 A 
ATOM     82  C   UNL     1      -7.109  -0.162   5.205  1.00  0.00     0.000 A 
ENDBRANCH  63  77
BRANCH  64  83
ATOM     83  C   UNL     1      -0.553  -3.619  -5.043  1.00  0.00    -0.014 A 
ATOM     84  C   UNL     1      -1.031  -3.914  -6.328  1.00  0.00     0.009 A 
ATOM     85  C   UNL     1       0.820  -3.749  -4.780  1.00  0.00     0.009 A 
ATOM     86  C   UNL     1      -0.157  -4.359  -7.322  1.00  0.00     0.001 A 
ATOM     87  C   UNL     1       1.693  -4.186  -5.781  1.00  0.00     0.001 A 
ATOM     88  C   UNL     1       1.203  -4.497  -7.049  1.00  0.00     0.000 A 
ENDBRANCH  64  83
BRANCH  76  89
ATOM     89  C   UNL     1      -5.236  -7.038  -1.234  1.00  0.00    -0.014 A 
ATOM     90  C   UNL     1      -4.589  -8.205  -0.807  1.00  0.00     0.009 A 
ATOM     91  C   UNL     1      -6.525  -7.132  -1.784  1.00  0.00     0.009 A 
ATOM     92  C   UNL     1      -5.215  -9.445  -0.948  1.00  0.00     0.001 A 
ATOM     93  C   UNL     1      -7.157  -8.370  -1.903  1.00  0.00     0.001 A 
ATOM     94  C   UNL     1      -6.498  -9.526  -1.490  1.00  0.00     0.000 A 
ENDBRANCH  76  89
ENDBRANCH  50  51
ENDBRANCH  42  45
ENDBRANCH  40  41
ENDBRANCH  39  40
ENDBRANCH   1  39
TORSDOF 16
