REMARK SMILES COc1cc([C@H]2[NH2+]CCC3=c4ccccc4=N[C@H]32)ccc1OCC(=O)NCCCNC(=O)c1ccc(-c2c3nc(c(-c4ccccc4)c4ccc([nH]4)c(-c4ccccc4)c4nc(c(-c5ccccc5)c5ccc2[nH]5)C=C4)C=C3)cc1
REMARK SMILES IDX 27 1 26 2 24 3 25 4 23 6 22 7 21 8 3 9 4 10 5 11 20 12 19 13
REMARK SMILES IDX 2 14 1 15 6 16 7 17 18 18 8 19 10 22 17 23 9 24 11 25 16 26
REMARK SMILES IDX 12 27 15 28 13 29 14 30 28 31 29 32 30 33 31 34 32 36 33 37
REMARK SMILES IDX 34 38 80 39 35 40 79 41 36 42 37 43 38 44 73 45 39 46 78 47
REMARK SMILES IDX 72 48 74 49 40 50 77 51 71 52 70 53 41 55 63 56 48 57 62 58
REMARK SMILES IDX 49 59 52 60 61 61 75 62 50 63 51 64 60 66 76 67 53 68 42 69
REMARK SMILES IDX 43 70 47 71 44 72 46 73 45 74 64 75 65 76 69 77 66 78 68 79
REMARK SMILES IDX 67 80 54 81 55 82 59 83 56 84 58 85 57 86
REMARK H PARENT 26 5 7 20 7 21 30 35 74 54 52 65
REMARK Flexibility Score: inf
ROOT
ATOM      1  C   UNL     1       2.067   6.652 -11.381  1.00  0.00     0.117 C 
ENDROOT
BRANCH   1   2
ATOM      2  N   UNL     1       2.493   7.495 -10.278  1.00  0.00    -0.353 N 
ATOM      3  C   UNL     1       3.450   7.287  -9.329  1.00  0.00     0.257 C 
ATOM      4  O   UNL     1       3.755   8.248  -8.616  1.00  0.00    -0.271 OA
ATOM      5  H   UNL     1       2.015   8.353 -10.204  1.00  0.00     0.163 HD
BRANCH   3   6
ATOM      6  C   UNL     1       4.168   5.941  -9.203  1.00  0.00     0.329 C 
BRANCH   6   7
ATOM      7  O   UNL     1       3.386   4.782  -9.376  1.00  0.00    -0.480 OA
BRANCH   7   8
ATOM      8  C   UNL     1       2.519   4.353  -8.421  1.00  0.00     0.161 A 
ATOM      9  C   UNL     1       2.431   4.646  -7.062  1.00  0.00     0.161 A 
ATOM     10  C   UNL     1       1.514   3.949  -6.236  1.00  0.00     0.060 A 
ATOM     11  C   UNL     1       0.595   3.018  -6.764  1.00  0.00     0.016 A 
ATOM     12  C   UNL     1       1.601   3.456  -8.947  1.00  0.00     0.051 A 
ATOM     13  C   UNL     1       0.632   2.858  -8.147  1.00  0.00     0.014 A 
BRANCH   9  14
ATOM     14  O   UNL     1       3.285   5.538  -6.471  1.00  0.00    -0.493 OA
ATOM     15  C   UNL     1       2.602   6.757  -6.165  1.00  0.00     0.278 C 
ENDBRANCH   9  14
BRANCH  11  16
ATOM     16  C   UNL     1      -0.325   2.193  -5.835  1.00  0.00     0.243 C 
ATOM     17  N   UNL     1      -1.239   3.085  -5.057  1.00  0.00    -0.338 N 
ATOM     18  C   UNL     1      -1.160   0.955  -6.388  1.00  0.00     0.196 C 
ATOM     19  C   UNL     1      -2.395   3.545  -5.843  1.00  0.00     0.265 C 
ATOM     20  H   UNL     1      -0.711   3.901  -4.747  1.00  0.00     0.346 HD
ATOM     21  H   UNL     1      -1.598   2.545  -4.270  1.00  0.00     0.346 HD
ATOM     22  C   UNL     1      -2.379   1.434  -7.127  1.00  0.00    -0.025 C 
ATOM     23  N   UNL     1      -0.425   0.093  -7.362  1.00  0.00    -0.270 NA
ATOM     24  C   UNL     1      -3.251   2.398  -6.405  1.00  0.00     0.095 C 
ATOM     25  C   UNL     1      -2.354   1.042  -8.395  1.00  0.00     0.001 A 
ATOM     26  C   UNL     1      -1.134   0.211  -8.448  1.00  0.00     0.066 A 
ATOM     27  C   UNL     1      -3.069   1.419  -9.570  1.00  0.00     0.010 A 
ATOM     28  C   UNL     1      -0.738  -0.278  -9.789  1.00  0.00     0.028 A 
ATOM     29  C   UNL     1      -2.589   1.024 -10.761  1.00  0.00     0.001 A 
ATOM     30  C   UNL     1      -1.419   0.164 -10.862  1.00  0.00     0.002 A 
ENDBRANCH  11  16
ENDBRANCH   7   8
ENDBRANCH   6   7
ENDBRANCH   3   6
ENDBRANCH   1   2
BRANCH   1  31
ATOM     31  C   UNL     1       0.613   6.194 -11.271  1.00  0.00     0.042 C 
BRANCH  31  32
ATOM     32  C   UNL     1      -0.411   7.302 -11.034  1.00  0.00     0.118 C 
BRANCH  32  33
ATOM     33  N   UNL     1      -0.384   8.345 -12.047  1.00  0.00    -0.352 N 
ATOM     34  C   UNL     1      -1.300   8.711 -13.002  1.00  0.00     0.251 C 
ATOM     35  H   UNL     1       0.439   8.887 -12.048  1.00  0.00     0.163 HD
ATOM     36  O   UNL     1      -0.987   9.546 -13.845  1.00  0.00    -0.269 OA
BRANCH  34  37
ATOM     37  C   UNL     1      -2.643   8.091 -13.056  1.00  0.00     0.039 A 
ATOM     38  C   UNL     1      -3.160   7.736 -14.306  1.00  0.00     0.014 A 
ATOM     39  C   UNL     1      -3.409   7.891 -11.907  1.00  0.00     0.014 A 
ATOM     40  C   UNL     1      -4.402   7.102 -14.395  1.00  0.00     0.010 A 
ATOM     41  C   UNL     1      -4.614   7.193 -11.987  1.00  0.00     0.010 A 
ATOM     42  C   UNL     1      -5.117   6.780 -13.230  1.00  0.00    -0.014 A 
BRANCH  42  43
ATOM     43  C   UNL     1      -6.368   5.980 -13.293  1.00  0.00     0.031 A 
ATOM     44  C   UNL     1      -7.677   6.566 -12.842  1.00  0.00     0.074 A 
ATOM     45  C   UNL     1      -6.311   4.694 -13.692  1.00  0.00     0.049 A 
ATOM     46  N   UNL     1      -8.852   5.993 -12.760  1.00  0.00    -0.248 NA
ATOM     47  C   UNL     1      -7.661   7.971 -12.407  1.00  0.00     0.031 C 
ATOM     48  C   UNL     1      -5.100   3.995 -14.130  1.00  0.00     0.029 A 
ATOM     49  N   UNL     1      -7.296   3.743 -13.789  1.00  0.00    -0.354 N 
ATOM     50  C   UNL     1      -9.710   6.961 -12.253  1.00  0.00     0.074 A 
ATOM     51  C   UNL     1      -8.911   8.141 -12.000  1.00  0.00     0.031 C 
ATOM     52  C   UNL     1      -5.420   2.738 -14.477  1.00  0.00     0.029 A 
ATOM     53  C   UNL     1      -6.844   2.526 -14.240  1.00  0.00     0.049 A 
ATOM     54  H   UNL     1      -8.237   3.916 -13.558  1.00  0.00     0.167 HD
ATOM     55  C   UNL     1     -11.045   6.882 -12.032  1.00  0.00     0.031 A 
ATOM     56  C   UNL     1      -7.497   1.365 -14.431  1.00  0.00     0.031 A 
ATOM     57  C   UNL     1     -11.842   5.709 -12.280  1.00  0.00     0.049 A 
ATOM     58  C   UNL     1      -8.969   1.290 -14.137  1.00  0.00     0.074 A 
ATOM     59  C   UNL     1     -13.209   5.548 -12.134  1.00  0.00     0.029 A 
ATOM     60  N   UNL     1     -11.342   4.493 -12.719  1.00  0.00    -0.354 N 
ATOM     61  N   UNL     1      -9.776   2.233 -13.716  1.00  0.00    -0.248 NA
ATOM     62  C   UNL     1      -9.620  -0.011 -14.348  1.00  0.00     0.031 C 
ATOM     63  C   UNL     1     -13.527   4.217 -12.425  1.00  0.00     0.029 A 
ATOM     64  C   UNL     1     -12.367   3.566 -12.814  1.00  0.00     0.049 A 
ATOM     65  H   UNL     1     -10.397   4.314 -12.932  1.00  0.00     0.167 HD
ATOM     66  C   UNL     1     -11.033   1.647 -13.635  1.00  0.00     0.074 A 
ATOM     67  C   UNL     1     -10.884   0.273 -14.069  1.00  0.00     0.031 C 
ATOM     68  C   UNL     1     -12.205   2.198 -13.235  1.00  0.00     0.031 A 
BRANCH  55  69
ATOM     69  C   UNL     1     -11.726   8.103 -11.475  1.00  0.00    -0.014 A 
ATOM     70  C   UNL     1     -11.880   9.268 -12.244  1.00  0.00     0.009 A 
ATOM     71  C   UNL     1     -12.250   8.078 -10.172  1.00  0.00     0.009 A 
ATOM     72  C   UNL     1     -12.503  10.396 -11.705  1.00  0.00     0.001 A 
ATOM     73  C   UNL     1     -12.900   9.197  -9.647  1.00  0.00     0.001 A 
ATOM     74  C   UNL     1     -13.016  10.358 -10.409  1.00  0.00     0.000 A 
ENDBRANCH  55  69
BRANCH  56  75
ATOM     75  C   UNL     1      -6.764   0.173 -14.934  1.00  0.00    -0.014 A 
ATOM     76  C   UNL     1      -7.003  -0.316 -16.227  1.00  0.00     0.009 A 
ATOM     77  C   UNL     1      -5.825  -0.485 -14.123  1.00  0.00     0.009 A 
ATOM     78  C   UNL     1      -6.337  -1.453 -16.689  1.00  0.00     0.001 A 
ATOM     79  C   UNL     1      -5.137  -1.603 -14.599  1.00  0.00     0.001 A 
ATOM     80  C   UNL     1      -5.401  -2.092 -15.877  1.00  0.00     0.000 A 
ENDBRANCH  56  75
BRANCH  68  81
ATOM     81  C   UNL     1     -13.424   1.319 -13.268  1.00  0.00    -0.014 A 
ATOM     82  C   UNL     1     -13.595   0.276 -12.344  1.00  0.00     0.009 A 
ATOM     83  C   UNL     1     -14.433   1.561 -14.213  1.00  0.00     0.009 A 
ATOM     84  C   UNL     1     -14.737  -0.527 -12.388  1.00  0.00     0.001 A 
ATOM     85  C   UNL     1     -15.588   0.777 -14.235  1.00  0.00     0.001 A 
ATOM     86  C   UNL     1     -15.734  -0.272 -13.329  1.00  0.00     0.000 A 
ENDBRANCH  68  81
ENDBRANCH  42  43
ENDBRANCH  34  37
ENDBRANCH  32  33
ENDBRANCH  31  32
ENDBRANCH   1  31
TORSDOF 14
