REMARK SMILES CCc1cc(S(F)(F)(F)(F)F)cc2c1O[C@@H](C(F)(F)F)C(C(=O)NCCCNC(=O)c1ccc(-c3c4nc(c(-c5ccccc5)c5ccc([nH]5)c(-c5ccccc5)c5nc(c(-c6ccccc6)c6ccc3[nH]6)C=C5)C=C4)cc1)=C2
REMARK SMILES IDX 26 1 25 2 24 3 22 4 23 5 21 7 3 8 4 9 14 10 5 11 13 12 15 13
REMARK SMILES IDX 12 14 79 15 16 16 2 17 1 18 6 19 7 20 8 21 9 22 10 23 11 24
REMARK SMILES IDX 17 25 18 26 19 27 20 28 27 29 28 30 29 31 30 33 31 34 32 35
REMARK SMILES IDX 78 36 33 37 77 38 34 39 35 40 36 41 71 42 37 43 76 44 70 45
REMARK SMILES IDX 72 46 38 47 75 48 69 49 68 50 39 52 61 53 46 54 60 55 47 56
REMARK SMILES IDX 50 57 59 58 73 59 48 60 49 61 58 63 74 64 51 65 40 66 41 67
REMARK SMILES IDX 45 68 42 69 44 70 43 71 62 72 63 73 67 74 64 75 66 76 65 77
REMARK SMILES IDX 52 78 53 79 57 80 54 81 56 82 55 83
REMARK H PARENT 24 6 28 32 72 51 50 62
REMARK Flexibility Score: inf
ROOT
ATOM      1  C   UNL     1       0.767   8.429  -4.488  1.00  0.00     0.042 C 
ENDROOT
BRANCH   1   2
ATOM      2  C   UNL     1       1.454   8.032  -3.192  1.00  0.00     0.118 C 
BRANCH   2   3
ATOM      3  N   UNL     1       0.737   8.628  -2.055  1.00  0.00    -0.352 N 
ATOM      4  C   UNL     1       0.153   7.762  -1.020  1.00  0.00     0.251 C 
ATOM      5  O   UNL     1      -0.467   8.277  -0.037  1.00  0.00    -0.270 OA
ATOM      6  H   UNL     1       0.648   9.606  -1.987  1.00  0.00     0.163 HD
BRANCH   4   7
ATOM      7  C   UNL     1       0.291   6.252  -1.125  1.00  0.00     0.067 C 
ATOM      8  C   UNL     1       1.057   2.146  -1.080  1.00  0.00    -0.004 A 
ATOM      9  C   UNL     1       1.549   1.524  -2.212  1.00  0.00     0.032 A 
ATOM     10  C   UNL     1       0.865   3.506  -1.105  1.00  0.00     0.131 A 
ATOM     11  C   UNL     1       1.846   2.244  -3.340  1.00  0.00     0.108 A 
ATOM     12  C   UNL     1       1.135   4.263  -2.231  1.00  0.00     0.019 A 
ATOM     13  O   UNL     1       0.483   4.125   0.060  1.00  0.00    -0.475 OA
ATOM     14  C   UNL     1       1.633   3.607  -3.351  1.00  0.00     0.036 A 
ATOM     15  C   UNL     1       0.936   5.700  -2.145  1.00  0.00     0.025 C 
ATOM     16  C   UNL     1      -0.307   5.341  -0.062  1.00  0.00     0.314 C 
BRANCH   8  17
ATOM     17  C   UNL     1       0.550   1.370   0.125  1.00  0.00     0.036 C 
ATOM     18  C   UNL     1       1.057  -0.061   0.055  1.00  0.00     0.009 C 
ENDBRANCH   8  17
BRANCH  11  19
ATOM     19  S   UNL     1       2.512   1.413  -4.803  1.00  0.00     0.310 S 
ATOM     20  F   UNL     1       3.989   1.165  -4.281  1.00  0.00    -0.094 F 
ATOM     21  F   UNL     1       3.023   2.783  -5.390  1.00  0.00    -0.094 F 
ATOM     22  F   UNL     1       2.915   0.671  -6.109  1.00  0.00    -0.094 F 
ATOM     23  F   UNL     1       2.125   0.029  -4.147  1.00  0.00    -0.094 F 
ATOM     24  F   UNL     1       2.203   2.134  -3.431  1.00  0.00    -0.094 F 
ENDBRANCH  11  19
BRANCH  16  25
ATOM     25  C   UNL     1      -0.307   6.068   1.273  1.00  0.00     0.429 C 
ATOM     26  F   UNL     1      -1.031   7.179   1.172  1.00  0.00    -0.167 F 
ATOM     27  F   UNL     1      -0.832   5.281   2.207  1.00  0.00    -0.167 F 
ATOM     28  F   UNL     1       0.942   6.381   1.607  1.00  0.00    -0.167 F 
ENDBRANCH  16  25
ENDBRANCH   4   7
ENDBRANCH   2   3
ENDBRANCH   1   2
BRANCH   1  29
ATOM     29  C   UNL     1       0.773   9.943  -4.622  1.00  0.00     0.118 C 
BRANCH  29  30
ATOM     30  N   UNL     1       2.161  10.429  -4.634  1.00  0.00    -0.352 N 
ATOM     31  C   UNL     1       2.670  11.172  -5.796  1.00  0.00     0.251 C 
ATOM     32  H   UNL     1       2.750  10.255  -3.864  1.00  0.00     0.163 HD
ATOM     33  O   UNL     1       3.869  11.592  -5.806  1.00  0.00    -0.269 OA
BRANCH  31  34
ATOM     34  C   UNL     1       1.760  11.440  -6.984  1.00  0.00     0.039 A 
ATOM     35  C   UNL     1       2.241  11.214  -8.264  1.00  0.00     0.014 A 
ATOM     36  C   UNL     1       0.518  11.862  -6.779  1.00  0.00     0.014 A 
ATOM     37  C   UNL     1       1.418  11.743  -9.286  1.00  0.00     0.010 A 
ATOM     38  C   UNL     1      -0.277  12.234  -7.836  1.00  0.00     0.010 A 
ATOM     39  C   UNL     1       0.155  12.093  -9.125  1.00  0.00    -0.014 A 
BRANCH  39  40
ATOM     40  C   UNL     1      -0.768  12.328 -10.310  1.00  0.00     0.031 A 
ATOM     41  C   UNL     1      -1.345  13.591 -10.454  1.00  0.00     0.074 A 
ATOM     42  C   UNL     1      -0.999  11.269 -11.170  1.00  0.00     0.049 A 
ATOM     43  N   UNL     1      -2.163  14.006 -11.423  1.00  0.00    -0.248 NA
ATOM     44  C   UNL     1      -1.129  14.708  -9.522  1.00  0.00     0.031 C 
ATOM     45  C   UNL     1      -0.413   9.995 -11.036  1.00  0.00     0.029 A 
ATOM     46  N   UNL     1      -1.812  11.244 -12.282  1.00  0.00    -0.354 N 
ATOM     47  C   UNL     1      -2.493  15.285 -11.232  1.00  0.00     0.074 A 
ATOM     48  C   UNL     1      -1.837  15.753 -10.003  1.00  0.00     0.031 C 
ATOM     49  C   UNL     1      -0.875   9.210 -12.045  1.00  0.00     0.029 A 
ATOM     50  C   UNL     1      -1.756   9.981 -12.828  1.00  0.00     0.049 A 
ATOM     51  H   UNL     1      -2.340  11.999 -12.627  1.00  0.00     0.167 HD
ATOM     52  C   UNL     1      -3.313  16.079 -12.035  1.00  0.00     0.031 A 
ATOM     53  C   UNL     1      -2.430   9.508 -13.942  1.00  0.00     0.031 A 
ATOM     54  C   UNL     1      -3.952  15.618 -13.174  1.00  0.00     0.049 A 
ATOM     55  C   UNL     1      -3.297  10.286 -14.713  1.00  0.00     0.074 A 
ATOM     56  C   UNL     1      -4.776  16.408 -13.999  1.00  0.00     0.029 A 
ATOM     57  N   UNL     1      -3.917  14.348 -13.706  1.00  0.00    -0.354 N 
ATOM     58  N   UNL     1      -3.595  11.576 -14.544  1.00  0.00    -0.248 NA
ATOM     59  C   UNL     1      -4.041   9.787 -15.876  1.00  0.00     0.031 C 
ATOM     60  C   UNL     1      -5.238  15.623 -15.009  1.00  0.00     0.029 A 
ATOM     61  C   UNL     1      -4.711  14.329 -14.830  1.00  0.00     0.049 A 
ATOM     62  H   UNL     1      -3.411  13.585 -13.344  1.00  0.00     0.167 HD
ATOM     63  C   UNL     1      -4.446  11.978 -15.490  1.00  0.00     0.074 A 
ATOM     64  C   UNL     1      -4.751  10.832 -16.356  1.00  0.00     0.031 C 
ATOM     65  C   UNL     1      -4.977  13.257 -15.667  1.00  0.00     0.031 A 
BRANCH  52  66
ATOM     66  C   UNL     1      -3.515  17.532 -11.637  1.00  0.00    -0.014 A 
ATOM     67  C   UNL     1      -2.421  18.368 -11.484  1.00  0.00     0.009 A 
ATOM     68  C   UNL     1      -4.747  17.955 -11.377  1.00  0.00     0.009 A 
ATOM     69  C   UNL     1      -2.702  19.556 -10.769  1.00  0.00     0.001 A 
ATOM     70  C   UNL     1      -4.956  19.185 -10.801  1.00  0.00     0.001 A 
ATOM     71  C   UNL     1      -3.915  20.039 -10.566  1.00  0.00     0.000 A 
ENDBRANCH  52  66
BRANCH  53  72
ATOM     72  C   UNL     1      -2.215   8.059 -14.349  1.00  0.00    -0.014 A 
ATOM     73  C   UNL     1      -1.663   7.847 -15.602  1.00  0.00     0.009 A 
ATOM     74  C   UNL     1      -2.506   7.044 -13.543  1.00  0.00     0.009 A 
ATOM     75  C   UNL     1      -1.723   6.500 -16.034  1.00  0.00     0.001 A 
ATOM     76  C   UNL     1      -2.411   5.748 -13.989  1.00  0.00     0.001 A 
ATOM     77  C   UNL     1      -1.930   5.467 -15.238  1.00  0.00     0.000 A 
ENDBRANCH  53  72
BRANCH  65  78
ATOM     78  C   UNL     1      -5.904  13.487 -16.850  1.00  0.00    -0.014 A 
ATOM     79  C   UNL     1      -7.082  12.764 -16.936  1.00  0.00     0.009 A 
ATOM     80  C   UNL     1      -5.579  14.386 -17.771  1.00  0.00     0.009 A 
ATOM     81  C   UNL     1      -7.721  12.856 -18.195  1.00  0.00     0.001 A 
ATOM     82  C   UNL     1      -6.327  14.516 -18.917  1.00  0.00     0.001 A 
ATOM     83  C   UNL     1      -7.471  13.790 -19.095  1.00  0.00     0.000 A 
ENDBRANCH  65  78
ENDBRANCH  39  40
ENDBRANCH  31  34
ENDBRANCH  29  30
ENDBRANCH   1  29
TORSDOF 13
