REMARK SMILES Cc1cc([C@H](O)C[C@@H](C)CC(=O)NCCCNC(=O)c2ccc(-c3c4nc(c(-c5ccccc5)c5ccc([nH]5)c(-c5ccccc5)c5nc(c(-c6ccccc6)c6ccc3[nH]6)C=C5)C=C4)cc2)sc1Br
REMARK SMILES IDX 14 1 13 2 11 3 12 4 10 6 8 7 9 8 7 9 5 10 4 11 1 12 2 13
REMARK SMILES IDX 3 14 69 15 68 16 70 17 6 18 15 20 16 21 17 22 18 23 19 25
REMARK SMILES IDX 20 26 21 27 67 28 22 29 66 30 23 31 24 32 25 33 60 34 26 35
REMARK SMILES IDX 65 36 59 37 61 38 27 39 64 40 58 41 57 42 28 44 50 45 35 46
REMARK SMILES IDX 49 47 36 48 39 49 48 50 62 51 37 52 38 53 47 55 63 56 40 57
REMARK SMILES IDX 29 58 30 59 34 60 31 61 33 62 32 63 51 64 52 65 56 66 53 67
REMARK SMILES IDX 55 68 54 69 41 70 42 71 46 72 43 73 45 74 44 75
REMARK H PARENT 13 5 6 19 17 24 61 43 39 54
REMARK Flexibility Score: inf
ROOT
ATOM      1  C   UNL     1      -2.614   7.579  -0.445  1.00  0.00     0.117 C 
ENDROOT
BRANCH   1   2
ATOM      2  N   UNL     1      -2.152   6.844  -1.622  1.00  0.00    -0.356 N 
ATOM      3  C   UNL     1      -2.509   5.621  -2.116  1.00  0.00     0.220 C 
ATOM      4  O   UNL     1      -1.921   5.206  -3.116  1.00  0.00    -0.275 OA
ATOM      5  H   UNL     1      -1.465   7.312  -2.150  1.00  0.00     0.163 HD
BRANCH   3   6
ATOM      6  C   UNL     1      -3.614   4.807  -1.464  1.00  0.00     0.103 C 
BRANCH   6   7
ATOM      7  C   UNL     1      -3.136   3.664  -0.528  1.00  0.00    -0.002 C 
ATOM      8  C   UNL     1      -4.361   2.876  -0.069  1.00  0.00     0.008 C 
BRANCH   7   9
ATOM      9  C   UNL     1      -2.338   4.240   0.652  1.00  0.00     0.041 C 
BRANCH   9  10
ATOM     10  C   UNL     1      -1.814   3.332   1.775  1.00  0.00     0.155 C 
BRANCH  10  11
ATOM     11  C   UNL     1      -1.162   4.157   2.880  1.00  0.00     0.035 A 
ATOM     12  C   UNL     1      -1.050   5.701   6.339  1.00  0.00     0.046 C 
ATOM     13  C   UNL     1      -0.806   5.314   4.915  1.00  0.00    -0.026 A 
ATOM     14  C   UNL     1      -1.583   4.338   4.189  1.00  0.00     0.022 A 
ATOM     15  C   UNL     1       0.168   5.835   4.091  1.00  0.00     0.073 A 
ATOM     16  S   UNL     1       0.297   5.029   2.608  1.00  0.00    -0.130 S 
ATOM     17  Br  UNL     1       1.292   7.275   4.535  1.00  0.00    -0.039 Br
ENDBRANCH  10  11
BRANCH  10  18
ATOM     18  O   UNL     1      -0.840   2.441   1.243  1.00  0.00    -0.388 OA
ATOM     19  H   UNL     1      -0.100   2.951   0.878  1.00  0.00     0.211 HD
ENDBRANCH  10  18
ENDBRANCH   9  10
ENDBRANCH   7   9
ENDBRANCH   6   7
ENDBRANCH   3   6
ENDBRANCH   1   2
BRANCH   1  20
ATOM     20  C   UNL     1      -1.641   7.482   0.730  1.00  0.00     0.042 C 
BRANCH  20  21
ATOM     21  C   UNL     1      -0.368   8.259   0.531  1.00  0.00     0.118 C 
BRANCH  21  22
ATOM     22  N   UNL     1      -0.317   9.554   1.197  1.00  0.00    -0.352 N 
ATOM     23  C   UNL     1       0.810  10.287   1.565  1.00  0.00     0.251 C 
ATOM     24  H   UNL     1      -1.187   9.961   1.414  1.00  0.00     0.163 HD
ATOM     25  O   UNL     1       0.713  11.251   2.300  1.00  0.00    -0.269 OA
BRANCH  23  26
ATOM     26  C   UNL     1       2.136   9.879   1.043  1.00  0.00     0.039 A 
ATOM     27  C   UNL     1       3.351  10.178   1.669  1.00  0.00     0.014 A 
ATOM     28  C   UNL     1       2.167   9.177  -0.140  1.00  0.00     0.014 A 
ATOM     29  C   UNL     1       4.536   9.800   1.026  1.00  0.00     0.010 A 
ATOM     30  C   UNL     1       3.233   8.383  -0.357  1.00  0.00     0.010 A 
ATOM     31  C   UNL     1       4.441   8.937  -0.062  1.00  0.00    -0.014 A 
BRANCH  31  32
ATOM     32  C   UNL     1       5.511   8.481  -0.915  1.00  0.00     0.031 A 
ATOM     33  C   UNL     1       6.453   7.577  -0.241  1.00  0.00     0.074 A 
ATOM     34  C   UNL     1       5.481   8.642  -2.259  1.00  0.00     0.049 A 
ATOM     35  N   UNL     1       7.610   7.902   0.217  1.00  0.00    -0.248 NA
ATOM     36  C   UNL     1       5.999   6.236   0.155  1.00  0.00     0.031 C 
ATOM     37  C   UNL     1       4.428   9.203  -3.120  1.00  0.00     0.029 A 
ATOM     38  N   UNL     1       6.394   8.217  -3.167  1.00  0.00    -0.354 N 
ATOM     39  C   UNL     1       8.135   6.743   0.762  1.00  0.00     0.074 A 
ATOM     40  C   UNL     1       7.026   5.835   0.909  1.00  0.00     0.031 C 
ATOM     41  C   UNL     1       4.672   8.873  -4.412  1.00  0.00     0.029 A 
ATOM     42  C   UNL     1       5.964   8.213  -4.486  1.00  0.00     0.049 A 
ATOM     43  H   UNL     1       7.300   7.932  -2.908  1.00  0.00     0.167 HD
ATOM     44  C   UNL     1       9.479   6.537   0.785  1.00  0.00     0.031 A 
ATOM     45  C   UNL     1       6.620   7.658  -5.538  1.00  0.00     0.031 A 
ATOM     46  C   UNL     1      10.191   7.722   0.361  1.00  0.00     0.049 A 
ATOM     47  C   UNL     1       8.046   7.522  -5.131  1.00  0.00     0.074 A 
ATOM     48  C   UNL     1      10.259   9.023   0.819  1.00  0.00     0.029 A 
ATOM     49  N   UNL     1      10.593   7.758  -0.958  1.00  0.00    -0.354 N 
ATOM     50  N   UNL     1       8.817   8.551  -4.910  1.00  0.00    -0.248 NA
ATOM     51  C   UNL     1       8.454   6.291  -4.465  1.00  0.00     0.031 C 
ATOM     52  C   UNL     1      10.219   9.825  -0.360  1.00  0.00     0.029 A 
ATOM     53  C   UNL     1      10.233   8.979  -1.472  1.00  0.00     0.049 A 
ATOM     54  H   UNL     1      11.055   7.037  -1.444  1.00  0.00     0.167 HD
ATOM     55  C   UNL     1       9.504   8.236  -3.744  1.00  0.00     0.074 A 
ATOM     56  C   UNL     1       9.317   6.793  -3.573  1.00  0.00     0.031 C 
ATOM     57  C   UNL     1       9.885   9.207  -2.860  1.00  0.00     0.031 A 
BRANCH  44  58
ATOM     58  C   UNL     1      10.138   5.187   0.770  1.00  0.00    -0.014 A 
ATOM     59  C   UNL     1      11.540   5.139   0.858  1.00  0.00     0.009 A 
ATOM     60  C   UNL     1       9.482   3.998   0.409  1.00  0.00     0.009 A 
ATOM     61  C   UNL     1      12.251   3.987   0.513  1.00  0.00     0.001 A 
ATOM     62  C   UNL     1      10.187   2.832   0.102  1.00  0.00     0.001 A 
ATOM     63  C   UNL     1      11.574   2.837   0.123  1.00  0.00     0.000 A 
ENDBRANCH  44  58
BRANCH  45  64
ATOM     64  C   UNL     1       6.046   6.981  -6.725  1.00  0.00    -0.014 A 
ATOM     65  C   UNL     1       6.835   6.670  -7.845  1.00  0.00     0.009 A 
ATOM     66  C   UNL     1       4.765   6.399  -6.656  1.00  0.00     0.009 A 
ATOM     67  C   UNL     1       6.374   5.782  -8.832  1.00  0.00     0.001 A 
ATOM     68  C   UNL     1       4.304   5.516  -7.640  1.00  0.00     0.001 A 
ATOM     69  C   UNL     1       5.116   5.195  -8.721  1.00  0.00     0.000 A 
ENDBRANCH  45  64
BRANCH  57  70
ATOM     70  C   UNL     1       9.696  10.654  -3.263  1.00  0.00    -0.014 A 
ATOM     71  C   UNL     1       8.438  11.218  -3.543  1.00  0.00     0.009 A 
ATOM     72  C   UNL     1      10.798  11.516  -3.171  1.00  0.00     0.009 A 
ATOM     73  C   UNL     1       8.294  12.596  -3.748  1.00  0.00     0.001 A 
ATOM     74  C   UNL     1      10.652  12.893  -3.354  1.00  0.00     0.001 A 
ATOM     75  C   UNL     1       9.402  13.433  -3.647  1.00  0.00     0.000 A 
ENDBRANCH  57  70
ENDBRANCH  31  32
ENDBRANCH  23  26
ENDBRANCH  21  22
ENDBRANCH  20  21
ENDBRANCH   1  20
TORSDOF 15
