REMARK SMILES CC(C)(C)OC(=O)N[C@@H](Cc1c[nH]c2cccc(Cl)c12)C(=O)NCCCNC(=O)c1ccc(-c2c3nc(c(-c4ccccc4)c4ccc([nH]4)c(-c4ccccc4)c4nc(c(-c5ccccc5)c5ccc2[nH]5)C=C4)C=C3)cc1
REMARK SMILES IDX 24 1 23 2 21 3 22 4 9 6 8 7 6 8 7 9 5 11 2 12 1 13 3 14 4 15
REMARK SMILES IDX 10 16 11 17 12 18 20 19 13 20 14 21 18 22 15 24 17 25 19 26
REMARK SMILES IDX 16 27 25 28 26 29 27 30 28 31 29 33 30 34 31 35 77 36 32 37
REMARK SMILES IDX 76 38 33 39 34 40 35 41 70 42 36 43 75 44 69 45 71 46 37 47
REMARK SMILES IDX 74 48 68 49 67 50 38 52 60 53 45 54 59 55 46 56 49 57 58 58
REMARK SMILES IDX 72 59 47 60 48 61 57 63 73 64 50 65 39 66 40 67 44 68 41 69
REMARK SMILES IDX 43 70 42 71 61 72 62 73 66 74 63 75 65 76 64 77 51 78 52 79
REMARK SMILES IDX 56 80 53 81 55 82 54 83
REMARK H PARENT 23 5 8 10 13 23 27 32 71 51 49 62
REMARK Flexibility Score: inf
ROOT
ATOM      1  C   UNL     1       0.810  -4.873   5.815  1.00  0.00     0.117 C 
ENDROOT
BRANCH   1   2
ATOM      2  N   UNL     1       0.586  -5.177   4.423  1.00  0.00    -0.354 N 
ATOM      3  C   UNL     1       1.355  -4.736   3.370  1.00  0.00     0.243 C 
ATOM      4  O   UNL     1       1.438  -5.478   2.386  1.00  0.00    -0.273 OA
ATOM      5  H   UNL     1      -0.184  -5.751   4.207  1.00  0.00     0.163 HD
BRANCH   3   6
ATOM      6  C   UNL     1       2.155  -3.403   3.434  1.00  0.00     0.179 C 
BRANCH   6   7
ATOM      7  N   UNL     1       1.331  -2.355   4.031  1.00  0.00    -0.309 N 
ATOM      8  C   UNL     1       0.652  -1.347   3.419  1.00  0.00     0.408 C 
ATOM      9  O   UNL     1      -0.112  -0.654   4.061  1.00  0.00    -0.225 OA
ATOM     10  H   UNL     1       1.256  -2.381   5.013  1.00  0.00     0.167 HD
BRANCH   8  11
ATOM     11  O   UNL     1       0.961  -1.203   2.107  1.00  0.00    -0.444 OA
BRANCH  11  12
ATOM     12  C   UNL     1       0.471  -0.040   1.388  1.00  0.00     0.106 C 
ATOM     13  C   UNL     1       1.052  -0.165  -0.029  1.00  0.00     0.056 C 
ATOM     14  C   UNL     1       1.006   1.256   2.014  1.00  0.00     0.056 C 
ATOM     15  C   UNL     1      -1.059  -0.036   1.285  1.00  0.00     0.056 C 
ENDBRANCH  11  12
ENDBRANCH   8  11
ENDBRANCH   6   7
BRANCH   6  16
ATOM     16  C   UNL     1       3.600  -3.505   4.000  1.00  0.00     0.073 C 
BRANCH  16  17
ATOM     17  C   UNL     1       3.779  -3.856   5.462  1.00  0.00    -0.019 A 
ATOM     18  C   UNL     1       4.122  -5.118   5.922  1.00  0.00     0.087 A 
ATOM     19  C   UNL     1       3.546  -3.042   6.641  1.00  0.00     0.021 A 
ATOM     20  N   UNL     1       3.990  -5.143   7.283  1.00  0.00    -0.361 N 
ATOM     21  C   UNL     1       3.540  -3.925   7.734  1.00  0.00     0.047 A 
ATOM     22  C   UNL     1       3.212  -1.697   6.926  1.00  0.00     0.050 A 
ATOM     23  H   UNL     1       4.189  -5.919   7.856  1.00  0.00     0.166 HD
ATOM     24  C   UNL     1       3.117  -3.553   9.021  1.00  0.00     0.027 A 
ATOM     25  C   UNL     1       2.780  -1.302   8.196  1.00  0.00     0.021 A 
ATOM     26  Cl  UNL     1       3.368  -0.545   5.675  1.00  0.00    -0.084 Cl
ATOM     27  C   UNL     1       2.710  -2.233   9.225  1.00  0.00     0.004 A 
ENDBRANCH  16  17
ENDBRANCH   6  16
ENDBRANCH   3   6
ENDBRANCH   1   2
BRANCH   1  28
ATOM     28  C   UNL     1      -0.388  -4.495   6.667  1.00  0.00     0.042 C 
BRANCH  28  29
ATOM     29  C   UNL     1      -0.935  -5.700   7.394  1.00  0.00     0.118 C 
BRANCH  29  30
ATOM     30  N   UNL     1       0.028  -6.285   8.339  1.00  0.00    -0.352 N 
ATOM     31  C   UNL     1      -0.139  -7.410   9.123  1.00  0.00     0.251 C 
ATOM     32  H   UNL     1       0.892  -5.821   8.422  1.00  0.00     0.163 HD
ATOM     33  O   UNL     1       0.621  -7.674  10.045  1.00  0.00    -0.269 OA
BRANCH  31  34
ATOM     34  C   UNL     1      -1.273  -8.286   8.800  1.00  0.00     0.039 A 
ATOM     35  C   UNL     1      -2.202  -8.667   9.770  1.00  0.00     0.014 A 
ATOM     36  C   UNL     1      -1.457  -8.591   7.454  1.00  0.00     0.014 A 
ATOM     37  C   UNL     1      -3.378  -9.280   9.351  1.00  0.00     0.010 A 
ATOM     38  C   UNL     1      -2.686  -9.018   7.032  1.00  0.00     0.010 A 
ATOM     39  C   UNL     1      -3.622  -9.422   7.976  1.00  0.00    -0.014 A 
BRANCH  39  40
ATOM     40  C   UNL     1      -4.888  -9.937   7.487  1.00  0.00     0.031 A 
ATOM     41  C   UNL     1      -6.096  -9.180   7.905  1.00  0.00     0.074 A 
ATOM     42  C   UNL     1      -4.951 -10.906   6.550  1.00  0.00     0.049 A 
ATOM     43  N   UNL     1      -7.015  -9.567   8.724  1.00  0.00    -0.248 NA
ATOM     44  C   UNL     1      -6.249  -7.789   7.448  1.00  0.00     0.031 C 
ATOM     45  C   UNL     1      -3.858 -11.529   5.792  1.00  0.00     0.029 A 
ATOM     46  N   UNL     1      -6.053 -11.468   5.997  1.00  0.00    -0.354 N 
ATOM     47  C   UNL     1      -7.962  -8.550   8.752  1.00  0.00     0.074 A 
ATOM     48  C   UNL     1      -7.368  -7.422   8.076  1.00  0.00     0.031 C 
ATOM     49  C   UNL     1      -4.365 -12.197   4.732  1.00  0.00     0.029 A 
ATOM     50  C   UNL     1      -5.810 -12.208   4.849  1.00  0.00     0.049 A 
ATOM     51  H   UNL     1      -6.954 -11.361   6.380  1.00  0.00     0.167 HD
ATOM     52  C   UNL     1      -9.250  -8.781   9.130  1.00  0.00     0.031 A 
ATOM     53  C   UNL     1      -6.746 -12.767   4.046  1.00  0.00     0.031 A 
ATOM     54  C   UNL     1      -9.404 -10.067   9.754  1.00  0.00     0.049 A 
ATOM     55  C   UNL     1      -7.977 -12.900   4.862  1.00  0.00     0.074 A 
ATOM     56  C   UNL     1      -8.887 -10.663  10.887  1.00  0.00     0.029 A 
ATOM     57  N   UNL     1      -9.862 -11.092   8.960  1.00  0.00    -0.354 N 
ATOM     58  N   UNL     1      -8.065 -13.675   5.906  1.00  0.00    -0.248 NA
ATOM     59  C   UNL     1      -8.963 -11.834   4.789  1.00  0.00     0.031 C 
ATOM     60  C   UNL     1      -8.615 -12.007  10.497  1.00  0.00     0.029 A 
ATOM     61  C   UNL     1      -9.045 -12.171   9.178  1.00  0.00     0.049 A 
ATOM     62  H   UNL     1     -10.633 -11.058   8.349  1.00  0.00     0.167 HD
ATOM     63  C   UNL     1      -8.822 -12.957   6.818  1.00  0.00     0.074 A 
ATOM     64  C   UNL     1      -9.430 -11.877   6.041  1.00  0.00     0.031 C 
ATOM     65  C   UNL     1      -8.664 -13.130   8.163  1.00  0.00     0.031 A 
BRANCH  52  66
ATOM     66  C   UNL     1     -10.429  -8.017   8.596  1.00  0.00    -0.014 A 
ATOM     67  C   UNL     1     -11.691  -8.199   9.187  1.00  0.00     0.009 A 
ATOM     68  C   UNL     1     -10.393  -7.333   7.366  1.00  0.00     0.009 A 
ATOM     69  C   UNL     1     -12.858  -7.747   8.559  1.00  0.00     0.001 A 
ATOM     70  C   UNL     1     -11.551  -6.847   6.756  1.00  0.00     0.001 A 
ATOM     71  C   UNL     1     -12.788  -7.073   7.344  1.00  0.00     0.000 A 
ENDBRANCH  52  66
BRANCH  53  72
ATOM     72  C   UNL     1      -6.746 -12.880   2.571  1.00  0.00    -0.014 A 
ATOM     73  C   UNL     1      -7.718 -13.658   1.921  1.00  0.00     0.009 A 
ATOM     74  C   UNL     1      -5.983 -11.998   1.782  1.00  0.00     0.009 A 
ATOM     75  C   UNL     1      -7.961 -13.512   0.549  1.00  0.00     0.001 A 
ATOM     76  C   UNL     1      -6.221 -11.857   0.410  1.00  0.00     0.001 A 
ATOM     77  C   UNL     1      -7.225 -12.599  -0.202  1.00  0.00     0.000 A 
ENDBRANCH  53  72
BRANCH  65  78
ATOM     78  C   UNL     1      -7.790 -14.264   8.642  1.00  0.00    -0.014 A 
ATOM     79  C   UNL     1      -6.392 -14.261   8.486  1.00  0.00     0.009 A 
ATOM     80  C   UNL     1      -8.367 -15.228   9.480  1.00  0.00     0.009 A 
ATOM     81  C   UNL     1      -5.596 -15.190   9.167  1.00  0.00     0.001 A 
ATOM     82  C   UNL     1      -7.571 -16.145  10.170  1.00  0.00     0.001 A 
ATOM     83  C   UNL     1      -6.186 -16.122  10.020  1.00  0.00     0.000 A 
ENDBRANCH  65  78
ENDBRANCH  39  40
ENDBRANCH  31  34
ENDBRANCH  29  30
ENDBRANCH  28  29
ENDBRANCH   1  28
TORSDOF 15
