REMARK SMILES CCOc1cnc(C(=O)c2[nH]c3cc(Cl)ccc3c2CC(=O)NCCCNC(=O)c2ccc(-c3c4nc(c(-c5ccccc5)c5ccc([nH]5)c(-c5ccccc5)c5nc(c(-c6ccccc6)c6ccc3[nH]6)C=C5)C=C4)cc2)cc1CC
REMARK SMILES IDX 21 1 22 2 23 3 20 5 19 6 10 7 11 8 12 9 18 11 13 12 17 13
REMARK SMILES IDX 14 14 16 15 15 16 8 17 9 18 7 19 4 20 5 21 79 22 6 23 78 24
REMARK SMILES IDX 3 25 2 26 1 27 80 28 81 29 24 30 25 31 26 32 27 33 28 34
REMARK SMILES IDX 29 36 30 37 31 38 77 39 32 40 76 41 33 42 34 43 35 44 70 45
REMARK SMILES IDX 36 46 75 47 69 48 71 49 37 50 74 51 68 52 67 53 38 55 60 56
REMARK SMILES IDX 45 57 59 58 46 59 49 60 58 61 72 62 47 63 48 64 57 66 73 67
REMARK SMILES IDX 50 68 39 69 40 70 44 71 41 72 43 73 42 74 61 75 62 76 66 77
REMARK SMILES IDX 63 78 65 79 64 80 51 81 52 82 56 83 53 84 55 85 54 86
REMARK H PARENT 23 4 11 10 27 35 71 54 49 65
REMARK Flexibility Score: inf
ROOT
ATOM      1  C   UNL     1       9.380   2.293   3.225  1.00  0.00     0.224 C 
ATOM      2  O   UNL     1       8.895   2.527   4.335  1.00  0.00    -0.275 OA
ATOM      3  N   UNL     1      10.507   2.978   2.870  1.00  0.00    -0.356 N 
ATOM      4  H   UNL     1      10.760   3.712   3.475  1.00  0.00     0.163 HD
ENDROOT
BRANCH   1   5
ATOM      5  C   UNL     1       8.815   1.194   2.337  1.00  0.00     0.138 C 
BRANCH   5   6
ATOM      6  C   UNL     1       8.372   1.657   0.979  1.00  0.00    -0.002 A 
ATOM      7  C   UNL     1       7.325   2.526   0.687  1.00  0.00     0.093 A 
ATOM      8  N   UNL     1       7.381   2.788  -0.664  1.00  0.00    -0.351 N 
ATOM      9  C   UNL     1       8.241   1.917  -1.285  1.00  0.00     0.048 A 
ATOM     10  H   UNL     1       6.875   3.499  -1.119  1.00  0.00     0.167 HD
ATOM     11  C   UNL     1       8.880   1.191  -0.281  1.00  0.00     0.004 A 
ATOM     12  C   UNL     1       8.502   1.725  -2.648  1.00  0.00     0.047 A 
ATOM     13  C   UNL     1       9.828   0.216  -0.660  1.00  0.00     0.012 A 
ATOM     14  C   UNL     1       9.439   0.747  -2.990  1.00  0.00     0.043 A 
ATOM     15  C   UNL     1      10.096   0.001  -2.017  1.00  0.00     0.021 A 
ATOM     16  Cl  UNL     1       9.781   0.459  -4.653  1.00  0.00    -0.084 Cl
BRANCH   7  17
ATOM     17  C   UNL     1       6.338   3.116   1.579  1.00  0.00     0.227 C 
ATOM     18  O   UNL     1       6.655   3.944   2.422  1.00  0.00    -0.285 OA
BRANCH  17  19
ATOM     19  C   UNL     1       4.892   2.689   1.403  1.00  0.00     0.113 A 
ATOM     20  C   UNL     1       2.230   2.080   1.054  1.00  0.00     0.140 A 
ATOM     21  C   UNL     1       2.693   2.881   2.093  1.00  0.00     0.158 A 
ATOM     22  C   UNL     1       3.146   1.597   0.121  1.00  0.00    -0.002 A 
ATOM     23  N   UNL     1       3.995   3.209   2.277  1.00  0.00    -0.249 NA
ATOM     24  C   UNL     1       4.504   1.851   0.355  1.00  0.00     0.040 A 
BRANCH  20  25
ATOM     25  O   UNL     1       0.893   1.859   0.898  1.00  0.00    -0.492 OA
BRANCH  25  26
ATOM     26  C   UNL     1       0.427   0.772   1.711  1.00  0.00     0.226 C 
ATOM     27  C   UNL     1       0.098  -0.421   0.828  1.00  0.00     0.049 C 
ENDBRANCH  25  26
ENDBRANCH  20  25
BRANCH  22  28
ATOM     28  C   UNL     1       2.729   0.832  -1.112  1.00  0.00     0.036 C 
ATOM     29  C   UNL     1       3.290   1.427  -2.400  1.00  0.00     0.009 C 
ENDBRANCH  22  28
ENDBRANCH  17  19
ENDBRANCH   7  17
ENDBRANCH   5   6
ENDBRANCH   1   5
BRANCH   3  30
ATOM     30  C   UNL     1      11.387   2.786   1.734  1.00  0.00     0.117 C 
BRANCH  30  31
ATOM     31  C   UNL     1      11.199   3.840   0.646  1.00  0.00     0.042 C 
BRANCH  31  32
ATOM     32  C   UNL     1      11.607   5.252   1.058  1.00  0.00     0.118 C 
BRANCH  32  33
ATOM     33  N   UNL     1      13.034   5.372   1.330  1.00  0.00    -0.352 N 
ATOM     34  C   UNL     1      14.013   6.093   0.694  1.00  0.00     0.251 C 
ATOM     35  H   UNL     1      13.349   4.846   2.100  1.00  0.00     0.163 HD
ATOM     36  O   UNL     1      15.191   5.901   0.983  1.00  0.00    -0.269 OA
BRANCH  34  37
ATOM     37  C   UNL     1      13.675   7.084  -0.352  1.00  0.00     0.039 A 
ATOM     38  C   UNL     1      14.461   7.134  -1.508  1.00  0.00     0.014 A 
ATOM     39  C   UNL     1      12.621   7.986  -0.188  1.00  0.00     0.014 A 
ATOM     40  C   UNL     1      14.137   8.023  -2.536  1.00  0.00     0.010 A 
ATOM     41  C   UNL     1      12.262   8.832  -1.236  1.00  0.00     0.010 A 
ATOM     42  C   UNL     1      13.006   8.846  -2.426  1.00  0.00    -0.014 A 
BRANCH  42  43
ATOM     43  C   UNL     1      12.542   9.681  -3.562  1.00  0.00     0.031 A 
ATOM     44  C   UNL     1      12.536  11.179  -3.463  1.00  0.00     0.074 A 
ATOM     45  C   UNL     1      12.018   9.079  -4.647  1.00  0.00     0.049 A 
ATOM     46  N   UNL     1      12.050  12.059  -4.301  1.00  0.00    -0.248 NA
ATOM     47  C   UNL     1      13.135  11.763  -2.253  1.00  0.00     0.031 C 
ATOM     48  C   UNL     1      11.927   7.631  -4.850  1.00  0.00     0.029 A 
ATOM     49  N   UNL     1      11.437   9.611  -5.771  1.00  0.00    -0.354 N 
ATOM     50  C   UNL     1      12.264  13.298  -3.714  1.00  0.00     0.074 A 
ATOM     51  C   UNL     1      12.896  13.054  -2.434  1.00  0.00     0.031 C 
ATOM     52  C   UNL     1      11.322   7.391  -6.024  1.00  0.00     0.029 A 
ATOM     53  C   UNL     1      10.947   8.662  -6.634  1.00  0.00     0.049 A 
ATOM     54  H   UNL     1      11.377  10.578  -5.942  1.00  0.00     0.167 HD
ATOM     55  C   UNL     1      11.967  14.528  -4.199  1.00  0.00     0.031 A 
ATOM     56  C   UNL     1      10.245   8.793  -7.776  1.00  0.00     0.031 A 
ATOM     57  C   UNL     1      11.341  14.772  -5.471  1.00  0.00     0.049 A 
ATOM     58  C   UNL     1       9.901  10.163  -8.280  1.00  0.00     0.074 A 
ATOM     59  C   UNL     1      11.080  15.984  -6.086  1.00  0.00     0.029 A 
ATOM     60  N   UNL     1      10.864  13.783  -6.318  1.00  0.00    -0.354 N 
ATOM     61  N   UNL     1      10.181  11.328  -7.750  1.00  0.00    -0.248 NA
ATOM     62  C   UNL     1       9.144  10.236  -9.537  1.00  0.00     0.031 C 
ATOM     63  C   UNL     1      10.395  15.731  -7.280  1.00  0.00     0.029 A 
ATOM     64  C   UNL     1      10.271  14.359  -7.429  1.00  0.00     0.049 A 
ATOM     65  H   UNL     1      10.937  12.815  -6.153  1.00  0.00     0.167 HD
ATOM     66  C   UNL     1       9.640  12.274  -8.611  1.00  0.00     0.074 A 
ATOM     67  C   UNL     1       9.033  11.546  -9.707  1.00  0.00     0.031 C 
ATOM     68  C   UNL     1       9.648  13.624  -8.500  1.00  0.00     0.031 A 
BRANCH  55  69
ATOM     69  C   UNL     1      12.301  15.708  -3.330  1.00  0.00    -0.014 A 
ATOM     70  C   UNL     1      13.630  16.109  -3.124  1.00  0.00     0.009 A 
ATOM     71  C   UNL     1      11.268  16.442  -2.726  1.00  0.00     0.009 A 
ATOM     72  C   UNL     1      13.921  17.195  -2.296  1.00  0.00     0.001 A 
ATOM     73  C   UNL     1      11.560  17.543  -1.919  1.00  0.00     0.001 A 
ATOM     74  C   UNL     1      12.886  17.912  -1.696  1.00  0.00     0.000 A 
ENDBRANCH  55  69
BRANCH  56  75
ATOM     75  C   UNL     1       9.805   7.577  -8.503  1.00  0.00    -0.014 A 
ATOM     76  C   UNL     1      10.450   7.179  -9.682  1.00  0.00     0.009 A 
ATOM     77  C   UNL     1       8.759   6.787  -7.997  1.00  0.00     0.009 A 
ATOM     78  C   UNL     1      10.051   6.017 -10.346  1.00  0.00     0.001 A 
ATOM     79  C   UNL     1       8.379   5.614  -8.651  1.00  0.00     0.001 A 
ATOM     80  C   UNL     1       9.022   5.232  -9.827  1.00  0.00     0.000 A 
ENDBRANCH  56  75
BRANCH  68  81
ATOM     81  C   UNL     1       8.971  14.404  -9.589  1.00  0.00    -0.014 A 
ATOM     82  C   UNL     1       7.571  14.480  -9.656  1.00  0.00     0.009 A 
ATOM     83  C   UNL     1       9.739  15.105 -10.532  1.00  0.00     0.009 A 
ATOM     84  C   UNL     1       6.953  15.229 -10.660  1.00  0.00     0.001 A 
ATOM     85  C   UNL     1       9.118  15.870 -11.520  1.00  0.00     0.001 A 
ATOM     86  C   UNL     1       7.727  15.926 -11.587  1.00  0.00     0.000 A 
ENDBRANCH  68  81
ENDBRANCH  42  43
ENDBRANCH  34  37
ENDBRANCH  32  33
ENDBRANCH  31  32
ENDBRANCH  30  31
ENDBRANCH   3  30
TORSDOF 16
