REMARK SMILES O=C(NCCCNC(=O)c1nccnc1C(=O)Nc1ccc2c(c1)OCO2)c1ccc(-c2c3nc(c(-c4ccccc4)c4ccc([nH]4)c(-c4ccccc4)c4nc(c(-c5ccccc5)c5ccc2[nH]5)C=C4)C=C3)cc1
REMARK SMILES IDX 5 1 4 2 3 3 1 4 2 5 28 7 29 8 75 9 30 10 74 11 31 12 32 13
REMARK SMILES IDX 33 14 68 15 34 16 73 17 67 18 69 19 35 20 72 21 66 22 65 23
REMARK SMILES IDX 36 25 58 26 43 27 57 28 44 29 47 30 56 31 70 32 45 33 46 34
REMARK SMILES IDX 55 36 71 37 48 38 37 39 38 40 42 41 39 42 41 43 40 44 59 45
REMARK SMILES IDX 60 46 64 47 61 48 63 49 62 50 49 51 50 52 54 53 51 54 53 55
REMARK SMILES IDX 52 56 6 57 7 58 8 59 9 61 10 62 11 63 15 64 12 65 14 66
REMARK SMILES IDX 13 67 16 68 17 69 18 70 19 72 20 73 24 74 21 75 23 76 22 77
REMARK SMILES IDX 25 78 27 79 26 80
REMARK H PARENT 3 6 69 24 47 35 7 60 18 71
REMARK Flexibility Score: inf
ROOT
ATOM      1  C   UNL     1       4.442  -0.395  -3.271  1.00  0.00     0.042 C 
ENDROOT
BRANCH   1   2
ATOM      2  C   UNL     1       4.129  -0.319  -1.776  1.00  0.00     0.118 C 
BRANCH   2   3
ATOM      3  N   UNL     1       2.762  -0.030  -1.383  1.00  0.00    -0.352 N 
ATOM      4  O   UNL     1       0.989  -0.003   0.027  1.00  0.00    -0.269 OA
ATOM      5  C   UNL     1       2.169  -0.281  -0.164  1.00  0.00     0.251 C 
ATOM      6  H   UNL     1       2.193   0.394  -2.065  1.00  0.00     0.163 HD
BRANCH   5   7
ATOM      7  C   UNL     1       2.960  -0.925   0.907  1.00  0.00     0.039 A 
ATOM      8  C   UNL     1       4.171  -0.371   1.325  1.00  0.00     0.014 A 
ATOM      9  C   UNL     1       2.488  -2.106   1.488  1.00  0.00     0.014 A 
ATOM     10  C   UNL     1       4.971  -1.066   2.229  1.00  0.00     0.010 A 
ATOM     11  C   UNL     1       3.266  -2.771   2.442  1.00  0.00     0.010 A 
ATOM     12  C   UNL     1       4.531  -2.275   2.796  1.00  0.00    -0.014 A 
BRANCH  12  13
ATOM     13  C   UNL     1       5.397  -2.975   3.781  1.00  0.00     0.031 A 
ATOM     14  C   UNL     1       6.026  -4.306   3.467  1.00  0.00     0.074 A 
ATOM     15  C   UNL     1       5.659  -2.376   4.960  1.00  0.00     0.049 A 
ATOM     16  N   UNL     1       6.864  -5.010   4.189  1.00  0.00    -0.248 NA
ATOM     17  C   UNL     1       5.670  -4.930   2.184  1.00  0.00     0.031 C 
ATOM     18  C   UNL     1       5.101  -1.094   5.395  1.00  0.00     0.029 A 
ATOM     19  N   UNL     1       6.476  -2.753   5.995  1.00  0.00    -0.354 N 
ATOM     20  C   UNL     1       7.133  -6.157   3.452  1.00  0.00     0.074 A 
ATOM     21  C   UNL     1       6.344  -6.072   2.241  1.00  0.00     0.031 C 
ATOM     22  C   UNL     1       5.625  -0.770   6.587  1.00  0.00     0.029 A 
ATOM     23  C   UNL     1       6.518  -1.840   7.020  1.00  0.00     0.049 A 
ATOM     24  H   UNL     1       6.983  -3.597   6.002  1.00  0.00     0.167 HD
ATOM     25  C   UNL     1       7.968  -7.183   3.750  1.00  0.00     0.031 A 
ATOM     26  C   UNL     1       7.193  -1.858   8.184  1.00  0.00     0.031 A 
ATOM     27  C   UNL     1       8.747  -7.281   4.959  1.00  0.00     0.049 A 
ATOM     28  C   UNL     1       8.094  -3.017   8.496  1.00  0.00     0.074 A 
ATOM     29  C   UNL     1       9.627  -8.281   5.339  1.00  0.00     0.029 A 
ATOM     30  N   UNL     1       8.738  -6.349   5.984  1.00  0.00    -0.354 N 
ATOM     31  N   UNL     1       8.360  -4.075   7.770  1.00  0.00    -0.248 NA
ATOM     32  C   UNL     1       8.795  -2.977   9.787  1.00  0.00     0.031 C 
ATOM     33  C   UNL     1      10.118  -7.974   6.613  1.00  0.00     0.029 A 
ATOM     34  C   UNL     1       9.584  -6.758   7.003  1.00  0.00     0.049 A 
ATOM     35  H   UNL     1       8.209  -5.518   5.987  1.00  0.00     0.167 HD
ATOM     36  C   UNL     1       9.266  -4.822   8.512  1.00  0.00     0.074 A 
ATOM     37  C   UNL     1       9.527  -4.080   9.728  1.00  0.00     0.031 C 
ATOM     38  C   UNL     1       9.825  -6.020   8.214  1.00  0.00     0.031 A 
BRANCH  25  39
ATOM     39  C   UNL     1       8.080  -8.302   2.751  1.00  0.00    -0.014 A 
ATOM     40  C   UNL     1       8.778  -8.127   1.545  1.00  0.00     0.009 A 
ATOM     41  C   UNL     1       7.541  -9.563   3.046  1.00  0.00     0.009 A 
ATOM     42  C   UNL     1       8.913  -9.188   0.646  1.00  0.00     0.001 A 
ATOM     43  C   UNL     1       7.698 -10.628   2.156  1.00  0.00     0.001 A 
ATOM     44  C   UNL     1       8.378 -10.438   0.955  1.00  0.00     0.000 A 
ENDBRANCH  25  39
BRANCH  26  45
ATOM     45  C   UNL     1       7.029  -0.742   9.149  1.00  0.00    -0.014 A 
ATOM     46  C   UNL     1       8.078   0.157   9.395  1.00  0.00     0.009 A 
ATOM     47  C   UNL     1       5.814  -0.573   9.833  1.00  0.00     0.009 A 
ATOM     48  C   UNL     1       7.921   1.187  10.325  1.00  0.00     0.001 A 
ATOM     49  C   UNL     1       5.650   0.476  10.739  1.00  0.00     0.001 A 
ATOM     50  C   UNL     1       6.707   1.349  10.991  1.00  0.00     0.000 A 
ENDBRANCH  26  45
BRANCH  38  51
ATOM     51  C   UNL     1      10.785  -6.588   9.220  1.00  0.00    -0.014 A 
ATOM     52  C   UNL     1      10.333  -7.101  10.446  1.00  0.00     0.009 A 
ATOM     53  C   UNL     1      12.159  -6.614   8.937  1.00  0.00     0.009 A 
ATOM     54  C   UNL     1      11.243  -7.589  11.386  1.00  0.00     0.001 A 
ATOM     55  C   UNL     1      13.064  -7.127   9.868  1.00  0.00     0.001 A 
ATOM     56  C   UNL     1      12.606  -7.604  11.096  1.00  0.00     0.000 A 
ENDBRANCH  38  51
ENDBRANCH  12  13
ENDBRANCH   5   7
ENDBRANCH   2   3
ENDBRANCH   1   2
BRANCH   1  57
ATOM     57  C   UNL     1       3.659   0.499  -4.226  1.00  0.00     0.118 C 
BRANCH  57  58
ATOM     58  N   UNL     1       4.051   1.902  -4.269  1.00  0.00    -0.351 N 
ATOM     59  C   UNL     1       4.888   2.555  -5.165  1.00  0.00     0.272 C 
ATOM     60  H   UNL     1       3.667   2.468  -3.561  1.00  0.00     0.163 HD
ATOM     61  O   UNL     1       4.801   3.771  -5.309  1.00  0.00    -0.267 OA
BRANCH  59  62
ATOM     62  C   UNL     1       5.830   1.794  -6.012  1.00  0.00     0.159 A 
ATOM     63  N   UNL     1       5.163   0.893  -6.817  1.00  0.00    -0.247 NA
ATOM     64  C   UNL     1       7.200   2.020  -6.126  1.00  0.00     0.159 A 
ATOM     65  C   UNL     1       5.884   0.240  -7.744  1.00  0.00     0.132 A 
ATOM     66  N   UNL     1       7.908   1.267  -7.043  1.00  0.00    -0.247 NA
ATOM     67  C   UNL     1       7.239   0.418  -7.850  1.00  0.00     0.132 A 
BRANCH  64  68
ATOM     68  C   UNL     1       8.104   3.089  -5.541  1.00  0.00     0.276 C 
ATOM     69  O   UNL     1       9.215   3.251  -6.070  1.00  0.00    -0.267 OA
ATOM     70  N   UNL     1       7.808   4.025  -4.583  1.00  0.00    -0.320 N 
ATOM     71  H   UNL     1       8.302   4.867  -4.704  1.00  0.00     0.170 HD
BRANCH  70  72
ATOM     72  C   UNL     1       6.963   4.045  -3.481  1.00  0.00     0.045 A 
ATOM     73  C   UNL     1       6.773   2.930  -2.653  1.00  0.00     0.030 A 
ATOM     74  C   UNL     1       6.298   5.253  -3.229  1.00  0.00     0.076 A 
ATOM     75  C   UNL     1       5.835   2.996  -1.617  1.00  0.00     0.053 A 
ATOM     76  C   UNL     1       5.295   5.236  -2.292  1.00  0.00     0.167 A 
ATOM     77  C   UNL     1       5.056   4.128  -1.518  1.00  0.00     0.165 A 
ATOM     78  O   UNL     1       4.395   6.230  -2.066  1.00  0.00    -0.454 OA
ATOM     79  O   UNL     1       3.966   4.284  -0.720  1.00  0.00    -0.454 OA
ATOM     80  C   UNL     1       3.442   5.526  -1.244  1.00  0.00     0.468 C 
ENDBRANCH  70  72
ENDBRANCH  64  68
ENDBRANCH  59  62
ENDBRANCH  57  58
ENDBRANCH   1  57
TORSDOF 12
