REMARK SMILES Cc1cc(C)cc(C(=O)N2CC[C@H](C(=O)NCCCNC(=O)c3ccc(-c4c5nc(c(-c6ccccc6)c6ccc([nH]6)c(-c6ccccc6)c6nc(c(-c7ccccc7)c7ccc4[nH]7)C=C6)C=C5)cc3)[C@@H]2C)c1
REMARK SMILES IDX 18 1 17 2 16 3 14 4 15 5 13 7 10 8 11 9 71 10 12 11 72 12
REMARK SMILES IDX 8 13 9 14 7 15 1 16 2 17 3 18 73 19 4 20 5 21 6 22 19 23
REMARK SMILES IDX 20 24 21 25 22 27 23 28 24 29 70 30 25 31 69 32 26 33 27 34
REMARK SMILES IDX 28 35 63 36 29 37 68 38 62 39 64 40 30 41 67 42 61 43 60 44
REMARK SMILES IDX 31 46 53 47 38 48 52 49 39 50 42 51 51 52 65 53 40 54 41 55
REMARK SMILES IDX 50 57 66 58 43 59 32 60 33 61 37 62 34 63 36 64 35 65 54 66
REMARK SMILES IDX 55 67 59 68 56 69 58 70 57 71 44 72 45 73 49 74 46 75 48 76
REMARK SMILES IDX 47 77
REMARK H PARENT 16 6 20 26 64 45 42 56
REMARK Flexibility Score: inf
ROOT
ATOM      1  C   UNL     1       5.858  -4.604   3.589  1.00  0.00     0.042 C 
ENDROOT
BRANCH   1   2
ATOM      2  C   UNL     1       5.885  -5.102   2.147  1.00  0.00     0.117 C 
BRANCH   2   3
ATOM      3  N   UNL     1       4.858  -6.093   1.886  1.00  0.00    -0.356 N 
ATOM      4  C   UNL     1       3.761  -6.059   1.083  1.00  0.00     0.225 C 
ATOM      5  O   UNL     1       3.072  -7.078   1.020  1.00  0.00    -0.275 OA
ATOM      6  H   UNL     1       4.976  -6.939   2.376  1.00  0.00     0.163 HD
BRANCH   4   7
ATOM      7  C   UNL     1       3.415  -4.803   0.299  1.00  0.00     0.102 C 
ATOM      8  N   UNL     1       1.220  -4.006  -0.187  1.00  0.00    -0.335 N 
ATOM      9  C   UNL     1       1.444  -5.155  -1.037  1.00  0.00     0.121 C 
ATOM     10  C   UNL     1       2.245  -3.958   0.868  1.00  0.00     0.094 C 
ATOM     11  C   UNL     1       2.956  -5.198  -1.118  1.00  0.00     0.037 C 
ATOM     12  C   UNL     1       1.670  -4.437   2.201  1.00  0.00     0.032 C 
BRANCH   8  13
ATOM     13  C   UNL     1       0.114  -3.208  -0.421  1.00  0.00     0.254 C 
ATOM     14  O   UNL     1      -0.871  -3.638  -1.022  1.00  0.00    -0.269 OA
BRANCH  13  15
ATOM     15  C   UNL     1       0.124  -1.760  -0.071  1.00  0.00     0.040 A 
ATOM     16  C   UNL     1       2.496   1.226  -0.053  1.00  0.00     0.044 C 
ATOM     17  C   UNL     1       1.246   0.401   0.031  1.00  0.00    -0.050 A 
ATOM     18  C   UNL     1       0.005   1.028   0.203  1.00  0.00     0.006 A 
ATOM     19  C   UNL     1       1.290  -0.989  -0.146  1.00  0.00     0.017 A 
ATOM     20  C   UNL     1      -1.179   0.282   0.221  1.00  0.00    -0.050 A 
ATOM     21  C   UNL     1      -2.504   0.985   0.275  1.00  0.00     0.044 C 
ATOM     22  C   UNL     1      -1.109  -1.113   0.102  1.00  0.00     0.017 A 
ENDBRANCH  13  15
ENDBRANCH   8  13
ENDBRANCH   4   7
ENDBRANCH   2   3
ENDBRANCH   1   2
BRANCH   1  23
ATOM     23  C   UNL     1       6.057  -5.686   4.649  1.00  0.00     0.118 C 
BRANCH  23  24
ATOM     24  N   UNL     1       7.325  -6.388   4.524  1.00  0.00    -0.352 N 
ATOM     25  C   UNL     1       8.306  -6.643   5.447  1.00  0.00     0.251 C 
ATOM     26  H   UNL     1       7.510  -6.739   3.623  1.00  0.00     0.163 HD
ATOM     27  O   UNL     1       9.360  -7.154   5.065  1.00  0.00    -0.269 OA
BRANCH  25  28
ATOM     28  C   UNL     1       8.143  -6.301   6.879  1.00  0.00     0.039 A 
ATOM     29  C   UNL     1       9.264  -5.833   7.575  1.00  0.00     0.014 A 
ATOM     30  C   UNL     1       6.937  -6.482   7.561  1.00  0.00     0.014 A 
ATOM     31  C   UNL     1       9.162  -5.500   8.928  1.00  0.00     0.010 A 
ATOM     32  C   UNL     1       6.817  -6.084   8.894  1.00  0.00     0.010 A 
ATOM     33  C   UNL     1       7.930  -5.594   9.593  1.00  0.00    -0.014 A 
BRANCH  33  34
ATOM     34  C   UNL     1       7.806  -5.171  11.012  1.00  0.00     0.031 A 
ATOM     35  C   UNL     1       7.505  -6.173  12.093  1.00  0.00     0.074 A 
ATOM     36  C   UNL     1       7.939  -3.868  11.328  1.00  0.00     0.049 A 
ATOM     37  N   UNL     1       7.393  -5.982  13.384  1.00  0.00    -0.248 NA
ATOM     38  C   UNL     1       7.283  -7.564  11.670  1.00  0.00     0.031 C 
ATOM     39  C   UNL     1       8.181  -2.785  10.373  1.00  0.00     0.029 A 
ATOM     40  N   UNL     1       7.896  -3.235  12.545  1.00  0.00    -0.354 N 
ATOM     41  C   UNL     1       7.074  -7.221  13.924  1.00  0.00     0.074 A 
ATOM     42  C   UNL     1       6.969  -8.148  12.818  1.00  0.00     0.031 C 
ATOM     43  C   UNL     1       8.302  -1.628  11.043  1.00  0.00     0.029 A 
ATOM     44  C   UNL     1       8.123  -1.883  12.469  1.00  0.00     0.049 A 
ATOM     45  H   UNL     1       7.721  -3.706  13.392  1.00  0.00     0.167 HD
ATOM     46  C   UNL     1       6.902  -7.564  15.224  1.00  0.00     0.031 A 
ATOM     47  C   UNL     1       8.190  -0.951  13.438  1.00  0.00     0.031 A 
ATOM     48  C   UNL     1       7.019  -6.653  16.331  1.00  0.00     0.049 A 
ATOM     49  C   UNL     1       8.022  -1.361  14.872  1.00  0.00     0.074 A 
ATOM     50  C   UNL     1       6.918  -6.923  17.686  1.00  0.00     0.029 A 
ATOM     51  N   UNL     1       7.264  -5.295  16.211  1.00  0.00    -0.354 N 
ATOM     52  N   UNL     1       7.793  -2.551  15.369  1.00  0.00    -0.248 NA
ATOM     53  C   UNL     1       8.140  -0.297  15.880  1.00  0.00     0.031 C 
ATOM     54  C   UNL     1       7.067  -5.719  18.384  1.00  0.00     0.029 A 
ATOM     55  C   UNL     1       7.302  -4.709  17.466  1.00  0.00     0.049 A 
ATOM     56  H   UNL     1       7.391  -4.816  15.360  1.00  0.00     0.167 HD
ATOM     57  C   UNL     1       7.762  -2.385  16.747  1.00  0.00     0.074 A 
ATOM     58  C   UNL     1       8.013  -0.982  17.007  1.00  0.00     0.031 C 
ATOM     59  C   UNL     1       7.545  -3.312  17.711  1.00  0.00     0.031 A 
BRANCH  46  60
ATOM     60  C   UNL     1       6.564  -8.999  15.517  1.00  0.00    -0.014 A 
ATOM     61  C   UNL     1       7.528 -10.011  15.388  1.00  0.00     0.009 A 
ATOM     62  C   UNL     1       5.276  -9.339  15.960  1.00  0.00     0.009 A 
ATOM     63  C   UNL     1       7.199 -11.341  15.662  1.00  0.00     0.001 A 
ATOM     64  C   UNL     1       4.957 -10.665  16.258  1.00  0.00     0.001 A 
ATOM     65  C   UNL     1       5.915 -11.665  16.100  1.00  0.00     0.000 A 
ENDBRANCH  46  60
BRANCH  47  66
ATOM     66  C   UNL     1       8.471   0.463  13.085  1.00  0.00    -0.014 A 
ATOM     67  C   UNL     1       9.730   1.022  13.350  1.00  0.00     0.009 A 
ATOM     68  C   UNL     1       7.484   1.259  12.485  1.00  0.00     0.009 A 
ATOM     69  C   UNL     1       9.988   2.360  13.042  1.00  0.00     0.001 A 
ATOM     70  C   UNL     1       7.753   2.589  12.157  1.00  0.00     0.001 A 
ATOM     71  C   UNL     1       9.001   3.140  12.443  1.00  0.00     0.000 A 
ENDBRANCH  47  66
BRANCH  59  72
ATOM     72  C   UNL     1       7.595  -2.838  19.135  1.00  0.00    -0.014 A 
ATOM     73  C   UNL     1       6.555  -2.071  19.681  1.00  0.00     0.009 A 
ATOM     74  C   UNL     1       8.691  -3.178  19.943  1.00  0.00     0.009 A 
ATOM     75  C   UNL     1       6.630  -1.620  21.001  1.00  0.00     0.001 A 
ATOM     76  C   UNL     1       8.751  -2.747  21.269  1.00  0.00     0.001 A 
ATOM     77  C   UNL     1       7.726  -1.960  21.794  1.00  0.00     0.000 A 
ENDBRANCH  59  72
ENDBRANCH  33  34
ENDBRANCH  25  28
ENDBRANCH  23  24
ENDBRANCH   1  23
TORSDOF 12
