REMARK SMILES Cc1nc(-c2ccc(C(F)(F)F)cc2)nc(SCC(=O)NCCCNC(=O)c2ccc(-c3c4nc(c(-c5ccccc5)c5ccc([nH]5)c(-c5ccccc5)c5nc(c(-c6ccccc6)c6ccc3[nH]6)C=C5)C=C4)cc2)c1C
REMARK SMILES IDX 22 1 21 2 19 3 20 4 18 6 17 7 16 8 1 9 2 10 3 11 76 12 4 13
REMARK SMILES IDX 77 14 15 15 5 16 6 17 14 18 7 19 13 20 8 21 9 22 10 23 11 24
REMARK SMILES IDX 12 25 23 26 24 27 25 28 26 29 27 31 28 32 29 33 75 34 30 35
REMARK SMILES IDX 74 36 31 37 32 38 33 39 68 40 34 41 73 42 67 43 69 44 35 45
REMARK SMILES IDX 72 46 66 47 65 48 36 50 58 51 43 52 57 53 44 54 47 55 56 56
REMARK SMILES IDX 70 57 45 58 46 59 55 61 71 62 48 63 37 64 38 65 42 66 39 67
REMARK SMILES IDX 41 68 40 69 59 70 60 71 64 72 61 73 63 74 62 75 49 76 50 77
REMARK SMILES IDX 54 78 51 79 53 80 52 81
REMARK H PARENT 21 5 25 30 69 49 47 60
REMARK Flexibility Score: inf
ROOT
ATOM      1  C   UNL     1      -2.330   5.641  -3.179  1.00  0.00     0.117 C 
ENDROOT
BRANCH   1   2
ATOM      2  N   UNL     1      -1.587   5.436  -1.951  1.00  0.00    -0.355 N 
ATOM      3  C   UNL     1      -0.283   5.104  -1.762  1.00  0.00     0.230 C 
ATOM      4  O   UNL     1       0.145   5.175  -0.607  1.00  0.00    -0.274 OA
ATOM      5  H   UNL     1      -2.109   5.557  -1.125  1.00  0.00     0.163 HD
BRANCH   3   6
ATOM      6  C   UNL     1       0.642   4.780  -2.915  1.00  0.00     0.176 C 
BRANCH   6   7
ATOM      7  S   UNL     1       0.203   3.338  -3.921  1.00  0.00    -0.096 SA
BRANCH   7   8
ATOM      8  C   UNL     1       0.273   1.809  -3.005  1.00  0.00     0.104 A 
ATOM      9  C   UNL     1       0.890  -0.288   0.078  1.00  0.00     0.067 C 
ATOM     10  C   UNL     1       0.521   0.193  -1.298  1.00  0.00     0.045 A 
ATOM     11  N   UNL     1      -0.004  -0.760  -2.084  1.00  0.00    -0.233 NA
ATOM     12  C   UNL     1       0.723   1.514  -1.720  1.00  0.00     0.003 A 
ATOM     13  C   UNL     1      -0.322  -0.412  -3.332  1.00  0.00     0.160 A 
ATOM     14  C   UNL     1       1.339   2.472  -0.756  1.00  0.00     0.049 C 
ATOM     15  N   UNL     1      -0.212   0.829  -3.817  1.00  0.00    -0.221 NA
BRANCH  13  16
ATOM     16  C   UNL     1      -0.791  -1.496  -4.201  1.00  0.00     0.019 A 
ATOM     17  C   UNL     1      -1.741  -2.420  -3.729  1.00  0.00     0.012 A 
ATOM     18  C   UNL     1      -0.253  -1.709  -5.481  1.00  0.00     0.012 A 
ATOM     19  C   UNL     1      -2.114  -3.534  -4.485  1.00  0.00     0.014 A 
ATOM     20  C   UNL     1      -0.611  -2.834  -6.237  1.00  0.00     0.014 A 
ATOM     21  C   UNL     1      -1.533  -3.766  -5.739  1.00  0.00     0.056 A 
BRANCH  21  22
ATOM     22  C   UNL     1      -1.893  -5.015  -6.506  1.00  0.00     0.416 C 
ATOM     23  F   UNL     1      -1.662  -6.151  -5.789  1.00  0.00    -0.166 F 
ATOM     24  F   UNL     1      -3.210  -5.056  -6.851  1.00  0.00    -0.166 F 
ATOM     25  F   UNL     1      -1.198  -5.163  -7.669  1.00  0.00    -0.166 F 
ENDBRANCH  21  22
ENDBRANCH  13  16
ENDBRANCH   7   8
ENDBRANCH   6   7
ENDBRANCH   3   6
ENDBRANCH   1   2
BRANCH   1  26
ATOM     26  C   UNL     1      -3.356   4.541  -3.433  1.00  0.00     0.042 C 
BRANCH  26  27
ATOM     27  C   UNL     1      -4.373   4.356  -2.310  1.00  0.00     0.118 C 
BRANCH  27  28
ATOM     28  N   UNL     1      -5.189   5.540  -2.081  1.00  0.00    -0.352 N 
ATOM     29  C   UNL     1      -6.513   5.782  -2.352  1.00  0.00     0.251 C 
ATOM     30  H   UNL     1      -4.712   6.292  -1.662  1.00  0.00     0.163 HD
ATOM     31  O   UNL     1      -6.950   6.924  -2.250  1.00  0.00    -0.269 OA
BRANCH  29  32
ATOM     32  C   UNL     1      -7.416   4.691  -2.778  1.00  0.00     0.039 A 
ATOM     33  C   UNL     1      -8.342   4.945  -3.796  1.00  0.00     0.014 A 
ATOM     34  C   UNL     1      -7.401   3.445  -2.148  1.00  0.00     0.014 A 
ATOM     35  C   UNL     1      -9.209   3.935  -4.219  1.00  0.00     0.010 A 
ATOM     36  C   UNL     1      -8.214   2.416  -2.619  1.00  0.00     0.010 A 
ATOM     37  C   UNL     1      -9.132   2.653  -3.652  1.00  0.00    -0.014 A 
BRANCH  37  38
ATOM     38  C   UNL     1     -10.026   1.557  -4.104  1.00  0.00     0.031 A 
ATOM     39  C   UNL     1     -11.052   0.986  -3.163  1.00  0.00     0.074 A 
ATOM     40  C   UNL     1      -9.890   1.047  -5.343  1.00  0.00     0.049 A 
ATOM     41  N   UNL     1     -11.878  -0.012  -3.351  1.00  0.00    -0.248 NA
ATOM     42  C   UNL     1     -11.150   1.606  -1.832  1.00  0.00     0.031 C 
ATOM     43  C   UNL     1      -8.926   1.503  -6.346  1.00  0.00     0.029 A 
ATOM     44  N   UNL     1     -10.566   0.030  -5.968  1.00  0.00    -0.354 N 
ATOM     45  C   UNL     1     -12.584  -0.144  -2.162  1.00  0.00     0.074 A 
ATOM     46  C   UNL     1     -12.056   0.840  -1.243  1.00  0.00     0.031 C 
ATOM     47  C   UNL     1      -9.096   0.791  -7.472  1.00  0.00     0.029 A 
ATOM     48  C   UNL     1     -10.147  -0.199  -7.256  1.00  0.00     0.049 A 
ATOM     49  H   UNL     1     -11.284  -0.486  -5.535  1.00  0.00     0.167 HD
ATOM     50  C   UNL     1     -13.598  -0.992  -1.868  1.00  0.00     0.031 A 
ATOM     51  C   UNL     1     -10.558  -1.108  -8.161  1.00  0.00     0.031 A 
ATOM     52  C   UNL     1     -14.131  -1.965  -2.782  1.00  0.00     0.049 A 
ATOM     53  C   UNL     1     -11.652  -2.072  -7.793  1.00  0.00     0.074 A 
ATOM     54  C   UNL     1     -15.181  -2.845  -2.586  1.00  0.00     0.029 A 
ATOM     55  N   UNL     1     -13.656  -2.185  -4.066  1.00  0.00    -0.354 N 
ATOM     56  N   UNL     1     -12.334  -2.159  -6.677  1.00  0.00    -0.248 NA
ATOM     57  C   UNL     1     -12.032  -3.061  -8.812  1.00  0.00     0.031 C 
ATOM     58  C   UNL     1     -15.310  -3.632  -3.735  1.00  0.00     0.029 A 
ATOM     59  C   UNL     1     -14.376  -3.204  -4.665  1.00  0.00     0.049 A 
ATOM     60  H   UNL     1     -12.918  -1.690  -4.488  1.00  0.00     0.167 HD
ATOM     61  C   UNL     1     -13.235  -3.199  -6.865  1.00  0.00     0.074 A 
ATOM     62  C   UNL     1     -13.027  -3.699  -8.208  1.00  0.00     0.031 C 
ATOM     63  C   UNL     1     -14.152  -3.696  -5.999  1.00  0.00     0.031 A 
BRANCH  50  64
ATOM     64  C   UNL     1     -14.201  -0.902  -0.494  1.00  0.00    -0.014 A 
ATOM     65  C   UNL     1     -15.002   0.192  -0.127  1.00  0.00     0.009 A 
ATOM     66  C   UNL     1     -14.008  -1.943   0.427  1.00  0.00     0.009 A 
ATOM     67  C   UNL     1     -15.574   0.254   1.145  1.00  0.00     0.001 A 
ATOM     68  C   UNL     1     -14.604  -1.891   1.688  1.00  0.00     0.001 A 
ATOM     69  C   UNL     1     -15.380  -0.790   2.049  1.00  0.00     0.000 A 
ENDBRANCH  50  64
BRANCH  51  70
ATOM     70  C   UNL     1      -9.944  -1.137  -9.514  1.00  0.00    -0.014 A 
ATOM     71  C   UNL     1     -10.677  -0.711 -10.632  1.00  0.00     0.009 A 
ATOM     72  C   UNL     1      -8.624  -1.580  -9.695  1.00  0.00     0.009 A 
ATOM     73  C   UNL     1     -10.105  -0.742 -11.906  1.00  0.00     0.001 A 
ATOM     74  C   UNL     1      -8.047  -1.584 -10.966  1.00  0.00     0.001 A 
ATOM     75  C   UNL     1      -8.790  -1.173 -12.072  1.00  0.00     0.000 A 
ENDBRANCH  51  70
BRANCH  63  76
ATOM     76  C   UNL     1     -15.009  -4.833  -6.477  1.00  0.00    -0.014 A 
ATOM     77  C   UNL     1     -14.485  -6.128  -6.612  1.00  0.00     0.009 A 
ATOM     78  C   UNL     1     -16.374  -4.621  -6.728  1.00  0.00     0.009 A 
ATOM     79  C   UNL     1     -15.306  -7.183  -7.012  1.00  0.00     0.001 A 
ATOM     80  C   UNL     1     -17.198  -5.684  -7.101  1.00  0.00     0.001 A 
ATOM     81  C   UNL     1     -16.663  -6.962  -7.248  1.00  0.00     0.000 A 
ENDBRANCH  63  76
ENDBRANCH  37  38
ENDBRANCH  29  32
ENDBRANCH  27  28
ENDBRANCH  26  27
ENDBRANCH   1  26
TORSDOF 14
