REMARK SMILES COc1ccc(-n2ccnc2C[N@@H+]2Cc3[nH]cnc3C[C@@H]2C(=O)NCCCNC(=O)c2ccc(-c3c4nc(c(-c5ccccc5)c5ccc([nH]5)c(-c5ccccc5)c5nc(c(-c6ccccc6)c6ccc3[nH]6)C=C5)C=C4)cc2)cc1
REMARK SMILES IDX 25 1 24 2 22 3 23 4 21 6 13 7 14 8 15 10 20 11 16 12 19 13
REMARK SMILES IDX 17 14 18 16 12 17 11 18 7 19 8 20 9 21 10 22 6 23 3 24 4 25
REMARK SMILES IDX 80 26 5 27 79 28 2 29 1 30 26 31 27 32 28 33 29 34 30 36
REMARK SMILES IDX 31 37 32 38 78 39 33 40 77 41 34 42 35 43 36 44 71 45 37 46
REMARK SMILES IDX 76 47 70 48 72 49 38 50 75 51 69 52 68 53 39 55 61 56 46 57
REMARK SMILES IDX 60 58 47 59 50 60 59 61 73 62 48 63 49 64 58 66 74 67 51 68
REMARK SMILES IDX 40 69 41 70 45 71 42 72 44 73 43 74 62 75 63 76 67 77 64 78
REMARK SMILES IDX 66 79 65 80 52 81 53 82 57 83 54 84 56 85 55 86
REMARK H PARENT 24 5 13 9 16 15 28 35 72 54 50 65
REMARK Flexibility Score: inf
ROOT
ATOM      1  C   UNL     1      -2.966  -6.020   5.611  1.00  0.00     0.118 C 
ENDROOT
BRANCH   1   2
ATOM      2  N   UNL     1      -2.662  -4.975   6.587  1.00  0.00    -0.351 N 
ATOM      3  C   UNL     1      -1.523  -4.394   7.062  1.00  0.00     0.278 C 
ATOM      4  O   UNL     1      -1.703  -3.721   8.084  1.00  0.00    -0.268 OA
ATOM      5  H   UNL     1      -3.474  -4.601   7.000  1.00  0.00     0.163 HD
BRANCH   3   6
ATOM      6  C   UNL     1      -0.111  -4.600   6.428  1.00  0.00     0.280 C 
ATOM      7  N   UNL     1       0.890  -3.506   6.823  1.00  0.00    -0.313 N 
ATOM      8  C   UNL     1       2.164  -3.647   6.072  1.00  0.00     0.320 C 
ATOM      9  H   UNL     1       1.067  -3.653   7.817  1.00  0.00     0.349 HD
ATOM     10  C   UNL     1       1.864  -3.641   4.626  1.00  0.00     0.093 A 
ATOM     11  C   UNL     1      -0.201  -4.962   4.919  1.00  0.00     0.134 C 
ATOM     12  N   UNL     1       2.361  -2.879   3.611  1.00  0.00    -0.344 N 
ATOM     13  C   UNL     1       0.787  -4.278   4.086  1.00  0.00     0.074 A 
ATOM     14  C   UNL     1       1.558  -3.102   2.519  1.00  0.00     0.197 A 
ATOM     15  H   UNL     1       3.144  -2.284   3.653  1.00  0.00     0.167 HD
ATOM     16  N   UNL     1       0.613  -3.978   2.771  1.00  0.00    -0.241 NA
BRANCH   7  17
ATOM     17  C   UNL     1       0.361  -2.119   6.711  1.00  0.00     0.340 C 
BRANCH  17  18
ATOM     18  C   UNL     1       1.357  -1.068   7.176  1.00  0.00     0.168 A 
ATOM     19  N   UNL     1       1.934  -0.103   6.353  1.00  0.00    -0.299 N 
ATOM     20  C   UNL     1       3.018   0.396   7.044  1.00  0.00     0.113 A 
ATOM     21  C   UNL     1       2.960  -0.166   8.293  1.00  0.00     0.132 A 
ATOM     22  N   UNL     1       1.935  -1.061   8.369  1.00  0.00    -0.236 NA
BRANCH  19  23
ATOM     23  C   UNL     1       1.569   0.260   5.034  1.00  0.00     0.047 A 
ATOM     24  C   UNL     1       0.851   0.800   2.390  1.00  0.00     0.119 A 
ATOM     25  C   UNL     1      -0.134   0.674   3.370  1.00  0.00     0.048 A 
ATOM     26  C   UNL     1       2.199   0.730   2.744  1.00  0.00     0.048 A 
ATOM     27  C   UNL     1       0.220   0.390   4.690  1.00  0.00     0.030 A 
ATOM     28  C   UNL     1       2.563   0.483   4.072  1.00  0.00     0.030 A 
BRANCH  24  29
ATOM     29  O   UNL     1       0.422   1.091   1.125  1.00  0.00    -0.497 OA
ATOM     30  C   UNL     1       0.970   0.239   0.122  1.00  0.00     0.278 C 
ENDBRANCH  24  29
ENDBRANCH  19  23
ENDBRANCH  17  18
ENDBRANCH   7  17
ENDBRANCH   3   6
ENDBRANCH   1   2
BRANCH   1  31
ATOM     31  C   UNL     1      -3.295  -7.356   6.263  1.00  0.00     0.042 C 
BRANCH  31  32
ATOM     32  C   UNL     1      -4.660  -7.333   6.908  1.00  0.00     0.118 C 
BRANCH  32  33
ATOM     33  N   UNL     1      -5.761  -7.212   5.944  1.00  0.00    -0.352 N 
ATOM     34  C   UNL     1      -7.115  -7.352   6.185  1.00  0.00     0.251 C 
ATOM     35  H   UNL     1      -5.505  -7.007   5.015  1.00  0.00     0.163 HD
ATOM     36  O   UNL     1      -7.923  -7.470   5.269  1.00  0.00    -0.269 OA
BRANCH  34  37
ATOM     37  C   UNL     1      -7.564  -7.349   7.584  1.00  0.00     0.039 A 
ATOM     38  C   UNL     1      -8.513  -8.251   8.073  1.00  0.00     0.014 A 
ATOM     39  C   UNL     1      -6.926  -6.453   8.431  1.00  0.00     0.014 A 
ATOM     40  C   UNL     1      -8.758  -8.281   9.444  1.00  0.00     0.010 A 
ATOM     41  C   UNL     1      -6.978  -6.657   9.775  1.00  0.00     0.010 A 
ATOM     42  C   UNL     1      -7.972  -7.483  10.284  1.00  0.00    -0.014 A 
BRANCH  42  43
ATOM     43  C   UNL     1      -8.113  -7.470  11.730  1.00  0.00     0.031 A 
ATOM     44  C   UNL     1      -7.760  -8.738  12.419  1.00  0.00     0.074 A 
ATOM     45  C   UNL     1      -8.224  -6.291  12.382  1.00  0.00     0.049 A 
ATOM     46  N   UNL     1      -8.514  -9.469  13.169  1.00  0.00    -0.248 NA
ATOM     47  C   UNL     1      -6.431  -9.319  12.163  1.00  0.00     0.031 C 
ATOM     48  C   UNL     1      -8.216  -4.930  11.814  1.00  0.00     0.029 A 
ATOM     49  N   UNL     1      -8.195  -6.048  13.715  1.00  0.00    -0.354 N 
ATOM     50  C   UNL     1      -7.709 -10.509  13.630  1.00  0.00     0.074 A 
ATOM     51  C   UNL     1      -6.503 -10.464  12.844  1.00  0.00     0.031 C 
ATOM     52  C   UNL     1      -7.927  -4.035  12.783  1.00  0.00     0.029 A 
ATOM     53  C   UNL     1      -7.919  -4.729  14.055  1.00  0.00     0.049 A 
ATOM     54  H   UNL     1      -8.357  -6.749  14.388  1.00  0.00     0.167 HD
ATOM     55  C   UNL     1      -7.995 -11.176  14.784  1.00  0.00     0.031 A 
ATOM     56  C   UNL     1      -7.669  -4.248  15.295  1.00  0.00     0.031 A 
ATOM     57  C   UNL     1      -9.333 -10.893  15.238  1.00  0.00     0.049 A 
ATOM     58  C   UNL     1      -8.168  -5.255  16.259  1.00  0.00     0.074 A 
ATOM     59  C   UNL     1     -10.599 -11.097  14.728  1.00  0.00     0.029 A 
ATOM     60  N   UNL     1      -9.467  -9.933  16.213  1.00  0.00    -0.354 N 
ATOM     61  N   UNL     1      -9.430  -5.556  16.388  1.00  0.00    -0.248 NA
ATOM     62  C   UNL     1      -7.236  -6.264  16.736  1.00  0.00     0.031 C 
ATOM     63  C   UNL     1     -11.324  -9.918  15.075  1.00  0.00     0.029 A 
ATOM     64  C   UNL     1     -10.487  -9.098  15.835  1.00  0.00     0.049 A 
ATOM     65  H   UNL     1      -8.929  -9.858  17.034  1.00  0.00     0.167 HD
ATOM     66  C   UNL     1      -9.452  -6.935  16.540  1.00  0.00     0.074 A 
ATOM     67  C   UNL     1      -8.072  -7.301  16.858  1.00  0.00     0.031 C 
ATOM     68  C   UNL     1     -10.516  -7.676  16.107  1.00  0.00     0.031 A 
BRANCH  55  69
ATOM     69  C   UNL     1      -6.953 -11.757  15.710  1.00  0.00    -0.014 A 
ATOM     70  C   UNL     1      -7.383 -12.429  16.870  1.00  0.00     0.009 A 
ATOM     71  C   UNL     1      -5.583 -11.443  15.640  1.00  0.00     0.009 A 
ATOM     72  C   UNL     1      -6.507 -12.695  17.929  1.00  0.00     0.001 A 
ATOM     73  C   UNL     1      -4.696 -11.745  16.678  1.00  0.00     0.001 A 
ATOM     74  C   UNL     1      -5.165 -12.344  17.836  1.00  0.00     0.000 A 
ENDBRANCH  55  69
BRANCH  56  75
ATOM     75  C   UNL     1      -6.810  -3.115  15.692  1.00  0.00    -0.014 A 
ATOM     76  C   UNL     1      -6.977  -2.478  16.931  1.00  0.00     0.009 A 
ATOM     77  C   UNL     1      -5.647  -2.820  14.955  1.00  0.00     0.009 A 
ATOM     78  C   UNL     1      -5.999  -1.604  17.428  1.00  0.00     0.001 A 
ATOM     79  C   UNL     1      -4.672  -1.948  15.451  1.00  0.00     0.001 A 
ATOM     80  C   UNL     1      -4.842  -1.350  16.695  1.00  0.00     0.000 A 
ENDBRANCH  56  75
BRANCH  68  81
ATOM     81  C   UNL     1     -11.740  -6.931  15.619  1.00  0.00    -0.014 A 
ATOM     82  C   UNL     1     -11.726  -6.096  14.486  1.00  0.00     0.009 A 
ATOM     83  C   UNL     1     -12.977  -7.213  16.213  1.00  0.00     0.009 A 
ATOM     84  C   UNL     1     -12.909  -5.546  13.978  1.00  0.00     0.001 A 
ATOM     85  C   UNL     1     -14.161  -6.680  15.696  1.00  0.00     0.001 A 
ATOM     86  C   UNL     1     -14.127  -5.845  14.581  1.00  0.00     0.000 A 
ENDBRANCH  68  81
ENDBRANCH  42  43
ENDBRANCH  34  37
ENDBRANCH  32  33
ENDBRANCH  31  32
ENDBRANCH   1  31
TORSDOF 14
