REMARK SMILES CC(=O)c1nnn(-c2ccc(C(=O)NCCCNC(=O)c3ccc(-c4c5nc(c(-c6ccccc6)c6ccc([nH]6)c(-c6ccccc6)c6nc(c(-c7ccccc7)c7ccc4[nH]7)C=C6)C=C5)cc3)cc2)c1C
REMARK SMILES IDX 16 1 15 2 14 3 12 4 13 5 11 7 8 8 9 9 70 10 10 11 69 12 7 13
REMARK SMILES IDX 4 14 5 15 71 16 6 17 72 18 2 19 1 20 3 21 17 22 18 23 19 24
REMARK SMILES IDX 20 26 21 27 22 28 68 29 23 30 67 31 24 32 25 33 26 34 61 35
REMARK SMILES IDX 27 36 66 37 60 38 62 39 28 40 65 41 59 42 58 43 29 45 51 46
REMARK SMILES IDX 36 47 50 48 37 49 40 50 49 51 63 52 38 53 39 54 48 56 64 57
REMARK SMILES IDX 41 58 30 59 31 60 35 61 32 62 34 63 33 64 52 65 53 66 57 67
REMARK SMILES IDX 54 68 56 69 55 70 42 71 43 72 47 73 44 74 46 75 45 76
REMARK H PARENT 14 6 18 25 62 44 40 55
REMARK Flexibility Score: inf
ROOT
ATOM      1  C   UNL     1       8.307  -4.092   5.288  1.00  0.00     0.042 C 
ENDROOT
BRANCH   1   2
ATOM      2  C   UNL     1       8.376  -4.320   3.770  1.00  0.00     0.118 C 
BRANCH   2   3
ATOM      3  N   UNL     1       8.143  -5.714   3.408  1.00  0.00    -0.352 N 
ATOM      4  C   UNL     1       7.009  -6.385   3.005  1.00  0.00     0.251 C 
ATOM      5  O   UNL     1       7.130  -7.555   2.643  1.00  0.00    -0.269 OA
ATOM      6  H   UNL     1       8.946  -6.281   3.462  1.00  0.00     0.163 HD
BRANCH   4   7
ATOM      7  C   UNL     1       5.669  -5.735   2.930  1.00  0.00     0.039 A 
ATOM      8  C   UNL     1       3.254  -4.402   2.506  1.00  0.00     0.067 A 
ATOM      9  C   UNL     1       3.511  -5.576   1.799  1.00  0.00     0.029 A 
ATOM     10  C   UNL     1       4.117  -3.970   3.511  1.00  0.00     0.029 A 
ATOM     11  C   UNL     1       4.738  -6.223   1.996  1.00  0.00     0.016 A 
ATOM     12  C   UNL     1       5.296  -4.666   3.744  1.00  0.00     0.016 A 
BRANCH   8  13
ATOM     13  N   UNL     1       2.164  -3.586   2.163  1.00  0.00    -0.217 N 
ATOM     14  C   UNL     1       0.860  -1.904   1.724  1.00  0.00     0.151 A 
ATOM     15  N   UNL     1       0.095  -3.024   1.928  1.00  0.00    -0.126 NA
ATOM     16  C   UNL     1       2.198  -2.243   1.827  1.00  0.00     0.073 A 
ATOM     17  N   UNL     1       0.907  -4.060   2.089  1.00  0.00    -0.061 NA
ATOM     18  C   UNL     1       3.448  -1.486   1.565  1.00  0.00     0.069 C 
BRANCH  14  19
ATOM     19  C   UNL     1       0.277  -0.618   1.382  1.00  0.00     0.181 C 
ATOM     20  C   UNL     1       0.619  -0.045   0.029  1.00  0.00     0.095 C 
ATOM     21  O   UNL     1      -0.471  -0.020   2.152  1.00  0.00    -0.293 OA
ENDBRANCH  14  19
ENDBRANCH   8  13
ENDBRANCH   4   7
ENDBRANCH   2   3
ENDBRANCH   1   2
BRANCH   1  22
ATOM     22  C   UNL     1       9.617  -4.386   5.995  1.00  0.00     0.118 C 
BRANCH  22  23
ATOM     23  N   UNL     1      10.643  -3.382   5.713  1.00  0.00    -0.352 N 
ATOM     24  C   UNL     1      11.981  -3.399   6.060  1.00  0.00     0.251 C 
ATOM     25  H   UNL     1      10.342  -2.592   5.209  1.00  0.00     0.163 HD
ATOM     26  O   UNL     1      12.638  -2.368   6.080  1.00  0.00    -0.269 OA
BRANCH  24  27
ATOM     27  C   UNL     1      12.601  -4.686   6.415  1.00  0.00     0.039 A 
ATOM     28  C   UNL     1      13.496  -4.799   7.483  1.00  0.00     0.014 A 
ATOM     29  C   UNL     1      12.225  -5.803   5.679  1.00  0.00     0.014 A 
ATOM     30  C   UNL     1      13.940  -6.065   7.860  1.00  0.00     0.010 A 
ATOM     31  C   UNL     1      12.509  -7.049   6.165  1.00  0.00     0.010 A 
ATOM     32  C   UNL     1      13.424  -7.190   7.205  1.00  0.00    -0.014 A 
BRANCH  32  33
ATOM     33  C   UNL     1      13.748  -8.547   7.633  1.00  0.00     0.031 A 
ATOM     34  C   UNL     1      13.393  -8.885   9.038  1.00  0.00     0.074 A 
ATOM     35  C   UNL     1      14.062  -9.507   6.734  1.00  0.00     0.049 A 
ATOM     36  N   UNL     1      14.181  -9.288   9.979  1.00  0.00    -0.248 NA
ATOM     37  C   UNL     1      12.005  -8.666   9.478  1.00  0.00     0.031 C 
ATOM     38  C   UNL     1      14.126  -9.383   5.270  1.00  0.00     0.029 A 
ATOM     39  N   UNL     1      14.217 -10.844   6.924  1.00  0.00    -0.354 N 
ATOM     40  C   UNL     1      13.367  -9.557  11.078  1.00  0.00     0.074 A 
ATOM     41  C   UNL     1      12.078  -8.994  10.769  1.00  0.00     0.031 C 
ATOM     42  C   UNL     1      14.027 -10.607   4.710  1.00  0.00     0.029 A 
ATOM     43  C   UNL     1      14.080 -11.599   5.765  1.00  0.00     0.049 A 
ATOM     44  H   UNL     1      14.409 -11.242   7.804  1.00  0.00     0.167 HD
ATOM     45  C   UNL     1      13.745 -10.438  12.048  1.00  0.00     0.031 A 
ATOM     46  C   UNL     1      13.978 -12.947   5.674  1.00  0.00     0.031 A 
ATOM     47  C   UNL     1      15.150 -10.749  11.965  1.00  0.00     0.049 A 
ATOM     48  C   UNL     1      14.485 -13.513   6.944  1.00  0.00     0.074 A 
ATOM     49  C   UNL     1      16.317 -10.013  12.016  1.00  0.00     0.029 A 
ATOM     50  N   UNL     1      15.491 -11.957  11.404  1.00  0.00    -0.354 N 
ATOM     51  N   UNL     1      15.734 -13.449   7.305  1.00  0.00    -0.248 NA
ATOM     52  C   UNL     1      13.537 -13.757   8.019  1.00  0.00     0.031 C 
ATOM     53  C   UNL     1      17.169 -10.615  11.043  1.00  0.00     0.029 A 
ATOM     54  C   UNL     1      16.504 -11.722  10.512  1.00  0.00     0.049 A 
ATOM     55  H   UNL     1      15.083 -12.830  11.606  1.00  0.00     0.167 HD
ATOM     56  C   UNL     1      15.690 -13.182   8.666  1.00  0.00     0.074 A 
ATOM     57  C   UNL     1      14.324 -13.511   9.070  1.00  0.00     0.031 C 
ATOM     58  C   UNL     1      16.668 -12.442   9.269  1.00  0.00     0.031 A 
BRANCH  45  59
ATOM     59  C   UNL     1      12.783 -11.338  12.791  1.00  0.00    -0.014 A 
ATOM     60  C   UNL     1      13.298 -12.216  13.764  1.00  0.00     0.009 A 
ATOM     61  C   UNL     1      11.457 -11.567  12.380  1.00  0.00     0.009 A 
ATOM     62  C   UNL     1      12.561 -13.317  14.221  1.00  0.00     0.001 A 
ATOM     63  C   UNL     1      10.701 -12.638  12.868  1.00  0.00     0.001 A 
ATOM     64  C   UNL     1      11.267 -13.533  13.763  1.00  0.00     0.000 A 
ENDBRANCH  45  59
BRANCH  46  65
ATOM     65  C   UNL     1      13.299 -13.764   4.649  1.00  0.00    -0.014 A 
ATOM     66  C   UNL     1      13.603 -15.126   4.500  1.00  0.00     0.009 A 
ATOM     67  C   UNL     1      12.166 -13.269   3.976  1.00  0.00     0.009 A 
ATOM     68  C   UNL     1      12.781 -15.968   3.739  1.00  0.00     0.001 A 
ATOM     69  C   UNL     1      11.349 -14.108   3.211  1.00  0.00     0.001 A 
ATOM     70  C   UNL     1      11.648 -15.461   3.106  1.00  0.00     0.000 A 
ENDBRANCH  46  65
BRANCH  58  71
ATOM     71  C   UNL     1      17.905 -12.113   8.465  1.00  0.00    -0.014 A 
ATOM     72  C   UNL     1      17.865 -11.370   7.270  1.00  0.00     0.009 A 
ATOM     73  C   UNL     1      19.159 -12.417   9.012  1.00  0.00     0.009 A 
ATOM     74  C   UNL     1      19.043 -10.975   6.628  1.00  0.00     0.001 A 
ATOM     75  C   UNL     1      20.335 -12.003   8.384  1.00  0.00     0.001 A 
ATOM     76  C   UNL     1      20.278 -11.288   7.190  1.00  0.00     0.000 A 
ENDBRANCH  58  71
ENDBRANCH  32  33
ENDBRANCH  24  27
ENDBRANCH  22  23
ENDBRANCH   1  22
TORSDOF 12
