REMARK SMILES C[C@H]1SCCC[C@@]1(C(=O)NCCCNC(=O)c1ccc(-c2c3nc(c(-c4ccccc4)c4ccc([nH]4)c(-c4ccccc4)c4nc(c(-c5ccccc5)c5ccc2[nH]5)C=C4)C=C3)cc1)[NH+]1CCCC1
REMARK SMILES IDX 12 1 11 2 10 3 8 4 9 5 7 7 1 8 2 9 3 10 4 11 6 12 5 13 65 14
REMARK SMILES IDX 66 15 69 16 67 18 68 19 13 20 14 21 15 22 16 24 17 25 18 26
REMARK SMILES IDX 64 27 19 28 63 29 20 30 21 31 22 32 57 33 23 34 62 35 56 36
REMARK SMILES IDX 58 37 24 38 61 39 55 40 54 41 25 43 47 44 32 45 46 46 33 47
REMARK SMILES IDX 36 48 45 49 59 50 34 51 35 52 44 54 60 55 37 56 26 57 27 58
REMARK SMILES IDX 31 59 28 60 30 61 29 62 48 63 49 64 53 65 50 66 52 67 51 68
REMARK SMILES IDX 38 69 39 70 43 71 40 72 42 73 41 74
REMARK H PARENT 10 6 65 17 14 23 58 42 36 53
REMARK Flexibility Score: inf
ROOT
ATOM      1  C   UNL     1       2.020   1.915   0.323  1.00  0.00     0.042 C 
ENDROOT
BRANCH   1   2
ATOM      2  C   UNL     1       1.083   1.839  -0.877  1.00  0.00     0.118 C 
BRANCH   2   3
ATOM      3  N   UNL     1       1.734   1.296  -2.059  1.00  0.00    -0.351 N 
ATOM      4  C   UNL     1       1.883   0.108  -2.696  1.00  0.00     0.282 C 
ATOM      5  O   UNL     1       2.599   0.251  -3.703  1.00  0.00    -0.268 OA
ATOM      6  H   UNL     1       2.212   2.007  -2.544  1.00  0.00     0.163 HD
BRANCH   4   7
ATOM      7  C   UNL     1       1.376  -1.352  -2.222  1.00  0.00     0.188 C 
ATOM      8  C   UNL     1      -1.133  -0.673  -2.109  1.00  0.00     0.027 C 
ATOM      9  C   UNL     1       0.082  -1.211  -1.346  1.00  0.00     0.115 C 
ATOM     10  S   UNL     1      -0.447  -2.641  -0.306  1.00  0.00    -0.152 SA
ATOM     11  C   UNL     1       1.136  -2.991   0.496  1.00  0.00     0.070 C 
ATOM     12  C   UNL     1       2.537  -1.907  -1.339  1.00  0.00     0.081 C 
ATOM     13  C   UNL     1       2.249  -3.168  -0.523  1.00  0.00     0.018 C 
BRANCH   7  14
ATOM     14  N   UNL     1       1.161  -2.175  -3.469  1.00  0.00    -0.321 N 
ATOM     15  C   UNL     1       0.449  -3.446  -3.466  1.00  0.00     0.263 C 
ATOM     16  C   UNL     1       2.252  -2.276  -4.452  1.00  0.00     0.263 C 
ATOM     17  H   UNL     1       0.468  -1.482  -3.749  1.00  0.00     0.349 HD
ATOM     18  C   UNL     1       1.426  -4.474  -4.004  1.00  0.00     0.067 C 
ATOM     19  C   UNL     1       2.232  -3.692  -5.010  1.00  0.00     0.067 C 
ENDBRANCH   7  14
ENDBRANCH   4   7
ENDBRANCH   2   3
ENDBRANCH   1   2
BRANCH   1  20
ATOM     20  C   UNL     1       3.086   3.002   0.185  1.00  0.00     0.118 C 
BRANCH  20  21
ATOM     21  N   UNL     1       2.506   4.340   0.118  1.00  0.00    -0.352 N 
ATOM     22  C   UNL     1       2.545   5.379   1.008  1.00  0.00     0.251 C 
ATOM     23  H   UNL     1       2.001   4.527  -0.707  1.00  0.00     0.163 HD
ATOM     24  O   UNL     1       1.773   6.330   0.862  1.00  0.00    -0.269 OA
BRANCH  22  25
ATOM     25  C   UNL     1       3.495   5.382   2.138  1.00  0.00     0.039 A 
ATOM     26  C   UNL     1       3.080   5.887   3.374  1.00  0.00     0.014 A 
ATOM     27  C   UNL     1       4.812   4.946   1.970  1.00  0.00     0.014 A 
ATOM     28  C   UNL     1       3.966   5.898   4.455  1.00  0.00     0.010 A 
ATOM     29  C   UNL     1       5.669   4.886   3.064  1.00  0.00     0.010 A 
ATOM     30  C   UNL     1       5.258   5.366   4.316  1.00  0.00    -0.014 A 
BRANCH  30  31
ATOM     31  C   UNL     1       6.198   5.306   5.463  1.00  0.00     0.031 A 
ATOM     32  C   UNL     1       7.489   6.078   5.425  1.00  0.00     0.074 A 
ATOM     33  C   UNL     1       5.925   4.494   6.504  1.00  0.00     0.049 A 
ATOM     34  N   UNL     1       8.478   6.075   6.282  1.00  0.00    -0.248 NA
ATOM     35  C   UNL     1       7.712   6.945   4.255  1.00  0.00     0.031 C 
ATOM     36  C   UNL     1       4.728   3.662   6.642  1.00  0.00     0.029 A 
ATOM     37  N   UNL     1       6.648   4.225   7.639  1.00  0.00    -0.354 N 
ATOM     38  C   UNL     1       9.447   6.913   5.744  1.00  0.00     0.074 A 
ATOM     39  C   UNL     1       8.946   7.378   4.470  1.00  0.00     0.031 C 
ATOM     40  C   UNL     1       4.789   2.991   7.804  1.00  0.00     0.029 A 
ATOM     41  C   UNL     1       6.045   3.313   8.472  1.00  0.00     0.049 A 
ATOM     42  H   UNL     1       7.515   4.646   7.839  1.00  0.00     0.167 HD
ATOM     43  C   UNL     1      10.640   7.277   6.272  1.00  0.00     0.031 A 
ATOM     44  C   UNL     1       6.463   2.786   9.638  1.00  0.00     0.031 A 
ATOM     45  C   UNL     1      11.124   6.839   7.553  1.00  0.00     0.049 A 
ATOM     46  C   UNL     1       7.788   3.216  10.204  1.00  0.00     0.074 A 
ATOM     47  C   UNL     1      12.288   7.208   8.205  1.00  0.00     0.029 A 
ATOM     48  N   UNL     1      10.469   5.940   8.378  1.00  0.00    -0.354 N 
ATOM     49  N   UNL     1       8.659   4.064   9.714  1.00  0.00    -0.248 NA
ATOM     50  C   UNL     1       8.181   2.622  11.490  1.00  0.00     0.031 C 
ATOM     51  C   UNL     1      12.359   6.497   9.407  1.00  0.00     0.029 A 
ATOM     52  C   UNL     1      11.214   5.725   9.525  1.00  0.00     0.049 A 
ATOM     53  H   UNL     1       9.603   5.516   8.179  1.00  0.00     0.167 HD
ATOM     54  C   UNL     1       9.688   4.128  10.646  1.00  0.00     0.074 A 
ATOM     55  C   UNL     1       9.324   3.247  11.736  1.00  0.00     0.031 C 
ATOM     56  C   UNL     1      10.832   4.852  10.602  1.00  0.00     0.031 A 
BRANCH  43  57
ATOM     57  C   UNL     1      11.511   8.197   5.464  1.00  0.00    -0.014 A 
ATOM     58  C   UNL     1      11.183   9.552   5.301  1.00  0.00     0.009 A 
ATOM     59  C   UNL     1      12.708   7.716   4.910  1.00  0.00     0.009 A 
ATOM     60  C   UNL     1      12.023  10.400   4.576  1.00  0.00     0.001 A 
ATOM     61  C   UNL     1      13.559   8.572   4.209  1.00  0.00     0.001 A 
ATOM     62  C   UNL     1      13.213   9.912   4.037  1.00  0.00     0.000 A 
ENDBRANCH  43  57
BRANCH  44  63
ATOM     63  C   UNL     1       5.620   1.797  10.360  1.00  0.00    -0.014 A 
ATOM     64  C   UNL     1       4.998   2.140  11.570  1.00  0.00     0.009 A 
ATOM     65  C   UNL     1       5.455   0.497   9.856  1.00  0.00     0.009 A 
ATOM     66  C   UNL     1       4.258   1.191  12.279  1.00  0.00     0.001 A 
ATOM     67  C   UNL     1       4.689  -0.440  10.553  1.00  0.00     0.001 A 
ATOM     68  C   UNL     1       4.102  -0.096  11.769  1.00  0.00     0.000 A 
ENDBRANCH  44  63
BRANCH  56  69
ATOM     69  C   UNL     1      11.752   4.753  11.785  1.00  0.00    -0.014 A 
ATOM     70  C   UNL     1      12.521   3.602  12.015  1.00  0.00     0.009 A 
ATOM     71  C   UNL     1      11.879   5.845  12.657  1.00  0.00     0.009 A 
ATOM     72  C   UNL     1      13.376   3.536  13.117  1.00  0.00     0.001 A 
ATOM     73  C   UNL     1      12.755   5.786  13.741  1.00  0.00     0.001 A 
ATOM     74  C   UNL     1      13.496   4.629  13.975  1.00  0.00     0.000 A 
ENDBRANCH  56  69
ENDBRANCH  30  31
ENDBRANCH  22  25
ENDBRANCH  20  21
ENDBRANCH   1  20
TORSDOF 11
