REMARK SMILES CO[C@H](C(=O)NCCCNC(=O)c1ccc(-c2c3nc(c(-c4ccccc4)c4ccc([nH]4)c(-c4ccccc4)c4nc(c(-c5ccccc5)c5ccc2[nH]5)C=C4)C=C3)cc1)c1ccc2ccccc2c1
REMARK SMILES IDX 8 1 7 2 6 3 4 4 5 5 3 7 2 8 1 9 61 10 62 11 70 12 63 13
REMARK SMILES IDX 69 14 64 15 68 16 65 17 67 18 66 19 9 20 10 21 11 22 12 24
REMARK SMILES IDX 13 25 14 26 60 27 15 28 59 29 16 30 17 31 18 32 53 33 19 34
REMARK SMILES IDX 58 35 52 36 54 37 20 38 57 39 51 40 50 41 21 43 43 44 28 45
REMARK SMILES IDX 42 46 29 47 32 48 41 49 55 50 30 51 31 52 40 54 56 55 33 56
REMARK SMILES IDX 22 57 23 58 27 59 24 60 26 61 25 62 44 63 45 64 49 65 46 66
REMARK SMILES IDX 48 67 47 68 34 69 35 70 39 71 36 72 38 73 37 74
REMARK H PARENT 6 6 10 23 54 42 32 53
REMARK Flexibility Score: inf
ROOT
ATOM      1  C   UNL     1       3.187  -0.466  -1.360  1.00  0.00     0.042 C 
ENDROOT
BRANCH   1   2
ATOM      2  C   UNL     1       2.582   0.894  -1.715  1.00  0.00     0.117 C 
BRANCH   2   3
ATOM      3  N   UNL     1       1.193   1.004  -1.296  1.00  0.00    -0.353 N 
ATOM      4  C   UNL     1       0.570   1.576  -0.226  1.00  0.00     0.253 C 
ATOM      5  O   UNL     1      -0.668   1.474  -0.255  1.00  0.00    -0.272 OA
ATOM      6  H   UNL     1       0.566   0.571  -1.920  1.00  0.00     0.163 HD
BRANCH   4   7
ATOM      7  C   UNL     1       1.250   2.373   0.932  1.00  0.00     0.236 C 
BRANCH   7   8
ATOM      8  O   UNL     1       0.546   2.068   2.148  1.00  0.00    -0.367 OA
ATOM      9  C   UNL     1       0.240   3.219   2.918  1.00  0.00     0.196 C 
ENDBRANCH   7   8
BRANCH   7  10
ATOM     10  C   UNL     1       2.716   2.130   1.212  1.00  0.00    -0.009 A 
ATOM     11  C   UNL     1       3.176   0.854   1.541  1.00  0.00     0.007 A 
ATOM     12  C   UNL     1       3.646   3.183   1.153  1.00  0.00     0.015 A 
ATOM     13  C   UNL     1       4.544   0.581   1.564  1.00  0.00     0.009 A 
ATOM     14  C   UNL     1       5.027   2.936   1.246  1.00  0.00    -0.018 A 
ATOM     15  C   UNL     1       5.479   1.603   1.365  1.00  0.00    -0.018 A 
ATOM     16  C   UNL     1       5.974   3.972   1.191  1.00  0.00     0.009 A 
ATOM     17  C   UNL     1       6.852   1.329   1.286  1.00  0.00     0.009 A 
ATOM     18  C   UNL     1       7.341   3.688   1.169  1.00  0.00     0.001 A 
ATOM     19  C   UNL     1       7.777   2.366   1.176  1.00  0.00     0.001 A 
ENDBRANCH   7  10
ENDBRANCH   4   7
ENDBRANCH   2   3
ENDBRANCH   1   2
BRANCH   1  20
ATOM     20  C   UNL     1       2.807  -1.608  -2.293  1.00  0.00     0.118 C 
BRANCH  20  21
ATOM     21  N   UNL     1       3.564  -1.586  -3.534  1.00  0.00    -0.352 N 
ATOM     22  C   UNL     1       4.557  -2.414  -3.991  1.00  0.00     0.251 C 
ATOM     23  H   UNL     1       3.324  -0.855  -4.148  1.00  0.00     0.163 HD
ATOM     24  O   UNL     1       5.210  -2.066  -4.981  1.00  0.00    -0.269 OA
BRANCH  22  25
ATOM     25  C   UNL     1       4.876  -3.706  -3.337  1.00  0.00     0.039 A 
ATOM     26  C   UNL     1       6.208  -4.141  -3.320  1.00  0.00     0.014 A 
ATOM     27  C   UNL     1       3.882  -4.539  -2.819  1.00  0.00     0.014 A 
ATOM     28  C   UNL     1       6.544  -5.376  -2.753  1.00  0.00     0.010 A 
ATOM     29  C   UNL     1       4.225  -5.731  -2.179  1.00  0.00     0.010 A 
ATOM     30  C   UNL     1       5.556  -6.174  -2.158  1.00  0.00    -0.014 A 
BRANCH  30  31
ATOM     31  C   UNL     1       5.874  -7.496  -1.554  1.00  0.00     0.031 A 
ATOM     32  C   UNL     1       5.270  -8.750  -2.130  1.00  0.00     0.074 A 
ATOM     33  C   UNL     1       6.641  -7.572  -0.450  1.00  0.00     0.049 A 
ATOM     34  N   UNL     1       5.322  -9.979  -1.680  1.00  0.00    -0.248 NA
ATOM     35  C   UNL     1       4.476  -8.595  -3.360  1.00  0.00     0.031 C 
ATOM     36  C   UNL     1       7.272  -6.437   0.226  1.00  0.00     0.029 A 
ATOM     37  N   UNL     1       7.008  -8.656   0.309  1.00  0.00    -0.354 N 
ATOM     38  C   UNL     1       4.543 -10.733  -2.549  1.00  0.00     0.074 A 
ATOM     39  C   UNL     1       3.995  -9.818  -3.527  1.00  0.00     0.031 C 
ATOM     40  C   UNL     1       7.959  -6.886   1.289  1.00  0.00     0.029 A 
ATOM     41  C   UNL     1       7.782  -8.331   1.396  1.00  0.00     0.049 A 
ATOM     42  H   UNL     1       6.740  -9.579   0.095  1.00  0.00     0.167 HD
ATOM     43  C   UNL     1       4.313 -12.068  -2.547  1.00  0.00     0.031 A 
ATOM     44  C   UNL     1       8.284  -9.105   2.377  1.00  0.00     0.031 A 
ATOM     45  C   UNL     1       4.873 -12.985  -1.590  1.00  0.00     0.049 A 
ATOM     46  C   UNL     1       8.014 -10.583   2.364  1.00  0.00     0.074 A 
ATOM     47  C   UNL     1       4.746 -14.362  -1.537  1.00  0.00     0.029 A 
ATOM     48  N   UNL     1       5.670 -12.614  -0.518  1.00  0.00    -0.354 N 
ATOM     49  N   UNL     1       7.313 -11.287   1.508  1.00  0.00    -0.248 NA
ATOM     50  C   UNL     1       8.612 -11.375   3.449  1.00  0.00     0.031 C 
ATOM     51  C   UNL     1       5.430 -14.820  -0.406  1.00  0.00     0.029 A 
ATOM     52  C   UNL     1       6.027 -13.734   0.213  1.00  0.00     0.049 A 
ATOM     53  H   UNL     1       5.942 -11.691  -0.309  1.00  0.00     0.167 HD
ATOM     54  C   UNL     1       7.411 -12.606   1.933  1.00  0.00     0.074 A 
ATOM     55  C   UNL     1       8.246 -12.605   3.116  1.00  0.00     0.031 C 
ATOM     56  C   UNL     1       6.861 -13.718   1.387  1.00  0.00     0.031 A 
BRANCH  43  57
ATOM     57  C   UNL     1       3.399 -12.612  -3.612  1.00  0.00    -0.014 A 
ATOM     58  C   UNL     1       3.787 -12.643  -4.962  1.00  0.00     0.009 A 
ATOM     59  C   UNL     1       2.136 -13.113  -3.258  1.00  0.00     0.009 A 
ATOM     60  C   UNL     1       2.910 -13.118  -5.939  1.00  0.00     0.001 A 
ATOM     61  C   UNL     1       1.274 -13.617  -4.234  1.00  0.00     0.001 A 
ATOM     62  C   UNL     1       1.657 -13.607  -5.575  1.00  0.00     0.000 A 
ENDBRANCH  43  57
BRANCH  44  63
ATOM     63  C   UNL     1       9.109  -8.493   3.451  1.00  0.00    -0.014 A 
ATOM     64  C   UNL     1      10.495  -8.709   3.491  1.00  0.00     0.009 A 
ATOM     65  C   UNL     1       8.520  -7.683   4.434  1.00  0.00     0.009 A 
ATOM     66  C   UNL     1      11.271  -8.140   4.503  1.00  0.00     0.001 A 
ATOM     67  C   UNL     1       9.302  -7.094   5.429  1.00  0.00     0.001 A 
ATOM     68  C   UNL     1      10.676  -7.329   5.468  1.00  0.00     0.000 A 
ENDBRANCH  44  63
BRANCH  56  69
ATOM     69  C   UNL     1       7.177 -15.034   2.039  1.00  0.00    -0.014 A 
ATOM     70  C   UNL     1       6.603 -15.399   3.267  1.00  0.00     0.009 A 
ATOM     71  C   UNL     1       8.026 -15.943   1.387  1.00  0.00     0.009 A 
ATOM     72  C   UNL     1       6.897 -16.637   3.842  1.00  0.00     0.001 A 
ATOM     73  C   UNL     1       8.296 -17.190   1.951  1.00  0.00     0.001 A 
ATOM     74  C   UNL     1       7.738 -17.533   3.182  1.00  0.00     0.000 A 
ENDBRANCH  56  69
ENDBRANCH  30  31
ENDBRANCH  22  25
ENDBRANCH  20  21
ENDBRANCH   1  20
TORSDOF 12
