REMARK SMILES CC[C@]1(C(=O)NCCCNC(=O)c2ccc(-c3c4nc(c(-c5ccccc5)c5ccc([nH]5)c(-c5ccccc5)c5nc(c(-c6ccccc6)c6ccc3[nH]6)C=C5)C=C4)cc2)CC[N@@H+](Cc2ccc(CC(C)C)cc2)C1
REMARK SMILES IDX 7 1 6 2 4 3 5 4 3 6 61 7 75 8 62 9 63 10 2 12 1 13 64 14
REMARK SMILES IDX 65 15 66 16 74 17 67 18 73 19 68 20 69 21 70 22 71 23 72 24
REMARK SMILES IDX 8 25 9 26 10 27 11 28 12 30 13 31 14 32 60 33 15 34 59 35
REMARK SMILES IDX 16 36 17 37 18 38 53 39 19 40 58 41 52 42 54 43 20 44 57 45
REMARK SMILES IDX 51 46 50 47 21 49 43 50 28 51 42 52 29 53 32 54 41 55 55 56
REMARK SMILES IDX 30 57 31 58 40 60 56 61 33 62 22 63 23 64 27 65 24 66 26 67
REMARK SMILES IDX 25 68 44 69 45 70 49 71 46 72 48 73 47 74 34 75 35 76 39 77
REMARK SMILES IDX 36 78 38 79 37 80
REMARK H PARENT 6 5 63 11 10 29 54 48 32 59
REMARK Flexibility Score: inf
ROOT
ATOM      1  C   UNL     1      -0.090  -4.410   3.264  1.00  0.00     0.117 C 
ENDROOT
BRANCH   1   2
ATOM      2  N   UNL     1       0.030  -2.967   3.006  1.00  0.00    -0.355 N 
ATOM      3  C   UNL     1       0.353  -2.094   2.011  1.00  0.00     0.232 C 
ATOM      4  O   UNL     1       0.224  -0.915   2.385  1.00  0.00    -0.274 OA
ATOM      5  H   UNL     1      -0.200  -2.466   3.822  1.00  0.00     0.163 HD
BRANCH   3   6
ATOM      6  C   UNL     1       0.867  -2.346   0.546  1.00  0.00     0.103 C 
ATOM      7  C   UNL     1       2.210  -1.591   0.319  1.00  0.00     0.084 C 
ATOM      8  C   UNL     1       1.236  -3.792   0.142  1.00  0.00     0.279 C 
ATOM      9  C   UNL     1       3.078  -2.503  -0.540  1.00  0.00     0.263 C 
ATOM     10  N   UNL     1       2.657  -3.862  -0.230  1.00  0.00    -0.330 N 
ATOM     11  H   UNL     1       2.750  -4.454  -1.055  1.00  0.00     0.348 HD
BRANCH   6  12
ATOM     12  C   UNL     1      -0.214  -1.786  -0.450  1.00  0.00     0.020 C 
ATOM     13  C   UNL     1      -0.392  -0.263  -0.535  1.00  0.00     0.005 C 
ENDBRANCH   6  12
BRANCH  10  14
ATOM     14  C   UNL     1       3.551  -4.630   0.660  1.00  0.00     0.299 C 
BRANCH  14  15
ATOM     15  C   UNL     1       4.166  -3.900   1.836  1.00  0.00     0.006 A 
ATOM     16  C   UNL     1       5.539  -3.808   2.058  1.00  0.00     0.010 A 
ATOM     17  C   UNL     1       3.336  -3.271   2.753  1.00  0.00     0.010 A 
ATOM     18  C   UNL     1       6.032  -3.040   3.126  1.00  0.00     0.004 A 
ATOM     19  C   UNL     1       3.794  -2.466   3.777  1.00  0.00     0.004 A 
ATOM     20  C   UNL     1       5.159  -2.343   3.975  1.00  0.00    -0.048 A 
BRANCH  20  21
ATOM     21  C   UNL     1       5.635  -1.547   5.159  1.00  0.00     0.038 C 
BRANCH  21  22
ATOM     22  C   UNL     1       5.309  -2.269   6.477  1.00  0.00    -0.013 C 
ATOM     23  C   UNL     1       6.049  -3.601   6.555  1.00  0.00     0.008 C 
ATOM     24  C   UNL     1       5.642  -1.369   7.665  1.00  0.00     0.008 C 
ENDBRANCH  21  22
ENDBRANCH  20  21
ENDBRANCH  14  15
ENDBRANCH  10  14
ENDBRANCH   3   6
ENDBRANCH   1   2
BRANCH   1  25
ATOM     25  C   UNL     1       0.881  -5.027   4.310  1.00  0.00     0.042 C 
BRANCH  25  26
ATOM     26  C   UNL     1       0.840  -4.472   5.753  1.00  0.00     0.118 C 
BRANCH  26  27
ATOM     27  N   UNL     1       0.639  -5.564   6.708  1.00  0.00    -0.352 N 
ATOM     28  C   UNL     1       1.417  -6.167   7.667  1.00  0.00     0.251 C 
ATOM     29  H   UNL     1      -0.262  -5.956   6.651  1.00  0.00     0.163 HD
ATOM     30  O   UNL     1       1.070  -7.292   8.033  1.00  0.00    -0.269 OA
BRANCH  28  31
ATOM     31  C   UNL     1       2.601  -5.556   8.335  1.00  0.00     0.039 A 
ATOM     32  C   UNL     1       3.582  -6.422   8.853  1.00  0.00     0.014 A 
ATOM     33  C   UNL     1       2.684  -4.205   8.662  1.00  0.00     0.014 A 
ATOM     34  C   UNL     1       4.630  -5.952   9.669  1.00  0.00     0.010 A 
ATOM     35  C   UNL     1       3.752  -3.733   9.459  1.00  0.00     0.010 A 
ATOM     36  C   UNL     1       4.749  -4.591   9.976  1.00  0.00    -0.014 A 
BRANCH  36  37
ATOM     37  C   UNL     1       5.894  -4.060  10.805  1.00  0.00     0.031 A 
ATOM     38  C   UNL     1       5.640  -3.270  12.073  1.00  0.00     0.074 A 
ATOM     39  C   UNL     1       7.184  -4.200  10.417  1.00  0.00     0.049 A 
ATOM     40  N   UNL     1       6.500  -2.663  12.860  1.00  0.00    -0.248 NA
ATOM     41  C   UNL     1       4.243  -3.139  12.507  1.00  0.00     0.031 C 
ATOM     42  C   UNL     1       7.655  -4.923   9.238  1.00  0.00     0.029 A 
ATOM     43  N   UNL     1       8.345  -3.693  10.966  1.00  0.00    -0.354 N 
ATOM     44  C   UNL     1       5.748  -2.067  13.866  1.00  0.00     0.074 A 
ATOM     45  C   UNL     1       4.358  -2.340  13.559  1.00  0.00     0.031 C 
ATOM     46  C   UNL     1       8.982  -4.758   9.110  1.00  0.00     0.029 A 
ATOM     47  C   UNL     1       9.472  -3.944  10.216  1.00  0.00     0.049 A 
ATOM     48  H   UNL     1       8.366  -3.197  11.816  1.00  0.00     0.167 HD
ATOM     49  C   UNL     1       6.157  -1.388  14.967  1.00  0.00     0.031 A 
ATOM     50  C   UNL     1      10.759  -3.579  10.380  1.00  0.00     0.031 A 
ATOM     51  C   UNL     1       7.525  -1.140  15.340  1.00  0.00     0.049 A 
ATOM     52  C   UNL     1      11.195  -2.816  11.596  1.00  0.00     0.074 A 
ATOM     53  C   UNL     1       8.009  -0.556  16.501  1.00  0.00     0.029 A 
ATOM     54  N   UNL     1       8.628  -1.456  14.568  1.00  0.00    -0.354 N 
ATOM     55  N   UNL     1      10.471  -2.352  12.581  1.00  0.00    -0.248 NA
ATOM     56  C   UNL     1      12.640  -2.568  11.742  1.00  0.00     0.031 C 
ATOM     57  C   UNL     1       9.405  -0.491  16.418  1.00  0.00     0.029 A 
ATOM     58  C   UNL     1       9.789  -1.066  15.220  1.00  0.00     0.049 A 
ATOM     59  H   UNL     1       8.595  -1.893  13.687  1.00  0.00     0.167 HD
ATOM     60  C   UNL     1      11.373  -1.814  13.490  1.00  0.00     0.074 A 
ATOM     61  C   UNL     1      12.697  -1.990  12.934  1.00  0.00     0.031 C 
ATOM     62  C   UNL     1      11.114  -1.247  14.692  1.00  0.00     0.031 A 
BRANCH  49  63
ATOM     63  C   UNL     1       5.086  -0.871  15.888  1.00  0.00    -0.014 A 
ATOM     64  C   UNL     1       4.359  -1.746  16.710  1.00  0.00     0.009 A 
ATOM     65  C   UNL     1       4.831   0.506  15.964  1.00  0.00     0.009 A 
ATOM     66  C   UNL     1       3.365  -1.255  17.558  1.00  0.00     0.001 A 
ATOM     67  C   UNL     1       3.855   0.997  16.833  1.00  0.00     0.001 A 
ATOM     68  C   UNL     1       3.115   0.115  17.620  1.00  0.00     0.000 A 
ENDBRANCH  49  63
BRANCH  50  69
ATOM     69  C   UNL     1      11.775  -3.987   9.375  1.00  0.00    -0.014 A 
ATOM     70  C   UNL     1      12.620  -5.079   9.628  1.00  0.00     0.009 A 
ATOM     71  C   UNL     1      11.925  -3.268   8.181  1.00  0.00     0.009 A 
ATOM     72  C   UNL     1      13.614  -5.428   8.713  1.00  0.00     0.001 A 
ATOM     73  C   UNL     1      12.910  -3.631   7.260  1.00  0.00     0.001 A 
ATOM     74  C   UNL     1      13.758  -4.705   7.529  1.00  0.00     0.000 A 
ENDBRANCH  50  69
BRANCH  62  75
ATOM     75  C   UNL     1      12.288  -0.834  15.534  1.00  0.00    -0.014 A 
ATOM     76  C   UNL     1      13.042   0.311  15.234  1.00  0.00     0.009 A 
ATOM     77  C   UNL     1      12.629  -1.595  16.663  1.00  0.00     0.009 A 
ATOM     78  C   UNL     1      14.131   0.668  16.034  1.00  0.00     0.001 A 
ATOM     79  C   UNL     1      13.705  -1.224  17.472  1.00  0.00     0.001 A 
ATOM     80  C   UNL     1      14.460  -0.097  17.153  1.00  0.00     0.000 A 
ENDBRANCH  62  75
ENDBRANCH  36  37
ENDBRANCH  28  31
ENDBRANCH  26  27
ENDBRANCH  25  26
ENDBRANCH   1  25
TORSDOF 15
