REMARK SMILES Cc1ccc(C2=NN(C(=O)CCC(=O)NCCCNC(=O)c3ccc(-c4c5nc(c(-c6ccccc6)c6ccc([nH]6)c(-c6ccccc6)c6nc(c(-c7ccccc7)c7ccc4[nH]7)C=C6)C=C5)cc3)[C@H](C[C@@H]3C=c4cccc(C)c4=NC3=O)C2)cc1
REMARK SMILES IDX 13 1 14 2 15 3 12 5 11 6 9 7 10 8 8 9 6 10 7 11 84 12 70 13
REMARK SMILES IDX 5 14 1 15 2 16 3 17 86 18 4 19 85 20 71 21 72 22 73 23 82 24
REMARK SMILES IDX 74 25 81 26 83 27 75 28 80 29 76 30 78 31 77 32 79 33 16 34
REMARK SMILES IDX 17 35 18 36 19 37 20 38 21 40 22 41 23 42 69 43 24 44 68 45
REMARK SMILES IDX 25 46 26 47 27 48 62 49 28 50 67 51 61 52 63 53 29 54 66 55
REMARK SMILES IDX 60 56 59 57 30 59 52 60 37 61 51 62 38 63 41 64 50 65 64 66
REMARK SMILES IDX 39 67 40 68 49 70 65 71 42 72 31 73 32 74 36 75 33 76 35 77
REMARK SMILES IDX 34 78 53 79 54 80 58 81 55 82 57 83 56 84 43 85 44 86 48 87
REMARK SMILES IDX 45 88 47 89 46 90
REMARK H PARENT 15 4 19 39 63 58 41 69
REMARK Flexibility Score: inf
ROOT
ATOM      1  C   UNL     1      -7.551   2.501   0.197  1.00  0.00     0.220 C 
ATOM      2  O   UNL     1      -8.182   3.290  -0.516  1.00  0.00    -0.275 OA
ATOM      3  N   UNL     1      -6.287   2.198  -0.230  1.00  0.00    -0.356 N 
ATOM      4  H   UNL     1      -6.071   2.632  -1.087  1.00  0.00     0.163 HD
ENDROOT
BRANCH   1   5
ATOM      5  C   UNL     1      -8.211   1.956   1.458  1.00  0.00     0.110 C 
BRANCH   5   6
ATOM      6  C   UNL     1      -8.290   0.452   1.604  1.00  0.00     0.112 C 
BRANCH   6   7
ATOM      7  C   UNL     1      -6.972  -0.022   2.129  1.00  0.00     0.243 C 
ATOM      8  O   UNL     1      -6.767  -0.249   3.315  1.00  0.00    -0.273 OA
BRANCH   7   9
ATOM      9  N   UNL     1      -6.020  -0.080   1.138  1.00  0.00    -0.230 N 
ATOM     10  C   UNL     1      -3.288   0.515   0.379  1.00  0.00     0.070 C 
ATOM     11  N   UNL     1      -4.238   0.343   1.674  1.00  0.00    -0.174 NA
ATOM     12  C   UNL     1      -4.278   0.493  -1.341  1.00  0.00     0.086 C 
ATOM     13  C   UNL     1      -6.092  -0.064  -0.820  1.00  0.00     0.118 C 
BRANCH  10  14
ATOM     14  C   UNL     1      -1.910   0.075   0.331  1.00  0.00    -0.002 A 
ATOM     15  C   UNL     1       2.964  -0.523   1.652  1.00  0.00     0.044 C 
ATOM     16  C   UNL     1       1.495  -0.482   1.325  1.00  0.00    -0.051 A 
ATOM     17  C   UNL     1       0.535  -1.921   0.850  1.00  0.00     0.004 A 
ATOM     18  C   UNL     1       0.773   1.173   1.303  1.00  0.00     0.004 A 
ATOM     19  C   UNL     1      -1.204  -1.700   0.359  1.00  0.00     0.010 A 
ATOM     20  C   UNL     1      -0.892   1.448   0.807  1.00  0.00     0.010 A 
ENDBRANCH  10  14
BRANCH  13  21
ATOM     21  C   UNL     1      -6.503  -1.289  -1.713  1.00  0.00     0.045 C 
BRANCH  21  22
ATOM     22  C   UNL     1      -7.913  -1.801  -1.429  1.00  0.00     0.106 C 
ATOM     23  C   UNL     1      -7.883  -2.464  -0.105  1.00  0.00    -0.003 C 
ATOM     24  C   UNL     1      -8.427  -2.720  -2.550  1.00  0.00     0.253 C 
ATOM     25  C   UNL     1      -8.361  -3.671   0.143  1.00  0.00    -0.003 A 
ATOM     26  N   UNL     1      -8.997  -3.933  -2.228  1.00  0.00    -0.212 NA
ATOM     27  O   UNL     1      -8.354  -2.337  -3.718  1.00  0.00    -0.272 OA
ATOM     28  C   UNL     1      -8.315  -4.234   1.463  1.00  0.00     0.010 A 
ATOM     29  C   UNL     1      -8.965  -4.378  -1.012  1.00  0.00     0.077 A 
ATOM     30  C   UNL     1      -8.880  -5.420   1.692  1.00  0.00     0.001 A 
ATOM     31  C   UNL     1      -9.551  -5.713  -0.657  1.00  0.00    -0.025 A 
ATOM     32  C   UNL     1      -9.500  -6.155   0.615  1.00  0.00     0.005 A 
ATOM     33  C   UNL     1     -10.141  -6.502  -1.778  1.00  0.00     0.047 C 
ENDBRANCH  21  22
ENDBRANCH  13  21
ENDBRANCH   7   9
ENDBRANCH   6   7
ENDBRANCH   5   6
ENDBRANCH   1   5
BRANCH   3  34
ATOM     34  C   UNL     1      -5.094   1.328   0.309  1.00  0.00     0.117 C 
BRANCH  34  35
ATOM     35  C   UNL     1      -4.564  -0.841   0.234  1.00  0.00     0.042 C 
BRANCH  35  36
ATOM     36  C   UNL     1      -3.517  -1.692   1.576  1.00  0.00     0.118 C 
BRANCH  36  37
ATOM     37  N   UNL     1      -2.103  -1.047   2.242  1.00  0.00    -0.352 N 
ATOM     38  C   UNL     1      -0.601  -0.434   1.718  1.00  0.00     0.251 C 
ATOM     39  H   UNL     1      -2.165  -1.016   3.224  1.00  0.00     0.163 HD
ATOM     40  O   UNL     1      -0.154  -0.183   2.878  1.00  0.00    -0.269 OA
BRANCH  38  41
ATOM     41  C   UNL     1       0.030  -0.195  -0.326  1.00  0.00     0.039 A 
ATOM     42  C   UNL     1       1.179   0.464  -0.998  1.00  0.00     0.014 A 
ATOM     43  C   UNL     1      -0.751  -0.654  -1.553  1.00  0.00     0.014 A 
ATOM     44  C   UNL     1       1.154   1.043  -2.278  1.00  0.00     0.010 A 
ATOM     45  C   UNL     1      -1.005   0.122  -2.620  1.00  0.00     0.010 A 
ATOM     46  C   UNL     1      -0.032   1.003  -2.962  1.00  0.00    -0.014 A 
BRANCH  46  47
ATOM     47  C   UNL     1      -0.341   1.501  -4.262  1.00  0.00     0.031 A 
ATOM     48  C   UNL     1       0.137   0.609  -5.325  1.00  0.00     0.074 A 
ATOM     49  C   UNL     1      -1.262   2.485  -4.246  1.00  0.00     0.049 A 
ATOM     50  N   UNL     1       0.751   0.998  -6.381  1.00  0.00    -0.248 NA
ATOM     51  C   UNL     1       0.139  -0.868  -5.188  1.00  0.00     0.031 C 
ATOM     52  C   UNL     1      -2.127   3.016  -5.278  1.00  0.00     0.029 A 
ATOM     53  N   UNL     1      -1.496   3.333  -3.170  1.00  0.00    -0.354 N 
ATOM     54  C   UNL     1       0.696  -0.098  -7.214  1.00  0.00     0.074 A 
ATOM     55  C   UNL     1       0.630  -1.253  -6.364  1.00  0.00     0.031 C 
ATOM     56  C   UNL     1      -2.529   4.250  -4.899  1.00  0.00     0.029 A 
ATOM     57  C   UNL     1      -1.871   4.590  -3.638  1.00  0.00     0.049 A 
ATOM     58  H   UNL     1      -1.409   3.083  -2.222  1.00  0.00     0.167 HD
ATOM     59  C   UNL     1       0.252   0.072  -8.489  1.00  0.00     0.031 A 
ATOM     60  C   UNL     1      -0.940   5.583  -3.480  1.00  0.00     0.031 A 
ATOM     61  C   UNL     1      -0.188   1.457  -8.688  1.00  0.00     0.049 A 
ATOM     62  C   UNL     1      -0.074   5.764  -4.723  1.00  0.00     0.074 A 
ATOM     63  C   UNL     1      -1.429   2.072  -8.738  1.00  0.00     0.029 A 
ATOM     64  N   UNL     1       0.711   2.468  -8.404  1.00  0.00    -0.354 N 
ATOM     65  N   UNL     1      -0.197   5.079  -5.828  1.00  0.00    -0.248 NA
ATOM     66  C   UNL     1       1.059   6.686  -4.766  1.00  0.00     0.031 C 
ATOM     67  C   UNL     1      -1.244   3.469  -8.473  1.00  0.00     0.029 A 
ATOM     68  C   UNL     1       0.103   3.698  -8.264  1.00  0.00     0.049 A 
ATOM     69  H   UNL     1       1.680   2.325  -8.312  1.00  0.00     0.167 HD
ATOM     70  C   UNL     1       0.810   5.405  -6.693  1.00  0.00     0.074 A 
ATOM     71  C   UNL     1       1.584   6.404  -5.970  1.00  0.00     0.031 C 
ATOM     72  C   UNL     1       0.963   4.823  -7.922  1.00  0.00     0.031 A 
BRANCH  59  73
ATOM     73  C   UNL     1      -0.071  -1.069  -9.409  1.00  0.00    -0.014 A 
ATOM     74  C   UNL     1      -0.933  -0.849 -10.492  1.00  0.00     0.009 A 
ATOM     75  C   UNL     1       0.482  -2.361  -9.300  1.00  0.00     0.009 A 
ATOM     76  C   UNL     1      -1.262  -1.867 -11.392  1.00  0.00     0.001 A 
ATOM     77  C   UNL     1       0.127  -3.396 -10.175  1.00  0.00     0.001 A 
ATOM     78  C   UNL     1      -0.744  -3.145 -11.226  1.00  0.00     0.000 A 
ENDBRANCH  59  73
BRANCH  60  79
ATOM     79  C   UNL     1      -0.400   5.615  -2.078  1.00  0.00    -0.014 A 
ATOM     80  C   UNL     1      -1.270   5.993  -1.033  1.00  0.00     0.009 A 
ATOM     81  C   UNL     1       0.782   4.934  -1.742  1.00  0.00     0.009 A 
ATOM     82  C   UNL     1      -1.023   5.602   0.287  1.00  0.00     0.001 A 
ATOM     83  C   UNL     1       1.029   4.550  -0.418  1.00  0.00     0.001 A 
ATOM     84  C   UNL     1       0.116   4.862   0.590  1.00  0.00     0.000 A 
ENDBRANCH  60  79
BRANCH  72  85
ATOM     85  C   UNL     1       2.030   5.235  -8.909  1.00  0.00    -0.014 A 
ATOM     86  C   UNL     1       2.497   6.549  -9.006  1.00  0.00     0.009 A 
ATOM     87  C   UNL     1       2.528   4.324  -9.868  1.00  0.00     0.009 A 
ATOM     88  C   UNL     1       3.501   6.899  -9.914  1.00  0.00     0.001 A 
ATOM     89  C   UNL     1       3.510   4.669 -10.794  1.00  0.00     0.001 A 
ATOM     90  C   UNL     1       4.018   5.955 -10.797  1.00  0.00     0.000 A 
ENDBRANCH  72  85
ENDBRANCH  46  47
ENDBRANCH  38  41
ENDBRANCH  36  37
ENDBRANCH  35  36
ENDBRANCH  34  35
ENDBRANCH   3  34
TORSDOF 16
