REMARK SMILES Cc1ccc(-c2cc(OCC(=O)NCCCNC(=O)c3ccc(-c4c5nc(c(-c6ccccc6)c6ccc([nH]6)c(-c6ccccc6)c6nc(c(-c7ccccc7)c7ccc4[nH]7)C=C6)C=C5)cc3)nc(NCc3ccc4c(c3)OCO4)n2)cc1
REMARK SMILES IDX 11 1 12 2 13 3 10 5 9 6 8 7 6 8 7 9 81 10 69 11 68 12 5 13
REMARK SMILES IDX 1 14 2 15 3 16 83 17 4 18 82 19 70 20 71 22 72 23 73 24
REMARK SMILES IDX 77 25 74 26 76 27 75 28 78 29 80 30 79 31 14 32 15 33 16 34
REMARK SMILES IDX 17 35 18 36 19 38 20 39 21 40 67 41 22 42 66 43 23 44 24 45
REMARK SMILES IDX 25 46 60 47 26 48 65 49 59 50 61 51 27 52 64 53 58 54 57 55
REMARK SMILES IDX 28 57 50 58 35 59 49 60 36 61 39 62 48 63 62 64 37 65 38 66
REMARK SMILES IDX 47 68 63 69 40 70 29 71 30 72 34 73 31 74 33 75 32 76 51 77
REMARK SMILES IDX 52 78 56 79 53 80 55 81 54 82 41 83 42 84 46 85 43 86 45 87
REMARK SMILES IDX 44 88
REMARK H PARENT 13 4 70 21 17 37 61 56 39 67
REMARK Flexibility Score: inf
ROOT
ATOM      1  C   UNL     1      -4.676   3.004  -2.779  1.00  0.00     0.258 C 
ATOM      2  O   UNL     1      -3.451   3.148  -2.791  1.00  0.00    -0.271 OA
ATOM      3  N   UNL     1      -5.461   4.064  -2.422  1.00  0.00    -0.353 N 
ATOM      4  H   UNL     1      -4.980   4.881  -2.155  1.00  0.00     0.163 HD
ENDROOT
BRANCH   1   5
ATOM      5  C   UNL     1      -5.322   1.665  -3.153  1.00  0.00     0.331 C 
BRANCH   5   6
ATOM      6  O   UNL     1      -5.946   0.978  -2.082  1.00  0.00    -0.467 OA
BRANCH   6   7
ATOM      7  C   UNL     1      -5.148   0.523  -1.068  1.00  0.00     0.219 A 
ATOM      8  C   UNL     1      -3.160  -0.046   0.014  1.00  0.00     0.080 A 
ATOM      9  C   UNL     1      -3.785   0.404  -1.130  1.00  0.00     0.097 A 
ATOM     10  N   UNL     1      -3.839  -0.417   1.116  1.00  0.00    -0.213 NA
ATOM     11  C   UNL     1      -5.168  -0.272   1.085  1.00  0.00     0.226 A 
ATOM     12  N   UNL     1      -5.845   0.203   0.033  1.00  0.00    -0.177 NA
BRANCH   8  13
ATOM     13  C   UNL     1      -1.697  -0.070   0.093  1.00  0.00     0.000 A 
ATOM     14  C   UNL     1       2.629  -0.085   0.041  1.00  0.00     0.044 C 
ATOM     15  C   UNL     1       1.130  -0.073   0.084  1.00  0.00    -0.051 A 
ATOM     16  C   UNL     1       0.416  -1.275   0.162  1.00  0.00     0.004 A 
ATOM     17  C   UNL     1       0.426   1.132   0.025  1.00  0.00     0.004 A 
ATOM     18  C   UNL     1      -0.984  -1.273   0.176  1.00  0.00     0.010 A 
ATOM     19  C   UNL     1      -0.970   1.131   0.028  1.00  0.00     0.010 A 
ENDBRANCH   8  13
BRANCH  11  20
ATOM     20  N   UNL     1      -5.933  -0.583   2.178  1.00  0.00    -0.350 N 
ATOM     21  H   UNL     1      -6.799  -0.131   2.302  1.00  0.00     0.164 HD
BRANCH  20  22
ATOM     22  C   UNL     1      -5.502  -1.556   3.149  1.00  0.00     0.152 C 
BRANCH  22  23
ATOM     23  C   UNL     1      -5.838  -2.985   2.758  1.00  0.00    -0.025 A 
ATOM     24  C   UNL     1      -5.247  -4.044   3.494  1.00  0.00     0.009 A 
ATOM     25  C   UNL     1      -6.725  -3.301   1.712  1.00  0.00     0.056 A 
ATOM     26  C   UNL     1      -5.493  -5.384   3.171  1.00  0.00     0.051 A 
ATOM     27  C   UNL     1      -6.929  -4.629   1.401  1.00  0.00     0.166 A 
ATOM     28  C   UNL     1      -6.325  -5.642   2.105  1.00  0.00     0.165 A 
ATOM     29  O   UNL     1      -7.704  -5.094   0.384  1.00  0.00    -0.454 OA
ATOM     30  O   UNL     1      -6.638  -6.871   1.613  1.00  0.00    -0.454 OA
ATOM     31  C   UNL     1      -7.391  -6.500   0.439  1.00  0.00     0.468 C 
ENDBRANCH  22  23
ENDBRANCH  20  22
ENDBRANCH  11  20
ENDBRANCH   6   7
ENDBRANCH   5   6
ENDBRANCH   1   5
BRANCH   3  32
ATOM     32  C   UNL     1      -6.912   4.144  -2.385  1.00  0.00     0.117 C 
BRANCH  32  33
ATOM     33  C   UNL     1      -7.499   3.766  -1.032  1.00  0.00     0.042 C 
BRANCH  33  34
ATOM     34  C   UNL     1      -7.265   4.812   0.049  1.00  0.00     0.118 C 
BRANCH  34  35
ATOM     35  N   UNL     1      -8.231   5.900   0.062  1.00  0.00    -0.352 N 
ATOM     36  C   UNL     1      -8.283   7.051   0.843  1.00  0.00     0.251 C 
ATOM     37  H   UNL     1      -8.967   5.806  -0.586  1.00  0.00     0.163 HD
ATOM     38  O   UNL     1      -9.224   7.804   0.731  1.00  0.00    -0.269 OA
BRANCH  36  39
ATOM     39  C   UNL     1      -7.125   7.427   1.704  1.00  0.00     0.039 A 
ATOM     40  C   UNL     1      -6.798   8.789   1.799  1.00  0.00     0.014 A 
ATOM     41  C   UNL     1      -6.269   6.480   2.249  1.00  0.00     0.014 A 
ATOM     42  C   UNL     1      -5.515   9.165   2.195  1.00  0.00     0.010 A 
ATOM     43  C   UNL     1      -4.968   6.834   2.527  1.00  0.00     0.010 A 
ATOM     44  C   UNL     1      -4.574   8.169   2.438  1.00  0.00    -0.014 A 
BRANCH  44  45
ATOM     45  C   UNL     1      -3.137   8.393   2.472  1.00  0.00     0.031 A 
ATOM     46  C   UNL     1      -2.374   8.258   3.725  1.00  0.00     0.074 A 
ATOM     47  C   UNL     1      -2.473   8.579   1.311  1.00  0.00     0.049 A 
ATOM     48  N   UNL     1      -1.210   8.784   3.912  1.00  0.00    -0.248 NA
ATOM     49  C   UNL     1      -2.882   7.552   4.894  1.00  0.00     0.031 C 
ATOM     50  C   UNL     1      -1.040   8.439   1.071  1.00  0.00     0.029 A 
ATOM     51  N   UNL     1      -2.958   9.119   0.131  1.00  0.00    -0.354 N 
ATOM     52  C   UNL     1      -0.689   8.220   5.050  1.00  0.00     0.074 A 
ATOM     53  C   UNL     1      -1.804   7.553   5.683  1.00  0.00     0.031 C 
ATOM     54  C   UNL     1      -0.726   9.070  -0.072  1.00  0.00     0.029 A 
ATOM     55  C   UNL     1      -1.910   9.786  -0.516  1.00  0.00     0.049 A 
ATOM     56  H   UNL     1      -3.883   9.046  -0.198  1.00  0.00     0.167 HD
ATOM     57  C   UNL     1       0.659   8.248   5.252  1.00  0.00     0.031 A 
ATOM     58  C   UNL     1      -1.971  11.137  -0.719  1.00  0.00     0.031 A 
ATOM     59  C   UNL     1       1.367   8.967   4.190  1.00  0.00     0.049 A 
ATOM     60  C   UNL     1      -0.910  11.935   0.019  1.00  0.00     0.074 A 
ATOM     61  C   UNL     1       2.175   8.576   3.134  1.00  0.00     0.029 A 
ATOM     62  N   UNL     1       1.066  10.301   3.963  1.00  0.00    -0.354 N 
ATOM     63  N   UNL     1      -0.051  11.425   0.858  1.00  0.00    -0.248 NA
ATOM     64  C   UNL     1      -0.801  13.393  -0.054  1.00  0.00     0.031 C 
ATOM     65  C   UNL     1       2.386   9.704   2.291  1.00  0.00     0.029 A 
ATOM     66  C   UNL     1       1.712  10.777   2.840  1.00  0.00     0.049 A 
ATOM     67  H   UNL     1       0.468  10.839   4.530  1.00  0.00     0.167 HD
ATOM     68  C   UNL     1       0.650  12.428   1.472  1.00  0.00     0.074 A 
ATOM     69  C   UNL     1       0.152  13.646   0.861  1.00  0.00     0.031 C 
ATOM     70  C   UNL     1       1.546  12.174   2.472  1.00  0.00     0.031 A 
BRANCH  57  71
ATOM     71  C   UNL     1       1.373   7.404   6.283  1.00  0.00    -0.014 A 
ATOM     72  C   UNL     1       2.736   7.101   6.108  1.00  0.00     0.009 A 
ATOM     73  C   UNL     1       0.768   6.849   7.423  1.00  0.00     0.009 A 
ATOM     74  C   UNL     1       3.420   6.217   6.953  1.00  0.00     0.001 A 
ATOM     75  C   UNL     1       1.433   5.936   8.254  1.00  0.00     0.001 A 
ATOM     76  C   UNL     1       2.758   5.609   8.010  1.00  0.00     0.000 A 
ENDBRANCH  57  71
BRANCH  58  77
ATOM     77  C   UNL     1      -3.357  11.621  -0.978  1.00  0.00    -0.014 A 
ATOM     78  C   UNL     1      -3.973  11.259  -2.192  1.00  0.00     0.009 A 
ATOM     79  C   UNL     1      -4.165  12.066   0.078  1.00  0.00     0.009 A 
ATOM     80  C   UNL     1      -5.366  11.230  -2.305  1.00  0.00     0.001 A 
ATOM     81  C   UNL     1      -5.560  12.044  -0.043  1.00  0.00     0.001 A 
ATOM     82  C   UNL     1      -6.159  11.593  -1.219  1.00  0.00     0.000 A 
ENDBRANCH  58  77
BRANCH  70  83
ATOM     83  C   UNL     1       2.332  13.213   3.231  1.00  0.00    -0.014 A 
ATOM     84  C   UNL     1       2.817  14.394   2.657  1.00  0.00     0.009 A 
ATOM     85  C   UNL     1       2.715  12.957   4.568  1.00  0.00     0.009 A 
ATOM     86  C   UNL     1       3.589  15.300   3.402  1.00  0.00     0.001 A 
ATOM     87  C   UNL     1       3.500  13.843   5.306  1.00  0.00     0.001 A 
ATOM     88  C   UNL     1       3.928  15.025   4.725  1.00  0.00     0.000 A 
ENDBRANCH  70  83
ENDBRANCH  44  45
ENDBRANCH  36  39
ENDBRANCH  34  35
ENDBRANCH  33  34
ENDBRANCH  32  33
ENDBRANCH   3  32
TORSDOF 16
