REMARK SMILES COc1cccc(C(=O)NNC(=O)[C@H]2CC(C)=C(C)C[C@@H]2C(=O)NCCCNC(=O)c2ccc(-c3c4nc(c(-c5ccccc5)c5ccc([nH]5)c(-c5ccccc5)c5nc(c(-c6ccccc6)c6ccc3[nH]6)C=C5)C=C4)cc2)c1
REMARK SMILES IDX 25 1 24 2 22 3 23 4 21 6 14 7 15 8 16 9 20 10 17 11 18 12
REMARK SMILES IDX 19 13 12 14 11 15 13 17 10 18 8 19 9 20 7 22 3 23 4 24 79 25
REMARK SMILES IDX 5 26 6 27 2 28 1 29 26 30 27 31 28 32 29 33 30 35 31 36
REMARK SMILES IDX 32 37 78 38 33 39 77 40 34 41 35 42 36 43 71 44 37 45 76 46
REMARK SMILES IDX 70 47 72 48 38 49 75 50 69 51 68 52 39 54 61 55 46 56 60 57
REMARK SMILES IDX 47 58 50 59 59 60 73 61 48 62 49 63 58 65 74 66 51 67 40 68
REMARK SMILES IDX 41 69 45 70 42 71 44 72 43 73 62 74 63 75 67 76 64 77 66 78
REMARK SMILES IDX 65 79 52 80 53 81 57 82 54 83 56 84 55 85
REMARK H PARENT 24 5 11 16 10 21 28 34 72 53 50 64
REMARK Flexibility Score: inf
ROOT
ATOM      1  C   UNL     1      10.333   2.449   1.041  1.00  0.00     0.117 C 
ENDROOT
BRANCH   1   2
ATOM      2  N   UNL     1       9.379   2.073   2.075  1.00  0.00    -0.356 N 
ATOM      3  C   UNL     1       8.362   1.166   2.092  1.00  0.00     0.224 C 
ATOM      4  O   UNL     1       7.797   1.010   3.181  1.00  0.00    -0.275 OA
ATOM      5  H   UNL     1       9.489   2.566   2.920  1.00  0.00     0.163 HD
BRANCH   3   6
ATOM      6  C   UNL     1       7.823   0.490   0.820  1.00  0.00     0.095 C 
ATOM      7  C   UNL     1       6.889  -0.698   1.186  1.00  0.00     0.097 C 
ATOM      8  C   UNL     1       7.206  -2.071   0.554  1.00  0.00     0.045 C 
ATOM      9  C   UNL     1       8.213  -2.158  -0.566  1.00  0.00    -0.074 C 
ATOM     10  C   UNL     1       8.893   0.181  -0.219  1.00  0.00     0.045 C 
ATOM     11  C   UNL     1       8.431  -3.538  -1.127  1.00  0.00     0.039 C 
ATOM     12  C   UNL     1       8.937  -1.102  -0.961  1.00  0.00    -0.074 C 
ATOM     13  C   UNL     1       9.965  -1.116  -2.067  1.00  0.00     0.039 C 
BRANCH   7  14
ATOM     14  C   UNL     1       5.473  -0.218   0.845  1.00  0.00     0.242 C 
ATOM     15  N   UNL     1       4.783   0.514   1.790  1.00  0.00    -0.267 N 
ATOM     16  H   UNL     1       4.109   1.159   1.475  1.00  0.00     0.191 HD
ATOM     17  O   UNL     1       4.990  -0.337  -0.282  1.00  0.00    -0.273 OA
BRANCH  15  18
ATOM     18  N   UNL     1       4.987   0.395   3.161  1.00  0.00    -0.263 N 
ATOM     19  C   UNL     1       3.997   0.295   4.128  1.00  0.00     0.269 C 
ATOM     20  O   UNL     1       4.325   0.153   5.307  1.00  0.00    -0.267 OA
ATOM     21  H   UNL     1       5.920   0.380   3.474  1.00  0.00     0.191 HD
BRANCH  19  22
ATOM     22  C   UNL     1       2.543   0.462   3.810  1.00  0.00     0.045 A 
ATOM     23  C   UNL     1       0.634   0.469   2.308  1.00  0.00     0.119 A 
ATOM     24  C   UNL     1      -0.141   1.077   3.298  1.00  0.00     0.046 A 
ATOM     25  C   UNL     1       1.956   0.107   2.589  1.00  0.00     0.060 A 
ATOM     26  C   UNL     1       0.397   1.337   4.556  1.00  0.00     0.005 A 
ATOM     27  C   UNL     1       1.738   1.042   4.805  1.00  0.00     0.014 A 
BRANCH  23  28
ATOM     28  O   UNL     1      -0.006   0.293   1.112  1.00  0.00    -0.497 OA
ATOM     29  C   UNL     1       0.776  -0.177   0.020  1.00  0.00     0.278 C 
ENDBRANCH  23  28
ENDBRANCH  19  22
ENDBRANCH  15  18
ENDBRANCH   7  14
ENDBRANCH   3   6
ENDBRANCH   1   2
BRANCH   1  30
ATOM     30  C   UNL     1      10.681   3.918   1.017  1.00  0.00     0.042 C 
BRANCH  30  31
ATOM     31  C   UNL     1      11.337   4.406   2.289  1.00  0.00     0.118 C 
BRANCH  31  32
ATOM     32  N   UNL     1      12.655   3.821   2.509  1.00  0.00    -0.352 N 
ATOM     33  C   UNL     1      13.906   4.368   2.357  1.00  0.00     0.251 C 
ATOM     34  H   UNL     1      12.646   2.886   2.816  1.00  0.00     0.163 HD
ATOM     35  O   UNL     1      14.902   3.647   2.408  1.00  0.00    -0.269 OA
BRANCH  33  36
ATOM     36  C   UNL     1      14.054   5.814   2.095  1.00  0.00     0.039 A 
ATOM     37  C   UNL     1      15.003   6.254   1.170  1.00  0.00     0.014 A 
ATOM     38  C   UNL     1      13.236   6.736   2.746  1.00  0.00     0.014 A 
ATOM     39  C   UNL     1      15.060   7.609   0.835  1.00  0.00     0.010 A 
ATOM     40  C   UNL     1      13.191   8.049   2.305  1.00  0.00     0.010 A 
ATOM     41  C   UNL     1      14.118   8.508   1.361  1.00  0.00    -0.014 A 
BRANCH  41  42
ATOM     42  C   UNL     1      14.097   9.941   0.977  1.00  0.00     0.031 A 
ATOM     43  C   UNL     1      14.257  11.000   2.037  1.00  0.00     0.074 A 
ATOM     44  C   UNL     1      13.862  10.292  -0.303  1.00  0.00     0.049 A 
ATOM     45  N   UNL     1      14.181  12.301   1.923  1.00  0.00    -0.248 NA
ATOM     46  C   UNL     1      14.499  10.534   3.414  1.00  0.00     0.031 C 
ATOM     47  C   UNL     1      13.645   9.364  -1.416  1.00  0.00     0.029 A 
ATOM     48  N   UNL     1      13.764  11.531  -0.883  1.00  0.00    -0.354 N 
ATOM     49  C   UNL     1      14.344  12.800   3.210  1.00  0.00     0.074 A 
ATOM     50  C   UNL     1      14.448  11.666   4.098  1.00  0.00     0.031 C 
ATOM     51  C   UNL     1      13.485  10.066  -2.550  1.00  0.00     0.029 A 
ATOM     52  C   UNL     1      13.534  11.489  -2.238  1.00  0.00     0.049 A 
ATOM     53  H   UNL     1      13.849  12.371  -0.377  1.00  0.00     0.167 HD
ATOM     54  C   UNL     1      14.434  14.088   3.617  1.00  0.00     0.031 A 
ATOM     55  C   UNL     1      13.377  12.488  -3.126  1.00  0.00     0.031 A 
ATOM     56  C   UNL     1      14.349  15.216   2.732  1.00  0.00     0.049 A 
ATOM     57  C   UNL     1      13.454  13.911  -2.645  1.00  0.00     0.074 A 
ATOM     58  C   UNL     1      14.474  16.560   3.034  1.00  0.00     0.029 A 
ATOM     59  N   UNL     1      14.118  15.129   1.368  1.00  0.00    -0.354 N 
ATOM     60  N   UNL     1      13.674  14.365  -1.434  1.00  0.00    -0.248 NA
ATOM     61  C   UNL     1      13.272  14.960  -3.658  1.00  0.00     0.031 C 
ATOM     62  C   UNL     1      14.266  17.290   1.859  1.00  0.00     0.029 A 
ATOM     63  C   UNL     1      14.076  16.397   0.816  1.00  0.00     0.049 A 
ATOM     64  H   UNL     1      14.002  14.290   0.866  1.00  0.00     0.167 HD
ATOM     65  C   UNL     1      13.691  15.749  -1.546  1.00  0.00     0.074 A 
ATOM     66  C   UNL     1      13.477  16.059  -2.945  1.00  0.00     0.031 C 
ATOM     67  C   UNL     1      13.868  16.683  -0.579  1.00  0.00     0.031 A 
BRANCH  54  68
ATOM     68  C   UNL     1      14.642  14.336   5.086  1.00  0.00    -0.014 A 
ATOM     69  C   UNL     1      15.847  13.986   5.720  1.00  0.00     0.009 A 
ATOM     70  C   UNL     1      13.633  14.951   5.843  1.00  0.00     0.009 A 
ATOM     71  C   UNL     1      16.020  14.210   7.087  1.00  0.00     0.001 A 
ATOM     72  C   UNL     1      13.822  15.205   7.203  1.00  0.00     0.001 A 
ATOM     73  C   UNL     1      15.010  14.824   7.826  1.00  0.00     0.000 A 
ENDBRANCH  54  68
BRANCH  55  74
ATOM     74  C   UNL     1      13.151  12.187  -4.565  1.00  0.00    -0.014 A 
ATOM     75  C   UNL     1      14.132  12.500  -5.520  1.00  0.00     0.009 A 
ATOM     76  C   UNL     1      11.948  11.608  -4.998  1.00  0.00     0.009 A 
ATOM     77  C   UNL     1      13.899  12.273  -6.878  1.00  0.00     0.001 A 
ATOM     78  C   UNL     1      11.730  11.352  -6.354  1.00  0.00     0.001 A 
ATOM     79  C   UNL     1      12.700  11.697  -7.293  1.00  0.00     0.000 A 
ENDBRANCH  55  74
BRANCH  67  80
ATOM     80  C   UNL     1      13.885  18.123  -1.009  1.00  0.00    -0.014 A 
ATOM     81  C   UNL     1      12.718  18.776  -1.432  1.00  0.00     0.009 A 
ATOM     82  C   UNL     1      15.086  18.847  -0.946  1.00  0.00     0.009 A 
ATOM     83  C   UNL     1      12.761  20.116  -1.820  1.00  0.00     0.001 A 
ATOM     84  C   UNL     1      15.120  20.196  -1.302  1.00  0.00     0.001 A 
ATOM     85  C   UNL     1      13.960  20.826  -1.749  1.00  0.00     0.000 A 
ENDBRANCH  67  80
ENDBRANCH  41  42
ENDBRANCH  33  36
ENDBRANCH  31  32
ENDBRANCH  30  31
ENDBRANCH   1  30
TORSDOF 14
