REMARK SMILES CC[C@@]1(C(=O)NCCCNC(=O)c2ccc(-c3c4nc(c(-c5ccccc5)c5ccc([nH]5)c(-c5ccccc5)c5nc(c(-c6ccccc6)c6ccc3[nH]6)C=C5)C=C4)cc2)CCC[N@@H+](Cc2ccc(C3CC3)cc2)C1
REMARK SMILES IDX 7 1 6 2 4 3 5 4 3 6 61 7 75 8 62 9 64 10 63 11 2 13 1 14
REMARK SMILES IDX 65 15 66 16 67 17 74 18 68 19 73 20 69 21 70 22 71 23 72 24
REMARK SMILES IDX 8 25 9 26 10 27 11 28 12 30 13 31 14 32 60 33 15 34 59 35
REMARK SMILES IDX 16 36 17 37 18 38 53 39 19 40 58 41 52 42 54 43 20 44 57 45
REMARK SMILES IDX 51 46 50 47 21 49 43 50 28 51 42 52 29 53 32 54 41 55 55 56
REMARK SMILES IDX 30 57 31 58 40 60 56 61 33 62 22 63 23 64 27 65 24 66 26 67
REMARK SMILES IDX 25 68 44 69 45 70 49 71 46 72 48 73 47 74 34 75 35 76 39 77
REMARK SMILES IDX 36 78 38 79 37 80
REMARK H PARENT 6 5 64 12 10 29 54 48 32 59
REMARK Flexibility Score: inf
ROOT
ATOM      1  C   UNL     1      -2.127   1.073   1.113  1.00  0.00     0.117 C 
ENDROOT
BRANCH   1   2
ATOM      2  N   UNL     1      -1.055   0.102   1.173  1.00  0.00    -0.355 N 
ATOM      3  C   UNL     1       0.261   0.159   1.484  1.00  0.00     0.231 C 
ATOM      4  O   UNL     1       0.888  -0.855   1.136  1.00  0.00    -0.274 OA
ATOM      5  H   UNL     1      -1.350  -0.806   0.934  1.00  0.00     0.163 HD
BRANCH   3   6
ATOM      6  C   UNL     1       0.949   1.219   2.386  1.00  0.00     0.098 C 
ATOM      7  C   UNL     1       0.377   2.644   2.523  1.00  0.00     0.028 C 
ATOM      8  C   UNL     1       2.396   1.383   1.830  1.00  0.00     0.279 C 
ATOM      9  C   UNL     1       0.489   3.482   1.254  1.00  0.00     0.063 C 
ATOM     10  N   UNL     1       2.408   2.108   0.543  1.00  0.00    -0.330 N 
ATOM     11  C   UNL     1       1.908   3.476   0.694  1.00  0.00     0.262 C 
ATOM     12  H   UNL     1       1.760   1.622  -0.078  1.00  0.00     0.348 HD
BRANCH   6  13
ATOM     13  C   UNL     1       0.997   0.502   3.781  1.00  0.00     0.019 C 
ATOM     14  C   UNL     1       1.268   1.366   5.006  1.00  0.00     0.005 C 
ENDBRANCH   6  13
BRANCH  10  15
ATOM     15  C   UNL     1       3.719   2.047  -0.138  1.00  0.00     0.299 C 
BRANCH  15  16
ATOM     16  C   UNL     1       4.827   2.825   0.540  1.00  0.00     0.006 A 
ATOM     17  C   UNL     1       5.095   4.147   0.171  1.00  0.00     0.010 A 
ATOM     18  C   UNL     1       5.519   2.279   1.624  1.00  0.00     0.010 A 
ATOM     19  C   UNL     1       5.954   4.934   0.943  1.00  0.00     0.004 A 
ATOM     20  C   UNL     1       6.369   3.077   2.393  1.00  0.00     0.004 A 
ATOM     21  C   UNL     1       6.577   4.435   2.099  1.00  0.00    -0.045 A 
BRANCH  21  22
ATOM     22  C   UNL     1       7.388   5.365   2.980  1.00  0.00     0.019 C 
ATOM     23  C   UNL     1       7.369   5.205   4.483  1.00  0.00     0.009 C 
ATOM     24  C   UNL     1       8.618   4.891   3.710  1.00  0.00     0.009 C 
ENDBRANCH  21  22
ENDBRANCH  15  16
ENDBRANCH  10  15
ENDBRANCH   3   6
ENDBRANCH   1   2
BRANCH   1  25
ATOM     25  C   UNL     1      -2.252   1.656  -0.293  1.00  0.00     0.042 C 
BRANCH  25  26
ATOM     26  C   UNL     1      -2.887   0.696  -1.289  1.00  0.00     0.118 C 
BRANCH  26  27
ATOM     27  N   UNL     1      -4.312   0.535  -1.055  1.00  0.00    -0.352 N 
ATOM     28  C   UNL     1      -5.392   1.150  -1.636  1.00  0.00     0.251 C 
ATOM     29  H   UNL     1      -4.541  -0.127  -0.364  1.00  0.00     0.163 HD
ATOM     30  O   UNL     1      -6.489   1.063  -1.090  1.00  0.00    -0.269 OA
BRANCH  28  31
ATOM     31  C   UNL     1      -5.267   1.919  -2.898  1.00  0.00     0.039 A 
ATOM     32  C   UNL     1      -6.083   3.042  -3.079  1.00  0.00     0.014 A 
ATOM     33  C   UNL     1      -4.436   1.502  -3.939  1.00  0.00     0.014 A 
ATOM     34  C   UNL     1      -6.038   3.757  -4.279  1.00  0.00     0.010 A 
ATOM     35  C   UNL     1      -4.322   2.267  -5.099  1.00  0.00     0.010 A 
ATOM     36  C   UNL     1      -5.140   3.388  -5.293  1.00  0.00    -0.014 A 
BRANCH  36  37
ATOM     37  C   UNL     1      -5.079   4.134  -6.576  1.00  0.00     0.031 A 
ATOM     38  C   UNL     1      -5.438   3.452  -7.870  1.00  0.00     0.074 A 
ATOM     39  C   UNL     1      -4.657   5.413  -6.587  1.00  0.00     0.049 A 
ATOM     40  N   UNL     1      -5.402   3.925  -9.091  1.00  0.00    -0.248 NA
ATOM     41  C   UNL     1      -5.867   2.047  -7.785  1.00  0.00     0.031 C 
ATOM     42  C   UNL     1      -4.232   6.177  -5.412  1.00  0.00     0.029 A 
ATOM     43  N   UNL     1      -4.512   6.295  -7.628  1.00  0.00    -0.354 N 
ATOM     44  C   UNL     1      -5.773   2.870  -9.916  1.00  0.00     0.074 A 
ATOM     45  C   UNL     1      -5.987   1.721  -9.063  1.00  0.00     0.031 C 
ATOM     46  C   UNL     1      -3.905   7.422  -5.794  1.00  0.00     0.029 A 
ATOM     47  C   UNL     1      -4.066   7.535  -7.240  1.00  0.00     0.049 A 
ATOM     48  H   UNL     1      -4.710   6.062  -8.564  1.00  0.00     0.167 HD
ATOM     49  C   UNL     1      -5.944   2.858 -11.260  1.00  0.00     0.031 A 
ATOM     50  C   UNL     1      -3.817   8.640  -7.966  1.00  0.00     0.031 A 
ATOM     51  C   UNL     1      -5.761   4.004 -12.110  1.00  0.00     0.049 A 
ATOM     52  C   UNL     1      -4.045   8.615  -9.449  1.00  0.00     0.074 A 
ATOM     53  C   UNL     1      -5.967   4.109 -13.474  1.00  0.00     0.029 A 
ATOM     54  N   UNL     1      -5.336   5.248 -11.671  1.00  0.00    -0.354 N 
ATOM     55  N   UNL     1      -4.451   7.624 -10.205  1.00  0.00    -0.248 NA
ATOM     56  C   UNL     1      -3.794   9.867 -10.177  1.00  0.00     0.031 C 
ATOM     57  C   UNL     1      -5.634   5.411 -13.867  1.00  0.00     0.029 A 
ATOM     58  C   UNL     1      -5.260   6.124 -12.740  1.00  0.00     0.049 A 
ATOM     59  H   UNL     1      -5.119   5.474 -10.738  1.00  0.00     0.167 HD
ATOM     60  C   UNL     1      -4.517   8.134 -11.494  1.00  0.00     0.074 A 
ATOM     61  C   UNL     1      -4.131   9.529 -11.414  1.00  0.00     0.031 C 
ATOM     62  C   UNL     1      -4.864   7.505 -12.643  1.00  0.00     0.031 A 
BRANCH  49  63
ATOM     63  C   UNL     1      -6.350   1.555 -11.890  1.00  0.00    -0.014 A 
ATOM     64  C   UNL     1      -7.642   1.035 -11.712  1.00  0.00     0.009 A 
ATOM     65  C   UNL     1      -5.436   0.846 -12.684  1.00  0.00     0.009 A 
ATOM     66  C   UNL     1      -7.997  -0.190 -12.282  1.00  0.00     0.001 A 
ATOM     67  C   UNL     1      -5.802  -0.365 -13.275  1.00  0.00     0.001 A 
ATOM     68  C   UNL     1      -7.078  -0.887 -13.065  1.00  0.00     0.000 A 
ENDBRANCH  49  63
BRANCH  50  69
ATOM     69  C   UNL     1      -3.348   9.875  -7.289  1.00  0.00    -0.014 A 
ATOM     70  C   UNL     1      -4.220  10.960  -7.111  1.00  0.00     0.009 A 
ATOM     71  C   UNL     1      -2.034   9.971  -6.806  1.00  0.00     0.009 A 
ATOM     72  C   UNL     1      -3.779  12.124  -6.478  1.00  0.00     0.001 A 
ATOM     73  C   UNL     1      -1.603  11.127  -6.153  1.00  0.00     0.001 A 
ATOM     74  C   UNL     1      -2.473  12.205  -5.996  1.00  0.00     0.000 A 
ENDBRANCH  50  69
BRANCH  62  75
ATOM     75  C   UNL     1      -4.854   8.326 -13.899  1.00  0.00    -0.014 A 
ATOM     76  C   UNL     1      -3.647   8.689 -14.515  1.00  0.00     0.009 A 
ATOM     77  C   UNL     1      -6.067   8.717 -14.486  1.00  0.00     0.009 A 
ATOM     78  C   UNL     1      -3.655   9.458 -15.680  1.00  0.00     0.001 A 
ATOM     79  C   UNL     1      -6.071   9.465 -15.664  1.00  0.00     0.001 A 
ATOM     80  C   UNL     1      -4.866   9.842 -16.255  1.00  0.00     0.000 A 
ENDBRANCH  62  75
ENDBRANCH  36  37
ENDBRANCH  28  31
ENDBRANCH  26  27
ENDBRANCH  25  26
ENDBRANCH   1  25
TORSDOF 14
