REMARK SMILES O=C(NCCCNC(=O)[C@H]1C[NH2+]CCN1c1ncc(C(F)(F)F)cc1Cl)c1ccc(-c2c3nc(c(-c4ccccc4)c4ccc([nH]4)c(-c4ccccc4)c4nc(c(-c5ccccc5)c5ccc2[nH]5)C=C4)C=C3)cc1
REMARK SMILES IDX 5 1 4 2 3 3 1 4 2 5 27 7 28 8 74 9 29 10 73 11 30 12 31 13
REMARK SMILES IDX 32 14 67 15 33 16 72 17 66 18 68 19 34 20 71 21 65 22 64 23
REMARK SMILES IDX 35 25 57 26 42 27 56 28 43 29 46 30 55 31 69 32 44 33 45 34
REMARK SMILES IDX 54 36 70 37 47 38 36 39 37 40 41 41 38 42 40 43 39 44 58 45
REMARK SMILES IDX 59 46 63 47 60 48 62 49 61 50 48 51 49 52 53 53 50 54 52 55
REMARK SMILES IDX 51 56 6 57 7 58 8 59 9 61 10 62 11 63 15 64 12 65 14 66
REMARK SMILES IDX 13 67 16 70 17 71 25 72 18 73 24 74 26 75 19 76 20 77 21 78
REMARK SMILES IDX 22 79 23 80
REMARK H PARENT 3 6 68 24 46 35 7 60 12 68 12 69
REMARK Flexibility Score: inf
ROOT
ATOM      1  C   UNL     1       6.464   4.452  -1.359  1.00  0.00     0.042 C 
ENDROOT
BRANCH   1   2
ATOM      2  C   UNL     1       7.623   4.659  -2.326  1.00  0.00     0.118 C 
BRANCH   2   3
ATOM      3  N   UNL     1       8.031   3.415  -2.957  1.00  0.00    -0.352 N 
ATOM      4  O   UNL     1       8.136   1.881  -4.598  1.00  0.00    -0.269 OA
ATOM      5  C   UNL     1       7.993   3.062  -4.281  1.00  0.00     0.251 C 
ATOM      6  H   UNL     1       8.384   2.728  -2.347  1.00  0.00     0.163 HD
BRANCH   5   7
ATOM      7  C   UNL     1       7.794   4.082  -5.335  1.00  0.00     0.039 A 
ATOM      8  C   UNL     1       8.447   5.317  -5.277  1.00  0.00     0.014 A 
ATOM      9  C   UNL     1       7.020   3.757  -6.455  1.00  0.00     0.014 A 
ATOM     10  C   UNL     1       8.273   6.248  -6.298  1.00  0.00     0.010 A 
ATOM     11  C   UNL     1       6.902   4.664  -7.513  1.00  0.00     0.010 A 
ATOM     12  C   UNL     1       7.534   5.915  -7.444  1.00  0.00    -0.014 A 
BRANCH  12  13
ATOM     13  C   UNL     1       7.564   6.820  -8.620  1.00  0.00     0.031 A 
ATOM     14  C   UNL     1       6.334   7.536  -9.095  1.00  0.00     0.074 A 
ATOM     15  C   UNL     1       8.735   6.973  -9.271  1.00  0.00     0.049 A 
ATOM     16  N   UNL     1       6.204   8.352 -10.111  1.00  0.00    -0.248 NA
ATOM     17  C   UNL     1       5.090   7.306  -8.345  1.00  0.00     0.031 C 
ATOM     18  C   UNL     1       9.992   6.306  -8.914  1.00  0.00     0.029 A 
ATOM     19  N   UNL     1       9.065   7.735 -10.362  1.00  0.00    -0.354 N 
ATOM     20  C   UNL     1       4.866   8.721 -10.135  1.00  0.00     0.074 A 
ATOM     21  C   UNL     1       4.219   8.029  -9.039  1.00  0.00     0.031 C 
ATOM     22  C   UNL     1      10.959   6.712  -9.750  1.00  0.00     0.029 A 
ATOM     23  C   UNL     1      10.382   7.616 -10.736  1.00  0.00     0.049 A 
ATOM     24  H   UNL     1       8.420   8.312 -10.833  1.00  0.00     0.167 HD
ATOM     25  C   UNL     1       4.239   9.559 -10.994  1.00  0.00     0.031 A 
ATOM     26  C   UNL     1      11.050   8.151 -11.773  1.00  0.00     0.031 A 
ATOM     27  C   UNL     1       4.890  10.248 -12.079  1.00  0.00     0.049 A 
ATOM     28  C   UNL     1      10.315   9.047 -12.726  1.00  0.00     0.074 A 
ATOM     29  C   UNL     1       4.350  11.170 -12.960  1.00  0.00     0.029 A 
ATOM     30  N   UNL     1       6.217  10.079 -12.441  1.00  0.00    -0.354 N 
ATOM     31  N   UNL     1       9.067   9.444 -12.687  1.00  0.00    -0.248 NA
ATOM     32  C   UNL     1      11.080   9.565 -13.868  1.00  0.00     0.031 C 
ATOM     33  C   UNL     1       5.334  11.514 -13.892  1.00  0.00     0.029 A 
ATOM     34  C   UNL     1       6.501  10.845 -13.559  1.00  0.00     0.049 A 
ATOM     35  H   UNL     1       6.861   9.500 -11.974  1.00  0.00     0.167 HD
ATOM     36  C   UNL     1       8.897  10.261 -13.794  1.00  0.00     0.074 A 
ATOM     37  C   UNL     1      10.178  10.329 -14.467  1.00  0.00     0.031 C 
ATOM     38  C   UNL     1       7.777  10.890 -14.223  1.00  0.00     0.031 A 
BRANCH  25  39
ATOM     39  C   UNL     1       2.762   9.774 -10.823  1.00  0.00    -0.014 A 
ATOM     40  C   UNL     1       2.257  10.583  -9.794  1.00  0.00     0.009 A 
ATOM     41  C   UNL     1       1.870   9.236 -11.765  1.00  0.00     0.009 A 
ATOM     42  C   UNL     1       0.886  10.837  -9.705  1.00  0.00     0.001 A 
ATOM     43  C   UNL     1       0.503   9.509 -11.686  1.00  0.00     0.001 A 
ATOM     44  C   UNL     1       0.012  10.307 -10.654  1.00  0.00     0.000 A 
ENDBRANCH  25  39
BRANCH  26  45
ATOM     45  C   UNL     1      12.480   7.814 -11.992  1.00  0.00    -0.014 A 
ATOM     46  C   UNL     1      13.480   8.784 -11.833  1.00  0.00     0.009 A 
ATOM     47  C   UNL     1      12.850   6.514 -12.375  1.00  0.00     0.009 A 
ATOM     48  C   UNL     1      14.818   8.466 -12.080  1.00  0.00     0.001 A 
ATOM     49  C   UNL     1      14.190   6.191 -12.590  1.00  0.00     0.001 A 
ATOM     50  C   UNL     1      15.172   7.170 -12.453  1.00  0.00     0.000 A 
ENDBRANCH  26  45
BRANCH  38  51
ATOM     51  C   UNL     1       7.897  11.708 -15.475  1.00  0.00    -0.014 A 
ATOM     52  C   UNL     1       8.004  11.090 -16.731  1.00  0.00     0.009 A 
ATOM     53  C   UNL     1       7.878  13.109 -15.402  1.00  0.00     0.009 A 
ATOM     54  C   UNL     1       8.122  11.862 -17.888  1.00  0.00     0.001 A 
ATOM     55  C   UNL     1       7.969  13.877 -16.563  1.00  0.00     0.001 A 
ATOM     56  C   UNL     1       8.100  13.254 -17.803  1.00  0.00     0.000 A 
ENDBRANCH  38  51
ENDBRANCH  12  13
ENDBRANCH   5   7
ENDBRANCH   2   3
ENDBRANCH   1   2
BRANCH   1  57
ATOM     57  C   UNL     1       6.863   3.801  -0.035  1.00  0.00     0.117 C 
BRANCH  57  58
ATOM     58  N   UNL     1       7.757   4.644   0.732  1.00  0.00    -0.354 N 
ATOM     59  C   UNL     1       7.498   5.567   1.702  1.00  0.00     0.248 C 
ATOM     60  H   UNL     1       8.711   4.533   0.517  1.00  0.00     0.163 HD
ATOM     61  O   UNL     1       8.476   6.229   2.072  1.00  0.00    -0.272 OA
BRANCH  59  62
ATOM     62  C   UNL     1       6.097   5.724   2.365  1.00  0.00     0.228 C 
ATOM     63  C   UNL     1       6.157   6.924   3.367  1.00  0.00     0.296 C 
ATOM     64  N   UNL     1       5.015   5.983   1.392  1.00  0.00    -0.333 N 
ATOM     65  N   UNL     1       6.235   8.266   2.732  1.00  0.00    -0.343 N 
ATOM     66  C   UNL     1       5.054   7.277   0.708  1.00  0.00     0.180 C 
ATOM     67  C   UNL     1       5.142   8.418   1.750  1.00  0.00     0.282 C 
ATOM     68  H   UNL     1       7.133   8.365   2.257  1.00  0.00     0.346 HD
ATOM     69  H   UNL     1       6.146   8.985   3.450  1.00  0.00     0.346 HD
BRANCH  64  70
ATOM     70  C   UNL     1       3.931   5.159   1.207  1.00  0.00     0.148 A 
ATOM     71  N   UNL     1       3.654   4.854  -0.088  1.00  0.00    -0.237 NA
ATOM     72  C   UNL     1       3.161   4.582   2.230  1.00  0.00     0.084 A 
ATOM     73  C   UNL     1       2.708   3.924  -0.370  1.00  0.00     0.126 A 
ATOM     74  C   UNL     1       2.171   3.644   1.913  1.00  0.00     0.039 A 
ATOM     75  Cl  UNL     1       3.295   5.003   3.899  1.00  0.00    -0.080 Cl
ATOM     76  C   UNL     1       1.949   3.281   0.587  1.00  0.00     0.075 A 
BRANCH  76  77
ATOM     77  C   UNL     1       0.971   2.220   0.192  1.00  0.00     0.417 C 
ATOM     78  F   UNL     1       0.212   2.574  -0.880  1.00  0.00    -0.166 F 
ATOM     79  F   UNL     1       1.589   1.058  -0.153  1.00  0.00    -0.166 F 
ATOM     80  F   UNL     1       0.096   1.898   1.183  1.00  0.00    -0.166 F 
ENDBRANCH  76  77
ENDBRANCH  64  70
ENDBRANCH  59  62
ENDBRANCH  57  58
ENDBRANCH   1  57
TORSDOF 12
