REMARK SMILES CC(C)(C)c1cc2c(cc1Cl)C=C(C(=O)NCCCNC(=O)c1ccc(-c3c4nc(c(-c5ccccc5)c5ccc([nH]5)c(-c5ccccc5)c5nc(c(-c6ccccc6)c6ccc3[nH]6)C=C5)C=C4)cc1)[C@@H](C(F)(F)F)O2
REMARK SMILES IDX 18 1 17 2 16 3 14 4 15 5 13 7 5 8 6 9 10 10 7 11 9 12 11 13
REMARK SMILES IDX 8 14 76 15 12 16 71 17 2 18 1 19 3 20 4 21 72 22 73 23 74 24
REMARK SMILES IDX 75 25 19 26 20 27 21 28 22 30 23 31 24 32 70 33 25 34 69 35
REMARK SMILES IDX 26 36 27 37 28 38 63 39 29 40 68 41 62 42 64 43 30 44 67 45
REMARK SMILES IDX 61 46 60 47 31 49 53 50 38 51 52 52 39 53 42 54 51 55 65 56
REMARK SMILES IDX 40 57 41 58 50 60 66 61 43 62 32 63 33 64 37 65 34 66 36 67
REMARK SMILES IDX 35 68 54 69 55 70 59 71 56 72 58 73 57 74 44 75 45 76 49 77
REMARK SMILES IDX 46 78 48 79 47 80
REMARK H PARENT 16 6 20 29 64 48 42 59
REMARK Flexibility Score: inf
ROOT
ATOM      1  C   UNL     1       3.247  -1.473  10.401  1.00  0.00     0.042 C 
ENDROOT
BRANCH   1   2
ATOM      2  C   UNL     1       4.069  -2.115   9.294  1.00  0.00     0.118 C 
BRANCH   2   3
ATOM      3  N   UNL     1       3.416  -3.296   8.750  1.00  0.00    -0.352 N 
ATOM      4  C   UNL     1       2.732  -3.627   7.631  1.00  0.00     0.251 C 
ATOM      5  O   UNL     1       2.323  -4.792   7.593  1.00  0.00    -0.270 OA
ATOM      6  H   UNL     1       3.492  -4.062   9.364  1.00  0.00     0.163 HD
BRANCH   4   7
ATOM      7  C   UNL     1       2.450  -2.706   6.493  1.00  0.00     0.067 C 
ATOM      8  C   UNL     1       0.676  -0.607   2.210  1.00  0.00    -0.020 A 
ATOM      9  C   UNL     1       1.297  -0.145   3.391  1.00  0.00     0.053 A 
ATOM     10  C   UNL     1       0.419  -1.999   2.153  1.00  0.00     0.045 A 
ATOM     11  C   UNL     1       1.644  -1.003   4.436  1.00  0.00     0.128 A 
ATOM     12  C   UNL     1       0.770  -2.858   3.214  1.00  0.00     0.032 A 
ATOM     13  Cl  UNL     1      -0.369  -2.789   0.830  1.00  0.00    -0.084 Cl
ATOM     14  C   UNL     1       1.380  -2.361   4.361  1.00  0.00     0.019 A 
ATOM     15  O   UNL     1       2.198  -0.419   5.539  1.00  0.00    -0.475 OA
ATOM     16  C   UNL     1       1.696  -3.213   5.500  1.00  0.00     0.025 C 
ATOM     17  C   UNL     1       2.968  -1.299   6.400  1.00  0.00     0.314 C 
BRANCH   8  18
ATOM     18  C   UNL     1       0.289   0.414   1.112  1.00  0.00    -0.012 C 
ATOM     19  C   UNL     1       0.899   0.051  -0.260  1.00  0.00     0.016 C 
ATOM     20  C   UNL     1       0.789   1.859   1.404  1.00  0.00     0.016 C 
ATOM     21  C   UNL     1      -1.248   0.515   1.014  1.00  0.00     0.016 C 
ENDBRANCH   8  18
BRANCH  17  22
ATOM     22  C   UNL     1       4.452  -1.237   5.990  1.00  0.00     0.429 C 
ATOM     23  F   UNL     1       4.971  -0.019   6.289  1.00  0.00    -0.167 F 
ATOM     24  F   UNL     1       5.212  -2.148   6.644  1.00  0.00    -0.167 F 
ATOM     25  F   UNL     1       4.641  -1.446   4.669  1.00  0.00    -0.167 F 
ENDBRANCH  17  22
ENDBRANCH   4   7
ENDBRANCH   2   3
ENDBRANCH   1   2
BRANCH   1  26
ATOM     26  C   UNL     1       3.347  -2.240  11.712  1.00  0.00     0.118 C 
BRANCH  26  27
ATOM     27  N   UNL     1       4.692  -2.187  12.280  1.00  0.00    -0.352 N 
ATOM     28  C   UNL     1       5.170  -1.534  13.390  1.00  0.00     0.251 C 
ATOM     29  H   UNL     1       5.369  -2.703  11.784  1.00  0.00     0.163 HD
ATOM     30  O   UNL     1       6.381  -1.421  13.558  1.00  0.00    -0.269 OA
BRANCH  28  31
ATOM     31  C   UNL     1       4.231  -0.958  14.374  1.00  0.00     0.039 A 
ATOM     32  C   UNL     1       3.066  -1.641  14.715  1.00  0.00     0.014 A 
ATOM     33  C   UNL     1       4.523   0.271  14.974  1.00  0.00     0.014 A 
ATOM     34  C   UNL     1       2.103  -1.012  15.488  1.00  0.00     0.010 A 
ATOM     35  C   UNL     1       3.602   0.850  15.853  1.00  0.00     0.010 A 
ATOM     36  C   UNL     1       2.362   0.235  16.079  1.00  0.00    -0.014 A 
BRANCH  36  37
ATOM     37  C   UNL     1       1.319   0.842  16.945  1.00  0.00     0.031 A 
ATOM     38  C   UNL     1       0.667   2.146  16.578  1.00  0.00     0.074 A 
ATOM     39  C   UNL     1       0.898   0.153  18.025  1.00  0.00     0.049 A 
ATOM     40  N   UNL     1      -0.318   2.765  17.179  1.00  0.00    -0.248 NA
ATOM     41  C   UNL     1       1.181   2.852  15.393  1.00  0.00     0.031 C 
ATOM     42  C   UNL     1       1.448  -1.131  18.469  1.00  0.00     0.029 A 
ATOM     43  N   UNL     1      -0.119   0.400  18.911  1.00  0.00    -0.354 N 
ATOM     44  C   UNL     1      -0.523   3.938  16.463  1.00  0.00     0.074 A 
ATOM     45  C   UNL     1       0.451   3.960  15.396  1.00  0.00     0.031 C 
ATOM     46  C   UNL     1       0.702  -1.604  19.477  1.00  0.00     0.029 A 
ATOM     47  C   UNL     1      -0.322  -0.621  19.809  1.00  0.00     0.049 A 
ATOM     48  H   UNL     1      -0.652   1.228  18.904  1.00  0.00     0.167 HD
ATOM     49  C   UNL     1      -1.448   4.904  16.675  1.00  0.00     0.031 A 
ATOM     50  C   UNL     1      -1.228  -0.756  20.795  1.00  0.00     0.031 A 
ATOM     51  C   UNL     1      -2.430   4.866  17.727  1.00  0.00     0.049 A 
ATOM     52  C   UNL     1      -2.218   0.346  21.027  1.00  0.00     0.074 A 
ATOM     53  C   UNL     1      -3.425   5.787  18.003  1.00  0.00     0.029 A 
ATOM     54  N   UNL     1      -2.545   3.856  18.669  1.00  0.00    -0.354 N 
ATOM     55  N   UNL     1      -2.400   1.445  20.337  1.00  0.00    -0.248 NA
ATOM     56  C   UNL     1      -3.119   0.197  22.177  1.00  0.00     0.031 C 
ATOM     57  C   UNL     1      -4.104   5.365  19.148  1.00  0.00     0.029 A 
ATOM     58  C   UNL     1      -3.575   4.147  19.546  1.00  0.00     0.049 A 
ATOM     59  H   UNL     1      -1.978   3.051  18.708  1.00  0.00     0.167 HD
ATOM     60  C   UNL     1      -3.438   2.118  20.965  1.00  0.00     0.074 A 
ATOM     61  C   UNL     1      -3.864   1.290  22.075  1.00  0.00     0.031 C 
ATOM     62  C   UNL     1      -3.981   3.319  20.652  1.00  0.00     0.031 A 
BRANCH  49  63
ATOM     63  C   UNL     1      -1.444   6.104  15.769  1.00  0.00    -0.014 A 
ATOM     64  C   UNL     1      -1.069   7.357  16.280  1.00  0.00     0.009 A 
ATOM     65  C   UNL     1      -1.907   6.022  14.447  1.00  0.00     0.009 A 
ATOM     66  C   UNL     1      -1.171   8.506  15.493  1.00  0.00     0.001 A 
ATOM     67  C   UNL     1      -1.983   7.169  13.652  1.00  0.00     0.001 A 
ATOM     68  C   UNL     1      -1.625   8.410  14.179  1.00  0.00     0.000 A 
ENDBRANCH  49  63
BRANCH  50  69
ATOM     69  C   UNL     1      -1.227  -1.990  21.624  1.00  0.00    -0.014 A 
ATOM     70  C   UNL     1      -0.149  -2.277  22.478  1.00  0.00     0.009 A 
ATOM     71  C   UNL     1      -2.275  -2.917  21.523  1.00  0.00     0.009 A 
ATOM     72  C   UNL     1      -0.102  -3.480  23.185  1.00  0.00     0.001 A 
ATOM     73  C   UNL     1      -2.241  -4.106  22.257  1.00  0.00     0.001 A 
ATOM     74  C   UNL     1      -1.150  -4.391  23.077  1.00  0.00     0.000 A 
ENDBRANCH  50  69
BRANCH  62  75
ATOM     75  C   UNL     1      -5.101   3.821  21.518  1.00  0.00    -0.014 A 
ATOM     76  C   UNL     1      -6.404   3.897  20.999  1.00  0.00     0.009 A 
ATOM     77  C   UNL     1      -4.852   4.306  22.811  1.00  0.00     0.009 A 
ATOM     78  C   UNL     1      -7.433   4.462  21.753  1.00  0.00     0.001 A 
ATOM     79  C   UNL     1      -5.890   4.843  23.573  1.00  0.00     0.001 A 
ATOM     80  C   UNL     1      -7.176   4.930  23.041  1.00  0.00     0.000 A 
ENDBRANCH  62  75
ENDBRANCH  36  37
ENDBRANCH  28  31
ENDBRANCH  26  27
ENDBRANCH   1  26
TORSDOF 12
