REMARK SMILES C[C@H](C(=O)N[C@H](C)C(=O)NCCCNC(=O)c1ccc(-c2c3nc(c(-c4ccccc4)c4ccc([nH]4)c(-c4ccccc4)c4nc(c(-c5ccccc5)c5ccc2[nH]5)C=C4)C=C3)cc1)n1cnc2ccccc21
REMARK SMILES IDX 11 1 10 2 8 3 9 4 6 6 7 7 5 8 3 9 4 10 2 12 1 13 65 14 66 15
REMARK SMILES IDX 73 16 67 17 68 18 72 19 69 20 71 21 70 22 12 23 13 24 14 25
REMARK SMILES IDX 15 26 16 28 17 29 18 30 64 31 19 32 63 33 20 34 21 35 22 36
REMARK SMILES IDX 57 37 23 38 62 39 56 40 58 41 24 42 61 43 55 44 54 45 25 47
REMARK SMILES IDX 47 48 32 49 46 50 33 51 36 52 45 53 59 54 34 55 35 56 44 58
REMARK SMILES IDX 60 59 37 60 26 61 27 62 31 63 28 64 30 65 29 66 48 67 49 68
REMARK SMILES IDX 53 69 50 70 52 71 51 72 38 73 39 74 43 75 40 76 42 77 41 78
REMARK H PARENT 10 5 5 11 14 27 58 46 36 57
REMARK Flexibility Score: inf
ROOT
ATOM      1  C   UNL     1      -2.215   2.303   0.667  1.00  0.00     0.117 C 
ENDROOT
BRANCH   1   2
ATOM      2  N   UNL     1      -2.089   3.295  -0.398  1.00  0.00    -0.354 N 
ATOM      3  C   UNL     1      -1.073   4.159  -0.715  1.00  0.00     0.242 C 
ATOM      4  O   UNL     1      -1.315   5.056  -1.525  1.00  0.00    -0.273 OA
ATOM      5  H   UNL     1      -2.871   3.353  -0.993  1.00  0.00     0.163 HD
BRANCH   3   6
ATOM      6  C   UNL     1       0.266   4.105   0.048  1.00  0.00     0.168 C 
ATOM      7  C   UNL     1       0.082   4.861   1.362  1.00  0.00     0.041 C 
BRANCH   6   8
ATOM      8  N   UNL     1       0.619   2.696   0.203  1.00  0.00    -0.343 N 
ATOM      9  C   UNL     1       1.448   2.094   1.095  1.00  0.00     0.243 C 
ATOM     10  O   UNL     1       1.085   1.014   1.564  1.00  0.00    -0.273 OA
ATOM     11  H   UNL     1       0.189   2.088  -0.440  1.00  0.00     0.164 HD
BRANCH   9  12
ATOM     12  C   UNL     1       2.802   2.724   1.373  1.00  0.00     0.174 C 
ATOM     13  C   UNL     1       3.631   1.929   2.395  1.00  0.00     0.042 C 
BRANCH  12  14
ATOM     14  N   UNL     1       3.537   2.826   0.115  1.00  0.00    -0.318 N 
ATOM     15  C   UNL     1       4.194   3.937  -0.330  1.00  0.00     0.201 A 
ATOM     16  C   UNL     1       3.858   1.775  -0.713  1.00  0.00     0.069 A 
ATOM     17  N   UNL     1       5.040   3.637  -1.289  1.00  0.00    -0.237 NA
ATOM     18  C   UNL     1       4.881   2.287  -1.503  1.00  0.00     0.088 A 
ATOM     19  C   UNL     1       3.425   0.444  -0.791  1.00  0.00     0.028 A 
ATOM     20  C   UNL     1       5.589   1.415  -2.341  1.00  0.00     0.030 A 
ATOM     21  C   UNL     1       4.129  -0.403  -1.646  1.00  0.00     0.002 A 
ATOM     22  C   UNL     1       5.215   0.065  -2.385  1.00  0.00     0.002 A 
ENDBRANCH  12  14
ENDBRANCH   9  12
ENDBRANCH   6   8
ENDBRANCH   3   6
ENDBRANCH   1   2
BRANCH   1  23
ATOM     23  C   UNL     1      -3.240   2.694   1.708  1.00  0.00     0.042 C 
BRANCH  23  24
ATOM     24  C   UNL     1      -4.650   2.709   1.161  1.00  0.00     0.118 C 
BRANCH  24  25
ATOM     25  N   UNL     1      -5.074   1.394   0.692  1.00  0.00    -0.352 N 
ATOM     26  C   UNL     1      -5.981   0.518   1.229  1.00  0.00     0.251 C 
ATOM     27  H   UNL     1      -4.642   1.089  -0.139  1.00  0.00     0.163 HD
ATOM     28  O   UNL     1      -6.025  -0.645   0.825  1.00  0.00    -0.269 OA
BRANCH  26  29
ATOM     29  C   UNL     1      -6.894   0.965   2.296  1.00  0.00     0.039 A 
ATOM     30  C   UNL     1      -7.208   0.095   3.342  1.00  0.00     0.014 A 
ATOM     31  C   UNL     1      -7.445   2.247   2.262  1.00  0.00     0.014 A 
ATOM     32  C   UNL     1      -8.027   0.539   4.380  1.00  0.00     0.010 A 
ATOM     33  C   UNL     1      -8.141   2.731   3.357  1.00  0.00     0.010 A 
ATOM     34  C   UNL     1      -8.470   1.872   4.412  1.00  0.00    -0.014 A 
BRANCH  34  35
ATOM     35  C   UNL     1      -9.321   2.380   5.513  1.00  0.00     0.031 A 
ATOM     36  C   UNL     1     -10.697   2.911   5.211  1.00  0.00     0.074 A 
ATOM     37  C   UNL     1      -8.835   2.418   6.769  1.00  0.00     0.049 A 
ATOM     38  N   UNL     1     -11.577   3.434   6.026  1.00  0.00    -0.248 NA
ATOM     39  C   UNL     1     -11.131   2.883   3.803  1.00  0.00     0.031 C 
ATOM     40  C   UNL     1      -7.497   1.984   7.177  1.00  0.00     0.029 A 
ATOM     41  N   UNL     1      -9.417   2.841   7.936  1.00  0.00    -0.354 N 
ATOM     42  C   UNL     1     -12.649   3.813   5.228  1.00  0.00     0.074 A 
ATOM     43  C   UNL     1     -12.286   3.526   3.860  1.00  0.00     0.031 C 
ATOM     44  C   UNL     1      -7.377   2.122   8.507  1.00  0.00     0.029 A 
ATOM     45  C   UNL     1      -8.610   2.694   9.037  1.00  0.00     0.049 A 
ATOM     46  H   UNL     1     -10.327   3.215   7.980  1.00  0.00     0.167 HD
ATOM     47  C   UNL     1     -13.845   4.327   5.601  1.00  0.00     0.031 A 
ATOM     48  C   UNL     1      -8.840   2.988  10.330  1.00  0.00     0.031 A 
ATOM     49  C   UNL     1     -14.210   4.593   6.965  1.00  0.00     0.049 A 
ATOM     50  C   UNL     1     -10.176   3.556  10.720  1.00  0.00     0.074 A 
ATOM     51  C   UNL     1     -15.416   5.056   7.459  1.00  0.00     0.029 A 
ATOM     52  N   UNL     1     -13.368   4.419   8.053  1.00  0.00    -0.354 N 
ATOM     53  N   UNL     1     -11.209   3.838   9.962  1.00  0.00    -0.248 NA
ATOM     54  C   UNL     1     -10.383   3.830  12.148  1.00  0.00     0.031 C 
ATOM     55  C   UNL     1     -15.285   5.218   8.842  1.00  0.00     0.029 A 
ATOM     56  C   UNL     1     -14.021   4.789   9.216  1.00  0.00     0.049 A 
ATOM     57  H   UNL     1     -12.445   4.083   8.005  1.00  0.00     0.167 HD
ATOM     58  C   UNL     1     -12.198   4.292  10.825  1.00  0.00     0.074 A 
ATOM     59  C   UNL     1     -11.646   4.228  12.163  1.00  0.00     0.031 C 
ATOM     60  C   UNL     1     -13.452   4.721  10.537  1.00  0.00     0.031 A 
BRANCH  47  61
ATOM     61  C   UNL     1     -14.837   4.635   4.513  1.00  0.00    -0.014 A 
ATOM     62  C   UNL     1     -15.442   3.612   3.763  1.00  0.00     0.009 A 
ATOM     63  C   UNL     1     -15.191   5.967   4.248  1.00  0.00     0.009 A 
ATOM     64  C   UNL     1     -16.347   3.919   2.745  1.00  0.00     0.001 A 
ATOM     65  C   UNL     1     -16.122   6.269   3.253  1.00  0.00     0.001 A 
ATOM     66  C   UNL     1     -16.691   5.246   2.495  1.00  0.00     0.000 A 
ENDBRANCH  47  61
BRANCH  48  67
ATOM     67  C   UNL     1      -7.794   2.725  11.353  1.00  0.00    -0.014 A 
ATOM     68  C   UNL     1      -7.968   1.713  12.309  1.00  0.00     0.009 A 
ATOM     69  C   UNL     1      -6.617   3.490  11.383  1.00  0.00     0.009 A 
ATOM     70  C   UNL     1      -7.002   1.494  13.293  1.00  0.00     0.001 A 
ATOM     71  C   UNL     1      -5.638   3.247  12.349  1.00  0.00     0.001 A 
ATOM     72  C   UNL     1      -5.837   2.258  13.310  1.00  0.00     0.000 A 
ENDBRANCH  48  67
BRANCH  60  73
ATOM     73  C   UNL     1     -14.324   5.113  11.697  1.00  0.00    -0.014 A 
ATOM     74  C   UNL     1     -14.072   6.274  12.445  1.00  0.00     0.009 A 
ATOM     75  C   UNL     1     -15.433   4.319  12.027  1.00  0.00     0.009 A 
ATOM     76  C   UNL     1     -14.890   6.607  13.527  1.00  0.00     0.001 A 
ATOM     77  C   UNL     1     -16.269   4.673  13.086  1.00  0.00     0.001 A 
ATOM     78  C   UNL     1     -15.989   5.809  13.843  1.00  0.00     0.000 A 
ENDBRANCH  60  73
ENDBRANCH  34  35
ENDBRANCH  26  29
ENDBRANCH  24  25
ENDBRANCH  23  24
ENDBRANCH   1  23
TORSDOF 13
