REMARK SMILES C[C@@]12CCC[C@](C)(C(=O)NCCCNC(=O)c3ccc(-c4c5nc(c(-c6ccccc6)c6ccc([nH]6)c(-c6ccccc6)c6nc(c(-c7ccccc7)c7ccc4[nH]7)C=C6)C=C5)cc3)[C@H]1CC[C@@]13C=C(CO)[C@@H](CC[C@@H]12)C3
REMARK SMILES IDX 12 1 11 2 10 3 8 4 9 5 6 7 1 8 2 9 3 10 65 11 76 12 4 13
REMARK SMILES IDX 66 14 68 15 75 16 5 17 7 18 67 19 69 20 77 21 74 22 70 23
REMARK SMILES IDX 73 24 71 25 72 26 13 28 14 29 15 30 16 32 17 33 18 34 64 35
REMARK SMILES IDX 19 36 63 37 20 38 21 39 22 40 57 41 23 42 62 43 56 44 58 45
REMARK SMILES IDX 24 46 61 47 55 48 54 49 25 51 47 52 32 53 46 54 33 55 36 56
REMARK SMILES IDX 45 57 59 58 34 59 35 60 44 62 60 63 37 64 26 65 27 66 31 67
REMARK SMILES IDX 28 68 30 69 29 70 48 71 49 72 53 73 50 74 52 75 51 76 38 77
REMARK SMILES IDX 39 78 43 79 40 80 42 81 41 82
REMARK H PARENT 10 6 72 27 14 31 58 50 36 61
REMARK Flexibility Score: inf
ROOT
ATOM      1  C   UNL     1       0.270  -3.030   2.596  1.00  0.00     0.042 C 
ENDROOT
BRANCH   1   2
ATOM      2  C   UNL     1       1.067  -3.345   1.336  1.00  0.00     0.117 C 
BRANCH   2   3
ATOM      3  N   UNL     1       0.200  -3.649   0.199  1.00  0.00    -0.356 N 
ATOM      4  C   UNL     1      -0.023  -3.044  -1.008  1.00  0.00     0.226 C 
ATOM      5  O   UNL     1      -0.900  -3.551  -1.713  1.00  0.00    -0.274 OA
ATOM      6  H   UNL     1      -0.338  -4.463   0.329  1.00  0.00     0.163 HD
BRANCH   4   7
ATOM      7  C   UNL     1       0.805  -1.829  -1.489  1.00  0.00     0.050 C 
ATOM      8  C   UNL     1       2.654   0.511  -0.825  1.00  0.00     0.012 C 
ATOM      9  C   UNL     1       1.165   0.764  -1.251  1.00  0.00    -0.025 C 
ATOM     10  C   UNL     1       1.065   0.907  -2.790  1.00  0.00     0.007 C 
ATOM     11  C   UNL     1       0.294  -0.454  -0.840  1.00  0.00     0.010 C 
ATOM     12  C   UNL     1       0.761   2.108  -0.555  1.00  0.00     0.005 C 
ATOM     13  C   UNL     1       1.306  -0.382  -3.583  1.00  0.00     0.002 C 
ATOM     14  C   UNL     1      -0.055  -0.457   0.651  1.00  0.00     0.006 C 
ATOM     15  C   UNL     1       0.331   2.015   0.964  1.00  0.00    -0.008 C 
ATOM     16  C   UNL     1      -0.001   3.270  -1.181  1.00  0.00     0.006 C 
ATOM     17  C   UNL     1       0.560  -1.605  -3.023  1.00  0.00     0.017 C 
ATOM     18  C   UNL     1       2.284  -2.311  -1.418  1.00  0.00     0.022 C 
ATOM     19  C   UNL     1      -0.599   0.850   1.213  1.00  0.00     0.012 C 
ATOM     20  C   UNL     1       1.630   2.137   1.704  1.00  0.00    -0.018 C 
ATOM     21  C   UNL     1      -0.284   3.331   1.517  1.00  0.00     0.019 C 
ATOM     22  C   UNL     1       0.548   4.545  -0.425  1.00  0.00     0.008 C 
ATOM     23  C   UNL     1       2.007   3.432   1.600  1.00  0.00    -0.045 C 
ATOM     24  C   UNL     1       0.820   4.305   1.111  1.00  0.00     0.018 C 
BRANCH  23  25
ATOM     25  C   UNL     1       3.380   3.935   1.881  1.00  0.00     0.187 C 
BRANCH  25  26
ATOM     26  O   UNL     1       4.321   3.248   1.060  1.00  0.00    -0.392 OA
ATOM     27  H   UNL     1       4.283   2.297   1.251  1.00  0.00     0.211 HD
ENDBRANCH  25  26
ENDBRANCH  23  25
ENDBRANCH   4   7
ENDBRANCH   2   3
ENDBRANCH   1   2
BRANCH   1  28
ATOM     28  C   UNL     1      -0.399  -4.251   3.182  1.00  0.00     0.118 C 
BRANCH  28  29
ATOM     29  N   UNL     1       0.488  -4.947   4.092  1.00  0.00    -0.352 N 
ATOM     30  C   UNL     1       0.406  -5.054   5.459  1.00  0.00     0.251 C 
ATOM     31  H   UNL     1       1.253  -5.405   3.675  1.00  0.00     0.163 HD
ATOM     32  O   UNL     1       1.380  -5.433   6.098  1.00  0.00    -0.269 OA
BRANCH  30  33
ATOM     33  C   UNL     1      -0.851  -4.697   6.160  1.00  0.00     0.039 A 
ATOM     34  C   UNL     1      -0.775  -4.089   7.415  1.00  0.00     0.014 A 
ATOM     35  C   UNL     1      -2.102  -4.980   5.603  1.00  0.00     0.014 A 
ATOM     36  C   UNL     1      -1.947  -3.740   8.089  1.00  0.00     0.010 A 
ATOM     37  C   UNL     1      -3.261  -4.521   6.216  1.00  0.00     0.010 A 
ATOM     38  C   UNL     1      -3.200  -3.932   7.485  1.00  0.00    -0.014 A 
BRANCH  38  39
ATOM     39  C   UNL     1      -4.460  -3.583   8.188  1.00  0.00     0.031 A 
ATOM     40  C   UNL     1      -5.466  -4.660   8.504  1.00  0.00     0.074 A 
ATOM     41  C   UNL     1      -4.719  -2.301   8.510  1.00  0.00     0.049 A 
ATOM     42  N   UNL     1      -6.637  -4.554   9.082  1.00  0.00    -0.248 NA
ATOM     43  C   UNL     1      -5.127  -6.033   8.093  1.00  0.00     0.031 C 
ATOM     44  C   UNL     1      -3.845  -1.161   8.225  1.00  0.00     0.029 A 
ATOM     45  N   UNL     1      -5.794  -1.743   9.153  1.00  0.00    -0.354 N 
ATOM     46  C   UNL     1      -7.174  -5.835   9.083  1.00  0.00     0.074 A 
ATOM     47  C   UNL     1      -6.236  -6.691   8.394  1.00  0.00     0.031 C 
ATOM     48  C   UNL     1      -4.400  -0.047   8.730  1.00  0.00     0.029 A 
ATOM     49  C   UNL     1      -5.685  -0.385   9.332  1.00  0.00     0.049 A 
ATOM     50  H   UNL     1      -6.571  -2.266   9.457  1.00  0.00     0.167 HD
ATOM     51  C   UNL     1      -8.331  -6.272   9.634  1.00  0.00     0.031 A 
ATOM     52  C   UNL     1      -6.527   0.488   9.915  1.00  0.00     0.031 A 
ATOM     53  C   UNL     1      -9.258  -5.426  10.334  1.00  0.00     0.049 A 
ATOM     54  C   UNL     1      -7.814  -0.017  10.503  1.00  0.00     0.074 A 
ATOM     55  C   UNL     1     -10.434  -5.777  10.973  1.00  0.00     0.029 A 
ATOM     56  N   UNL     1      -9.111  -4.056  10.488  1.00  0.00    -0.354 N 
ATOM     57  N   UNL     1      -8.277  -1.243  10.552  1.00  0.00    -0.248 NA
ATOM     58  C   UNL     1      -8.691   0.983  11.128  1.00  0.00     0.031 C 
ATOM     59  C   UNL     1     -11.026  -4.611  11.467  1.00  0.00     0.029 A 
ATOM     60  C   UNL     1     -10.187  -3.543  11.191  1.00  0.00     0.049 A 
ATOM     61  H   UNL     1      -8.354  -3.527  10.148  1.00  0.00     0.167 HD
ATOM     62  C   UNL     1      -9.482  -1.166  11.238  1.00  0.00     0.074 A 
ATOM     63  C   UNL     1      -9.669   0.224  11.600  1.00  0.00     0.031 C 
ATOM     64  C   UNL     1     -10.357  -2.156  11.541  1.00  0.00     0.031 A 
BRANCH  51  65
ATOM     65  C   UNL     1      -8.656  -7.735   9.495  1.00  0.00    -0.014 A 
ATOM     66  C   UNL     1      -7.908  -8.715  10.167  1.00  0.00     0.009 A 
ATOM     67  C   UNL     1      -9.742  -8.137   8.701  1.00  0.00     0.009 A 
ATOM     68  C   UNL     1      -8.215 -10.069  10.015  1.00  0.00     0.001 A 
ATOM     69  C   UNL     1     -10.066  -9.490   8.577  1.00  0.00     0.001 A 
ATOM     70  C   UNL     1      -9.297 -10.455   9.225  1.00  0.00     0.000 A 
ENDBRANCH  51  65
BRANCH  52  71
ATOM     71  C   UNL     1      -6.170   1.930   9.991  1.00  0.00    -0.014 A 
ATOM     72  C   UNL     1      -5.857   2.522  11.224  1.00  0.00     0.009 A 
ATOM     73  C   UNL     1      -6.146   2.723   8.833  1.00  0.00     0.009 A 
ATOM     74  C   UNL     1      -5.555   3.884  11.301  1.00  0.00     0.001 A 
ATOM     75  C   UNL     1      -5.813   4.077   8.908  1.00  0.00     0.001 A 
ATOM     76  C   UNL     1      -5.529   4.659  10.143  1.00  0.00     0.000 A 
ENDBRANCH  52  71
BRANCH  64  77
ATOM     77  C   UNL     1     -11.576  -1.778  12.334  1.00  0.00    -0.014 A 
ATOM     78  C   UNL     1     -12.617  -1.030  11.763  1.00  0.00     0.009 A 
ATOM     79  C   UNL     1     -11.698  -2.211  13.664  1.00  0.00     0.009 A 
ATOM     80  C   UNL     1     -13.741  -0.694  12.521  1.00  0.00     0.001 A 
ATOM     81  C   UNL     1     -12.837  -1.901  14.408  1.00  0.00     0.001 A 
ATOM     82  C   UNL     1     -13.852  -1.133  13.839  1.00  0.00     0.000 A 
ENDBRANCH  64  77
ENDBRANCH  38  39
ENDBRANCH  30  33
ENDBRANCH  28  29
ENDBRANCH   1  28
TORSDOF 12
