REMARK SMILES Cc1ccc(CNC(=O)NC[C@@H](CC(C)C)C(=O)NCCCNC(=O)c2ccc(-c3c4nc(c(-c5ccccc5)c5ccc([nH]5)c(-c5ccccc5)c5nc(c(-c6ccccc6)c6ccc3[nH]6)C=C5)C=C4)cc2)s1
REMARK SMILES IDX 20 1 19 2 17 3 18 4 12 6 11 7 10 8 7 9 8 10 9 12 6 14 5 15
REMARK SMILES IDX 1 16 2 17 3 18 74 19 4 20 13 21 14 22 15 23 16 24 21 25
REMARK SMILES IDX 22 26 23 27 24 28 25 30 26 31 27 32 73 33 28 34 72 35 29 36
REMARK SMILES IDX 30 37 31 38 66 39 32 40 71 41 65 42 67 43 33 44 70 45 64 46
REMARK SMILES IDX 63 47 34 49 56 50 41 51 55 52 42 53 45 54 54 55 68 56 43 57
REMARK SMILES IDX 44 58 53 60 69 61 46 62 35 63 36 64 40 65 37 66 39 67 38 68
REMARK SMILES IDX 57 69 58 70 62 71 59 72 61 73 60 74 47 75 48 76 52 77 49 78
REMARK SMILES IDX 51 79 50 80
REMARK H PARENT 19 5 7 11 10 13 23 29 67 48 45 59
REMARK Flexibility Score: inf
ROOT
ATOM      1  C   UNL     1      -2.124   3.142  -3.983  1.00  0.00     0.117 C 
ENDROOT
BRANCH   1   2
ATOM      2  N   UNL     1      -3.190   2.159  -3.894  1.00  0.00    -0.356 N 
ATOM      3  C   UNL     1      -4.342   2.141  -3.179  1.00  0.00     0.224 C 
ATOM      4  O   UNL     1      -5.134   1.229  -3.437  1.00  0.00    -0.275 OA
ATOM      5  H   UNL     1      -3.050   1.362  -4.454  1.00  0.00     0.163 HD
BRANCH   3   6
ATOM      6  C   UNL     1      -4.689   3.175  -2.120  1.00  0.00     0.098 C 
BRANCH   6   7
ATOM      7  C   UNL     1      -3.554   3.435  -1.122  1.00  0.00     0.131 C 
BRANCH   7   8
ATOM      8  N   UNL     1      -4.026   3.502   0.252  1.00  0.00    -0.337 N 
ATOM      9  N   UNL     1      -3.116   1.598   1.310  1.00  0.00    -0.333 N 
ATOM     10  C   UNL     1      -3.680   2.810   1.348  1.00  0.00     0.315 C 
ATOM     11  H   UNL     1      -2.621   1.367   2.128  1.00  0.00     0.165 HD
ATOM     12  O   UNL     1      -3.891   3.326   2.447  1.00  0.00    -0.249 OA
ATOM     13  H   UNL     1      -4.726   4.177   0.405  1.00  0.00     0.165 HD
BRANCH   9  14
ATOM     14  C   UNL     1      -3.091   0.560   0.302  1.00  0.00     0.164 C 
BRANCH  14  15
ATOM     15  C   UNL     1      -1.707  -0.009   0.172  1.00  0.00     0.024 A 
ATOM     16  C   UNL     1       2.216  -0.101  -0.066  1.00  0.00     0.056 C 
ATOM     17  C   UNL     1       0.744  -0.330  -0.009  1.00  0.00     0.002 A 
ATOM     18  C   UNL     1       0.064  -1.528   0.029  1.00  0.00     0.015 A 
ATOM     19  S   UNL     1      -0.328   1.002   0.018  1.00  0.00    -0.144 S 
ATOM     20  C   UNL     1      -1.345  -1.343   0.132  1.00  0.00     0.017 A 
ENDBRANCH  14  15
ENDBRANCH   9  14
ENDBRANCH   7   8
ENDBRANCH   6   7
BRANCH   6  21
ATOM     21  C   UNL     1      -5.381   4.451  -2.663  1.00  0.00     0.018 C 
BRANCH  21  22
ATOM     22  C   UNL     1      -4.621   5.313  -3.693  1.00  0.00    -0.017 C 
ATOM     23  C   UNL     1      -4.910   4.877  -5.135  1.00  0.00     0.007 C 
ATOM     24  C   UNL     1      -4.993   6.793  -3.557  1.00  0.00     0.007 C 
ENDBRANCH  21  22
ENDBRANCH   6  21
ENDBRANCH   3   6
ENDBRANCH   1   2
BRANCH   1  25
ATOM     25  C   UNL     1      -0.767   2.513  -4.224  1.00  0.00     0.042 C 
BRANCH  25  26
ATOM     26  C   UNL     1      -0.656   1.852  -5.590  1.00  0.00     0.118 C 
BRANCH  26  27
ATOM     27  N   UNL     1      -0.763   2.801  -6.696  1.00  0.00    -0.352 N 
ATOM     28  C   UNL     1       0.202   3.341  -7.516  1.00  0.00     0.251 C 
ATOM     29  H   UNL     1      -1.680   3.105  -6.886  1.00  0.00     0.163 HD
ATOM     30  O   UNL     1      -0.078   4.268  -8.264  1.00  0.00    -0.269 OA
BRANCH  28  31
ATOM     31  C   UNL     1       1.585   2.823  -7.464  1.00  0.00     0.039 A 
ATOM     32  C   UNL     1       2.656   3.719  -7.495  1.00  0.00     0.014 A 
ATOM     33  C   UNL     1       1.823   1.454  -7.362  1.00  0.00     0.014 A 
ATOM     34  C   UNL     1       3.958   3.243  -7.312  1.00  0.00     0.010 A 
ATOM     35  C   UNL     1       3.095   1.000  -7.048  1.00  0.00     0.010 A 
ATOM     36  C   UNL     1       4.181   1.887  -7.025  1.00  0.00    -0.014 A 
BRANCH  36  37
ATOM     37  C   UNL     1       5.531   1.357  -6.703  1.00  0.00     0.031 A 
ATOM     38  C   UNL     1       6.112   0.238  -7.529  1.00  0.00     0.074 A 
ATOM     39  C   UNL     1       6.185   1.802  -5.611  1.00  0.00     0.049 A 
ATOM     40  N   UNL     1       7.203  -0.456  -7.328  1.00  0.00    -0.248 NA
ATOM     41  C   UNL     1       5.341  -0.189  -8.710  1.00  0.00     0.031 C 
ATOM     42  C   UNL     1       5.708   2.838  -4.691  1.00  0.00     0.029 A 
ATOM     43  N   UNL     1       7.395   1.427  -5.084  1.00  0.00    -0.354 N 
ATOM     44  C   UNL     1       7.218  -1.427  -8.322  1.00  0.00     0.074 A 
ATOM     45  C   UNL     1       6.008  -1.266  -9.095  1.00  0.00     0.031 C 
ATOM     46  C   UNL     1       6.634   3.045  -3.741  1.00  0.00     0.029 A 
ATOM     47  C   UNL     1       7.745   2.126  -3.953  1.00  0.00     0.049 A 
ATOM     48  H   UNL     1       7.960   0.724  -5.479  1.00  0.00     0.167 HD
ATOM     49  C   UNL     1       8.167  -2.357  -8.585  1.00  0.00     0.031 A 
ATOM     50  C   UNL     1       8.839   2.034  -3.174  1.00  0.00     0.031 A 
ATOM     51  C   UNL     1       9.400  -2.474  -7.859  1.00  0.00     0.049 A 
ATOM     52  C   UNL     1       9.898   1.023  -3.517  1.00  0.00     0.074 A 
ATOM     53  C   UNL     1      10.470  -3.315  -8.109  1.00  0.00     0.029 A 
ATOM     54  N   UNL     1       9.734  -1.716  -6.749  1.00  0.00    -0.354 N 
ATOM     55  N   UNL     1       9.930   0.162  -4.504  1.00  0.00    -0.248 NA
ATOM     56  C   UNL     1      11.076   0.979  -2.639  1.00  0.00     0.031 C 
ATOM     57  C   UNL     1      11.438  -3.091  -7.125  1.00  0.00     0.029 A 
ATOM     58  C   UNL     1      10.987  -2.081  -6.291  1.00  0.00     0.049 A 
ATOM     59  H   UNL     1       9.164  -1.021  -6.346  1.00  0.00     0.167 HD
ATOM     60  C   UNL     1      11.143  -0.503  -4.386  1.00  0.00     0.074 A 
ATOM     61  C   UNL     1      11.823   0.063  -3.239  1.00  0.00     0.031 C 
ATOM     62  C   UNL     1      11.650  -1.495  -5.157  1.00  0.00     0.031 A 
BRANCH  49  63
ATOM     63  C   UNL     1       7.909  -3.314  -9.715  1.00  0.00    -0.014 A 
ATOM     64  C   UNL     1       7.936  -2.889 -11.052  1.00  0.00     0.009 A 
ATOM     65  C   UNL     1       7.674  -4.670  -9.438  1.00  0.00     0.009 A 
ATOM     66  C   UNL     1       7.696  -3.794 -12.088  1.00  0.00     0.001 A 
ATOM     67  C   UNL     1       7.463  -5.579 -10.476  1.00  0.00     0.001 A 
ATOM     68  C   UNL     1       7.465  -5.139 -11.799  1.00  0.00     0.000 A 
ENDBRANCH  49  63
BRANCH  50  69
ATOM     69  C   UNL     1       9.013   2.940  -2.009  1.00  0.00    -0.014 A 
ATOM     70  C   UNL     1       9.982   3.956  -2.045  1.00  0.00     0.009 A 
ATOM     71  C   UNL     1       8.237   2.784  -0.851  1.00  0.00     0.009 A 
ATOM     72  C   UNL     1      10.193   4.774  -0.932  1.00  0.00     0.001 A 
ATOM     73  C   UNL     1       8.431   3.621   0.250  1.00  0.00     0.001 A 
ATOM     74  C   UNL     1       9.416   4.607   0.213  1.00  0.00     0.000 A 
ENDBRANCH  50  69
BRANCH  62  75
ATOM     75  C   UNL     1      13.021  -1.998  -4.812  1.00  0.00    -0.014 A 
ATOM     76  C   UNL     1      13.235  -2.815  -3.692  1.00  0.00     0.009 A 
ATOM     77  C   UNL     1      14.104  -1.683  -5.647  1.00  0.00     0.009 A 
ATOM     78  C   UNL     1      14.517  -3.283  -3.398  1.00  0.00     0.001 A 
ATOM     79  C   UNL     1      15.379  -2.174  -5.366  1.00  0.00     0.001 A 
ATOM     80  C   UNL     1      15.585  -2.966  -4.237  1.00  0.00     0.000 A 
ENDBRANCH  62  75
ENDBRANCH  36  37
ENDBRANCH  28  31
ENDBRANCH  26  27
ENDBRANCH  25  26
ENDBRANCH   1  25
TORSDOF 16
