REMARK SMILES Cc1ncc(CO)c([C@H]2[NH2+][C@@H](C(=O)NCCCNC(=O)c3ccc(-c4c5nc(c(-c6ccccc6)c6ccc([nH]6)c(-c6ccccc6)c6nc(c(-c7ccccc7)c7ccc4[nH]7)C=C6)C=C5)cc3)Cc3[nH]cnc32)c1O
REMARK SMILES IDX 15 1 14 2 12 3 13 4 11 6 9 7 10 8 74 9 70 12 73 13 69 14
REMARK SMILES IDX 71 15 72 16 8 18 1 19 2 20 3 21 75 22 4 23 5 24 76 25 6 27
REMARK SMILES IDX 7 28 16 30 17 31 18 32 19 33 20 35 21 36 22 37 68 38 23 39
REMARK SMILES IDX 67 40 24 41 25 42 26 43 61 44 27 45 66 46 60 47 62 48 28 49
REMARK SMILES IDX 65 50 59 51 58 52 29 54 51 55 36 56 50 57 37 58 40 59 49 60
REMARK SMILES IDX 63 61 38 62 39 63 48 65 64 66 41 67 30 68 31 69 35 70 32 71
REMARK SMILES IDX 34 72 33 73 52 74 53 75 57 76 54 77 56 78 55 79 42 80 43 81
REMARK SMILES IDX 47 82 44 83 46 84 45 85
REMARK H PARENT 14 5 10 10 10 11 71 17 76 26 7 29 18 34 62 53 40 64
REMARK Flexibility Score: inf
ROOT
ATOM      1  C   UNL     1      -4.773   4.207   0.791  1.00  0.00     0.118 C 
ENDROOT
BRANCH   1   2
ATOM      2  N   UNL     1      -4.157   3.936   2.086  1.00  0.00    -0.351 N 
ATOM      3  C   UNL     1      -2.827   3.889   2.423  1.00  0.00     0.278 C 
ATOM      4  O   UNL     1      -2.522   3.692   3.598  1.00  0.00    -0.268 OA
ATOM      5  H   UNL     1      -4.786   3.761   2.824  1.00  0.00     0.163 HD
BRANCH   3   6
ATOM      6  C   UNL     1      -1.808   4.028   1.294  1.00  0.00     0.279 C 
ATOM      7  C   UNL     1      -0.147   2.872   0.046  1.00  0.00     0.270 C 
ATOM      8  N   UNL     1      -0.737   3.002   1.404  1.00  0.00    -0.324 N 
ATOM      9  C   UNL     1       0.501   4.180  -0.305  1.00  0.00     0.124 A 
ATOM     10  H   UNL     1      -0.026   3.304   2.071  1.00  0.00     0.347 HD
ATOM     11  H   UNL     1      -1.107   2.112   1.735  1.00  0.00     0.347 HD
ATOM     12  C   UNL     1      -0.065   5.362   0.172  1.00  0.00     0.051 A 
ATOM     13  N   UNL     1       1.354   4.466  -1.340  1.00  0.00    -0.235 NA
ATOM     14  C   UNL     1      -1.195   5.444   1.161  1.00  0.00     0.131 C 
ATOM     15  N   UNL     1       0.513   6.374  -0.529  1.00  0.00    -0.348 N 
ATOM     16  C   UNL     1       1.362   5.783  -1.430  1.00  0.00     0.197 A 
ATOM     17  H   UNL     1       0.353   7.338  -0.413  1.00  0.00     0.167 HD
BRANCH   7  18
ATOM     18  C   UNL     1       0.470   1.512  -0.135  1.00  0.00     0.066 A 
ATOM     19  C   UNL     1      -1.197  -1.959  -0.105  1.00  0.00     0.071 C 
ATOM     20  C   UNL     1      -0.157  -0.879  -0.174  1.00  0.00     0.079 A 
ATOM     21  N   UNL     1       1.132  -1.259  -0.161  1.00  0.00    -0.257 NA
ATOM     22  C   UNL     1      -0.504   0.465  -0.204  1.00  0.00     0.146 A 
ATOM     23  C   UNL     1       2.063  -0.271  -0.117  1.00  0.00     0.118 A 
ATOM     24  C   UNL     1       1.808   1.112  -0.071  1.00  0.00     0.009 A 
BRANCH  22  25
ATOM     25  O   UNL     1      -1.849   0.777  -0.217  1.00  0.00    -0.505 OA
ATOM     26  H   UNL     1      -2.488   0.094  -0.263  1.00  0.00     0.293 HD
ENDBRANCH  22  25
BRANCH  24  27
ATOM     27  C   UNL     1       2.999   2.013   0.071  1.00  0.00     0.194 C 
BRANCH  27  28
ATOM     28  O   UNL     1       3.729   1.650   1.242  1.00  0.00    -0.392 OA
ATOM     29  H   UNL     1       3.158   1.742   2.021  1.00  0.00     0.211 HD
ENDBRANCH  27  28
ENDBRANCH  24  27
ENDBRANCH   7  18
ENDBRANCH   3   6
ENDBRANCH   1   2
BRANCH   1  30
ATOM     30  C   UNL     1      -5.311   2.952   0.094  1.00  0.00     0.042 C 
BRANCH  30  31
ATOM     31  C   UNL     1      -6.564   2.423   0.770  1.00  0.00     0.118 C 
BRANCH  31  32
ATOM     32  N   UNL     1      -7.688   3.367   0.719  1.00  0.00    -0.352 N 
ATOM     33  C   UNL     1      -8.973   3.224   1.222  1.00  0.00     0.251 C 
ATOM     34  H   UNL     1      -7.504   4.220   0.264  1.00  0.00     0.163 HD
ATOM     35  O   UNL     1      -9.876   3.953   0.853  1.00  0.00    -0.269 OA
BRANCH  33  36
ATOM     36  C   UNL     1      -9.217   2.170   2.222  1.00  0.00     0.039 A 
ATOM     37  C   UNL     1     -10.384   1.402   2.238  1.00  0.00     0.014 A 
ATOM     38  C   UNL     1      -8.200   1.931   3.134  1.00  0.00     0.014 A 
ATOM     39  C   UNL     1     -10.472   0.347   3.146  1.00  0.00     0.010 A 
ATOM     40  C   UNL     1      -8.177   0.756   3.821  1.00  0.00     0.010 A 
ATOM     41  C   UNL     1      -9.348   0.027   3.924  1.00  0.00    -0.014 A 
BRANCH  41  42
ATOM     42  C   UNL     1      -9.305  -1.124   4.811  1.00  0.00     0.031 A 
ATOM     43  C   UNL     1      -9.561  -2.414   4.130  1.00  0.00     0.074 A 
ATOM     44  C   UNL     1      -8.820  -1.041   6.071  1.00  0.00     0.049 A 
ATOM     45  N   UNL     1     -10.601  -3.166   4.254  1.00  0.00    -0.248 NA
ATOM     46  C   UNL     1      -8.636  -2.842   3.066  1.00  0.00     0.031 C 
ATOM     47  C   UNL     1      -8.234   0.126   6.753  1.00  0.00     0.029 A 
ATOM     48  N   UNL     1      -8.633  -2.030   6.983  1.00  0.00    -0.354 N 
ATOM     49  C   UNL     1     -10.360  -4.279   3.458  1.00  0.00     0.074 A 
ATOM     50  C   UNL     1      -9.253  -3.931   2.604  1.00  0.00     0.031 C 
ATOM     51  C   UNL     1      -7.551  -0.278   7.848  1.00  0.00     0.029 A 
ATOM     52  C   UNL     1      -7.805  -1.691   8.049  1.00  0.00     0.049 A 
ATOM     53  H   UNL     1      -9.051  -2.917   6.897  1.00  0.00     0.167 HD
ATOM     54  C   UNL     1     -10.902  -5.488   3.770  1.00  0.00     0.031 A 
ATOM     55  C   UNL     1      -7.354  -2.517   9.025  1.00  0.00     0.031 A 
ATOM     56  C   UNL     1     -11.933  -5.356   4.771  1.00  0.00     0.049 A 
ATOM     57  C   UNL     1      -8.255  -3.690   9.046  1.00  0.00     0.074 A 
ATOM     58  C   UNL     1     -13.149  -4.711   4.846  1.00  0.00     0.029 A 
ATOM     59  N   UNL     1     -11.553  -5.612   6.067  1.00  0.00    -0.354 N 
ATOM     60  N   UNL     1      -9.511  -3.614   9.381  1.00  0.00    -0.248 NA
ATOM     61  C   UNL     1      -7.892  -4.844   8.241  1.00  0.00     0.031 C 
ATOM     62  C   UNL     1     -13.216  -4.207   6.179  1.00  0.00     0.029 A 
ATOM     63  C   UNL     1     -12.081  -4.637   6.871  1.00  0.00     0.049 A 
ATOM     64  H   UNL     1     -10.996  -6.366   6.367  1.00  0.00     0.167 HD
ATOM     65  C   UNL     1     -10.167  -4.428   8.468  1.00  0.00     0.074 A 
ATOM     66  C   UNL     1      -9.111  -5.245   7.868  1.00  0.00     0.031 C 
ATOM     67  C   UNL     1     -11.448  -4.154   8.081  1.00  0.00     0.031 A 
BRANCH  54  68
ATOM     68  C   UNL     1     -10.201  -6.804   3.537  1.00  0.00    -0.014 A 
ATOM     69  C   UNL     1     -10.870  -7.988   3.894  1.00  0.00     0.009 A 
ATOM     70  C   UNL     1      -8.824  -6.914   3.266  1.00  0.00     0.009 A 
ATOM     71  C   UNL     1     -10.181  -9.195   4.056  1.00  0.00     0.001 A 
ATOM     72  C   UNL     1      -8.139  -8.126   3.387  1.00  0.00     0.001 A 
ATOM     73  C   UNL     1      -8.813  -9.261   3.812  1.00  0.00     0.000 A 
ENDBRANCH  54  68
BRANCH  55  74
ATOM     74  C   UNL     1      -6.062  -2.500   9.746  1.00  0.00    -0.014 A 
ATOM     75  C   UNL     1      -5.901  -3.168  10.971  1.00  0.00     0.009 A 
ATOM     76  C   UNL     1      -4.899  -2.064   9.083  1.00  0.00     0.009 A 
ATOM     77  C   UNL     1      -4.624  -3.417  11.495  1.00  0.00     0.001 A 
ATOM     78  C   UNL     1      -3.625  -2.317   9.605  1.00  0.00     0.001 A 
ATOM     79  C   UNL     1      -3.486  -3.005  10.805  1.00  0.00     0.000 A 
ENDBRANCH  55  74
BRANCH  67  80
ATOM     80  C   UNL     1     -12.198  -3.086   8.845  1.00  0.00    -0.014 A 
ATOM     81  C   UNL     1     -11.828  -1.728   8.843  1.00  0.00     0.009 A 
ATOM     82  C   UNL     1     -13.409  -3.441   9.455  1.00  0.00     0.009 A 
ATOM     83  C   UNL     1     -12.638  -0.762   9.451  1.00  0.00     0.001 A 
ATOM     84  C   UNL     1     -14.227  -2.475  10.044  1.00  0.00     0.001 A 
ATOM     85  C   UNL     1     -13.841  -1.136  10.046  1.00  0.00     0.000 A 
ENDBRANCH  67  80
ENDBRANCH  41  42
ENDBRANCH  33  36
ENDBRANCH  31  32
ENDBRANCH  30  31
ENDBRANCH   1  30
TORSDOF 14
