REMARK SMILES O=C(NCCCNC(=O)c1cn(C2CN(C(=O)Nc3ccsc3)C2)nn1)c1ccc(-c2c3nc(c(-c4ccccc4)c4ccc([nH]4)c(-c4ccccc4)c4nc(c(-c5ccccc5)c5ccc2[nH]5)C=C4)C=C3)cc1
REMARK SMILES IDX 5 1 4 2 3 3 1 4 2 5 27 7 28 8 74 9 29 10 73 11 30 12 31 13
REMARK SMILES IDX 32 14 67 15 33 16 72 17 66 18 68 19 34 20 71 21 65 22 64 23
REMARK SMILES IDX 35 25 57 26 42 27 56 28 43 29 46 30 55 31 69 32 44 33 45 34
REMARK SMILES IDX 54 36 70 37 47 38 36 39 37 40 41 41 38 42 40 43 39 44 58 45
REMARK SMILES IDX 59 46 63 47 60 48 62 49 61 50 48 51 49 52 53 53 50 54 52 55
REMARK SMILES IDX 51 56 6 57 7 58 8 59 9 61 10 62 11 63 26 64 12 65 25 66
REMARK SMILES IDX 13 67 14 68 24 69 15 70 16 71 17 72 18 73 19 75 20 76 23 77
REMARK SMILES IDX 21 78 22 79
REMARK H PARENT 3 6 68 24 46 35 7 60 18 74
REMARK Flexibility Score: inf
ROOT
ATOM      1  C   UNL     1       4.949   1.984   0.749  1.00  0.00     0.042 C 
ENDROOT
BRANCH   1   2
ATOM      2  C   UNL     1       4.658   0.507   0.988  1.00  0.00     0.118 C 
BRANCH   2   3
ATOM      3  N   UNL     1       3.246   0.185   1.063  1.00  0.00    -0.352 N 
ATOM      4  O   UNL     1       1.164  -0.385   0.619  1.00  0.00    -0.269 OA
ATOM      5  C   UNL     1       2.250  -0.032   0.153  1.00  0.00     0.251 C 
ATOM      6  H   UNL     1       2.930   0.102   1.991  1.00  0.00     0.163 HD
BRANCH   5   7
ATOM      7  C   UNL     1       2.356   0.184  -1.315  1.00  0.00     0.039 A 
ATOM      8  C   UNL     1       3.537   0.332  -2.043  1.00  0.00     0.014 A 
ATOM      9  C   UNL     1       1.131   0.232  -2.009  1.00  0.00     0.014 A 
ATOM     10  C   UNL     1       3.493   0.587  -3.416  1.00  0.00     0.010 A 
ATOM     11  C   UNL     1       1.081   0.474  -3.377  1.00  0.00     0.010 A 
ATOM     12  C   UNL     1       2.264   0.677  -4.079  1.00  0.00    -0.014 A 
BRANCH  12  13
ATOM     13  C   UNL     1       2.258   0.802  -5.536  1.00  0.00     0.031 A 
ATOM     14  C   UNL     1       2.805  -0.378  -6.271  1.00  0.00     0.074 A 
ATOM     15  C   UNL     1       1.643   1.798  -6.207  1.00  0.00     0.049 A 
ATOM     16  N   UNL     1       3.776  -0.412  -7.125  1.00  0.00    -0.248 NA
ATOM     17  C   UNL     1       2.236  -1.700  -5.958  1.00  0.00     0.031 C 
ATOM     18  C   UNL     1       0.792   2.859  -5.663  1.00  0.00     0.029 A 
ATOM     19  N   UNL     1       1.557   1.997  -7.556  1.00  0.00    -0.354 N 
ATOM     20  C   UNL     1       3.848  -1.730  -7.576  1.00  0.00     0.074 A 
ATOM     21  C   UNL     1       2.957  -2.498  -6.745  1.00  0.00     0.031 C 
ATOM     22  C   UNL     1       0.103   3.440  -6.672  1.00  0.00     0.029 A 
ATOM     23  C   UNL     1       0.560   2.888  -7.936  1.00  0.00     0.049 A 
ATOM     24  H   UNL     1       2.150   1.550  -8.201  1.00  0.00     0.167 HD
ATOM     25  C   UNL     1       4.488  -2.074  -8.728  1.00  0.00     0.031 A 
ATOM     26  C   UNL     1       0.101   3.112  -9.193  1.00  0.00     0.031 A 
ATOM     27  C   UNL     1       5.399  -1.057  -9.173  1.00  0.00     0.049 A 
ATOM     28  C   UNL     1       1.115   2.611 -10.146  1.00  0.00     0.074 A 
ATOM     29  C   UNL     1       6.526  -0.460  -8.644  1.00  0.00     0.029 A 
ATOM     30  N   UNL     1       4.993  -0.242 -10.201  1.00  0.00    -0.354 N 
ATOM     31  N   UNL     1       2.280   3.162 -10.316  1.00  0.00    -0.248 NA
ATOM     32  C   UNL     1       0.992   1.245 -10.626  1.00  0.00     0.031 C 
ATOM     33  C   UNL     1       6.434   0.907  -9.039  1.00  0.00     0.029 A 
ATOM     34  C   UNL     1       5.292   1.043  -9.831  1.00  0.00     0.049 A 
ATOM     35  H   UNL     1       4.568  -0.527 -11.042  1.00  0.00     0.167 HD
ATOM     36  C   UNL     1       3.146   2.097 -10.504  1.00  0.00     0.074 A 
ATOM     37  C   UNL     1       2.284   0.954 -10.794  1.00  0.00     0.031 C 
ATOM     38  C   UNL     1       4.457   2.183 -10.131  1.00  0.00     0.031 A 
BRANCH  25  39
ATOM     39  C   UNL     1       4.009  -3.174  -9.642  1.00  0.00    -0.014 A 
ATOM     40  C   UNL     1       4.786  -3.527 -10.760  1.00  0.00     0.009 A 
ATOM     41  C   UNL     1       2.693  -3.675  -9.601  1.00  0.00     0.009 A 
ATOM     42  C   UNL     1       4.253  -4.291 -11.806  1.00  0.00     0.001 A 
ATOM     43  C   UNL     1       2.171  -4.471 -10.624  1.00  0.00     0.001 A 
ATOM     44  C   UNL     1       2.943  -4.758 -11.740  1.00  0.00     0.000 A 
ENDBRANCH  25  39
BRANCH  26  45
ATOM     45  C   UNL     1      -1.258   3.486  -9.640  1.00  0.00    -0.014 A 
ATOM     46  C   UNL     1      -1.478   4.008 -10.926  1.00  0.00     0.009 A 
ATOM     47  C   UNL     1      -2.381   3.065  -8.905  1.00  0.00     0.009 A 
ATOM     48  C   UNL     1      -2.770   4.069 -11.469  1.00  0.00     0.001 A 
ATOM     49  C   UNL     1      -3.670   3.128  -9.445  1.00  0.00     0.001 A 
ATOM     50  C   UNL     1      -3.862   3.615 -10.733  1.00  0.00     0.000 A 
ENDBRANCH  26  45
BRANCH  38  51
ATOM     51  C   UNL     1       4.991   3.538  -9.732  1.00  0.00    -0.014 A 
ATOM     52  C   UNL     1       4.462   4.290  -8.667  1.00  0.00     0.009 A 
ATOM     53  C   UNL     1       6.155   4.005 -10.359  1.00  0.00     0.009 A 
ATOM     54  C   UNL     1       5.060   5.489  -8.268  1.00  0.00     0.001 A 
ATOM     55  C   UNL     1       6.766   5.191  -9.945  1.00  0.00     0.001 A 
ATOM     56  C   UNL     1       6.215   5.936  -8.905  1.00  0.00     0.000 A 
ENDBRANCH  38  51
ENDBRANCH  12  13
ENDBRANCH   5   7
ENDBRANCH   2   3
ENDBRANCH   1   2
BRANCH   1  57
ATOM     57  C   UNL     1       4.359   2.909   1.812  1.00  0.00     0.118 C 
BRANCH  57  58
ATOM     58  N   UNL     1       4.928   2.688   3.133  1.00  0.00    -0.351 N 
ATOM     59  C   UNL     1       5.798   3.472   3.864  1.00  0.00     0.273 C 
ATOM     60  H   UNL     1       4.651   1.852   3.572  1.00  0.00     0.163 HD
ATOM     61  O   UNL     1       6.287   3.015   4.885  1.00  0.00    -0.267 OA
BRANCH  59  62
ATOM     62  C   UNL     1       6.085   4.809   3.377  1.00  0.00     0.170 A 
ATOM     63  C   UNL     1       5.189   5.779   2.975  1.00  0.00     0.145 A 
ATOM     64  N   UNL     1       7.358   5.306   3.261  1.00  0.00    -0.125 NA
ATOM     65  N   UNL     1       5.981   6.783   2.506  1.00  0.00    -0.245 N 
ATOM     66  N   UNL     1       7.280   6.511   2.711  1.00  0.00    -0.066 NA
BRANCH  65  67
ATOM     67  C   UNL     1       5.571   7.999   1.885  1.00  0.00     0.148 C 
ATOM     68  C   UNL     1       4.496   7.866   0.789  1.00  0.00     0.150 C 
ATOM     69  C   UNL     1       4.475   8.732   2.690  1.00  0.00     0.150 C 
ATOM     70  N   UNL     1       3.922   9.066   1.395  1.00  0.00    -0.320 N 
ATOM     71  C   UNL     1       2.923   9.841   0.904  1.00  0.00     0.322 C 
ATOM     72  O   UNL     1       2.469   9.639  -0.225  1.00  0.00    -0.248 OA
ATOM     73  N   UNL     1       2.310  10.767   1.687  1.00  0.00    -0.307 N 
ATOM     74  H   UNL     1       1.412  11.029   1.379  1.00  0.00     0.171 HD
BRANCH  73  75
ATOM     75  C   UNL     1       2.729  11.403   2.840  1.00  0.00     0.053 A 
ATOM     76  C   UNL     1       4.059  11.746   3.219  1.00  0.00     0.038 A 
ATOM     77  C   UNL     1       1.820  11.872   3.765  1.00  0.00     0.091 A 
ATOM     78  C   UNL     1       4.130  12.254   4.498  1.00  0.00     0.067 A 
ATOM     79  S   UNL     1       2.578  12.475   5.178  1.00  0.00    -0.150 S 
ENDBRANCH  73  75
ENDBRANCH  65  67
ENDBRANCH  59  62
ENDBRANCH  57  58
ENDBRANCH   1  57
TORSDOF 12
