REMARK SMILES C[C@@H](NC(=O)[C@@H]([NH3+])CC(=O)NCCCNC(=O)c1ccc(-c2c3nc(c(-c4ccccc4)c4ccc([nH]4)c(-c4ccccc4)c4nc(c(-c5ccccc5)c5ccc2[nH]5)C=C4)C=C3)cc1)C(=O)NC1C(C)(C)SC1(C)C
REMARK SMILES IDX 9 1 10 2 11 3 8 5 6 6 4 7 3 8 5 10 2 11 1 12 66 13 67 14
REMARK SMILES IDX 68 15 69 17 70 18 74 19 71 20 72 21 73 22 75 23 76 24 7 25
REMARK SMILES IDX 12 29 13 30 14 31 15 32 16 33 17 35 18 36 19 37 65 38 20 39
REMARK SMILES IDX 64 40 21 41 22 42 23 43 58 44 24 45 63 46 57 47 59 48 25 49
REMARK SMILES IDX 62 50 56 51 55 52 26 54 48 55 33 56 47 57 34 58 37 59 46 60
REMARK SMILES IDX 60 61 35 62 36 63 45 65 61 66 38 67 27 68 28 69 32 70 29 71
REMARK SMILES IDX 31 72 30 73 49 74 50 75 54 76 51 77 53 78 52 79 39 80 40 81
REMARK SMILES IDX 44 82 41 83 43 84 42 85
REMARK H PARENT 11 4 3 9 68 16 7 26 7 27 7 28 15 34 59 53 37 64
REMARK Flexibility Score: inf
ROOT
ATOM      1  C   UNL     1      -1.463  -3.609   4.264  1.00  0.00     0.226 C 
ATOM      2  O   UNL     1      -2.353  -4.035   5.002  1.00  0.00    -0.275 OA
ATOM      3  N   UNL     1      -0.168  -3.874   4.586  1.00  0.00    -0.356 N 
ATOM      4  H   UNL     1      -0.042  -4.467   5.363  1.00  0.00     0.163 HD
ENDROOT
BRANCH   1   5
ATOM      5  C   UNL     1      -1.796  -2.792   3.038  1.00  0.00     0.175 C 
BRANCH   5   6
ATOM      6  C   UNL     1      -2.000  -1.335   3.429  1.00  0.00     0.280 C 
BRANCH   6   7
ATOM      7  C   UNL     1      -0.719  -0.469   3.398  1.00  0.00     0.279 C 
ATOM      8  N   UNL     1       0.032  -0.212   2.291  1.00  0.00    -0.339 N 
ATOM      9  H   UNL     1       0.854   0.303   2.457  1.00  0.00     0.164 HD
ATOM     10  O   UNL     1      -0.349   0.083   4.441  1.00  0.00    -0.268 OA
BRANCH   8  11
ATOM     11  C   UNL     1      -0.192  -0.582   0.899  1.00  0.00     0.168 C 
ATOM     12  C   UNL     1       1.021  -0.261   0.028  1.00  0.00     0.041 C 
BRANCH  11  13
ATOM     13  C   UNL     1      -1.454   0.074   0.334  1.00  0.00     0.242 C 
ATOM     14  O   UNL     1      -2.071  -0.446  -0.601  1.00  0.00    -0.273 OA
ATOM     15  N   UNL     1      -1.889   1.290   0.797  1.00  0.00    -0.349 N 
ATOM     16  H   UNL     1      -2.862   1.374   0.921  1.00  0.00     0.163 HD
BRANCH  15  17
ATOM     17  C   UNL     1      -1.091   2.500   1.138  1.00  0.00     0.113 C 
ATOM     18  C   UNL     1      -1.778   3.787   0.514  1.00  0.00     0.032 C 
ATOM     19  C   UNL     1      -1.066   3.086   2.621  1.00  0.00     0.032 C 
ATOM     20  C   UNL     1      -1.112   4.204  -0.794  1.00  0.00     0.025 C 
ATOM     21  C   UNL     1      -3.303   3.818   0.378  1.00  0.00     0.025 C 
ATOM     22  S   UNL     1      -1.230   4.808   1.913  1.00  0.00    -0.145 SA
ATOM     23  C   UNL     1      -2.199   2.832   3.612  1.00  0.00     0.025 C 
ATOM     24  C   UNL     1       0.304   3.019   3.326  1.00  0.00     0.025 C 
ENDBRANCH  15  17
ENDBRANCH  11  13
ENDBRANCH   8  11
ENDBRANCH   6   7
BRANCH   6  25
ATOM     25  N   UNL     1      -3.055  -0.705   2.611  1.00  0.00    -0.347 N 
ATOM     26  H   UNL     1      -2.757  -0.674   1.636  1.00  0.00     0.345 HD
ATOM     27  H   UNL     1      -3.223   0.244   2.946  1.00  0.00     0.345 HD
ATOM     28  H   UNL     1      -3.914  -1.249   2.687  1.00  0.00     0.345 HD
ENDBRANCH   6  25
ENDBRANCH   5   6
ENDBRANCH   1   5
BRANCH   3  29
ATOM     29  C   UNL     1       1.057  -3.415   3.956  1.00  0.00     0.117 C 
BRANCH  29  30
ATOM     30  C   UNL     1       1.675  -2.260   4.728  1.00  0.00     0.042 C 
BRANCH  30  31
ATOM     31  C   UNL     1       2.477  -2.655   5.950  1.00  0.00     0.118 C 
BRANCH  31  32
ATOM     32  N   UNL     1       3.716  -3.324   5.609  1.00  0.00    -0.352 N 
ATOM     33  C   UNL     1       5.004  -3.049   5.973  1.00  0.00     0.251 C 
ATOM     34  H   UNL     1       3.614  -4.105   5.019  1.00  0.00     0.163 HD
ATOM     35  O   UNL     1       5.913  -3.676   5.413  1.00  0.00    -0.269 OA
BRANCH  33  36
ATOM     36  C   UNL     1       5.349  -2.032   6.997  1.00  0.00     0.039 A 
ATOM     37  C   UNL     1       6.603  -1.416   6.911  1.00  0.00     0.014 A 
ATOM     38  C   UNL     1       4.519  -1.729   8.081  1.00  0.00     0.014 A 
ATOM     39  C   UNL     1       7.020  -0.522   7.899  1.00  0.00     0.010 A 
ATOM     40  C   UNL     1       4.886  -0.752   9.004  1.00  0.00     0.010 A 
ATOM     41  C   UNL     1       6.164  -0.182   8.957  1.00  0.00    -0.014 A 
BRANCH  41  42
ATOM     42  C   UNL     1       6.638   0.680  10.068  1.00  0.00     0.031 A 
ATOM     43  C   UNL     1       6.750   0.118  11.463  1.00  0.00     0.074 A 
ATOM     44  C   UNL     1       6.964   1.964   9.833  1.00  0.00     0.049 A 
ATOM     45  N   UNL     1       7.179   0.697  12.556  1.00  0.00    -0.248 NA
ATOM     46  C   UNL     1       6.291  -1.267  11.663  1.00  0.00     0.031 C 
ATOM     47  C   UNL     1       6.846   2.647   8.544  1.00  0.00     0.029 A 
ATOM     48  N   UNL     1       7.473   2.921  10.674  1.00  0.00    -0.354 N 
ATOM     49  C   UNL     1       7.021  -0.243  13.568  1.00  0.00     0.074 A 
ATOM     50  C   UNL     1       6.396  -1.403  12.975  1.00  0.00     0.031 C 
ATOM     51  C   UNL     1       7.306   3.902   8.671  1.00  0.00     0.029 A 
ATOM     52  C   UNL     1       7.732   4.116  10.050  1.00  0.00     0.049 A 
ATOM     53  H   UNL     1       7.637   2.765  11.632  1.00  0.00     0.167 HD
ATOM     54  C   UNL     1       7.389  -0.168  14.869  1.00  0.00     0.031 A 
ATOM     55  C   UNL     1       8.270   5.252  10.533  1.00  0.00     0.031 A 
ATOM     56  C   UNL     1       8.032   0.975  15.458  1.00  0.00     0.049 A 
ATOM     57  C   UNL     1       8.721   5.300  11.964  1.00  0.00     0.074 A 
ATOM     58  C   UNL     1       8.491   1.139  16.753  1.00  0.00     0.029 A 
ATOM     59  N   UNL     1       8.312   2.151  14.780  1.00  0.00    -0.354 N 
ATOM     60  N   UNL     1       8.630   4.377  12.891  1.00  0.00    -0.248 NA
ATOM     61  C   UNL     1       9.378   6.538  12.407  1.00  0.00     0.031 C 
ATOM     62  C   UNL     1       9.021   2.429  16.867  1.00  0.00     0.029 A 
ATOM     63  C   UNL     1       8.934   3.049  15.630  1.00  0.00     0.049 A 
ATOM     64  H   UNL     1       8.101   2.322  13.834  1.00  0.00     0.167 HD
ATOM     65  C   UNL     1       9.236   4.912  14.020  1.00  0.00     0.074 A 
ATOM     66  C   UNL     1       9.709   6.233  13.654  1.00  0.00     0.031 C 
ATOM     67  C   UNL     1       9.391   4.360  15.248  1.00  0.00     0.031 A 
BRANCH  54  68
ATOM     68  C   UNL     1       7.097  -1.365  15.732  1.00  0.00    -0.014 A 
ATOM     69  C   UNL     1       7.785  -2.578  15.549  1.00  0.00     0.009 A 
ATOM     70  C   UNL     1       6.113  -1.289  16.728  1.00  0.00     0.009 A 
ATOM     71  C   UNL     1       7.456  -3.701  16.310  1.00  0.00     0.001 A 
ATOM     72  C   UNL     1       5.808  -2.405  17.510  1.00  0.00     0.001 A 
ATOM     73  C   UNL     1       6.469  -3.614  17.290  1.00  0.00     0.000 A 
ENDBRANCH  54  68
BRANCH  55  74
ATOM     74  C   UNL     1       8.456   6.415   9.629  1.00  0.00    -0.014 A 
ATOM     75  C   UNL     1       9.733   6.756   9.159  1.00  0.00     0.009 A 
ATOM     76  C   UNL     1       7.352   7.172   9.208  1.00  0.00     0.009 A 
ATOM     77  C   UNL     1       9.904   7.844   8.300  1.00  0.00     0.001 A 
ATOM     78  C   UNL     1       7.523   8.244   8.329  1.00  0.00     0.001 A 
ATOM     79  C   UNL     1       8.799   8.583   7.882  1.00  0.00     0.000 A 
ENDBRANCH  55  74
BRANCH  67  80
ATOM     80  C   UNL     1      10.125   5.175  16.275  1.00  0.00    -0.014 A 
ATOM     81  C   UNL     1       9.533   6.297  16.874  1.00  0.00     0.009 A 
ATOM     82  C   UNL     1      11.417   4.793  16.667  1.00  0.00     0.009 A 
ATOM     83  C   UNL     1      10.238   7.045  17.818  1.00  0.00     0.001 A 
ATOM     84  C   UNL     1      12.109   5.528  17.631  1.00  0.00     0.001 A 
ATOM     85  C   UNL     1      11.523   6.659  18.198  1.00  0.00     0.000 A 
ENDBRANCH  67  80
ENDBRANCH  41  42
ENDBRANCH  33  36
ENDBRANCH  31  32
ENDBRANCH  30  31
ENDBRANCH  29  30
ENDBRANCH   3  29
TORSDOF 16
