REMARK SMILES O=C(NCCCNC(=O)c1cc(Cl)cc(S(=O)(=O)N[C@@H]2CONC2=O)c1F)c1ccc(-c2c3nc(c(-c4ccccc4)c4ccc([nH]4)c(-c4ccccc4)c4nc(c(-c5ccccc5)c5ccc2[nH]5)C=C4)C=C3)cc1
REMARK SMILES IDX 5 1 4 2 3 3 1 4 2 5 28 7 29 8 75 9 30 10 74 11 31 12 32 13
REMARK SMILES IDX 33 14 68 15 34 16 73 17 67 18 69 19 35 20 72 21 66 22 65 23
REMARK SMILES IDX 36 25 58 26 43 27 57 28 44 29 47 30 56 31 70 32 45 33 46 34
REMARK SMILES IDX 55 36 71 37 48 38 37 39 38 40 42 41 39 42 41 43 40 44 59 45
REMARK SMILES IDX 60 46 64 47 61 48 63 49 62 50 49 51 50 52 54 53 51 54 53 55
REMARK SMILES IDX 52 56 6 57 7 58 8 59 9 61 10 62 11 63 26 64 12 65 15 66
REMARK SMILES IDX 27 67 13 68 14 69 16 70 17 71 18 72 19 73 20 75 21 76 24 77
REMARK SMILES IDX 22 78 23 79 25 80
REMARK H PARENT 3 6 69 24 47 35 7 60 19 74 23 81
REMARK Flexibility Score: inf
ROOT
ATOM      1  C   UNL     1       4.935   1.219   1.872  1.00  0.00     0.042 C 
ENDROOT
BRANCH   1   2
ATOM      2  C   UNL     1       4.479  -0.146   1.387  1.00  0.00     0.118 C 
BRANCH   2   3
ATOM      3  N   UNL     1       3.039  -0.217   1.178  1.00  0.00    -0.352 N 
ATOM      4  O   UNL     1       1.082  -0.095   0.068  1.00  0.00    -0.269 OA
ATOM      5  C   UNL     1       2.304  -0.198   0.017  1.00  0.00     0.251 C 
ATOM      6  H   UNL     1       2.506  -0.292   2.003  1.00  0.00     0.163 HD
BRANCH   5   7
ATOM      7  C   UNL     1       2.979  -0.272  -1.296  1.00  0.00     0.039 A 
ATOM      8  C   UNL     1       4.053  -1.137  -1.498  1.00  0.00     0.014 A 
ATOM      9  C   UNL     1       2.517   0.520  -2.352  1.00  0.00     0.014 A 
ATOM     10  C   UNL     1       4.782  -1.072  -2.676  1.00  0.00     0.010 A 
ATOM     11  C   UNL     1       3.175   0.489  -3.586  1.00  0.00     0.010 A 
ATOM     12  C   UNL     1       4.335  -0.282  -3.746  1.00  0.00    -0.014 A 
BRANCH  12  13
ATOM     13  C   UNL     1       5.057  -0.358  -5.041  1.00  0.00     0.031 A 
ATOM     14  C   UNL     1       5.735   0.846  -5.632  1.00  0.00     0.074 A 
ATOM     15  C   UNL     1       5.134  -1.552  -5.660  1.00  0.00     0.049 A 
ATOM     16  N   UNL     1       6.431   0.932  -6.738  1.00  0.00    -0.248 NA
ATOM     17  C   UNL     1       5.615   2.115  -4.898  1.00  0.00     0.031 C 
ATOM     18  C   UNL     1       4.517  -2.794  -5.179  1.00  0.00     0.029 A 
ATOM     19  N   UNL     1       5.787  -1.931  -6.803  1.00  0.00    -0.354 N 
ATOM     20  C   UNL     1       6.813   2.264  -6.844  1.00  0.00     0.074 A 
ATOM     21  C   UNL     1       6.254   2.954  -5.702  1.00  0.00     0.031 C 
ATOM     22  C   UNL     1       4.881  -3.805  -5.979  1.00  0.00     0.029 A 
ATOM     23  C   UNL     1       5.685  -3.274  -7.071  1.00  0.00     0.049 A 
ATOM     24  H   UNL     1       6.281  -1.302  -7.377  1.00  0.00     0.167 HD
ATOM     25  C   UNL     1       7.564   2.853  -7.806  1.00  0.00     0.031 A 
ATOM     26  C   UNL     1       6.167  -4.003  -8.093  1.00  0.00     0.031 A 
ATOM     27  C   UNL     1       8.118   2.162  -8.941  1.00  0.00     0.049 A 
ATOM     28  C   UNL     1       6.958  -3.314  -9.163  1.00  0.00     0.074 A 
ATOM     29  C   UNL     1       8.905   2.669  -9.960  1.00  0.00     0.029 A 
ATOM     30  N   UNL     1       7.941   0.812  -9.207  1.00  0.00    -0.354 N 
ATOM     31  N   UNL     1       7.318  -2.057  -9.240  1.00  0.00    -0.248 NA
ATOM     32  C   UNL     1       7.402  -4.144 -10.289  1.00  0.00     0.031 C 
ATOM     33  C   UNL     1       9.165   1.637 -10.869  1.00  0.00     0.029 A 
ATOM     34  C   UNL     1       8.585   0.475 -10.387  1.00  0.00     0.049 A 
ATOM     35  H   UNL     1       7.433   0.186  -8.642  1.00  0.00     0.167 HD
ATOM     36  C   UNL     1       8.042  -1.945 -10.418  1.00  0.00     0.074 A 
ATOM     37  C   UNL     1       8.090  -3.268 -11.008  1.00  0.00     0.031 C 
ATOM     38  C   UNL     1       8.614  -0.844 -10.963  1.00  0.00     0.031 A 
BRANCH  25  39
ATOM     39  C   UNL     1       7.807   4.333  -7.689  1.00  0.00    -0.014 A 
ATOM     40  C   UNL     1       8.682   4.856  -6.725  1.00  0.00     0.009 A 
ATOM     41  C   UNL     1       7.187   5.213  -8.591  1.00  0.00     0.009 A 
ATOM     42  C   UNL     1       8.909   6.232  -6.648  1.00  0.00     0.001 A 
ATOM     43  C   UNL     1       7.435   6.586  -8.528  1.00  0.00     0.001 A 
ATOM     44  C   UNL     1       8.290   7.095  -7.552  1.00  0.00     0.000 A 
ENDBRANCH  25  39
BRANCH  26  45
ATOM     45  C   UNL     1       5.894  -5.461  -8.154  1.00  0.00    -0.014 A 
ATOM     46  C   UNL     1       6.926  -6.390  -7.958  1.00  0.00     0.009 A 
ATOM     47  C   UNL     1       4.591  -5.930  -8.387  1.00  0.00     0.009 A 
ATOM     48  C   UNL     1       6.660  -7.760  -8.011  1.00  0.00     0.001 A 
ATOM     49  C   UNL     1       4.323  -7.300  -8.409  1.00  0.00     0.001 A 
ATOM     50  C   UNL     1       5.360  -8.213  -8.229  1.00  0.00     0.000 A 
ENDBRANCH  26  45
BRANCH  38  51
ATOM     51  C   UNL     1       9.359  -1.038 -12.251  1.00  0.00    -0.014 A 
ATOM     52  C   UNL     1       8.679  -1.256 -13.459  1.00  0.00     0.009 A 
ATOM     53  C   UNL     1      10.761  -0.980 -12.258  1.00  0.00     0.009 A 
ATOM     54  C   UNL     1       9.391  -1.448 -14.644  1.00  0.00     0.001 A 
ATOM     55  C   UNL     1      11.470  -1.145 -13.448  1.00  0.00     0.001 A 
ATOM     56  C   UNL     1      10.785  -1.389 -14.638  1.00  0.00     0.000 A 
ENDBRANCH  38  51
ENDBRANCH  12  13
ENDBRANCH   5   7
ENDBRANCH   2   3
ENDBRANCH   1   2
BRANCH   1  57
ATOM     57  C   UNL     1       4.532   1.506   3.306  1.00  0.00     0.118 C 
BRANCH  57  58
ATOM     58  N   UNL     1       5.158   0.579   4.246  1.00  0.00    -0.352 N 
ATOM     59  C   UNL     1       6.055   0.804   5.258  1.00  0.00     0.254 C 
ATOM     60  H   UNL     1       4.892  -0.362   4.134  1.00  0.00     0.163 HD
ATOM     61  O   UNL     1       6.585  -0.146   5.826  1.00  0.00    -0.269 OA
BRANCH  59  62
ATOM     62  C   UNL     1       6.398   2.171   5.685  1.00  0.00     0.078 A 
ATOM     63  C   UNL     1       7.720   2.483   6.006  1.00  0.00     0.037 A 
ATOM     64  C   UNL     1       5.398   3.124   5.858  1.00  0.00     0.156 A 
ATOM     65  C   UNL     1       8.029   3.772   6.439  1.00  0.00     0.043 A 
ATOM     66  C   UNL     1       5.707   4.409   6.266  1.00  0.00     0.120 A 
ATOM     67  F   UNL     1       4.133   2.765   5.638  1.00  0.00    -0.205 F 
ATOM     68  Cl  UNL     1       9.656   4.168   6.828  1.00  0.00    -0.084 Cl
ATOM     69  C   UNL     1       7.033   4.744   6.559  1.00  0.00     0.045 A 
BRANCH  66  70
ATOM     70  S   UNL     1       4.468   5.656   6.401  1.00  0.00     0.244 S 
ATOM     71  O   UNL     1       4.510   6.154   7.755  1.00  0.00    -0.207 OA
ATOM     72  O   UNL     1       4.665   6.518   5.257  1.00  0.00    -0.207 OA
BRANCH  70  73
ATOM     73  N   UNL     1       2.994   4.942   6.179  1.00  0.00    -0.196 NA
ATOM     74  H   UNL     1       3.129   4.287   5.409  1.00  0.00     0.142 HD
BRANCH  73  75
ATOM     75  C   UNL     1       2.224   4.192   7.188  1.00  0.00     0.189 C 
ATOM     76  C   UNL     1       2.969   3.634   8.392  1.00  0.00     0.224 C 
ATOM     77  C   UNL     1       1.689   2.931   6.560  1.00  0.00     0.264 C 
ATOM     78  O   UNL     1       2.485   2.303   8.635  1.00  0.00    -0.271 OA
ATOM     79  N   UNL     1       1.857   1.901   7.441  1.00  0.00    -0.233 N 
ATOM     80  O   UNL     1       1.207   2.836   5.439  1.00  0.00    -0.271 OA
ATOM     81  H   UNL     1       1.571   0.976   7.260  1.00  0.00     0.199 HD
ENDBRANCH  73  75
ENDBRANCH  70  73
ENDBRANCH  66  70
ENDBRANCH  59  62
ENDBRANCH  57  58
ENDBRANCH   1  57
TORSDOF 13
