REMARK SMILES Cc1ccc(C(=O)NCCCNC(=O)c2ccc(-c3c4nc(c(-c5ccccc5)c5ccc([nH]5)c(-c5ccccc5)c5nc(c(-c6ccccc6)c6ccc3[nH]6)C=C5)C=C4)cc2)cc1N1C(=O)/C(=C\c2nc3ccccc3n2C)SC1=S
REMARK SMILES IDX 10 1 9 2 8 3 6 4 7 5 5 7 1 8 2 9 3 10 64 11 4 12 63 13 65 14
REMARK SMILES IDX 66 15 81 16 67 17 68 18 80 19 82 20 69 21 70 22 71 23 78 24
REMARK SMILES IDX 72 25 77 26 79 27 73 28 76 29 74 30 75 31 11 32 12 33 13 34
REMARK SMILES IDX 14 36 15 37 16 38 62 39 17 40 61 41 18 42 19 43 20 44 55 45
REMARK SMILES IDX 21 46 60 47 54 48 56 49 22 50 59 51 53 52 52 53 23 55 45 56
REMARK SMILES IDX 30 57 44 58 31 59 34 60 43 61 57 62 32 63 33 64 42 66 58 67
REMARK SMILES IDX 35 68 24 69 25 70 29 71 26 72 28 73 27 74 46 75 47 76 51 77
REMARK SMILES IDX 48 78 50 79 49 80 36 81 37 82 41 83 38 84 40 85 39 86
REMARK H PARENT 8 6 12 35 56 54 34 65
REMARK Flexibility Score: inf
ROOT
ATOM      1  C   UNL     1      -3.020   3.517  -0.786  1.00  0.00     0.042 C 
ENDROOT
BRANCH   1   2
ATOM      2  C   UNL     1      -3.423   2.573   0.352  1.00  0.00     0.118 C 
BRANCH   2   3
ATOM      3  N   UNL     1      -3.776   1.239  -0.127  1.00  0.00    -0.352 N 
ATOM      4  C   UNL     1      -3.030   0.096  -0.332  1.00  0.00     0.251 C 
ATOM      5  O   UNL     1      -3.641  -0.944  -0.584  1.00  0.00    -0.269 OA
ATOM      6  H   UNL     1      -4.730   1.135  -0.347  1.00  0.00     0.163 HD
BRANCH   4   7
ATOM      7  C   UNL     1      -1.537   0.039  -0.256  1.00  0.00     0.041 A 
ATOM      8  C   UNL     1       2.778  -0.317   0.150  1.00  0.00     0.046 C 
ATOM      9  C   UNL     1       1.301  -0.131  -0.054  1.00  0.00    -0.027 A 
ATOM     10  C   UNL     1       0.489  -1.283  -0.020  1.00  0.00     0.006 A 
ATOM     11  C   UNL     1       0.681   1.114  -0.234  1.00  0.00     0.054 A 
ATOM     12  C   UNL     1      -0.909  -1.198  -0.100  1.00  0.00     0.014 A 
ATOM     13  C   UNL     1      -0.716   1.152  -0.372  1.00  0.00     0.041 A 
BRANCH  11  14
ATOM     14  N   UNL     1       1.363   2.368  -0.134  1.00  0.00    -0.261 N 
ATOM     15  C   UNL     1       0.878   3.326   0.754  1.00  0.00     0.270 C 
ATOM     16  C   UNL     1       2.333   2.824  -1.008  1.00  0.00     0.152 C 
ATOM     17  O   UNL     1      -0.248   3.376   1.236  1.00  0.00    -0.268 OA
ATOM     18  C   UNL     1       1.850   4.448   0.878  1.00  0.00     0.084 C 
ATOM     19  S   UNL     1       2.891   4.431  -0.492  1.00  0.00    -0.054 SA
ATOM     20  S   UNL     1       2.883   2.138  -2.430  1.00  0.00    -0.051 S 
ATOM     21  C   UNL     1       1.929   5.315   1.901  1.00  0.00     0.068 C 
BRANCH  21  22
ATOM     22  C   UNL     1       1.188   5.077   3.090  1.00  0.00     0.134 A 
ATOM     23  N   UNL     1       0.975   3.913   3.673  1.00  0.00    -0.229 NA
ATOM     24  N   UNL     1       0.541   6.081   3.783  1.00  0.00    -0.328 N 
ATOM     25  C   UNL     1      -0.018   4.129   4.587  1.00  0.00     0.089 A 
ATOM     26  C   UNL     1      -0.330   5.483   4.672  1.00  0.00     0.068 A 
ATOM     27  C   UNL     1       0.705   7.503   3.602  1.00  0.00     0.152 C 
ATOM     28  C   UNL     1      -0.721   3.199   5.365  1.00  0.00     0.030 A 
ATOM     29  C   UNL     1      -1.340   5.964   5.515  1.00  0.00     0.028 A 
ATOM     30  C   UNL     1      -1.744   3.657   6.200  1.00  0.00     0.002 A 
ATOM     31  C   UNL     1      -2.047   5.018   6.270  1.00  0.00     0.002 A 
ENDBRANCH  21  22
ENDBRANCH  11  14
ENDBRANCH   4   7
ENDBRANCH   2   3
ENDBRANCH   1   2
BRANCH   1  32
ATOM     32  C   UNL     1      -4.166   4.324  -1.359  1.00  0.00     0.118 C 
BRANCH  32  33
ATOM     33  N   UNL     1      -4.216   5.712  -0.907  1.00  0.00    -0.352 N 
ATOM     34  C   UNL     1      -5.204   6.648  -1.178  1.00  0.00     0.251 C 
ATOM     35  H   UNL     1      -3.466   6.017  -0.347  1.00  0.00     0.163 HD
ATOM     36  O   UNL     1      -5.157   7.776  -0.728  1.00  0.00    -0.269 OA
BRANCH  34  37
ATOM     37  C   UNL     1      -6.391   6.176  -1.932  1.00  0.00     0.039 A 
ATOM     38  C   UNL     1      -7.617   6.196  -1.266  1.00  0.00     0.014 A 
ATOM     39  C   UNL     1      -6.218   5.434  -3.100  1.00  0.00     0.014 A 
ATOM     40  C   UNL     1      -8.587   5.266  -1.621  1.00  0.00     0.010 A 
ATOM     41  C   UNL     1      -7.142   4.449  -3.395  1.00  0.00     0.010 A 
ATOM     42  C   UNL     1      -8.290   4.320  -2.607  1.00  0.00    -0.014 A 
BRANCH  42  43
ATOM     43  C   UNL     1      -9.095   3.119  -2.792  1.00  0.00     0.031 A 
ATOM     44  C   UNL     1     -10.138   3.098  -3.830  1.00  0.00     0.074 A 
ATOM     45  C   UNL     1      -8.970   2.053  -1.970  1.00  0.00     0.049 A 
ATOM     46  N   UNL     1     -11.309   2.575  -3.672  1.00  0.00    -0.248 NA
ATOM     47  C   UNL     1      -9.943   3.731  -5.127  1.00  0.00     0.031 C 
ATOM     48  C   UNL     1      -9.645   0.764  -2.101  1.00  0.00     0.029 A 
ATOM     49  N   UNL     1      -8.387   2.004  -0.705  1.00  0.00    -0.354 N 
ATOM     50  C   UNL     1     -11.899   2.538  -4.913  1.00  0.00     0.074 A 
ATOM     51  C   UNL     1     -11.058   3.356  -5.760  1.00  0.00     0.031 C 
ATOM     52  C   UNL     1      -9.721   0.198  -0.885  1.00  0.00     0.029 A 
ATOM     53  C   UNL     1      -9.180   1.147   0.075  1.00  0.00     0.049 A 
ATOM     54  H   UNL     1      -7.575   2.479  -0.413  1.00  0.00     0.167 HD
ATOM     55  C   UNL     1     -12.940   1.692  -5.154  1.00  0.00     0.031 A 
ATOM     56  C   UNL     1      -9.754   1.505   1.258  1.00  0.00     0.031 A 
ATOM     57  C   UNL     1     -13.300   0.907  -3.976  1.00  0.00     0.049 A 
ATOM     58  C   UNL     1     -11.259   1.355   1.259  1.00  0.00     0.074 A 
ATOM     59  C   UNL     1     -12.993  -0.390  -3.595  1.00  0.00     0.029 A 
ATOM     60  N   UNL     1     -13.836   1.531  -2.856  1.00  0.00    -0.354 N 
ATOM     61  N   UNL     1     -11.968   1.165   0.182  1.00  0.00    -0.248 NA
ATOM     62  C   UNL     1     -12.089   1.505   2.453  1.00  0.00     0.031 C 
ATOM     63  C   UNL     1     -13.296  -0.528  -2.219  1.00  0.00     0.029 A 
ATOM     64  C   UNL     1     -13.803   0.677  -1.769  1.00  0.00     0.049 A 
ATOM     65  H   UNL     1     -14.188   2.450  -2.839  1.00  0.00     0.167 HD
ATOM     66  C   UNL     1     -13.300   1.210   0.499  1.00  0.00     0.074 A 
ATOM     67  C   UNL     1     -13.326   1.400   1.937  1.00  0.00     0.031 C 
ATOM     68  C   UNL     1     -14.266   1.118  -0.460  1.00  0.00     0.031 A 
BRANCH  55  69
ATOM     69  C   UNL     1     -13.394   1.343  -6.552  1.00  0.00    -0.014 A 
ATOM     70  C   UNL     1     -13.901   0.058  -6.821  1.00  0.00     0.009 A 
ATOM     71  C   UNL     1     -13.299   2.211  -7.652  1.00  0.00     0.009 A 
ATOM     72  C   UNL     1     -14.179  -0.373  -8.124  1.00  0.00     0.001 A 
ATOM     73  C   UNL     1     -13.530   1.774  -8.964  1.00  0.00     0.001 A 
ATOM     74  C   UNL     1     -13.956   0.474  -9.201  1.00  0.00     0.000 A 
ENDBRANCH  55  69
BRANCH  56  75
ATOM     75  C   UNL     1      -9.026   2.579   1.982  1.00  0.00    -0.014 A 
ATOM     76  C   UNL     1      -7.760   2.276   2.518  1.00  0.00     0.009 A 
ATOM     77  C   UNL     1      -9.374   3.924   1.789  1.00  0.00     0.009 A 
ATOM     78  C   UNL     1      -6.818   3.285   2.733  1.00  0.00     0.001 A 
ATOM     79  C   UNL     1      -8.428   4.930   2.012  1.00  0.00     0.001 A 
ATOM     80  C   UNL     1      -7.141   4.607   2.444  1.00  0.00     0.000 A 
ENDBRANCH  56  75
BRANCH  68  81
ATOM     81  C   UNL     1     -15.740   1.355  -0.254  1.00  0.00    -0.014 A 
ATOM     82  C   UNL     1     -16.276   2.157   0.763  1.00  0.00     0.009 A 
ATOM     83  C   UNL     1     -16.652   0.844  -1.205  1.00  0.00     0.009 A 
ATOM     84  C   UNL     1     -17.656   2.390   0.857  1.00  0.00     0.001 A 
ATOM     85  C   UNL     1     -18.022   1.109  -1.140  1.00  0.00     0.001 A 
ATOM     86  C   UNL     1     -18.526   1.873  -0.097  1.00  0.00     0.000 A 
ENDBRANCH  68  81
ENDBRANCH  42  43
ENDBRANCH  34  37
ENDBRANCH  32  33
ENDBRANCH   1  32
TORSDOF 12
