REMARK SMILES Cc1ccc(S(=O)(=O)N(C)c2cccc(C)c2C)cc1C(=O)NCCCNC(=O)c1ccc(-c2c3nc(c(-c4ccccc4)c4ccc([nH]4)c(-c4ccccc4)c4nc(c(-c5ccccc5)c5ccc2[nH]5)C=C4)C=C3)cc1
REMARK SMILES IDX 24 1 23 2 21 3 22 4 20 6 1 7 2 8 3 9 4 10 19 11 5 12 6 13
REMARK SMILES IDX 7 14 8 15 9 16 10 17 11 18 12 19 17 20 13 21 15 22 18 23
REMARK SMILES IDX 14 24 16 25 25 26 26 27 27 28 28 29 29 31 30 32 31 33 77 34
REMARK SMILES IDX 32 35 76 36 33 37 34 38 35 39 70 40 36 41 75 42 69 43 71 44
REMARK SMILES IDX 37 45 74 46 68 47 67 48 38 50 60 51 45 52 59 53 46 54 49 55
REMARK SMILES IDX 58 56 72 57 47 58 48 59 57 61 73 62 50 63 39 64 40 65 44 66
REMARK SMILES IDX 41 67 43 68 42 69 61 70 62 71 66 72 63 73 65 74 64 75 51 76
REMARK SMILES IDX 52 77 56 78 53 79 55 80 54 81
REMARK H PARENT 23 5 27 30 71 49 49 60
REMARK Flexibility Score: inf
ROOT
ATOM      1  C   UNL     1       3.508   1.195   0.358  1.00  0.00     0.118 C 
ENDROOT
BRANCH   1   2
ATOM      2  N   UNL     1       2.420   2.037  -0.104  1.00  0.00    -0.352 N 
ATOM      3  C   UNL     1       1.102   1.855  -0.438  1.00  0.00     0.251 C 
ATOM      4  O   UNL     1       0.539   2.880  -0.844  1.00  0.00    -0.269 OA
ATOM      5  H   UNL     1       2.697   2.977  -0.203  1.00  0.00     0.163 HD
BRANCH   3   6
ATOM      6  C   UNL     1       0.251   0.614  -0.283  1.00  0.00     0.044 A 
ATOM      7  C   UNL     1       1.920  -1.332  -0.736  1.00  0.00     0.045 C 
ATOM      8  C   UNL     1       0.606  -0.754  -0.330  1.00  0.00    -0.038 A 
ATOM      9  C   UNL     1      -0.369  -1.739  -0.066  1.00  0.00     0.005 A 
ATOM     10  C   UNL     1      -1.697  -1.409   0.123  1.00  0.00     0.022 A 
ATOM     11  C   UNL     1      -1.136   0.919  -0.137  1.00  0.00     0.036 A 
ATOM     12  C   UNL     1      -2.094  -0.077   0.056  1.00  0.00     0.088 A 
BRANCH  12  13
ATOM     13  S   UNL     1      -3.834   0.182   0.288  1.00  0.00     0.264 S 
ATOM     14  O   UNL     1      -4.475  -0.667  -0.704  1.00  0.00    -0.201 OA
ATOM     15  O   UNL     1      -4.047  -0.049   1.702  1.00  0.00    -0.201 OA
BRANCH  13  16
ATOM     16  N   UNL     1      -4.273   1.808  -0.062  1.00  0.00    -0.269 N 
ATOM     17  C   UNL     1      -3.665   2.850   0.808  1.00  0.00     0.164 C 
BRANCH  16  18
ATOM     18  C   UNL     1      -5.726   1.997  -0.211  1.00  0.00     0.055 A 
ATOM     19  C   UNL     1      -6.615   1.403   0.702  1.00  0.00     0.027 A 
ATOM     20  C   UNL     1      -6.227   2.945  -1.135  1.00  0.00    -0.024 A 
ATOM     21  C   UNL     1      -7.980   1.667   0.665  1.00  0.00     0.002 A 
ATOM     22  C   UNL     1      -7.615   3.249  -1.134  1.00  0.00    -0.046 A 
ATOM     23  C   UNL     1      -5.286   3.655  -2.074  1.00  0.00     0.047 C 
ATOM     24  C   UNL     1      -8.476   2.585  -0.246  1.00  0.00     0.004 A 
ATOM     25  C   UNL     1      -8.216   4.280  -2.053  1.00  0.00     0.044 C 
ENDBRANCH  16  18
ENDBRANCH  13  16
ENDBRANCH  12  13
ENDBRANCH   3   6
ENDBRANCH   1   2
BRANCH   1  26
ATOM     26  C   UNL     1       4.253   0.583  -0.828  1.00  0.00     0.042 C 
BRANCH  26  27
ATOM     27  C   UNL     1       5.535   1.278  -1.242  1.00  0.00     0.118 C 
BRANCH  27  28
ATOM     28  N   UNL     1       6.736   0.471  -1.000  1.00  0.00    -0.352 N 
ATOM     29  C   UNL     1       8.036   0.723  -1.405  1.00  0.00     0.251 C 
ATOM     30  H   UNL     1       6.600  -0.356  -0.484  1.00  0.00     0.163 HD
ATOM     31  O   UNL     1       8.960  -0.003  -1.061  1.00  0.00    -0.269 OA
BRANCH  29  32
ATOM     32  C   UNL     1       8.297   1.985  -2.130  1.00  0.00     0.039 A 
ATOM     33  C   UNL     1       9.054   2.938  -1.446  1.00  0.00     0.014 A 
ATOM     34  C   UNL     1       7.450   2.349  -3.171  1.00  0.00     0.014 A 
ATOM     35  C   UNL     1       8.698   4.273  -1.567  1.00  0.00     0.010 A 
ATOM     36  C   UNL     1       7.025   3.662  -3.217  1.00  0.00     0.010 A 
ATOM     37  C   UNL     1       7.585   4.599  -2.344  1.00  0.00    -0.014 A 
BRANCH  37  38
ATOM     38  C   UNL     1       6.961   5.911  -2.290  1.00  0.00     0.031 A 
ATOM     39  C   UNL     1       7.383   6.901  -3.300  1.00  0.00     0.074 A 
ATOM     40  C   UNL     1       6.082   6.266  -1.321  1.00  0.00     0.049 A 
ATOM     41  N   UNL     1       7.516   8.161  -3.066  1.00  0.00    -0.248 NA
ATOM     42  C   UNL     1       7.766   6.514  -4.654  1.00  0.00     0.031 C 
ATOM     43  C   UNL     1       5.365   7.540  -1.232  1.00  0.00     0.029 A 
ATOM     44  N   UNL     1       5.787   5.656  -0.101  1.00  0.00    -0.354 N 
ATOM     45  C   UNL     1       7.676   8.778  -4.284  1.00  0.00     0.074 A 
ATOM     46  C   UNL     1       7.950   7.710  -5.218  1.00  0.00     0.031 C 
ATOM     47  C   UNL     1       5.036   7.757   0.051  1.00  0.00     0.029 A 
ATOM     48  C   UNL     1       5.639   6.697   0.834  1.00  0.00     0.049 A 
ATOM     49  H   UNL     1       5.700   4.690   0.070  1.00  0.00     0.167 HD
ATOM     50  C   UNL     1       7.392  10.104  -4.405  1.00  0.00     0.031 A 
ATOM     51  C   UNL     1       6.443   6.877   1.925  1.00  0.00     0.031 A 
ATOM     52  C   UNL     1       7.009  10.699  -3.121  1.00  0.00     0.049 A 
ATOM     53  C   UNL     1       7.155   8.221   1.947  1.00  0.00     0.074 A 
ATOM     54  C   UNL     1       5.788  11.040  -2.559  1.00  0.00     0.029 A 
ATOM     55  N   UNL     1       7.927  10.717  -2.078  1.00  0.00    -0.354 N 
ATOM     56  N   UNL     1       7.095   9.101   0.985  1.00  0.00    -0.248 NA
ATOM     57  C   UNL     1       8.082   8.629   3.001  1.00  0.00     0.031 C 
ATOM     58  C   UNL     1       5.981  11.248  -1.164  1.00  0.00     0.029 A 
ATOM     59  C   UNL     1       7.321  11.063  -0.881  1.00  0.00     0.049 A 
ATOM     60  H   UNL     1       8.885  10.512  -2.177  1.00  0.00     0.167 HD
ATOM     61  C   UNL     1       7.963  10.137   1.232  1.00  0.00     0.074 A 
ATOM     62  C   UNL     1       8.559   9.789   2.511  1.00  0.00     0.031 C 
ATOM     63  C   UNL     1       8.131  11.160   0.335  1.00  0.00     0.031 A 
BRANCH  50  64
ATOM     64  C   UNL     1       7.159  10.761  -5.747  1.00  0.00    -0.014 A 
ATOM     65  C   UNL     1       6.285  11.859  -5.843  1.00  0.00     0.009 A 
ATOM     66  C   UNL     1       7.713  10.313  -6.959  1.00  0.00     0.009 A 
ATOM     67  C   UNL     1       5.901  12.396  -7.081  1.00  0.00     0.001 A 
ATOM     68  C   UNL     1       7.299  10.811  -8.202  1.00  0.00     0.001 A 
ATOM     69  C   UNL     1       6.381  11.848  -8.263  1.00  0.00     0.000 A 
ENDBRANCH  50  64
BRANCH  51  70
ATOM     70  C   UNL     1       7.006   5.606   2.457  1.00  0.00    -0.014 A 
ATOM     71  C   UNL     1       6.098   4.678   3.003  1.00  0.00     0.009 A 
ATOM     72  C   UNL     1       8.253   5.150   2.011  1.00  0.00     0.009 A 
ATOM     73  C   UNL     1       6.342   3.307   2.901  1.00  0.00     0.001 A 
ATOM     74  C   UNL     1       8.501   3.776   1.939  1.00  0.00     0.001 A 
ATOM     75  C   UNL     1       7.523   2.857   2.320  1.00  0.00     0.000 A 
ENDBRANCH  51  70
BRANCH  63  76
ATOM     76  C   UNL     1       9.067  12.354   0.461  1.00  0.00    -0.014 A 
ATOM     77  C   UNL     1       9.751  12.735   1.619  1.00  0.00     0.009 A 
ATOM     78  C   UNL     1       9.251  13.203  -0.660  1.00  0.00     0.009 A 
ATOM     79  C   UNL     1      10.627  13.834   1.637  1.00  0.00     0.001 A 
ATOM     80  C   UNL     1      10.114  14.303  -0.650  1.00  0.00     0.001 A 
ATOM     81  C   UNL     1      10.818  14.610   0.500  1.00  0.00     0.000 A 
ENDBRANCH  63  76
ENDBRANCH  37  38
ENDBRANCH  29  32
ENDBRANCH  27  28
ENDBRANCH  26  27
ENDBRANCH   1  26
TORSDOF 13
