REMARK SMILES Cc1ccc(C)c(OCc2ccc(C(=O)NCCCNC(=O)c3ccc(-c4c5nc(c(-c6ccccc6)c6ccc([nH]6)c(-c6ccccc6)c6nc(c(-c7ccccc7)c7ccc4[nH]7)C=C6)C=C5)cc3)cc2)c1C
REMARK SMILES IDX 17 1 16 2 14 3 15 4 13 6 10 7 11 8 72 9 12 10 71 11 9 12
REMARK SMILES IDX 8 13 7 14 1 15 2 16 3 17 73 18 4 19 74 20 5 21 6 22 18 23
REMARK SMILES IDX 19 24 20 25 21 26 22 28 23 29 24 30 70 31 25 32 69 33 26 34
REMARK SMILES IDX 27 35 28 36 63 37 29 38 68 39 62 40 64 41 30 42 67 43 61 44
REMARK SMILES IDX 60 45 31 47 53 48 38 49 52 50 39 51 42 52 51 53 65 54 40 55
REMARK SMILES IDX 41 56 50 58 66 59 43 60 32 61 33 62 37 63 34 64 36 65 35 66
REMARK SMILES IDX 54 67 55 68 59 69 56 70 58 71 57 72 44 73 45 74 49 75 46 76
REMARK SMILES IDX 48 77 47 78
REMARK H PARENT 16 5 20 27 64 46 42 57
REMARK Flexibility Score: inf
ROOT
ATOM      1  C   UNL     1       5.868   2.804   5.822  1.00  0.00     0.118 C 
ENDROOT
BRANCH   1   2
ATOM      2  N   UNL     1       5.318   1.468   5.886  1.00  0.00    -0.352 N 
ATOM      3  C   UNL     1       4.310   0.840   5.208  1.00  0.00     0.251 C 
ATOM      4  O   UNL     1       4.014  -0.292   5.597  1.00  0.00    -0.269 OA
ATOM      5  H   UNL     1       5.759   0.894   6.553  1.00  0.00     0.163 HD
BRANCH   3   6
ATOM      6  C   UNL     1       3.624   1.402   4.008  1.00  0.00     0.039 A 
ATOM      7  C   UNL     1       2.510   2.161   1.498  1.00  0.00    -0.011 A 
ATOM      8  C   UNL     1       2.453   0.841   1.950  1.00  0.00     0.008 A 
ATOM      9  C   UNL     1       3.045   3.114   2.376  1.00  0.00     0.008 A 
ATOM     10  C   UNL     1       3.003   0.466   3.177  1.00  0.00     0.014 A 
ATOM     11  C   UNL     1       3.575   2.742   3.622  1.00  0.00     0.014 A 
BRANCH   7  12
ATOM     12  C   UNL     1       2.209   2.568   0.061  1.00  0.00     0.265 C 
BRANCH  12  13
ATOM     13  O   UNL     1       0.984   2.186  -0.562  1.00  0.00    -0.488 OA
BRANCH  13  14
ATOM     14  C   UNL     1       0.623   0.872  -0.672  1.00  0.00     0.125 A 
ATOM     15  C   UNL     1      -2.630  -1.023   0.097  1.00  0.00     0.045 C 
ATOM     16  C   UNL     1      -1.212  -0.700  -0.283  1.00  0.00    -0.044 A 
ATOM     17  C   UNL     1      -0.338  -1.749  -0.587  1.00  0.00     0.004 A 
ATOM     18  C   UNL     1      -0.737   0.625  -0.352  1.00  0.00    -0.006 A 
ATOM     19  C   UNL     1       0.971  -1.493  -0.992  1.00  0.00     0.007 A 
ATOM     20  C   UNL     1      -1.634   1.803  -0.049  1.00  0.00     0.049 C 
ATOM     21  C   UNL     1       1.463  -0.181  -1.078  1.00  0.00    -0.009 A 
ATOM     22  C   UNL     1       2.875  -0.003  -1.557  1.00  0.00     0.048 C 
ENDBRANCH  13  14
ENDBRANCH  12  13
ENDBRANCH   7  12
ENDBRANCH   3   6
ENDBRANCH   1   2
BRANCH   1  23
ATOM     23  C   UNL     1       5.067   3.754   6.710  1.00  0.00     0.042 C 
BRANCH  23  24
ATOM     24  C   UNL     1       5.170   3.410   8.193  1.00  0.00     0.118 C 
BRANCH  24  25
ATOM     25  N   UNL     1       6.510   3.644   8.706  1.00  0.00    -0.352 N 
ATOM     26  C   UNL     1       6.929   4.500   9.688  1.00  0.00     0.251 C 
ATOM     27  H   UNL     1       7.221   3.108   8.285  1.00  0.00     0.163 HD
ATOM     28  O   UNL     1       8.126   4.761   9.798  1.00  0.00    -0.269 OA
BRANCH  26  29
ATOM     29  C   UNL     1       5.957   5.109  10.618  1.00  0.00     0.039 A 
ATOM     30  C   UNL     1       6.139   6.439  11.005  1.00  0.00     0.014 A 
ATOM     31  C   UNL     1       4.908   4.358  11.159  1.00  0.00     0.014 A 
ATOM     32  C   UNL     1       5.257   7.023  11.914  1.00  0.00     0.010 A 
ATOM     33  C   UNL     1       3.989   4.961  12.012  1.00  0.00     0.010 A 
ATOM     34  C   UNL     1       4.168   6.292  12.414  1.00  0.00    -0.014 A 
BRANCH  34  35
ATOM     35  C   UNL     1       3.226   6.902  13.380  1.00  0.00     0.031 A 
ATOM     36  C   UNL     1       3.165   6.402  14.797  1.00  0.00     0.074 A 
ATOM     37  C   UNL     1       2.402   7.884  12.972  1.00  0.00     0.049 A 
ATOM     38  N   UNL     1       2.417   6.819  15.787  1.00  0.00    -0.248 NA
ATOM     39  C   UNL     1       4.044   5.273  15.139  1.00  0.00     0.031 C 
ATOM     40  C   UNL     1       2.342   8.428  11.614  1.00  0.00     0.029 A 
ATOM     41  N   UNL     1       1.463   8.604  13.664  1.00  0.00    -0.354 N 
ATOM     42  C   UNL     1       2.722   5.993  16.862  1.00  0.00     0.074 A 
ATOM     43  C   UNL     1       3.685   5.022  16.389  1.00  0.00     0.031 C 
ATOM     44  C   UNL     1       1.447   9.428  11.584  1.00  0.00     0.029 A 
ATOM     45  C   UNL     1       0.851   9.572  12.908  1.00  0.00     0.049 A 
ATOM     46  H   UNL     1       1.249   8.442  14.611  1.00  0.00     0.167 HD
ATOM     47  C   UNL     1       2.258   6.048  18.133  1.00  0.00     0.031 A 
ATOM     48  C   UNL     1      -0.078  10.483  13.250  1.00  0.00     0.031 A 
ATOM     49  C   UNL     1       1.304   7.017  18.604  1.00  0.00     0.049 A 
ATOM     50  C   UNL     1      -0.582  10.524  14.663  1.00  0.00     0.074 A 
ATOM     51  C   UNL     1       0.812   7.196  19.884  1.00  0.00     0.029 A 
ATOM     52  N   UNL     1       0.694   7.971  17.803  1.00  0.00    -0.354 N 
ATOM     53  N   UNL     1      -0.236   9.779  15.685  1.00  0.00    -0.248 NA
ATOM     54  C   UNL     1      -1.597  11.540  14.969  1.00  0.00     0.031 C 
ATOM     55  C   UNL     1      -0.129   8.232  19.849  1.00  0.00     0.029 A 
ATOM     56  C   UNL     1      -0.188   8.727  18.556  1.00  0.00     0.049 A 
ATOM     57  H   UNL     1       0.863   8.092  16.841  1.00  0.00     0.167 HD
ATOM     58  C   UNL     1      -0.975  10.249  16.762  1.00  0.00     0.074 A 
ATOM     59  C   UNL     1      -1.776  11.353  16.269  1.00  0.00     0.031 C 
ATOM     60  C   UNL     1      -0.988   9.809  18.044  1.00  0.00     0.031 A 
BRANCH  47  61
ATOM     61  C   UNL     1       2.773   5.010  19.092  1.00  0.00    -0.014 A 
ATOM     62  C   UNL     1       4.105   5.028  19.538  1.00  0.00     0.009 A 
ATOM     63  C   UNL     1       1.919   3.996  19.550  1.00  0.00     0.009 A 
ATOM     64  C   UNL     1       4.584   4.022  20.380  1.00  0.00     0.001 A 
ATOM     65  C   UNL     1       2.393   3.008  20.416  1.00  0.00     0.001 A 
ATOM     66  C   UNL     1       3.728   3.014  20.820  1.00  0.00     0.000 A 
ENDBRANCH  47  61
BRANCH  48  67
ATOM     67  C   UNL     1      -0.547  11.467  12.242  1.00  0.00    -0.014 A 
ATOM     68  C   UNL     1      -0.112  12.799  12.307  1.00  0.00     0.009 A 
ATOM     69  C   UNL     1      -1.401  11.078  11.200  1.00  0.00     0.009 A 
ATOM     70  C   UNL     1      -0.536  13.728  11.354  1.00  0.00     0.001 A 
ATOM     71  C   UNL     1      -1.806  12.004  10.236  1.00  0.00     0.001 A 
ATOM     72  C   UNL     1      -1.377  13.329  10.317  1.00  0.00     0.000 A 
ENDBRANCH  48  67
BRANCH  60  73
ATOM     73  C   UNL     1      -1.886  10.540  19.000  1.00  0.00    -0.014 A 
ATOM     74  C   UNL     1      -3.279  10.378  18.955  1.00  0.00     0.009 A 
ATOM     75  C   UNL     1      -1.328  11.390  19.968  1.00  0.00     0.009 A 
ATOM     76  C   UNL     1      -4.099  11.084  19.838  1.00  0.00     0.001 A 
ATOM     77  C   UNL     1      -2.149  12.073  20.865  1.00  0.00     0.001 A 
ATOM     78  C   UNL     1      -3.534  11.928  20.793  1.00  0.00     0.000 A 
ENDBRANCH  60  73
ENDBRANCH  34  35
ENDBRANCH  26  29
ENDBRANCH  24  25
ENDBRANCH  23  24
ENDBRANCH   1  23
TORSDOF 13
