REMARK SMILES CC(C)(C)c1cc(Nc2ccccc2C(=O)NCCCNC(=O)c2ccc(-c3c4nc(c(-c5ccccc5)c5ccc([nH]5)c(-c5ccccc5)c5nc(c(-c6ccccc6)c6ccc3[nH]6)C=C5)C=C4)cc2)cc2c1OCC2(C)C
REMARK SMILES IDX 18 1 17 2 15 3 16 4 14 6 9 7 10 8 11 9 13 10 12 11 8 12 7 14
REMARK SMILES IDX 5 15 6 16 74 17 73 18 75 19 72 20 77 21 76 22 78 23 79 24
REMARK SMILES IDX 2 25 1 26 3 27 4 28 19 29 20 30 21 31 22 32 23 34 24 35
REMARK SMILES IDX 25 36 71 37 26 38 70 39 27 40 28 41 29 42 64 43 30 44 69 45
REMARK SMILES IDX 63 46 65 47 31 48 68 49 62 50 61 51 32 53 54 54 39 55 53 56
REMARK SMILES IDX 40 57 43 58 52 59 66 60 41 61 42 62 51 64 67 65 44 66 33 67
REMARK SMILES IDX 34 68 38 69 35 70 37 71 36 72 55 73 56 74 60 75 57 76 59 77
REMARK SMILES IDX 58 78 45 79 46 80 50 81 47 82 49 83 48 84
REMARK H PARENT 17 5 8 13 21 33 65 52 43 63
REMARK Flexibility Score: inf
ROOT
ATOM      1  C   UNL     1      -1.561   5.375   0.113  1.00  0.00     0.118 C 
ENDROOT
BRANCH   1   2
ATOM      2  N   UNL     1      -2.107   6.702  -0.069  1.00  0.00    -0.352 N 
ATOM      3  C   UNL     1      -1.527   7.935  -0.194  1.00  0.00     0.253 C 
ATOM      4  O   UNL     1      -2.314   8.875  -0.356  1.00  0.00    -0.269 OA
ATOM      5  H   UNL     1      -3.090   6.721  -0.112  1.00  0.00     0.163 HD
BRANCH   3   6
ATOM      6  C   UNL     1      -0.071   8.258  -0.104  1.00  0.00     0.063 A 
ATOM      7  C   UNL     1       1.019   7.573  -0.676  1.00  0.00     0.051 A 
ATOM      8  C   UNL     1       2.301   8.173  -0.607  1.00  0.00     0.027 A 
ATOM      9  C   UNL     1       2.525   9.379   0.052  1.00  0.00     0.002 A 
ATOM     10  C   UNL     1       0.181   9.482   0.563  1.00  0.00     0.016 A 
ATOM     11  C   UNL     1       1.463  10.029   0.656  1.00  0.00     0.001 A 
BRANCH   7  12
ATOM     12  N   UNL     1       0.961   6.277  -1.232  1.00  0.00    -0.355 N 
ATOM     13  H   UNL     1       0.474   6.172  -2.081  1.00  0.00     0.167 HD
BRANCH  12  14
ATOM     14  C   UNL     1       1.544   5.111  -0.670  1.00  0.00     0.039 A 
ATOM     15  C   UNL     1       1.619   2.626  -0.560  1.00  0.00     0.002 A 
ATOM     16  C   UNL     1       1.231   3.839  -1.195  1.00  0.00     0.034 A 
ATOM     17  C   UNL     1       2.397   2.764   0.589  1.00  0.00     0.127 A 
ATOM     18  C   UNL     1       2.771   4.004   1.081  1.00  0.00     0.006 A 
ATOM     19  O   UNL     1       2.843   1.739   1.378  1.00  0.00    -0.492 OA
ATOM     20  C   UNL     1       2.352   5.172   0.469  1.00  0.00     0.034 A 
ATOM     21  C   UNL     1       3.584   3.868   2.323  1.00  0.00     0.028 C 
ATOM     22  C   UNL     1       3.695   2.334   2.381  1.00  0.00     0.240 C 
ATOM     23  C   UNL     1       4.960   4.525   2.176  1.00  0.00     0.020 C 
ATOM     24  C   UNL     1       2.853   4.430   3.547  1.00  0.00     0.020 C 
BRANCH  15  25
ATOM     25  C   UNL     1       1.123   1.284  -1.122  1.00  0.00    -0.009 C 
ATOM     26  C   UNL     1       1.609   0.026  -0.370  1.00  0.00     0.016 C 
ATOM     27  C   UNL     1       1.568   1.124  -2.591  1.00  0.00     0.016 C 
ATOM     28  C   UNL     1      -0.418   1.259  -1.061  1.00  0.00     0.016 C 
ENDBRANCH  15  25
ENDBRANCH  12  14
ENDBRANCH   7  12
ENDBRANCH   3   6
ENDBRANCH   1   2
BRANCH   1  29
ATOM     29  C   UNL     1      -2.435   4.408   0.913  1.00  0.00     0.042 C 
BRANCH  29  30
ATOM     30  C   UNL     1      -3.861   4.233   0.399  1.00  0.00     0.118 C 
BRANCH  30  31
ATOM     31  N   UNL     1      -3.989   3.445  -0.817  1.00  0.00    -0.352 N 
ATOM     32  C   UNL     1      -4.052   2.103  -1.102  1.00  0.00     0.251 C 
ATOM     33  H   UNL     1      -4.044   4.005  -1.625  1.00  0.00     0.163 HD
ATOM     34  O   UNL     1      -4.224   1.793  -2.284  1.00  0.00    -0.269 OA
BRANCH  32  35
ATOM     35  C   UNL     1      -3.854   1.012  -0.105  1.00  0.00     0.039 A 
ATOM     36  C   UNL     1      -4.037   1.155   1.265  1.00  0.00     0.014 A 
ATOM     37  C   UNL     1      -3.450  -0.250  -0.586  1.00  0.00     0.014 A 
ATOM     38  C   UNL     1      -3.671   0.134   2.140  1.00  0.00     0.010 A 
ATOM     39  C   UNL     1      -3.151  -1.306   0.289  1.00  0.00     0.010 A 
ATOM     40  C   UNL     1      -3.218  -1.108   1.669  1.00  0.00    -0.014 A 
BRANCH  40  41
ATOM     41  C   UNL     1      -2.882  -2.157   2.667  1.00  0.00     0.031 A 
ATOM     42  C   UNL     1      -1.467  -2.614   2.884  1.00  0.00     0.074 A 
ATOM     43  C   UNL     1      -3.858  -2.592   3.488  1.00  0.00     0.049 A 
ATOM     44  N   UNL     1      -0.975  -3.309   3.880  1.00  0.00    -0.248 NA
ATOM     45  C   UNL     1      -0.477  -2.247   1.863  1.00  0.00     0.031 C 
ATOM     46  C   UNL     1      -5.272  -2.229   3.370  1.00  0.00     0.029 A 
ATOM     47  N   UNL     1      -3.804  -3.367   4.619  1.00  0.00    -0.354 N 
ATOM     48  C   UNL     1       0.381  -3.450   3.611  1.00  0.00     0.074 A 
ATOM     49  C   UNL     1       0.629  -2.802   2.342  1.00  0.00     0.031 C 
ATOM     50  C   UNL     1      -5.931  -2.689   4.443  1.00  0.00     0.029 A 
ATOM     51  C   UNL     1      -5.001  -3.426   5.293  1.00  0.00     0.049 A 
ATOM     52  H   UNL     1      -2.990  -3.833   4.918  1.00  0.00     0.167 HD
ATOM     53  C   UNL     1       1.334  -4.056   4.360  1.00  0.00     0.031 A 
ATOM     54  C   UNL     1      -5.318  -3.987   6.474  1.00  0.00     0.031 A 
ATOM     55  C   UNL     1       1.083  -4.720   5.614  1.00  0.00     0.049 A 
ATOM     56  C   UNL     1      -4.253  -4.682   7.268  1.00  0.00     0.074 A 
ATOM     57  C   UNL     1       1.991  -5.348   6.450  1.00  0.00     0.029 A 
ATOM     58  N   UNL     1      -0.163  -4.853   6.204  1.00  0.00    -0.354 N 
ATOM     59  N   UNL     1      -2.969  -4.769   7.021  1.00  0.00    -0.248 NA
ATOM     60  C   UNL     1      -4.680  -5.359   8.499  1.00  0.00     0.031 C 
ATOM     61  C   UNL     1       1.284  -5.915   7.515  1.00  0.00     0.029 A 
ATOM     62  C   UNL     1      -0.054  -5.586   7.375  1.00  0.00     0.049 A 
ATOM     63  H   UNL     1      -1.001  -4.482   5.845  1.00  0.00     0.167 HD
ATOM     64  C   UNL     1      -2.434  -5.518   8.059  1.00  0.00     0.074 A 
ATOM     65  C   UNL     1      -3.527  -5.829   8.959  1.00  0.00     0.031 C 
ATOM     66  C   UNL     1      -1.153  -5.921   8.243  1.00  0.00     0.031 A 
BRANCH  53  67
ATOM     67  C   UNL     1       2.747  -4.046   3.846  1.00  0.00    -0.014 A 
ATOM     68  C   UNL     1       3.338  -5.241   3.403  1.00  0.00     0.009 A 
ATOM     69  C   UNL     1       3.525  -2.879   3.888  1.00  0.00     0.009 A 
ATOM     70  C   UNL     1       4.681  -5.270   3.025  1.00  0.00     0.001 A 
ATOM     71  C   UNL     1       4.863  -2.907   3.487  1.00  0.00     0.001 A 
ATOM     72  C   UNL     1       5.442  -4.103   3.065  1.00  0.00     0.000 A 
ENDBRANCH  53  67
BRANCH  54  73
ATOM     73  C   UNL     1      -6.714  -3.886   6.973  1.00  0.00    -0.014 A 
ATOM     74  C   UNL     1      -7.754  -4.561   6.312  1.00  0.00     0.009 A 
ATOM     75  C   UNL     1      -7.025  -3.064   8.066  1.00  0.00     0.009 A 
ATOM     76  C   UNL     1      -9.079  -4.387   6.712  1.00  0.00     0.001 A 
ATOM     77  C   UNL     1      -8.351  -2.916   8.483  1.00  0.00     0.001 A 
ATOM     78  C   UNL     1      -9.377  -3.567   7.798  1.00  0.00     0.000 A 
ENDBRANCH  54  73
BRANCH  66  79
ATOM     79  C   UNL     1      -0.865  -6.770   9.448  1.00  0.00    -0.014 A 
ATOM     80  C   UNL     1      -0.117  -6.249  10.515  1.00  0.00     0.009 A 
ATOM     81  C   UNL     1      -1.284  -8.109   9.500  1.00  0.00     0.009 A 
ATOM     82  C   UNL     1       0.207  -7.052  11.610  1.00  0.00     0.001 A 
ATOM     83  C   UNL     1      -0.982  -8.901  10.609  1.00  0.00     0.001 A 
ATOM     84  C   UNL     1      -0.231  -8.374  11.659  1.00  0.00     0.000 A 
ENDBRANCH  66  79
ENDBRANCH  40  41
ENDBRANCH  32  35
ENDBRANCH  30  31
ENDBRANCH  29  30
ENDBRANCH   1  29
TORSDOF 13
