REMARK SMILES C[C@H]1[C@H](C(=O)NCCCNC(=O)c2ccc(-c3c4nc(c(-c5ccccc5)c5ccc([nH]5)c(-c5ccccc5)c5nc(c(-c6ccccc6)c6ccc3[nH]6)C=C5)C=C4)cc2)CCN1C(=O)Cc1csc(N)n1
REMARK SMILES IDX 7 1 6 2 4 3 5 4 3 6 1 7 2 8 63 9 61 10 62 11 64 12 65 13
REMARK SMILES IDX 66 14 67 15 68 16 72 17 69 18 70 19 71 20 8 23 9 24 10 25
REMARK SMILES IDX 11 26 12 28 13 29 14 30 60 31 15 32 59 33 16 34 17 35 18 36
REMARK SMILES IDX 53 37 19 38 58 39 52 40 54 41 20 42 57 43 51 44 50 45 21 47
REMARK SMILES IDX 43 48 28 49 42 50 29 51 32 52 41 53 55 54 30 55 31 56 40 58
REMARK SMILES IDX 56 59 33 60 22 61 23 62 27 63 24 64 26 65 25 66 44 67 45 68
REMARK SMILES IDX 49 69 46 70 48 71 47 72 34 73 35 74 39 75 36 76 38 77 37 78
REMARK H PARENT 6 5 71 21 71 22 10 27 54 46 32 57
REMARK Flexibility Score: inf
ROOT
ATOM      1  C   UNL     1      -1.155   0.517   2.852  1.00  0.00     0.117 C 
ENDROOT
BRANCH   1   2
ATOM      2  N   UNL     1      -0.658   1.789   2.363  1.00  0.00    -0.356 N 
ATOM      3  C   UNL     1      -0.260   2.193   1.132  1.00  0.00     0.225 C 
ATOM      4  O   UNL     1       0.162   3.350   1.039  1.00  0.00    -0.275 OA
ATOM      5  H   UNL     1      -0.600   2.489   3.053  1.00  0.00     0.163 HD
BRANCH   3   6
ATOM      6  C   UNL     1      -0.271   1.295  -0.092  1.00  0.00     0.102 C 
ATOM      7  C   UNL     1       1.700   0.273  -1.244  1.00  0.00     0.032 C 
ATOM      8  C   UNL     1       0.784   0.180  -0.017  1.00  0.00     0.094 C 
ATOM      9  N   UNL     1       0.016  -1.062  -0.043  1.00  0.00    -0.339 N 
ATOM     10  C   UNL     1      -1.607   0.621  -0.417  1.00  0.00     0.037 C 
ATOM     11  C   UNL     1      -1.279  -0.847  -0.659  1.00  0.00     0.120 C 
BRANCH   9  12
ATOM     12  C   UNL     1       0.407  -2.334   0.342  1.00  0.00     0.228 C 
ATOM     13  O   UNL     1      -0.316  -3.307   0.099  1.00  0.00    -0.274 OA
BRANCH  12  14
ATOM     14  C   UNL     1       1.624  -2.507   1.239  1.00  0.00     0.157 C 
BRANCH  14  15
ATOM     15  C   UNL     1       2.952  -2.273   0.604  1.00  0.00     0.063 A 
ATOM     16  C   UNL     1       3.875  -1.310   0.975  1.00  0.00     0.093 A 
ATOM     17  N   UNL     1       3.385  -3.112  -0.411  1.00  0.00    -0.225 NA
ATOM     18  S   UNL     1       5.276  -1.427  -0.001  1.00  0.00    -0.106 S 
ATOM     19  C   UNL     1       4.585  -2.772  -0.812  1.00  0.00     0.180 A 
BRANCH  19  20
ATOM     20  N   UNL     1       5.246  -3.412  -1.781  1.00  0.00    -0.375 N 
ATOM     21  H   UNL     1       6.146  -3.113  -2.043  1.00  0.00     0.159 HD
ATOM     22  H   UNL     1       4.832  -4.182  -2.232  1.00  0.00     0.159 HD
ENDBRANCH  19  20
ENDBRANCH  14  15
ENDBRANCH  12  14
ENDBRANCH   9  12
ENDBRANCH   3   6
ENDBRANCH   1   2
BRANCH   1  23
ATOM     23  C   UNL     1      -0.239  -0.086   3.908  1.00  0.00     0.042 C 
BRANCH  23  24
ATOM     24  C   UNL     1      -0.130   0.731   5.191  1.00  0.00     0.118 C 
BRANCH  24  25
ATOM     25  N   UNL     1      -1.399   0.866   5.889  1.00  0.00    -0.352 N 
ATOM     26  C   UNL     1      -1.767   0.468   7.149  1.00  0.00     0.251 C 
ATOM     27  H   UNL     1      -2.108   1.315   5.375  1.00  0.00     0.163 HD
ATOM     28  O   UNL     1      -2.951   0.530   7.480  1.00  0.00    -0.269 OA
BRANCH  26  29
ATOM     29  C   UNL     1      -0.767  -0.053   8.106  1.00  0.00     0.039 A 
ATOM     30  C   UNL     1      -1.113  -1.143   8.910  1.00  0.00     0.014 A 
ATOM     31  C   UNL     1       0.490   0.540   8.243  1.00  0.00     0.014 A 
ATOM     32  C   UNL     1      -0.179  -1.676   9.801  1.00  0.00     0.010 A 
ATOM     33  C   UNL     1       1.448  -0.041   9.070  1.00  0.00     0.010 A 
ATOM     34  C   UNL     1       1.122  -1.151   9.862  1.00  0.00    -0.014 A 
BRANCH  34  35
ATOM     35  C   UNL     1       2.149  -1.755  10.748  1.00  0.00     0.031 A 
ATOM     36  C   UNL     1       2.738  -0.964  11.883  1.00  0.00     0.074 A 
ATOM     37  C   UNL     1       2.595  -3.001  10.494  1.00  0.00     0.049 A 
ATOM     38  N   UNL     1       3.670  -1.313  12.736  1.00  0.00    -0.248 NA
ATOM     39  C   UNL     1       2.235   0.406  12.072  1.00  0.00     0.031 C 
ATOM     40  C   UNL     1       2.142  -3.856   9.394  1.00  0.00     0.029 A 
ATOM     41  N   UNL     1       3.532  -3.764  11.144  1.00  0.00    -0.354 N 
ATOM     42  C   UNL     1       3.872  -0.204  13.548  1.00  0.00     0.074 A 
ATOM     43  C   UNL     1       3.006   0.845  13.055  1.00  0.00     0.031 C 
ATOM     44  C   UNL     1       2.781  -5.035   9.463  1.00  0.00     0.029 A 
ATOM     45  C   UNL     1       3.711  -5.007  10.588  1.00  0.00     0.049 A 
ATOM     46  H   UNL     1       4.028  -3.450  11.934  1.00  0.00     0.167 HD
ATOM     47  C   UNL     1       4.687  -0.075  14.622  1.00  0.00     0.031 A 
ATOM     48  C   UNL     1       4.532  -6.013  10.941  1.00  0.00     0.031 A 
ATOM     49  C   UNL     1       5.543  -1.119  15.121  1.00  0.00     0.049 A 
ATOM     50  C   UNL     1       5.424  -5.848  12.138  1.00  0.00     0.074 A 
ATOM     51  C   UNL     1       6.368  -1.102  16.232  1.00  0.00     0.029 A 
ATOM     52  N   UNL     1       5.683  -2.368  14.538  1.00  0.00    -0.354 N 
ATOM     53  N   UNL     1       5.555  -4.815  12.934  1.00  0.00    -0.248 NA
ATOM     54  C   UNL     1       6.271  -6.995  12.492  1.00  0.00     0.031 C 
ATOM     55  C   UNL     1       7.041  -2.327  16.296  1.00  0.00     0.029 A 
ATOM     56  C   UNL     1       6.596  -3.124  15.254  1.00  0.00     0.049 A 
ATOM     57  H   UNL     1       5.205  -2.673  13.733  1.00  0.00     0.167 HD
ATOM     58  C   UNL     1       6.482  -5.194  13.896  1.00  0.00     0.074 A 
ATOM     59  C   UNL     1       6.864  -6.559  13.595  1.00  0.00     0.031 C 
ATOM     60  C   UNL     1       6.973  -4.477  14.936  1.00  0.00     0.031 A 
BRANCH  47  61
ATOM     61  C   UNL     1       4.690   1.253  15.329  1.00  0.00    -0.014 A 
ATOM     62  C   UNL     1       3.582   1.677  16.081  1.00  0.00     0.009 A 
ATOM     63  C   UNL     1       5.822   2.079  15.263  1.00  0.00     0.009 A 
ATOM     64  C   UNL     1       3.592   2.920  16.718  1.00  0.00     0.001 A 
ATOM     65  C   UNL     1       5.841   3.308  15.926  1.00  0.00     0.001 A 
ATOM     66  C   UNL     1       4.723   3.732  16.643  1.00  0.00     0.000 A 
ENDBRANCH  47  61
BRANCH  48  67
ATOM     67  C   UNL     1       4.534  -7.277  10.160  1.00  0.00    -0.014 A 
ATOM     68  C   UNL     1       3.981  -8.448  10.701  1.00  0.00     0.009 A 
ATOM     69  C   UNL     1       5.083  -7.317   8.869  1.00  0.00     0.009 A 
ATOM     70  C   UNL     1       4.001  -9.640   9.973  1.00  0.00     0.001 A 
ATOM     71  C   UNL     1       5.076  -8.504   8.134  1.00  0.00     0.001 A 
ATOM     72  C   UNL     1       4.543  -9.666   8.690  1.00  0.00     0.000 A 
ENDBRANCH  48  67
BRANCH  60  73
ATOM     73  C   UNL     1       7.961  -5.166  15.834  1.00  0.00    -0.014 A 
ATOM     74  C   UNL     1       9.272  -5.431  15.406  1.00  0.00     0.009 A 
ATOM     75  C   UNL     1       7.581  -5.534  17.134  1.00  0.00     0.009 A 
ATOM     76  C   UNL     1      10.170  -6.086  16.251  1.00  0.00     0.001 A 
ATOM     77  C   UNL     1       8.490  -6.162  17.985  1.00  0.00     0.001 A 
ATOM     78  C   UNL     1       9.780  -6.447  17.540  1.00  0.00     0.000 A 
ENDBRANCH  60  73
ENDBRANCH  34  35
ENDBRANCH  26  29
ENDBRANCH  24  25
ENDBRANCH  23  24
ENDBRANCH   1  23
TORSDOF 14
