REMARK SMILES CC(C)(O)CCOc1ccc(C(=O)NCCCNC(=O)c2ccc(-c3c4nc(c(-c5ccccc5)c5ccc([nH]5)c(-c5ccccc5)c5nc(c(-c6ccccc6)c6ccc3[nH]6)C=C5)C=C4)cc2)cc1
REMARK SMILES IDX 12 1 13 2 14 3 11 5 8 6 9 7 70 8 10 9 69 10 7 11 6 12 5 13
REMARK SMILES IDX 2 14 1 15 3 16 4 17 15 19 16 20 17 21 18 22 19 23 20 25
REMARK SMILES IDX 21 26 22 27 68 28 23 29 67 30 24 31 25 32 26 33 61 34 27 35
REMARK SMILES IDX 66 36 60 37 62 38 28 39 65 40 59 41 58 42 29 44 51 45 36 46
REMARK SMILES IDX 50 47 37 48 40 49 49 50 63 51 38 52 39 53 48 55 64 56 41 57
REMARK SMILES IDX 30 58 31 59 35 60 32 61 34 62 33 63 52 64 53 65 57 66 54 67
REMARK SMILES IDX 56 68 55 69 42 70 43 71 47 72 44 73 46 74 45 75
REMARK H PARENT 14 4 4 18 18 24 62 43 40 54
REMARK Flexibility Score: inf
ROOT
ATOM      1  C   UNL     1      -0.737  -2.880  -2.649  1.00  0.00     0.251 C 
ATOM      2  O   UNL     1      -0.877  -4.075  -2.887  1.00  0.00    -0.269 OA
ATOM      3  N   UNL     1      -0.615  -1.985  -3.691  1.00  0.00    -0.352 N 
ATOM      4  H   UNL     1      -0.751  -2.371  -4.586  1.00  0.00     0.163 HD
ENDROOT
BRANCH   1   5
ATOM      5  C   UNL     1      -0.646  -2.416  -1.247  1.00  0.00     0.040 A 
ATOM      6  C   UNL     1      -0.090  -1.288   1.241  1.00  0.00     0.119 A 
ATOM      7  C   UNL     1       0.516  -2.492   0.866  1.00  0.00     0.047 A 
ATOM      8  C   UNL     1      -1.129  -0.783   0.464  1.00  0.00     0.047 A 
ATOM      9  C   UNL     1       0.239  -3.060  -0.380  1.00  0.00     0.017 A 
ATOM     10  C   UNL     1      -1.400  -1.336  -0.790  1.00  0.00     0.017 A 
BRANCH   6  11
ATOM     11  O   UNL     1       0.489  -0.661   2.309  1.00  0.00    -0.493 OA
BRANCH  11  12
ATOM     12  C   UNL     1       0.226   0.729   2.523  1.00  0.00     0.232 C 
BRANCH  12  13
ATOM     13  C   UNL     1       1.205   1.716   1.849  1.00  0.00     0.076 C 
BRANCH  13  14
ATOM     14  C   UNL     1       1.129   1.922   0.317  1.00  0.00     0.062 C 
ATOM     15  C   UNL     1       1.953   0.884  -0.453  1.00  0.00     0.042 C 
ATOM     16  C   UNL     1       1.657   3.313  -0.068  1.00  0.00     0.042 C 
BRANCH  14  17
ATOM     17  O   UNL     1      -0.233   1.899  -0.103  1.00  0.00    -0.390 OA
ATOM     18  H   UNL     1      -0.277   2.029  -1.064  1.00  0.00     0.211 HD
ENDBRANCH  14  17
ENDBRANCH  13  14
ENDBRANCH  12  13
ENDBRANCH  11  12
ENDBRANCH   6  11
ENDBRANCH   1   5
BRANCH   3  19
ATOM     19  C   UNL     1      -0.315  -0.559  -3.678  1.00  0.00     0.118 C 
BRANCH  19  20
ATOM     20  C   UNL     1       0.904  -0.189  -4.520  1.00  0.00     0.042 C 
BRANCH  20  21
ATOM     21  C   UNL     1       0.726  -0.342  -6.028  1.00  0.00     0.118 C 
BRANCH  21  22
ATOM     22  N   UNL     1      -0.216   0.612  -6.595  1.00  0.00    -0.352 N 
ATOM     23  C   UNL     1      -0.076   1.503  -7.633  1.00  0.00     0.251 C 
ATOM     24  H   UNL     1      -1.101   0.621  -6.163  1.00  0.00     0.163 HD
ATOM     25  O   UNL     1      -0.972   2.316  -7.847  1.00  0.00    -0.269 OA
BRANCH  23  26
ATOM     26  C   UNL     1       1.141   1.524  -8.481  1.00  0.00     0.039 A 
ATOM     27  C   UNL     1       1.642   2.763  -8.902  1.00  0.00     0.014 A 
ATOM     28  C   UNL     1       1.770   0.351  -8.904  1.00  0.00     0.014 A 
ATOM     29  C   UNL     1       2.804   2.825  -9.679  1.00  0.00     0.010 A 
ATOM     30  C   UNL     1       2.968   0.416  -9.617  1.00  0.00     0.010 A 
ATOM     31  C   UNL     1       3.502   1.653 -10.011  1.00  0.00    -0.014 A 
BRANCH  31  32
ATOM     32  C   UNL     1       4.792   1.703 -10.751  1.00  0.00     0.031 A 
ATOM     33  C   UNL     1       4.919   1.071 -12.112  1.00  0.00     0.074 A 
ATOM     34  C   UNL     1       5.876   2.254 -10.166  1.00  0.00     0.049 A 
ATOM     35  N   UNL     1       5.982   0.945 -12.867  1.00  0.00    -0.248 NA
ATOM     36  C   UNL     1       3.700   0.485 -12.692  1.00  0.00     0.031 C 
ATOM     37  C   UNL     1       5.904   2.865  -8.835  1.00  0.00     0.029 A 
ATOM     38  N   UNL     1       7.170   2.375 -10.611  1.00  0.00    -0.354 N 
ATOM     39  C   UNL     1       5.566   0.245 -13.994  1.00  0.00     0.074 A 
ATOM     40  C   UNL     1       4.163  -0.056 -13.810  1.00  0.00     0.031 C 
ATOM     41  C   UNL     1       7.146   3.308  -8.579  1.00  0.00     0.029 A 
ATOM     42  C   UNL     1       8.012   2.977  -9.706  1.00  0.00     0.049 A 
ATOM     43  H   UNL     1       7.466   2.061 -11.496  1.00  0.00     0.167 HD
ATOM     44  C   UNL     1       6.283  -0.104 -15.089  1.00  0.00     0.031 A 
ATOM     45  C   UNL     1       9.335   3.221  -9.766  1.00  0.00     0.031 A 
ATOM     46  C   UNL     1       7.672   0.215 -15.288  1.00  0.00     0.049 A 
ATOM     47  C   UNL     1      10.104   2.821 -10.995  1.00  0.00     0.074 A 
ATOM     48  C   UNL     1       8.461  -0.034 -16.398  1.00  0.00     0.029 A 
ATOM     49  N   UNL     1       8.479   0.848 -14.357  1.00  0.00    -0.354 N 
ATOM     50  N   UNL     1       9.674   2.232 -12.084  1.00  0.00    -0.248 NA
ATOM     51  C   UNL     1      11.542   3.131 -11.006  1.00  0.00     0.031 C 
ATOM     52  C   UNL     1       9.760   0.401 -16.119  1.00  0.00     0.029 A 
ATOM     53  C   UNL     1       9.765   0.973 -14.857  1.00  0.00     0.049 A 
ATOM     54  H   UNL     1       8.184   1.162 -13.472  1.00  0.00     0.167 HD
ATOM     55  C   UNL     1      10.779   2.131 -12.920  1.00  0.00     0.074 A 
ATOM     56  C   UNL     1      11.893   2.734 -12.220  1.00  0.00     0.031 C 
ATOM     57  C   UNL     1      10.863   1.584 -14.156  1.00  0.00     0.031 A 
BRANCH  44  58
ATOM     58  C   UNL     1       5.583  -0.880 -16.170  1.00  0.00    -0.014 A 
ATOM     59  C   UNL     1       4.634  -0.272 -17.006  1.00  0.00     0.009 A 
ATOM     60  C   UNL     1       5.936  -2.219 -16.405  1.00  0.00     0.009 A 
ATOM     61  C   UNL     1       4.036  -0.995 -18.040  1.00  0.00     0.001 A 
ATOM     62  C   UNL     1       5.356  -2.932 -17.456  1.00  0.00     0.001 A 
ATOM     63  C   UNL     1       4.402  -2.321 -18.268  1.00  0.00     0.000 A 
ENDBRANCH  44  58
BRANCH  45  64
ATOM     64  C   UNL     1      10.032   3.873  -8.624  1.00  0.00    -0.014 A 
ATOM     65  C   UNL     1      10.552   5.171  -8.750  1.00  0.00     0.009 A 
ATOM     66  C   UNL     1      10.216   3.185  -7.415  1.00  0.00     0.009 A 
ATOM     67  C   UNL     1      11.274   5.749  -7.704  1.00  0.00     0.001 A 
ATOM     68  C   UNL     1      10.910   3.779  -6.359  1.00  0.00     0.001 A 
ATOM     69  C   UNL     1      11.450   5.054  -6.508  1.00  0.00     0.000 A 
ENDBRANCH  45  64
BRANCH  57  70
ATOM     70  C   UNL     1      12.193   1.651 -14.852  1.00  0.00    -0.014 A 
ATOM     71  C   UNL     1      13.275   0.858 -14.440  1.00  0.00     0.009 A 
ATOM     72  C   UNL     1      12.351   2.495 -15.963  1.00  0.00     0.009 A 
ATOM     73  C   UNL     1      14.499   0.934 -15.108  1.00  0.00     0.001 A 
ATOM     74  C   UNL     1      13.566   2.545 -16.647  1.00  0.00     0.001 A 
ATOM     75  C   UNL     1      14.642   1.773 -16.213  1.00  0.00     0.000 A 
ENDBRANCH  57  70
ENDBRANCH  31  32
ENDBRANCH  23  26
ENDBRANCH  21  22
ENDBRANCH  20  21
ENDBRANCH  19  20
ENDBRANCH   3  19
TORSDOF 15
