REMARK SMILES COc1cc(/C=C/C(=O)NCCCNC(=O)c2ccc(-c3c4nc(c(-c5ccccc5)c5ccc([nH]5)c(-c5ccccc5)c5nc(c(-c6ccccc6)c6ccc3[nH]6)C=C5)C=C4)cc2)cc(OC)c1O
REMARK SMILES IDX 12 1 11 2 10 3 8 4 9 5 7 7 6 8 5 9 3 10 4 11 69 12 66 13
REMARK SMILES IDX 65 14 2 15 1 16 70 17 67 19 68 20 13 21 14 22 15 23 16 25
REMARK SMILES IDX 17 26 18 27 64 28 19 29 63 30 20 31 21 32 22 33 57 34 23 35
REMARK SMILES IDX 62 36 56 37 58 38 24 39 61 40 55 41 54 42 25 44 47 45 32 46
REMARK SMILES IDX 46 47 33 48 36 49 45 50 59 51 34 52 35 53 44 55 60 56 37 57
REMARK SMILES IDX 26 58 27 59 31 60 28 61 30 62 29 63 48 64 49 65 53 66 50 67
REMARK SMILES IDX 52 68 51 69 38 70 39 71 43 72 40 73 42 74 41 75
REMARK H PARENT 10 6 70 18 14 24 58 43 36 54
REMARK Flexibility Score: inf
ROOT
ATOM      1  C   UNL     1      -2.808   4.652   7.235  1.00  0.00     0.042 C 
ENDROOT
BRANCH   1   2
ATOM      2  C   UNL     1      -3.183   5.136   5.836  1.00  0.00     0.118 C 
BRANCH   2   3
ATOM      3  N   UNL     1      -2.199   6.068   5.313  1.00  0.00    -0.352 N 
ATOM      4  C   UNL     1      -1.298   5.930   4.305  1.00  0.00     0.244 C 
ATOM      5  O   UNL     1      -0.629   6.899   3.952  1.00  0.00    -0.270 OA
ATOM      6  H   UNL     1      -2.181   6.943   5.763  1.00  0.00     0.163 HD
BRANCH   4   7
ATOM      7  C   UNL     1      -1.179   4.658   3.562  1.00  0.00     0.072 C 
ATOM      8  C   UNL     1      -0.988   3.459   4.134  1.00  0.00     0.014 C 
BRANCH   8   9
ATOM      9  C   UNL     1      -0.868   2.210   3.365  1.00  0.00    -0.018 A 
ATOM     10  C   UNL     1      -0.140   0.941   1.429  1.00  0.00     0.165 A 
ATOM     11  C   UNL     1      -0.195   2.142   2.141  1.00  0.00     0.058 A 
ATOM     12  C   UNL     1      -0.780  -0.205   1.924  1.00  0.00     0.200 A 
ATOM     13  C   UNL     1      -1.398  -0.175   3.178  1.00  0.00     0.165 A 
ATOM     14  C   UNL     1      -1.438   1.039   3.883  1.00  0.00     0.058 A 
BRANCH  10  15
ATOM     15  O   UNL     1       0.461   0.996   0.197  1.00  0.00    -0.493 OA
ATOM     16  C   UNL     1       1.491   0.025  -0.001  1.00  0.00     0.278 C 
ENDBRANCH  10  15
BRANCH  12  17
ATOM     17  O   UNL     1      -0.857  -1.315   1.127  1.00  0.00    -0.502 OA
ATOM     18  H   UNL     1      -0.438  -1.320   0.289  1.00  0.00     0.293 HD
ENDBRANCH  12  17
BRANCH  13  19
ATOM     19  O   UNL     1      -2.055  -1.189   3.822  1.00  0.00    -0.493 OA
ATOM     20  C   UNL     1      -1.863  -2.514   3.343  1.00  0.00     0.278 C 
ENDBRANCH  13  19
ENDBRANCH   8   9
ENDBRANCH   4   7
ENDBRANCH   2   3
ENDBRANCH   1   2
BRANCH   1  21
ATOM     21  C   UNL     1      -2.942   5.723   8.316  1.00  0.00     0.118 C 
BRANCH  21  22
ATOM     22  N   UNL     1      -4.331   6.075   8.577  1.00  0.00    -0.352 N 
ATOM     23  C   UNL     1      -5.050   6.033   9.742  1.00  0.00     0.251 C 
ATOM     24  H   UNL     1      -4.832   6.395   7.792  1.00  0.00     0.163 HD
ATOM     25  O   UNL     1      -6.274   6.184   9.702  1.00  0.00    -0.269 OA
BRANCH  23  26
ATOM     26  C   UNL     1      -4.390   5.803  11.045  1.00  0.00     0.039 A 
ATOM     27  C   UNL     1      -5.027   4.986  11.986  1.00  0.00     0.014 A 
ATOM     28  C   UNL     1      -3.185   6.432  11.374  1.00  0.00     0.014 A 
ATOM     29  C   UNL     1      -4.436   4.762  13.232  1.00  0.00     0.010 A 
ATOM     30  C   UNL     1      -2.566   6.159  12.593  1.00  0.00     0.010 A 
ATOM     31  C   UNL     1      -3.189   5.329  13.537  1.00  0.00    -0.014 A 
BRANCH  31  32
ATOM     32  C   UNL     1      -2.527   5.070  14.841  1.00  0.00     0.031 A 
ATOM     33  C   UNL     1      -2.320   6.189  15.824  1.00  0.00     0.074 A 
ATOM     34  C   UNL     1      -2.061   3.837  15.118  1.00  0.00     0.049 A 
ATOM     35  N   UNL     1      -1.720   6.166  16.988  1.00  0.00    -0.248 NA
ATOM     36  C   UNL     1      -2.836   7.512  15.440  1.00  0.00     0.031 C 
ATOM     37  C   UNL     1      -2.169   2.671  14.238  1.00  0.00     0.029 A 
ATOM     38  N   UNL     1      -1.396   3.361  16.221  1.00  0.00    -0.354 N 
ATOM     39  C   UNL     1      -1.764   7.471  17.462  1.00  0.00     0.074 A 
ATOM     40  C   UNL     1      -2.416   8.268  16.444  1.00  0.00     0.031 C 
ATOM     41  C   UNL     1      -1.618   1.610  14.848  1.00  0.00     0.029 A 
ATOM     42  C   UNL     1      -1.085   2.026  16.141  1.00  0.00     0.049 A 
ATOM     43  H   UNL     1      -1.165   3.924  16.995  1.00  0.00     0.167 HD
ATOM     44  C   UNL     1      -1.316   7.962  18.642  1.00  0.00     0.031 A 
ATOM     45  C   UNL     1      -0.440   1.226  17.011  1.00  0.00     0.031 A 
ATOM     46  C   UNL     1      -0.684   7.170  19.663  1.00  0.00     0.049 A 
ATOM     47  C   UNL     1       0.053   1.796  18.310  1.00  0.00     0.074 A 
ATOM     48  C   UNL     1      -0.255   7.563  20.919  1.00  0.00     0.029 A 
ATOM     49  N   UNL     1      -0.388   5.821  19.543  1.00  0.00    -0.354 N 
ATOM     50  N   UNL     1      -0.054   3.018  18.770  1.00  0.00    -0.248 NA
ATOM     51  C   UNL     1       0.749   0.869  19.214  1.00  0.00     0.031 C 
ATOM     52  C   UNL     1       0.340   6.460  21.543  1.00  0.00     0.029 A 
ATOM     53  C   UNL     1       0.239   5.371  20.692  1.00  0.00     0.049 A 
ATOM     54  H   UNL     1      -0.593   5.265  18.756  1.00  0.00     0.167 HD
ATOM     55  C   UNL     1       0.535   3.002  20.027  1.00  0.00     0.074 A 
ATOM     56  C   UNL     1       0.987   1.646  20.262  1.00  0.00     0.031 C 
ATOM     57  C   UNL     1       0.685   4.020  20.910  1.00  0.00     0.031 A 
BRANCH  44  58
ATOM     58  C   UNL     1      -1.486   9.436  18.884  1.00  0.00    -0.014 A 
ATOM     59  C   UNL     1      -2.752   9.996  19.120  1.00  0.00     0.009 A 
ATOM     60  C   UNL     1      -0.360  10.275  18.899  1.00  0.00     0.009 A 
ATOM     61  C   UNL     1      -2.891  11.370  19.325  1.00  0.00     0.001 A 
ATOM     62  C   UNL     1      -0.499  11.644  19.131  1.00  0.00     0.001 A 
ATOM     63  C   UNL     1      -1.765  12.193  19.332  1.00  0.00     0.000 A 
ENDBRANCH  44  58
BRANCH  45  64
ATOM     64  C   UNL     1      -0.247  -0.211  16.694  1.00  0.00    -0.014 A 
ATOM     65  C   UNL     1      -0.989  -1.190  17.373  1.00  0.00     0.009 A 
ATOM     66  C   UNL     1       0.674  -0.614  15.715  1.00  0.00     0.009 A 
ATOM     67  C   UNL     1      -0.795  -2.544  17.095  1.00  0.00     0.001 A 
ATOM     68  C   UNL     1       0.847  -1.968  15.421  1.00  0.00     0.001 A 
ATOM     69  C   UNL     1       0.119  -2.932  16.116  1.00  0.00     0.000 A 
ENDBRANCH  45  64
BRANCH  57  70
ATOM     70  C   UNL     1       1.336   3.694  22.223  1.00  0.00    -0.014 A 
ATOM     71  C   UNL     1       2.717   3.461  22.312  1.00  0.00     0.009 A 
ATOM     72  C   UNL     1       0.559   3.648  23.391  1.00  0.00     0.009 A 
ATOM     73  C   UNL     1       3.302   3.156  23.543  1.00  0.00     0.001 A 
ATOM     74  C   UNL     1       1.151   3.369  24.623  1.00  0.00     0.001 A 
ATOM     75  C   UNL     1       2.519   3.115  24.697  1.00  0.00     0.000 A 
ENDBRANCH  57  70
ENDBRANCH  31  32
ENDBRANCH  23  26
ENDBRANCH  21  22
ENDBRANCH   1  21
TORSDOF 14
