REMARK SMILES CC[NH2+]C[C@@H](C)C(=O)N1CCO[C@@H](CC(=O)NCCCNC(=O)c2ccc(-c3c4nc(c(-c5ccccc5)c5ccc([nH]5)c(-c5ccccc5)c5nc(c(-c6ccccc6)c6ccc3[nH]6)C=C5)C=C4)cc2)C1
REMARK SMILES IDX 15 1 16 2 17 3 14 5 13 6 9 7 10 8 72 9 11 10 12 11 7 12 8 13
REMARK SMILES IDX 5 14 6 15 4 16 3 17 2 20 1 21 18 22 19 23 20 24 21 25 22 26
REMARK SMILES IDX 23 28 24 29 25 30 71 31 26 32 70 33 27 34 28 35 29 36 64 37
REMARK SMILES IDX 30 38 69 39 63 40 65 41 31 42 68 43 62 44 61 45 32 47 54 48
REMARK SMILES IDX 39 49 53 50 40 51 43 52 52 53 66 54 41 55 42 56 51 58 67 59
REMARK SMILES IDX 44 60 33 61 34 62 38 63 35 64 37 65 36 66 55 67 56 68 60 69
REMARK SMILES IDX 57 70 59 71 58 72 45 73 46 74 50 75 47 76 49 77 48 78
REMARK H PARENT 17 4 3 18 3 19 21 27 65 46 43 57
REMARK Flexibility Score: inf
ROOT
ATOM      1  C   UNL     1       3.080  -9.736   1.740  1.00  0.00     0.222 C 
ATOM      2  O   UNL     1       4.235  -9.694   1.311  1.00  0.00    -0.275 OA
ATOM      3  N   UNL     1       2.091 -10.104   0.877  1.00  0.00    -0.356 N 
ATOM      4  H   UNL     1       2.407 -10.339  -0.025  1.00  0.00     0.163 HD
ENDROOT
BRANCH   1   5
ATOM      5  C   UNL     1       2.772  -9.332   3.164  1.00  0.00     0.133 C 
BRANCH   5   6
ATOM      6  C   UNL     1       2.761  -7.811   3.326  1.00  0.00     0.147 C 
ATOM      7  N   UNL     1       1.458  -5.776   2.688  1.00  0.00    -0.337 N 
ATOM      8  C   UNL     1       1.293  -5.470   4.105  1.00  0.00     0.148 C 
ATOM      9  C   UNL     1       1.679  -7.188   2.439  1.00  0.00     0.152 C 
ATOM     10  C   UNL     1       2.423  -6.091   4.930  1.00  0.00     0.182 C 
ATOM     11  O   UNL     1       2.498  -7.511   4.714  1.00  0.00    -0.374 OA
BRANCH   7  12
ATOM     12  C   UNL     1       0.647  -5.144   1.752  1.00  0.00     0.231 C 
ATOM     13  O   UNL     1      -0.395  -5.655   1.343  1.00  0.00    -0.274 OA
BRANCH  12  14
ATOM     14  C   UNL     1       1.177  -3.841   1.161  1.00  0.00     0.130 C 
ATOM     15  C   UNL     1       2.686  -3.911   0.921  1.00  0.00     0.024 C 
BRANCH  14  16
ATOM     16  C   UNL     1       0.735  -2.640   2.002  1.00  0.00     0.273 C 
BRANCH  16  17
ATOM     17  N   UNL     1       1.152  -1.322   1.512  1.00  0.00    -0.346 N 
ATOM     18  H   UNL     1       0.864  -0.617   2.191  1.00  0.00     0.346 HD
ATOM     19  H   UNL     1       2.165  -1.349   1.393  1.00  0.00     0.346 HD
BRANCH  17  20
ATOM     20  C   UNL     1       0.573  -0.980   0.215  1.00  0.00     0.257 C 
ATOM     21  C   UNL     1       0.974   0.440  -0.151  1.00  0.00     0.071 C 
ENDBRANCH  17  20
ENDBRANCH  16  17
ENDBRANCH  14  16
ENDBRANCH  12  14
ENDBRANCH   7  12
ENDBRANCH   5   6
ENDBRANCH   1   5
BRANCH   3  22
ATOM     22  C   UNL     1       0.645 -10.213   1.052  1.00  0.00     0.117 C 
BRANCH  22  23
ATOM     23  C   UNL     1      -0.129  -9.159   0.253  1.00  0.00     0.042 C 
BRANCH  23  24
ATOM     24  C   UNL     1      -0.094  -9.356  -1.260  1.00  0.00     0.118 C 
BRANCH  24  25
ATOM     25  N   UNL     1      -1.221 -10.143  -1.730  1.00  0.00    -0.352 N 
ATOM     26  C   UNL     1      -2.370  -9.755  -2.378  1.00  0.00     0.251 C 
ATOM     27  H   UNL     1      -1.151 -11.109  -1.557  1.00  0.00     0.163 HD
ATOM     28  O   UNL     1      -3.299 -10.555  -2.463  1.00  0.00    -0.269 OA
BRANCH  26  29
ATOM     29  C   UNL     1      -2.525  -8.402  -2.972  1.00  0.00     0.039 A 
ATOM     30  C   UNL     1      -3.779  -7.783  -2.899  1.00  0.00     0.014 A 
ATOM     31  C   UNL     1      -1.497  -7.775  -3.682  1.00  0.00     0.014 A 
ATOM     32  C   UNL     1      -3.988  -6.531  -3.490  1.00  0.00     0.010 A 
ATOM     33  C   UNL     1      -1.687  -6.498  -4.220  1.00  0.00     0.010 A 
ATOM     34  C   UNL     1      -2.937  -5.864  -4.137  1.00  0.00    -0.014 A 
BRANCH  34  35
ATOM     35  C   UNL     1      -3.131  -4.518  -4.743  1.00  0.00     0.031 A 
ATOM     36  C   UNL     1      -3.033  -4.328  -6.234  1.00  0.00     0.074 A 
ATOM     37  C   UNL     1      -3.354  -3.449  -3.953  1.00  0.00     0.049 A 
ATOM     38  N   UNL     1      -3.077  -3.218  -6.930  1.00  0.00    -0.248 NA
ATOM     39  C   UNL     1      -2.847  -5.539  -7.047  1.00  0.00     0.031 C 
ATOM     40  C   UNL     1      -3.461  -3.478  -2.493  1.00  0.00     0.029 A 
ATOM     41  N   UNL     1      -3.523  -2.123  -4.273  1.00  0.00    -0.354 N 
ATOM     42  C   UNL     1      -2.905  -3.595  -8.257  1.00  0.00     0.074 A 
ATOM     43  C   UNL     1      -2.728  -5.032  -8.266  1.00  0.00     0.031 C 
ATOM     44  C   UNL     1      -3.693  -2.233  -2.046  1.00  0.00     0.029 A 
ATOM     45  C   UNL     1      -3.711  -1.313  -3.180  1.00  0.00     0.049 A 
ATOM     46  H   UNL     1      -3.511  -1.786  -5.198  1.00  0.00     0.167 HD
ATOM     47  C   UNL     1      -2.906  -2.821  -9.369  1.00  0.00     0.031 A 
ATOM     48  C   UNL     1      -3.862   0.023  -3.093  1.00  0.00     0.031 A 
ATOM     49  C   UNL     1      -3.098  -1.395  -9.377  1.00  0.00     0.049 A 
ATOM     50  C   UNL     1      -3.829   0.861  -4.339  1.00  0.00     0.074 A 
ATOM     51  C   UNL     1      -3.149  -0.538 -10.464  1.00  0.00     0.029 A 
ATOM     52  N   UNL     1      -3.276  -0.617  -8.246  1.00  0.00    -0.354 N 
ATOM     53  N   UNL     1      -3.683   0.483  -5.585  1.00  0.00    -0.248 NA
ATOM     54  C   UNL     1      -3.979   2.314  -4.162  1.00  0.00     0.031 C 
ATOM     55  C   UNL     1      -3.323   0.766  -9.988  1.00  0.00     0.029 A 
ATOM     56  C   UNL     1      -3.419   0.713  -8.608  1.00  0.00     0.049 A 
ATOM     57  H   UNL     1      -3.298  -0.957  -7.323  1.00  0.00     0.167 HD
ATOM     58  C   UNL     1      -3.737   1.647  -6.340  1.00  0.00     0.074 A 
ATOM     59  C   UNL     1      -3.946   2.742  -5.417  1.00  0.00     0.031 C 
ATOM     60  C   UNL     1      -3.621   1.794  -7.681  1.00  0.00     0.031 A 
BRANCH  47  61
ATOM     61  C   UNL     1      -2.684  -3.505 -10.688  1.00  0.00    -0.014 A 
ATOM     62  C   UNL     1      -3.701  -4.263 -11.288  1.00  0.00     0.009 A 
ATOM     63  C   UNL     1      -1.465  -3.342 -11.364  1.00  0.00     0.009 A 
ATOM     64  C   UNL     1      -3.492  -4.865 -12.530  1.00  0.00     0.001 A 
ATOM     65  C   UNL     1      -1.266  -3.929 -12.615  1.00  0.00     0.001 A 
ATOM     66  C   UNL     1      -2.277  -4.694 -13.194  1.00  0.00     0.000 A 
ENDBRANCH  47  61
BRANCH  48  67
ATOM     67  C   UNL     1      -4.027   0.667  -1.766  1.00  0.00    -0.014 A 
ATOM     68  C   UNL     1      -5.267   1.189  -1.372  1.00  0.00     0.009 A 
ATOM     69  C   UNL     1      -2.932   0.783  -0.897  1.00  0.00     0.009 A 
ATOM     70  C   UNL     1      -5.400   1.833  -0.139  1.00  0.00     0.001 A 
ATOM     71  C   UNL     1      -3.074   1.402   0.345  1.00  0.00     0.001 A 
ATOM     72  C   UNL     1      -4.306   1.935   0.719  1.00  0.00     0.000 A 
ENDBRANCH  48  67
BRANCH  60  73
ATOM     73  C   UNL     1      -3.737   3.186  -8.230  1.00  0.00    -0.014 A 
ATOM     74  C   UNL     1      -2.678   4.100  -8.111  1.00  0.00     0.009 A 
ATOM     75  C   UNL     1      -4.907   3.578  -8.898  1.00  0.00     0.009 A 
ATOM     76  C   UNL     1      -2.801   5.391  -8.628  1.00  0.00     0.001 A 
ATOM     77  C   UNL     1      -5.018   4.863  -9.431  1.00  0.00     0.001 A 
ATOM     78  C   UNL     1      -3.969   5.770  -9.290  1.00  0.00     0.000 A 
ENDBRANCH  60  73
ENDBRANCH  34  35
ENDBRANCH  26  29
ENDBRANCH  24  25
ENDBRANCH  23  24
ENDBRANCH  22  23
ENDBRANCH   3  22
TORSDOF 16
