REMARK SMILES CC(=O)[C@H]1CC(C)=C(C)C[C@@H]1C(=O)NCCCNC(=O)c1ccc(-c2c3nc(c(-c4ccccc4)c4ccc([nH]4)c(-c4ccccc4)c4nc(c(-c5ccccc5)c5ccc2[nH]5)C=C4)C=C3)cc1
REMARK SMILES IDX 16 1 15 2 14 3 12 4 13 5 11 7 4 8 5 9 6 10 10 11 7 12 8 13
REMARK SMILES IDX 9 14 2 15 1 16 3 17 17 18 18 19 19 20 20 22 21 23 22 24
REMARK SMILES IDX 68 25 23 26 67 27 24 28 25 29 26 30 61 31 27 32 66 33 60 34
REMARK SMILES IDX 62 35 28 36 65 37 59 38 58 39 29 41 51 42 36 43 50 44 37 45
REMARK SMILES IDX 40 46 49 47 63 48 38 49 39 50 48 52 64 53 41 54 30 55 31 56
REMARK SMILES IDX 35 57 32 58 34 59 33 60 52 61 53 62 57 63 54 64 56 65 55 66
REMARK SMILES IDX 42 67 43 68 47 69 44 70 46 71 45 72
REMARK H PARENT 14 6 18 21 62 40 40 51
REMARK Flexibility Score: inf
ROOT
ATOM      1  C   UNL     1       4.493   1.237   1.296  1.00  0.00     0.042 C 
ENDROOT
BRANCH   1   2
ATOM      2  C   UNL     1       4.770  -0.235   0.998  1.00  0.00     0.117 C 
BRANCH   2   3
ATOM      3  N   UNL     1       4.413  -1.085   2.122  1.00  0.00    -0.356 N 
ATOM      4  C   UNL     1       3.270  -1.795   2.353  1.00  0.00     0.224 C 
ATOM      5  O   UNL     1       3.160  -2.397   3.420  1.00  0.00    -0.275 OA
ATOM      6  H   UNL     1       5.101  -1.161   2.822  1.00  0.00     0.163 HD
BRANCH   4   7
ATOM      7  C   UNL     1       2.213  -1.873   1.258  1.00  0.00     0.093 C 
ATOM      8  C   UNL     1       0.810  -1.669   1.849  1.00  0.00     0.072 C 
ATOM      9  C   UNL     1      -0.196  -2.816   1.726  1.00  0.00     0.043 C 
ATOM     10  C   UNL     1       0.176  -4.012   0.892  1.00  0.00    -0.074 C 
ATOM     11  C   UNL     1       2.484  -3.147   0.447  1.00  0.00     0.045 C 
ATOM     12  C   UNL     1      -0.924  -5.045   0.810  1.00  0.00     0.039 C 
ATOM     13  C   UNL     1       1.382  -4.159   0.314  1.00  0.00    -0.074 C 
ATOM     14  C   UNL     1       1.758  -5.379  -0.492  1.00  0.00     0.039 C 
BRANCH   8  15
ATOM     15  C   UNL     1       0.161  -0.383   1.324  1.00  0.00     0.134 C 
ATOM     16  C   UNL     1       0.241  -0.055  -0.147  1.00  0.00     0.088 C 
ATOM     17  O   UNL     1      -0.427   0.382   2.092  1.00  0.00    -0.300 OA
ENDBRANCH   8  15
ENDBRANCH   4   7
ENDBRANCH   2   3
ENDBRANCH   1   2
BRANCH   1  18
ATOM     18  C   UNL     1       5.413   1.823   2.367  1.00  0.00     0.118 C 
BRANCH  18  19
ATOM     19  N   UNL     1       6.818   1.752   1.984  1.00  0.00    -0.352 N 
ATOM     20  C   UNL     1       7.751   2.742   1.834  1.00  0.00     0.251 C 
ATOM     21  H   UNL     1       7.150   0.843   1.804  1.00  0.00     0.163 HD
ATOM     22  O   UNL     1       8.820   2.484   1.279  1.00  0.00    -0.269 OA
BRANCH  20  23
ATOM     23  C   UNL     1       7.492   4.110   2.324  1.00  0.00     0.039 A 
ATOM     24  C   UNL     1       7.929   5.194   1.556  1.00  0.00     0.014 A 
ATOM     25  C   UNL     1       6.872   4.330   3.556  1.00  0.00     0.014 A 
ATOM     26  C   UNL     1       7.693   6.497   1.997  1.00  0.00     0.010 A 
ATOM     27  C   UNL     1       6.575   5.628   3.961  1.00  0.00     0.010 A 
ATOM     28  C   UNL     1       6.986   6.724   3.189  1.00  0.00    -0.014 A 
BRANCH  28  29
ATOM     29  C   UNL     1       6.661   8.101   3.637  1.00  0.00     0.031 A 
ATOM     30  C   UNL     1       7.238   8.640   4.918  1.00  0.00     0.074 A 
ATOM     31  C   UNL     1       5.792   8.841   2.921  1.00  0.00     0.049 A 
ATOM     32  N   UNL     1       7.021   9.793   5.498  1.00  0.00    -0.248 NA
ATOM     33  C   UNL     1       8.159   7.761   5.657  1.00  0.00     0.031 C 
ATOM     34  C   UNL     1       5.133   8.417   1.683  1.00  0.00     0.029 A 
ATOM     35  N   UNL     1       5.304  10.105   3.138  1.00  0.00    -0.354 N 
ATOM     36  C   UNL     1       7.755   9.768   6.677  1.00  0.00     0.074 A 
ATOM     37  C   UNL     1       8.396   8.473   6.750  1.00  0.00     0.031 C 
ATOM     38  C   UNL     1       4.349   9.412   1.238  1.00  0.00     0.029 A 
ATOM     39  C   UNL     1       4.415  10.525   2.178  1.00  0.00     0.049 A 
ATOM     40  H   UNL     1       5.567  10.659   3.909  1.00  0.00     0.167 HD
ATOM     41  C   UNL     1       7.892  10.740   7.609  1.00  0.00     0.031 A 
ATOM     42  C   UNL     1       3.723  11.675   2.073  1.00  0.00     0.031 A 
ATOM     43  C   UNL     1       7.276  12.037   7.523  1.00  0.00     0.049 A 
ATOM     44  C   UNL     1       3.894  12.733   3.128  1.00  0.00     0.074 A 
ATOM     45  C   UNL     1       7.423  13.117   8.376  1.00  0.00     0.029 A 
ATOM     46  N   UNL     1       6.394  12.427   6.529  1.00  0.00    -0.354 N 
ATOM     47  N   UNL     1       4.663  12.726   4.189  1.00  0.00    -0.248 NA
ATOM     48  C   UNL     1       3.106  13.963   2.962  1.00  0.00     0.031 C 
ATOM     49  C   UNL     1       6.586  14.144   7.927  1.00  0.00     0.029 A 
ATOM     50  C   UNL     1       5.963  13.722   6.764  1.00  0.00     0.049 A 
ATOM     51  H   UNL     1       6.115  11.867   5.768  1.00  0.00     0.167 HD
ATOM     52  C   UNL     1       4.477  13.960   4.797  1.00  0.00     0.074 A 
ATOM     53  C   UNL     1       3.537  14.696   3.978  1.00  0.00     0.031 C 
ATOM     54  C   UNL     1       5.035  14.443   5.934  1.00  0.00     0.031 A 
BRANCH  41  55
ATOM     55  C   UNL     1       8.738  10.443   8.816  1.00  0.00    -0.014 A 
ATOM     56  C   UNL     1      10.135  10.355   8.725  1.00  0.00     0.009 A 
ATOM     57  C   UNL     1       8.130  10.319  10.076  1.00  0.00     0.009 A 
ATOM     58  C   UNL     1      10.905  10.125   9.867  1.00  0.00     0.001 A 
ATOM     59  C   UNL     1       8.903  10.116  11.220  1.00  0.00     0.001 A 
ATOM     60  C   UNL     1      10.289  10.013  11.114  1.00  0.00     0.000 A 
ENDBRANCH  41  55
BRANCH  42  61
ATOM     61  C   UNL     1       2.804  11.900   0.926  1.00  0.00    -0.014 A 
ATOM     62  C   UNL     1       3.104  12.867  -0.046  1.00  0.00     0.009 A 
ATOM     63  C   UNL     1       1.605  11.179   0.817  1.00  0.00     0.009 A 
ATOM     64  C   UNL     1       2.204  13.136  -1.080  1.00  0.00     0.001 A 
ATOM     65  C   UNL     1       0.722  11.427  -0.236  1.00  0.00     0.001 A 
ATOM     66  C   UNL     1       1.016  12.415  -1.175  1.00  0.00     0.000 A 
ENDBRANCH  42  61
BRANCH  54  67
ATOM     67  C   UNL     1       4.679  15.847   6.332  1.00  0.00    -0.014 A 
ATOM     68  C   UNL     1       3.408  16.163   6.834  1.00  0.00     0.009 A 
ATOM     69  C   UNL     1       5.646  16.860   6.235  1.00  0.00     0.009 A 
ATOM     70  C   UNL     1       3.101  17.476   7.198  1.00  0.00     0.001 A 
ATOM     71  C   UNL     1       5.346  18.164   6.629  1.00  0.00     0.001 A 
ATOM     72  C   UNL     1       4.071  18.473   7.100  1.00  0.00     0.000 A 
ENDBRANCH  54  67
ENDBRANCH  28  29
ENDBRANCH  20  23
ENDBRANCH  18  19
ENDBRANCH   1  18
TORSDOF 11
