REMARK SMILES Cc1nc(CSCC(=O)N2CCCC[C@@H]2C(=O)NCCCNC(=O)c2ccc(-c3c4nc(c(-c5ccccc5)c5ccc([nH]5)c(-c5ccccc5)c5nc(c(-c6ccccc6)c6ccc3[nH]6)C=C5)C=C4)cc2)cs1
REMARK SMILES IDX 16 1 17 2 18 3 15 5 10 6 11 7 12 8 14 9 13 10 8 11 9 12 7 13
REMARK SMILES IDX 6 14 5 15 4 16 1 17 2 18 3 19 74 20 73 21 19 22 20 23 21 24
REMARK SMILES IDX 22 25 23 26 24 28 25 29 26 30 72 31 27 32 71 33 28 34 29 35
REMARK SMILES IDX 30 36 65 37 31 38 70 39 64 40 66 41 32 42 69 43 63 44 62 45
REMARK SMILES IDX 33 47 55 48 40 49 54 50 41 51 44 52 53 53 67 54 42 55 43 56
REMARK SMILES IDX 52 58 68 59 45 60 34 61 35 62 39 63 36 64 38 65 37 66 56 67
REMARK SMILES IDX 57 68 61 69 58 70 60 71 59 72 46 73 47 74 51 75 48 76 50 77
REMARK SMILES IDX 49 78
REMARK H PARENT 18 4 22 27 66 46 44 57
REMARK Flexibility Score: inf
ROOT
ATOM      1  C   UNL     1       3.295  -4.648  -0.629  1.00  0.00     0.242 C 
ATOM      2  O   UNL     1       4.344  -4.245  -0.116  1.00  0.00    -0.273 OA
ATOM      3  N   UNL     1       2.209  -4.750   0.194  1.00  0.00    -0.354 N 
ATOM      4  H   UNL     1       2.370  -4.492   1.130  1.00  0.00     0.163 HD
ENDROOT
BRANCH   1   5
ATOM      5  C   UNL     1       3.285  -5.234  -2.058  1.00  0.00     0.174 C 
ATOM      6  N   UNL     1       2.042  -4.991  -2.821  1.00  0.00    -0.330 N 
ATOM      7  C   UNL     1       1.698  -5.961  -3.860  1.00  0.00     0.120 C 
ATOM      8  C   UNL     1       1.780  -7.402  -3.397  1.00  0.00     0.022 C 
ATOM      9  C   UNL     1       3.551  -6.742  -1.777  1.00  0.00     0.035 C 
ATOM     10  C   UNL     1       3.181  -7.700  -2.894  1.00  0.00     0.004 C 
BRANCH   6  11
ATOM     11  C   UNL     1       1.417  -3.753  -2.974  1.00  0.00     0.233 C 
ATOM     12  O   UNL     1       0.182  -3.719  -3.050  1.00  0.00    -0.274 OA
BRANCH  11  13
ATOM     13  C   UNL     1       2.208  -2.498  -3.314  1.00  0.00     0.170 C 
BRANCH  13  14
ATOM     14  S   UNL     1       3.138  -1.635  -2.029  1.00  0.00    -0.146 SA
BRANCH  14  15
ATOM     15  C   UNL     1       2.000  -1.654  -0.626  1.00  0.00     0.127 C 
BRANCH  15  16
ATOM     16  C   UNL     1       1.049  -0.519  -0.495  1.00  0.00     0.061 A 
ATOM     17  C   UNL     1      -2.487   0.258   0.018  1.00  0.00     0.079 C 
ATOM     18  C   UNL     1      -1.009   0.247  -0.156  1.00  0.00     0.090 A 
ATOM     19  N   UNL     1      -0.303  -0.832  -0.415  1.00  0.00    -0.246 NA
ATOM     20  S   UNL     1      -0.101   1.697  -0.002  1.00  0.00    -0.127 S 
ATOM     21  C   UNL     1       1.342   0.814  -0.282  1.00  0.00     0.091 A 
ENDBRANCH  15  16
ENDBRANCH  14  15
ENDBRANCH  13  14
ENDBRANCH  11  13
ENDBRANCH   6  11
ENDBRANCH   1   5
BRANCH   3  22
ATOM     22  C   UNL     1       0.848  -5.185  -0.103  1.00  0.00     0.117 C 
BRANCH  22  23
ATOM     23  C   UNL     1       0.111  -5.650   1.137  1.00  0.00     0.042 C 
BRANCH  23  24
ATOM     24  C   UNL     1      -0.116  -4.546   2.160  1.00  0.00     0.118 C 
BRANCH  24  25
ATOM     25  N   UNL     1      -1.216  -3.648   1.840  1.00  0.00    -0.352 N 
ATOM     26  C   UNL     1      -2.282  -3.301   2.642  1.00  0.00     0.251 C 
ATOM     27  H   UNL     1      -1.197  -3.240   0.944  1.00  0.00     0.163 HD
ATOM     28  O   UNL     1      -3.201  -2.606   2.220  1.00  0.00    -0.269 OA
BRANCH  26  29
ATOM     29  C   UNL     1      -2.324  -3.809   4.031  1.00  0.00     0.039 A 
ATOM     30  C   UNL     1      -3.467  -4.470   4.484  1.00  0.00     0.014 A 
ATOM     31  C   UNL     1      -1.204  -3.689   4.860  1.00  0.00     0.014 A 
ATOM     32  C   UNL     1      -3.459  -5.076   5.743  1.00  0.00     0.010 A 
ATOM     33  C   UNL     1      -1.165  -4.376   6.069  1.00  0.00     0.010 A 
ATOM     34  C   UNL     1      -2.294  -5.069   6.530  1.00  0.00    -0.014 A 
BRANCH  34  35
ATOM     35  C   UNL     1      -2.243  -5.767   7.841  1.00  0.00     0.031 A 
ATOM     36  C   UNL     1      -1.992  -4.986   9.103  1.00  0.00     0.074 A 
ATOM     37  C   UNL     1      -2.353  -7.109   7.897  1.00  0.00     0.049 A 
ATOM     38  N   UNL     1      -1.878  -5.419  10.334  1.00  0.00    -0.248 NA
ATOM     39  C   UNL     1      -1.810  -3.533   8.959  1.00  0.00     0.031 C 
ATOM     40  C   UNL     1      -2.528  -7.996   6.745  1.00  0.00     0.029 A 
ATOM     41  N   UNL     1      -2.325  -7.962   8.972  1.00  0.00    -0.354 N 
ATOM     42  C   UNL     1      -1.593  -4.297  11.102  1.00  0.00     0.074 A 
ATOM     43  C   UNL     1      -1.487  -3.178  10.193  1.00  0.00     0.031 C 
ATOM     44  C   UNL     1      -2.619  -9.264   7.178  1.00  0.00     0.029 A 
ATOM     45  C   UNL     1      -2.480  -9.284   8.631  1.00  0.00     0.049 A 
ATOM     46  H   UNL     1      -2.205  -7.656   9.900  1.00  0.00     0.167 HD
ATOM     47  C   UNL     1      -1.459  -4.196  12.445  1.00  0.00     0.031 A 
ATOM     48  C   UNL     1      -2.508 -10.389   9.400  1.00  0.00     0.031 A 
ATOM     49  C   UNL     1      -1.579  -5.302  13.356  1.00  0.00     0.049 A 
ATOM     50  C   UNL     1      -2.381 -10.255  10.891  1.00  0.00     0.074 A 
ATOM     51  C   UNL     1      -1.529  -5.291  14.739  1.00  0.00     0.029 A 
ATOM     52  N   UNL     1      -1.770  -6.620  12.972  1.00  0.00    -0.354 N 
ATOM     53  N   UNL     1      -2.201  -9.174  11.610  1.00  0.00    -0.248 NA
ATOM     54  C   UNL     1      -2.477 -11.493  11.678  1.00  0.00     0.031 C 
ATOM     55  C   UNL     1      -1.645  -6.610  15.190  1.00  0.00     0.029 A 
ATOM     56  C   UNL     1      -1.818  -7.435  14.089  1.00  0.00     0.049 A 
ATOM     57  H   UNL     1      -1.858  -6.930  12.041  1.00  0.00     0.167 HD
ATOM     58  C   UNL     1      -2.183  -9.597  12.933  1.00  0.00     0.074 A 
ATOM     59  C   UNL     1      -2.388 -11.031  12.917  1.00  0.00     0.031 C 
ATOM     60  C   UNL     1      -2.013  -8.862  14.059  1.00  0.00     0.031 A 
BRANCH  47  61
ATOM     61  C   UNL     1      -1.164  -2.830  13.002  1.00  0.00    -0.014 A 
ATOM     62  C   UNL     1      -2.125  -1.806  12.962  1.00  0.00     0.009 A 
ATOM     63  C   UNL     1       0.089  -2.562  13.573  1.00  0.00     0.009 A 
ATOM     64  C   UNL     1      -1.819  -0.528  13.434  1.00  0.00     0.001 A 
ATOM     65  C   UNL     1       0.381  -1.292  14.074  1.00  0.00     0.001 A 
ATOM     66  C   UNL     1      -0.568  -0.273  13.992  1.00  0.00     0.000 A 
ENDBRANCH  47  61
BRANCH  48  67
ATOM     67  C   UNL     1      -2.692 -11.721   8.767  1.00  0.00    -0.014 A 
ATOM     68  C   UNL     1      -3.913 -12.402   8.882  1.00  0.00     0.009 A 
ATOM     69  C   UNL     1      -1.653 -12.308   8.028  1.00  0.00     0.009 A 
ATOM     70  C   UNL     1      -4.084 -13.653   8.284  1.00  0.00     0.001 A 
ATOM     71  C   UNL     1      -1.836 -13.547   7.410  1.00  0.00     0.001 A 
ATOM     72  C   UNL     1      -3.048 -14.222   7.545  1.00  0.00     0.000 A 
ENDBRANCH  48  67
BRANCH  60  73
ATOM     73  C   UNL     1      -2.060  -9.592  15.370  1.00  0.00    -0.014 A 
ATOM     74  C   UNL     1      -1.003 -10.419  15.781  1.00  0.00     0.009 A 
ATOM     75  C   UNL     1      -3.159  -9.415  16.226  1.00  0.00     0.009 A 
ATOM     76  C   UNL     1      -1.060 -11.077  17.012  1.00  0.00     0.001 A 
ATOM     77  C   UNL     1      -3.200 -10.053  17.467  1.00  0.00     0.001 A 
ATOM     78  C   UNL     1      -2.155 -10.889  17.855  1.00  0.00     0.000 A 
ENDBRANCH  60  73
ENDBRANCH  34  35
ENDBRANCH  26  29
ENDBRANCH  24  25
ENDBRANCH  23  24
ENDBRANCH  22  23
ENDBRANCH   3  22
TORSDOF 15
