REMARK SMILES Nc1nc(SCc2c(C(=O)NCCCNC(=O)c3ccc(-c4c5nc(c(-c6ccccc6)c6ccc([nH]6)c(-c6ccccc6)c6nc(c(-c7ccccc7)c7ccc4[nH]7)C=C6)C=C5)cc3)sc3cccc(F)c23)n[nH]1
REMARK SMILES IDX 12 1 11 2 9 3 10 4 8 6 7 7 73 8 66 9 67 10 71 11 68 12 70 13
REMARK SMILES IDX 72 14 69 15 6 16 5 17 4 18 2 19 3 20 75 21 74 22 1 24 13 27
REMARK SMILES IDX 14 28 15 29 16 30 17 32 18 33 19 34 65 35 20 36 64 37 21 38
REMARK SMILES IDX 22 39 23 40 58 41 24 42 63 43 57 44 59 45 25 46 62 47 56 48
REMARK SMILES IDX 55 49 26 51 48 52 33 53 47 54 34 55 37 56 46 57 60 58 35 59
REMARK SMILES IDX 36 60 45 62 61 63 38 64 27 65 28 66 32 67 29 68 31 69 30 70
REMARK SMILES IDX 49 71 50 72 54 73 51 74 53 75 52 76 39 77 40 78 44 79 41 80
REMARK SMILES IDX 43 81 42 82
REMARK H PARENT 11 5 75 23 1 25 1 26 15 31 59 50 37 61
REMARK Flexibility Score: inf
ROOT
ATOM      1  C   UNL     1       0.674   2.817   1.156  1.00  0.00     0.118 C 
ENDROOT
BRANCH   1   2
ATOM      2  N   UNL     1      -0.359   2.135   0.397  1.00  0.00    -0.351 N 
ATOM      3  C   UNL     1      -0.558   2.045  -0.967  1.00  0.00     0.261 C 
ATOM      4  O   UNL     1      -1.461   1.280  -1.336  1.00  0.00    -0.268 OA
ATOM      5  H   UNL     1      -1.026   1.659   0.944  1.00  0.00     0.163 HD
BRANCH   3   6
ATOM      6  C   UNL     1       0.168   2.912  -1.866  1.00  0.00     0.097 A 
ATOM      7  C   UNL     1       1.457   3.431  -1.921  1.00  0.00    -0.003 A 
ATOM      8  C   UNL     1       1.265   4.834  -2.300  1.00  0.00     0.033 A 
ATOM      9  S   UNL     1      -0.672   3.482  -3.265  1.00  0.00    -0.130 S 
ATOM     10  C   UNL     1       0.148   4.983  -3.130  1.00  0.00     0.038 A 
ATOM     11  C   UNL     1       1.963   6.020  -1.968  1.00  0.00     0.132 A 
ATOM     12  C   UNL     1      -0.223   6.213  -3.703  1.00  0.00     0.020 A 
ATOM     13  C   UNL     1       1.525   7.271  -2.418  1.00  0.00     0.040 A 
ATOM     14  F   UNL     1       2.982   5.973  -1.097  1.00  0.00    -0.206 F 
ATOM     15  C   UNL     1       0.455   7.362  -3.300  1.00  0.00     0.005 A 
BRANCH   7  16
ATOM     16  C   UNL     1       2.750   2.863  -1.393  1.00  0.00     0.116 C 
BRANCH  16  17
ATOM     17  S   UNL     1       3.230   1.194  -1.894  1.00  0.00    -0.080 SA
BRANCH  17  18
ATOM     18  C   UNL     1       2.128  -0.012  -1.290  1.00  0.00     0.210 A 
ATOM     19  C   UNL     1       0.535  -0.995  -0.311  1.00  0.00     0.216 A 
ATOM     20  N   UNL     1       1.279   0.085  -0.222  1.00  0.00    -0.186 NA
ATOM     21  N   UNL     1       1.059  -1.799  -1.278  1.00  0.00    -0.245 N 
ATOM     22  N   UNL     1       2.078  -1.200  -1.908  1.00  0.00    -0.145 NA
ATOM     23  H   UNL     1       0.732  -2.703  -1.486  1.00  0.00     0.193 HD
BRANCH  19  24
ATOM     24  N   UNL     1      -0.584  -1.322   0.357  1.00  0.00    -0.368 N 
ATOM     25  H   UNL     1      -0.937  -0.719   1.051  1.00  0.00     0.159 HD
ATOM     26  H   UNL     1      -1.050  -2.164   0.153  1.00  0.00     0.159 HD
ENDBRANCH  19  24
ENDBRANCH  17  18
ENDBRANCH  16  17
ENDBRANCH   7  16
ENDBRANCH   3   6
ENDBRANCH   1   2
BRANCH   1  27
ATOM     27  C   UNL     1       0.617   2.570   2.663  1.00  0.00     0.042 C 
BRANCH  27  28
ATOM     28  C   UNL     1       1.252   1.238   3.084  1.00  0.00     0.118 C 
BRANCH  28  29
ATOM     29  N   UNL     1       2.716   1.222   3.045  1.00  0.00    -0.352 N 
ATOM     30  C   UNL     1       3.550   0.223   3.505  1.00  0.00     0.251 C 
ATOM     31  H   UNL     1       3.153   2.010   2.648  1.00  0.00     0.163 HD
ATOM     32  O   UNL     1       4.757   0.423   3.672  1.00  0.00    -0.269 OA
BRANCH  30  33
ATOM     33  C   UNL     1       2.980  -1.101   3.804  1.00  0.00     0.039 A 
ATOM     34  C   UNL     1       3.183  -1.723   5.037  1.00  0.00     0.014 A 
ATOM     35  C   UNL     1       2.194  -1.708   2.827  1.00  0.00     0.014 A 
ATOM     36  C   UNL     1       2.498  -2.906   5.321  1.00  0.00     0.010 A 
ATOM     37  C   UNL     1       1.465  -2.841   3.129  1.00  0.00     0.010 A 
ATOM     38  C   UNL     1       1.612  -3.448   4.376  1.00  0.00    -0.014 A 
BRANCH  38  39
ATOM     39  C   UNL     1       0.742  -4.569   4.742  1.00  0.00     0.031 A 
ATOM     40  C   UNL     1      -0.208  -4.337   5.876  1.00  0.00     0.074 A 
ATOM     41  C   UNL     1       0.566  -5.662   3.971  1.00  0.00     0.049 A 
ATOM     42  N   UNL     1      -0.334  -5.015   6.971  1.00  0.00    -0.248 NA
ATOM     43  C   UNL     1      -1.125  -3.189   5.779  1.00  0.00     0.031 C 
ATOM     44  C   UNL     1       1.115  -5.938   2.640  1.00  0.00     0.029 A 
ATOM     45  N   UNL     1      -0.270  -6.718   4.182  1.00  0.00    -0.354 N 
ATOM     46  C   UNL     1      -1.419  -4.466   7.654  1.00  0.00     0.074 A 
ATOM     47  C   UNL     1      -1.817  -3.294   6.914  1.00  0.00     0.031 C 
ATOM     48  C   UNL     1       0.423  -6.952   2.073  1.00  0.00     0.029 A 
ATOM     49  C   UNL     1      -0.496  -7.497   3.057  1.00  0.00     0.049 A 
ATOM     50  H   UNL     1      -0.679  -6.910   5.057  1.00  0.00     0.167 HD
ATOM     51  C   UNL     1      -2.028  -5.087   8.704  1.00  0.00     0.031 A 
ATOM     52  C   UNL     1      -1.408  -8.490   2.936  1.00  0.00     0.031 A 
ATOM     53  C   UNL     1      -1.251  -6.172   9.231  1.00  0.00     0.049 A 
ATOM     54  C   UNL     1      -1.761  -8.936   4.303  1.00  0.00     0.074 A 
ATOM     55  C   UNL     1      -0.010  -6.290   9.822  1.00  0.00     0.029 A 
ATOM     56  N   UNL     1      -1.613  -7.447   8.869  1.00  0.00    -0.354 N 
ATOM     57  N   UNL     1      -0.928  -9.527   5.109  1.00  0.00    -0.248 NA
ATOM     58  C   UNL     1      -2.958  -8.397   4.926  1.00  0.00     0.031 C 
ATOM     59  C   UNL     1       0.513  -7.521   9.328  1.00  0.00     0.029 A 
ATOM     60  C   UNL     1      -0.459  -8.087   8.500  1.00  0.00     0.049 A 
ATOM     61  H   UNL     1      -2.522  -7.825   8.874  1.00  0.00     0.167 HD
ATOM     62  C   UNL     1      -1.279  -9.080   6.373  1.00  0.00     0.074 A 
ATOM     63  C   UNL     1      -2.605  -8.492   6.210  1.00  0.00     0.031 C 
ATOM     64  C   UNL     1      -0.351  -8.981   7.369  1.00  0.00     0.031 A 
BRANCH  51  65
ATOM     65  C   UNL     1      -3.476  -4.908   9.070  1.00  0.00    -0.014 A 
ATOM     66  C   UNL     1      -3.946  -5.386  10.307  1.00  0.00     0.009 A 
ATOM     67  C   UNL     1      -4.446  -4.519   8.127  1.00  0.00     0.009 A 
ATOM     68  C   UNL     1      -5.317  -5.492  10.574  1.00  0.00     0.001 A 
ATOM     69  C   UNL     1      -5.814  -4.588   8.405  1.00  0.00     0.001 A 
ATOM     70  C   UNL     1      -6.251  -5.093   9.622  1.00  0.00     0.000 A 
ENDBRANCH  51  65
BRANCH  52  71
ATOM     71  C   UNL     1      -2.187  -8.899   1.748  1.00  0.00    -0.014 A 
ATOM     72  C   UNL     1      -2.908 -10.104   1.752  1.00  0.00     0.009 A 
ATOM     73  C   UNL     1      -2.457  -7.980   0.717  1.00  0.00     0.009 A 
ATOM     74  C   UNL     1      -3.902 -10.354   0.798  1.00  0.00     0.001 A 
ATOM     75  C   UNL     1      -3.443  -8.234  -0.243  1.00  0.00     0.001 A 
ATOM     76  C   UNL     1      -4.180  -9.412  -0.189  1.00  0.00     0.000 A 
ENDBRANCH  52  71
BRANCH  64  77
ATOM     77  C   UNL     1       1.012  -9.581   7.129  1.00  0.00    -0.014 A 
ATOM     78  C   UNL     1       1.889  -9.085   6.148  1.00  0.00     0.009 A 
ATOM     79  C   UNL     1       1.496 -10.533   8.036  1.00  0.00     0.009 A 
ATOM     80  C   UNL     1       3.209  -9.539   6.070  1.00  0.00     0.001 A 
ATOM     81  C   UNL     1       2.820 -10.975   7.969  1.00  0.00     0.001 A 
ATOM     82  C   UNL     1       3.676 -10.478   6.987  1.00  0.00     0.000 A 
ENDBRANCH  64  77
ENDBRANCH  38  39
ENDBRANCH  30  33
ENDBRANCH  28  29
ENDBRANCH  27  28
ENDBRANCH   1  27
TORSDOF 14
