REMARK SMILES Cc1cc(C)c(NS(=O)(=O)c2cccc3cc(C)cnc23)c(C(=O)NCCCNC(=O)c2ccc(-c3c4nc(c(-c5ccccc5)c5ccc([nH]5)c(-c5ccccc5)c5nc(c(-c6ccccc6)c6ccc3[nH]6)C=C5)C=C4)cc2)c1
REMARK SMILES IDX 26 1 25 2 23 3 24 4 22 6 1 7 2 8 3 9 80 10 4 11 5 12 6 13
REMARK SMILES IDX 7 14 8 16 9 17 10 18 11 19 12 20 21 21 13 22 15 23 20 24
REMARK SMILES IDX 14 25 16 26 19 27 17 28 18 29 27 30 28 31 29 32 30 33 31 35
REMARK SMILES IDX 32 36 33 37 79 38 34 39 78 40 35 41 36 42 37 43 72 44 38 45
REMARK SMILES IDX 77 46 71 47 73 48 39 49 76 50 70 51 69 52 40 54 62 55 47 56
REMARK SMILES IDX 61 57 48 58 51 59 60 60 74 61 49 62 50 63 59 65 75 66 52 67
REMARK SMILES IDX 41 68 42 69 46 70 43 71 45 72 44 73 63 74 64 75 68 76 65 77
REMARK SMILES IDX 67 78 66 79 53 80 54 81 58 82 55 83 57 84 56 85
REMARK H PARENT 25 5 7 15 29 34 73 53 51 64
REMARK Flexibility Score: inf
ROOT
ATOM      1  C   UNL     1       2.214  -3.772  -0.422  1.00  0.00     0.118 C 
ENDROOT
BRANCH   1   2
ATOM      2  N   UNL     1       0.885  -3.954   0.147  1.00  0.00    -0.352 N 
ATOM      3  C   UNL     1      -0.108  -3.057   0.483  1.00  0.00     0.253 C 
ATOM      4  O   UNL     1      -1.117  -3.492   1.036  1.00  0.00    -0.269 OA
ATOM      5  H   UNL     1       0.652  -4.893   0.327  1.00  0.00     0.163 HD
BRANCH   3   6
ATOM      6  C   UNL     1      -0.034  -1.619   0.085  1.00  0.00     0.064 A 
ATOM      7  C   UNL     1       2.739   0.836  -0.662  1.00  0.00     0.044 C 
ATOM      8  C   UNL     1       1.377   0.212  -0.622  1.00  0.00    -0.050 A 
ATOM      9  C   UNL     1       0.301   0.704  -1.366  1.00  0.00     0.009 A 
ATOM     10  C   UNL     1       1.194  -0.958   0.105  1.00  0.00     0.019 A 
ATOM     11  C   UNL     1      -0.985   0.118  -1.290  1.00  0.00    -0.026 A 
ATOM     12  C   UNL     1      -2.053   0.667  -2.192  1.00  0.00     0.046 C 
ATOM     13  C   UNL     1      -1.187  -0.960  -0.413  1.00  0.00     0.065 A 
BRANCH  13  14
ATOM     14  N   UNL     1      -2.463  -1.503  -0.033  1.00  0.00    -0.278 N 
ATOM     15  H   UNL     1      -2.507  -2.485   0.018  1.00  0.00     0.180 HD
BRANCH  14  16
ATOM     16  S   UNL     1      -3.886  -0.698   0.337  1.00  0.00     0.264 S 
ATOM     17  O   UNL     1      -4.668  -0.767  -0.887  1.00  0.00    -0.201 OA
ATOM     18  O   UNL     1      -4.410  -1.327   1.534  1.00  0.00    -0.201 OA
BRANCH  16  19
ATOM     19  C   UNL     1      -3.752   1.032   0.709  1.00  0.00     0.114 A 
ATOM     20  C   UNL     1      -4.852   1.805   0.266  1.00  0.00     0.024 A 
ATOM     21  C   UNL     1      -2.584   1.629   1.169  1.00  0.00     0.091 A 
ATOM     22  C   UNL     1      -4.752   3.182   0.150  1.00  0.00     0.002 A 
ATOM     23  C   UNL     1      -2.461   3.020   0.917  1.00  0.00     0.002 A 
ATOM     24  N   UNL     1      -1.577   0.957   1.769  1.00  0.00    -0.255 NA
ATOM     25  C   UNL     1      -3.536   3.783   0.429  1.00  0.00     0.010 A 
ATOM     26  C   UNL     1      -1.213   3.627   1.088  1.00  0.00     0.015 A 
ATOM     27  C   UNL     1      -0.396   1.592   1.963  1.00  0.00     0.115 A 
ATOM     28  C   UNL     1      -0.134   2.888   1.556  1.00  0.00    -0.032 A 
ATOM     29  C   UNL     1       1.245   3.461   1.555  1.00  0.00     0.046 C 
ENDBRANCH  16  19
ENDBRANCH  14  16
ENDBRANCH  13  14
ENDBRANCH   3   6
ENDBRANCH   1   2
BRANCH   1  30
ATOM     30  C   UNL     1       3.264  -3.788   0.690  1.00  0.00     0.042 C 
BRANCH  30  31
ATOM     31  C   UNL     1       3.656  -5.203   1.094  1.00  0.00     0.118 C 
BRANCH  31  32
ATOM     32  N   UNL     1       4.463  -5.844   0.066  1.00  0.00    -0.352 N 
ATOM     33  C   UNL     1       5.698  -6.430   0.158  1.00  0.00     0.251 C 
ATOM     34  H   UNL     1       4.061  -5.857  -0.833  1.00  0.00     0.163 HD
ATOM     35  O   UNL     1       6.320  -6.695  -0.869  1.00  0.00    -0.269 OA
BRANCH  33  36
ATOM     36  C   UNL     1       6.289  -6.737   1.477  1.00  0.00     0.039 A 
ATOM     37  C   UNL     1       7.666  -6.571   1.649  1.00  0.00     0.014 A 
ATOM     38  C   UNL     1       5.508  -7.229   2.526  1.00  0.00     0.014 A 
ATOM     39  C   UNL     1       8.250  -6.859   2.882  1.00  0.00     0.010 A 
ATOM     40  C   UNL     1       6.077  -7.436   3.779  1.00  0.00     0.010 A 
ATOM     41  C   UNL     1       7.456  -7.269   3.966  1.00  0.00    -0.014 A 
BRANCH  41  42
ATOM     42  C   UNL     1       8.058  -7.533   5.295  1.00  0.00     0.031 A 
ATOM     43  C   UNL     1       8.016  -8.915   5.887  1.00  0.00     0.074 A 
ATOM     44  C   UNL     1       8.608  -6.516   5.986  1.00  0.00     0.049 A 
ATOM     45  N   UNL     1       8.476  -9.333   7.040  1.00  0.00    -0.248 NA
ATOM     46  C   UNL     1       7.351  -9.961   5.093  1.00  0.00     0.031 C 
ATOM     47  C   UNL     1       8.673  -5.123   5.536  1.00  0.00     0.029 A 
ATOM     48  N   UNL     1       9.219  -6.497   7.213  1.00  0.00    -0.354 N 
ATOM     49  C   UNL     1       8.144 -10.681   7.112  1.00  0.00     0.074 A 
ATOM     50  C   UNL     1       7.395 -10.997   5.917  1.00  0.00     0.031 C 
ATOM     51  C   UNL     1       9.324  -4.395   6.455  1.00  0.00     0.029 A 
ATOM     52  C   UNL     1       9.683  -5.256   7.577  1.00  0.00     0.049 A 
ATOM     53  H   UNL     1       9.316  -7.296   7.780  1.00  0.00     0.167 HD
ATOM     54  C   UNL     1       8.454 -11.580   8.077  1.00  0.00     0.031 A 
ATOM     55  C   UNL     1      10.325  -4.856   8.690  1.00  0.00     0.031 A 
ATOM     56  C   UNL     1       9.200 -11.262   9.265  1.00  0.00     0.049 A 
ATOM     57  C   UNL     1      10.639  -5.870   9.755  1.00  0.00     0.074 A 
ATOM     58  C   UNL     1       9.608 -12.109  10.281  1.00  0.00     0.029 A 
ATOM     59  N   UNL     1       9.646  -9.992   9.599  1.00  0.00    -0.354 N 
ATOM     60  N   UNL     1      10.380  -7.155   9.775  1.00  0.00    -0.248 NA
ATOM     61  C   UNL     1      11.349  -5.377  10.943  1.00  0.00     0.031 C 
ATOM     62  C   UNL     1      10.251 -11.341  11.257  1.00  0.00     0.029 A 
ATOM     63  C   UNL     1      10.303 -10.028  10.818  1.00  0.00     0.049 A 
ATOM     64  H   UNL     1       9.516  -9.185   9.051  1.00  0.00     0.167 HD
ATOM     65  C   UNL     1      10.920  -7.630  10.963  1.00  0.00     0.074 A 
ATOM     66  C   UNL     1      11.539  -6.498  11.624  1.00  0.00     0.031 C 
ATOM     67  C   UNL     1      10.907  -8.890  11.463  1.00  0.00     0.031 A 
BRANCH  54  68
ATOM     68  C   UNL     1       7.974 -12.994   7.886  1.00  0.00    -0.014 A 
ATOM     69  C   UNL     1       8.505 -13.814   6.877  1.00  0.00     0.009 A 
ATOM     70  C   UNL     1       7.000 -13.524   8.746  1.00  0.00     0.009 A 
ATOM     71  C   UNL     1       8.040 -15.120   6.707  1.00  0.00     0.001 A 
ATOM     72  C   UNL     1       6.560 -14.841   8.595  1.00  0.00     0.001 A 
ATOM     73  C   UNL     1       7.072 -15.634   7.569  1.00  0.00     0.000 A 
ENDBRANCH  54  68
BRANCH  55  74
ATOM     74  C   UNL     1      10.732  -3.435   8.847  1.00  0.00    -0.014 A 
ATOM     75  C   UNL     1      12.088  -3.075   8.817  1.00  0.00     0.009 A 
ATOM     76  C   UNL     1       9.769  -2.431   9.031  1.00  0.00     0.009 A 
ATOM     77  C   UNL     1      12.472  -1.744   9.000  1.00  0.00     0.001 A 
ATOM     78  C   UNL     1      10.154  -1.097   9.181  1.00  0.00     0.001 A 
ATOM     79  C   UNL     1      11.505  -0.756   9.177  1.00  0.00     0.000 A 
ENDBRANCH  55  74
BRANCH  67  80
ATOM     80  C   UNL     1      11.614  -9.114  12.771  1.00  0.00    -0.014 A 
ATOM     81  C   UNL     1      11.105  -8.607  13.977  1.00  0.00     0.009 A 
ATOM     82  C   UNL     1      12.797  -9.870  12.798  1.00  0.00     0.009 A 
ATOM     83  C   UNL     1      11.789  -8.816  15.176  1.00  0.00     0.001 A 
ATOM     84  C   UNL     1      13.461 -10.106  14.002  1.00  0.00     0.001 A 
ATOM     85  C   UNL     1      12.963  -9.568  15.188  1.00  0.00     0.000 A 
ENDBRANCH  67  80
ENDBRANCH  41  42
ENDBRANCH  33  36
ENDBRANCH  31  32
ENDBRANCH  30  31
ENDBRANCH   1  30
TORSDOF 13
