REMARK SMILES C[NH2+][C@]1(C(=O)NCCCNC(=O)c2ccc(-c3c4nc(c(-c5ccccc5)c5ccc([nH]5)c(-c5ccccc5)c5nc(c(-c6ccccc6)c6ccc3[nH]6)C=C5)C=C4)cc2)CCC[C@H]([N@H+](C)C2CC2)C1
REMARK SMILES IDX 8 1 7 2 6 3 4 4 5 5 3 7 61 8 70 9 62 10 64 11 63 12 2 13
REMARK SMILES IDX 1 14 65 17 66 18 67 20 68 21 69 22 9 23 10 24 11 25 12 27
REMARK SMILES IDX 13 28 14 29 60 30 15 31 59 32 16 33 17 34 18 35 53 36 19 37
REMARK SMILES IDX 58 38 52 39 54 40 20 41 57 42 51 43 50 44 21 46 43 47 28 48
REMARK SMILES IDX 42 49 29 50 32 51 41 52 55 53 30 54 31 55 40 57 56 58 33 59
REMARK SMILES IDX 22 60 23 61 27 62 24 63 26 64 25 65 44 66 45 67 49 68 46 69
REMARK SMILES IDX 48 70 47 71 34 72 35 73 39 74 36 75 38 76 37 77
REMARK H PARENT 6 6 2 15 2 16 65 19 10 26 54 45 32 56
REMARK Flexibility Score: inf
ROOT
ATOM      1  C   UNL     1       0.966   0.073   2.317  1.00  0.00     0.042 C 
ENDROOT
BRANCH   1   2
ATOM      2  C   UNL     1       0.513   1.189   1.388  1.00  0.00     0.118 C 
BRANCH   2   3
ATOM      3  N   UNL     1       1.117   1.081   0.074  1.00  0.00    -0.351 N 
ATOM      4  C   UNL     1       0.619   0.786  -1.157  1.00  0.00     0.281 C 
ATOM      5  O   UNL     1       1.484   0.644  -2.032  1.00  0.00    -0.268 OA
ATOM      6  H   UNL     1       2.086   1.258   0.072  1.00  0.00     0.163 HD
BRANCH   4   7
ATOM      7  C   UNL     1      -0.930   0.592  -1.449  1.00  0.00     0.181 C 
ATOM      8  C   UNL     1      -1.370  -0.683  -0.691  1.00  0.00     0.079 C 
ATOM      9  C   UNL     1      -1.694   1.884  -1.008  1.00  0.00     0.144 C 
ATOM     10  C   UNL     1      -2.860  -0.763  -0.422  1.00  0.00     0.013 C 
ATOM     11  C   UNL     1      -3.200   1.761  -0.587  1.00  0.00     0.190 C 
ATOM     12  C   UNL     1      -3.357   0.496   0.275  1.00  0.00     0.065 C 
BRANCH   7  13
ATOM     13  N   UNL     1      -0.982   0.322  -2.909  1.00  0.00    -0.336 N 
ATOM     14  C   UNL     1      -2.139   0.655  -3.694  1.00  0.00     0.331 C 
ATOM     15  H   UNL     1      -0.198   0.826  -3.323  1.00  0.00     0.346 HD
ATOM     16  H   UNL     1      -0.982  -0.698  -2.942  1.00  0.00     0.346 HD
ENDBRANCH   7  13
BRANCH  11  17
ATOM     17  N   UNL     1      -4.122   1.865  -1.743  1.00  0.00    -0.332 N 
ATOM     18  C   UNL     1      -4.130   3.251  -2.265  1.00  0.00     0.333 C 
ATOM     19  H   UNL     1      -3.729   1.178  -2.387  1.00  0.00     0.348 HD
BRANCH  17  20
ATOM     20  C   UNL     1      -5.537   1.452  -1.561  1.00  0.00     0.184 C 
ATOM     21  C   UNL     1      -6.101   0.662  -2.730  1.00  0.00     0.071 C 
ATOM     22  C   UNL     1      -6.074   0.060  -1.368  1.00  0.00     0.071 C 
ENDBRANCH  17  20
ENDBRANCH  11  17
ENDBRANCH   4   7
ENDBRANCH   2   3
ENDBRANCH   1   2
BRANCH   1  23
ATOM     23  C   UNL     1       2.472   0.009   2.515  1.00  0.00     0.118 C 
BRANCH  23  24
ATOM     24  N   UNL     1       3.009   1.220   3.120  1.00  0.00    -0.352 N 
ATOM     25  C   UNL     1       3.586   1.411   4.351  1.00  0.00     0.251 C 
ATOM     26  H   UNL     1       2.948   2.027   2.559  1.00  0.00     0.163 HD
ATOM     27  O   UNL     1       3.784   2.546   4.767  1.00  0.00    -0.269 OA
BRANCH  25  28
ATOM     28  C   UNL     1       3.945   0.244   5.185  1.00  0.00     0.039 A 
ATOM     29  C   UNL     1       3.683   0.285   6.556  1.00  0.00     0.014 A 
ATOM     30  C   UNL     1       4.535  -0.887   4.619  1.00  0.00     0.014 A 
ATOM     31  C   UNL     1       3.945  -0.838   7.343  1.00  0.00     0.010 A 
ATOM     32  C   UNL     1       4.696  -2.038   5.380  1.00  0.00     0.010 A 
ATOM     33  C   UNL     1       4.412  -2.024   6.753  1.00  0.00    -0.014 A 
BRANCH  33  34
ATOM     34  C   UNL     1       4.617  -3.257   7.553  1.00  0.00     0.031 A 
ATOM     35  C   UNL     1       5.988  -3.872   7.654  1.00  0.00     0.074 A 
ATOM     36  C   UNL     1       3.561  -3.860   8.134  1.00  0.00     0.049 A 
ATOM     37  N   UNL     1       6.354  -4.977   8.253  1.00  0.00    -0.248 NA
ATOM     38  C   UNL     1       7.086  -3.169   6.970  1.00  0.00     0.031 C 
ATOM     39  C   UNL     1       2.175  -3.389   8.075  1.00  0.00     0.029 A 
ATOM     40  N   UNL     1       3.489  -5.005   8.886  1.00  0.00    -0.354 N 
ATOM     41  C   UNL     1       7.714  -5.108   8.002  1.00  0.00     0.074 A 
ATOM     42  C   UNL     1       8.098  -4.004   7.151  1.00  0.00     0.031 C 
ATOM     43  C   UNL     1       1.398  -4.218   8.790  1.00  0.00     0.029 A 
ATOM     44  C   UNL     1       2.218  -5.303   9.317  1.00  0.00     0.049 A 
ATOM     45  H   UNL     1       4.274  -5.561   9.098  1.00  0.00     0.167 HD
ATOM     46  C   UNL     1       8.574  -6.049   8.458  1.00  0.00     0.031 A 
ATOM     47  C   UNL     1       1.763  -6.339  10.046  1.00  0.00     0.031 A 
ATOM     48  C   UNL     1       8.194  -7.141   9.314  1.00  0.00     0.049 A 
ATOM     49  C   UNL     1       2.735  -7.384  10.520  1.00  0.00     0.074 A 
ATOM     50  C   UNL     1       9.000  -8.116   9.875  1.00  0.00     0.029 A 
ATOM     51  N   UNL     1       6.898  -7.404   9.728  1.00  0.00    -0.354 N 
ATOM     52  N   UNL     1       4.031  -7.452  10.335  1.00  0.00    -0.248 NA
ATOM     53  C   UNL     1       2.181  -8.488  11.316  1.00  0.00     0.031 C 
ATOM     54  C   UNL     1       8.183  -9.004  10.580  1.00  0.00     0.029 A 
ATOM     55  C   UNL     1       6.878  -8.543  10.515  1.00  0.00     0.049 A 
ATOM     56  H   UNL     1       6.109  -6.862   9.497  1.00  0.00     0.167 HD
ATOM     57  C   UNL     1       4.452  -8.586  11.018  1.00  0.00     0.074 A 
ATOM     58  C   UNL     1       3.276  -9.164  11.635  1.00  0.00     0.031 C 
ATOM     59  C   UNL     1       5.700  -9.103  11.126  1.00  0.00     0.031 A 
BRANCH  46  60
ATOM     60  C   UNL     1      10.013  -5.942   8.033  1.00  0.00    -0.014 A 
ATOM     61  C   UNL     1      10.836  -4.903   8.498  1.00  0.00     0.009 A 
ATOM     62  C   UNL     1      10.566  -6.918   7.190  1.00  0.00     0.009 A 
ATOM     63  C   UNL     1      12.172  -4.824   8.099  1.00  0.00     0.001 A 
ATOM     64  C   UNL     1      11.911  -6.855   6.818  1.00  0.00     0.001 A 
ATOM     65  C   UNL     1      12.709  -5.803   7.265  1.00  0.00     0.000 A 
ENDBRANCH  46  60
BRANCH  47  66
ATOM     66  C   UNL     1       0.317  -6.441  10.383  1.00  0.00    -0.014 A 
ATOM     67  C   UNL     1      -0.119  -6.290  11.708  1.00  0.00     0.009 A 
ATOM     68  C   UNL     1      -0.633  -6.708   9.384  1.00  0.00     0.009 A 
ATOM     69  C   UNL     1      -1.470  -6.440  12.032  1.00  0.00     0.001 A 
ATOM     70  C   UNL     1      -1.987  -6.824   9.705  1.00  0.00     0.001 A 
ATOM     71  C   UNL     1      -2.403  -6.702  11.030  1.00  0.00     0.000 A 
ENDBRANCH  47  66
BRANCH  59  72
ATOM     72  C   UNL     1       5.868 -10.329  11.979  1.00  0.00    -0.014 A 
ATOM     73  C   UNL     1       5.378 -11.579  11.573  1.00  0.00     0.009 A 
ATOM     74  C   UNL     1       6.568 -10.235  13.193  1.00  0.00     0.009 A 
ATOM     75  C   UNL     1       5.555 -12.703  12.382  1.00  0.00     0.001 A 
ATOM     76  C   UNL     1       6.773 -11.366  13.983  1.00  0.00     0.001 A 
ATOM     77  C   UNL     1       6.257 -12.597  13.583  1.00  0.00     0.000 A 
ENDBRANCH  59  72
ENDBRANCH  33  34
ENDBRANCH  25  28
ENDBRANCH  23  24
ENDBRANCH   1  23
TORSDOF 13
