REMARK SMILES CCCCCCNC(=O)Oc1cccc(-c2ccc([C@@H](C)C(=O)NCCCNC(=O)c3ccc(-c4c5nc(c(-c6ccccc6)c6ccc([nH]6)c(-c6ccccc6)c6nc(c(-c7ccccc7)c7ccc4[nH]7)C=C6)C=C5)cc3)cc2)c1
REMARK SMILES IDX 16 1 17 2 18 3 19 4 79 5 80 6 15 7 11 8 12 9 81 10 13 11
REMARK SMILES IDX 14 12 10 13 8 14 7 15 9 17 6 18 5 19 4 20 3 21 2 22 1 23
REMARK SMILES IDX 20 24 21 25 22 26 23 27 24 28 25 30 26 31 27 32 28 33 29 34
REMARK SMILES IDX 30 36 31 37 32 38 78 39 33 40 77 41 34 42 35 43 36 44 71 45
REMARK SMILES IDX 37 46 76 47 70 48 72 49 38 50 75 51 69 52 68 53 39 55 61 56
REMARK SMILES IDX 46 57 60 58 47 59 50 60 59 61 73 62 48 63 49 64 58 66 74 67
REMARK SMILES IDX 51 68 40 69 41 70 45 71 42 72 44 73 43 74 62 75 63 76 67 77
REMARK SMILES IDX 64 78 66 79 65 80 52 81 53 82 57 83 54 84 56 85 55 86
REMARK H PARENT 7 16 24 29 28 35 72 54 50 65
REMARK Flexibility Score: inf
ROOT
ATOM      1  C   UNL     1      -5.290   0.333   9.736  1.00  0.00    -0.018 A 
ATOM      2  C   UNL     1      -5.904   0.006  10.955  1.00  0.00     0.009 A 
ATOM      3  C   UNL     1      -5.901   0.883  12.045  1.00  0.00     0.005 A 
ATOM      4  C   UNL     1      -5.218   2.099  11.989  1.00  0.00    -0.036 A 
ATOM      5  C   UNL     1      -4.604   2.442  10.776  1.00  0.00     0.005 A 
ATOM      6  C   UNL     1      -4.658   1.585   9.666  1.00  0.00     0.009 A 
ENDROOT
BRANCH   1   7
ATOM      7  C   UNL     1      -5.319  -0.608   8.590  1.00  0.00    -0.015 A 
ATOM      8  C   UNL     1      -4.318  -1.585   6.598  1.00  0.00     0.133 A 
ATOM      9  C   UNL     1      -5.402  -2.439   6.423  1.00  0.00     0.047 A 
ATOM     10  C   UNL     1      -4.266  -0.678   7.661  1.00  0.00     0.056 A 
ATOM     11  C   UNL     1      -6.451  -2.391   7.331  1.00  0.00     0.004 A 
ATOM     12  C   UNL     1      -6.412  -1.479   8.391  1.00  0.00     0.009 A 
BRANCH   8  13
ATOM     13  O   UNL     1      -3.352  -1.584   5.580  1.00  0.00    -0.410 OA
BRANCH  13  14
ATOM     14  C   UNL     1      -2.020  -1.752   5.923  1.00  0.00     0.412 C 
ATOM     15  N   UNL     1      -1.186  -1.694   4.839  1.00  0.00    -0.321 N 
ATOM     16  H   UNL     1      -0.225  -1.819   5.013  1.00  0.00     0.167 HD
ATOM     17  O   UNL     1      -1.583  -1.947   7.050  1.00  0.00    -0.224 OA
BRANCH  15  18
ATOM     18  C   UNL     1      -1.574  -1.466   3.462  1.00  0.00     0.119 C 
BRANCH  18  19
ATOM     19  C   UNL     1      -0.979  -0.172   2.906  1.00  0.00     0.021 C 
BRANCH  19  20
ATOM     20  C   UNL     1       0.551  -0.166   2.798  1.00  0.00     0.002 C 
BRANCH  20  21
ATOM     21  C   UNL     1       1.156  -1.282   1.939  1.00  0.00    -0.000 C 
BRANCH  21  22
ATOM     22  C   UNL     1       0.663  -1.337   0.490  1.00  0.00    -0.003 C 
ATOM     23  C   UNL     1       1.012  -0.093  -0.311  1.00  0.00     0.004 C 
ENDBRANCH  21  22
ENDBRANCH  20  21
ENDBRANCH  19  20
ENDBRANCH  18  19
ENDBRANCH  15  18
ENDBRANCH  13  14
ENDBRANCH   8  13
ENDBRANCH   1   7
BRANCH   4  24
ATOM     24  C   UNL     1      -5.099   3.030  13.184  1.00  0.00     0.105 C 
ATOM     25  C   UNL     1      -6.392   3.275  13.961  1.00  0.00     0.023 C 
BRANCH  24  26
ATOM     26  C   UNL     1      -3.872   2.749  14.064  1.00  0.00     0.227 C 
ATOM     27  O   UNL     1      -2.889   3.499  14.006  1.00  0.00    -0.274 OA
ATOM     28  N   UNL     1      -3.779   1.713  14.941  1.00  0.00    -0.356 N 
ATOM     29  H   UNL     1      -2.948   1.711  15.469  1.00  0.00     0.163 HD
BRANCH  28  30
ATOM     30  C   UNL     1      -4.671   0.611  15.247  1.00  0.00     0.117 C 
BRANCH  30  31
ATOM     31  C   UNL     1      -4.267  -0.681  14.538  1.00  0.00     0.042 C 
BRANCH  31  32
ATOM     32  C   UNL     1      -3.136  -1.438  15.227  1.00  0.00     0.118 C 
BRANCH  32  33
ATOM     33  N   UNL     1      -3.558  -2.039  16.487  1.00  0.00    -0.352 N 
ATOM     34  C   UNL     1      -3.709  -3.355  16.850  1.00  0.00     0.251 C 
ATOM     35  H   UNL     1      -3.772  -1.392  17.197  1.00  0.00     0.163 HD
ATOM     36  O   UNL     1      -4.287  -3.624  17.901  1.00  0.00    -0.269 OA
BRANCH  34  37
ATOM     37  C   UNL     1      -3.206  -4.455  15.995  1.00  0.00     0.039 A 
ATOM     38  C   UNL     1      -3.978  -5.616  15.870  1.00  0.00     0.014 A 
ATOM     39  C   UNL     1      -1.966  -4.378  15.358  1.00  0.00     0.014 A 
ATOM     40  C   UNL     1      -3.547  -6.659  15.045  1.00  0.00     0.010 A 
ATOM     41  C   UNL     1      -1.567  -5.388  14.483  1.00  0.00     0.010 A 
ATOM     42  C   UNL     1      -2.359  -6.533  14.309  1.00  0.00    -0.014 A 
BRANCH  42  43
ATOM     43  C   UNL     1      -1.946  -7.562  13.321  1.00  0.00     0.031 A 
ATOM     44  C   UNL     1      -0.682  -8.350  13.517  1.00  0.00     0.074 A 
ATOM     45  C   UNL     1      -2.669  -7.721  12.195  1.00  0.00     0.049 A 
ATOM     46  N   UNL     1      -0.108  -9.205  12.709  1.00  0.00    -0.248 NA
ATOM     47  C   UNL     1       0.043  -8.135  14.779  1.00  0.00     0.031 C 
ATOM     48  C   UNL     1      -3.899  -6.997  11.869  1.00  0.00     0.029 A 
ATOM     49  N   UNL     1      -2.461  -8.530  11.105  1.00  0.00    -0.354 N 
ATOM     50  C   UNL     1       1.051  -9.617  13.353  1.00  0.00     0.074 A 
ATOM     51  C   UNL     1       1.118  -8.892  14.604  1.00  0.00     0.031 C 
ATOM     52  C   UNL     1      -4.343  -7.402  10.669  1.00  0.00     0.029 A 
ATOM     53  C   UNL     1      -3.405  -8.374  10.119  1.00  0.00     0.049 A 
ATOM     54  H   UNL     1      -1.708  -9.160  11.037  1.00  0.00     0.167 HD
ATOM     55  C   UNL     1       1.971 -10.523  12.945  1.00  0.00     0.031 A 
ATOM     56  C   UNL     1      -3.495  -8.931   8.897  1.00  0.00     0.031 A 
ATOM     57  C   UNL     1       1.904 -11.245  11.702  1.00  0.00     0.049 A 
ATOM     58  C   UNL     1      -2.434  -9.896   8.447  1.00  0.00     0.074 A 
ATOM     59  C   UNL     1       2.752 -12.233  11.232  1.00  0.00     0.029 A 
ATOM     60  N   UNL     1       0.940 -11.048  10.726  1.00  0.00    -0.354 N 
ATOM     61  N   UNL     1      -1.382 -10.327   9.098  1.00  0.00    -0.248 NA
ATOM     62  C   UNL     1      -2.573 -10.447   7.091  1.00  0.00     0.031 C 
ATOM     63  C   UNL     1       2.333 -12.594   9.947  1.00  0.00     0.029 A 
ATOM     64  C   UNL     1       1.194 -11.867   9.639  1.00  0.00     0.049 A 
ATOM     65  H   UNL     1       0.186 -10.418  10.795  1.00  0.00     0.167 HD
ATOM     66  C   UNL     1      -0.740 -11.208   8.238  1.00  0.00     0.074 A 
ATOM     67  C   UNL     1      -1.532 -11.266   7.027  1.00  0.00     0.031 C 
ATOM     68  C   UNL     1       0.405 -11.904   8.435  1.00  0.00     0.031 A 
BRANCH  55  69
ATOM     69  C   UNL     1       3.144 -10.776  13.851  1.00  0.00    -0.014 A 
ATOM     70  C   UNL     1       2.993 -11.472  15.060  1.00  0.00     0.009 A 
ATOM     71  C   UNL     1       4.426 -10.348  13.469  1.00  0.00     0.009 A 
ATOM     72  C   UNL     1       4.095 -11.702  15.886  1.00  0.00     0.001 A 
ATOM     73  C   UNL     1       5.530 -10.604  14.284  1.00  0.00     0.001 A 
ATOM     74  C   UNL     1       5.363 -11.272  15.496  1.00  0.00     0.000 A 
ENDBRANCH  55  69
BRANCH  56  75
ATOM     75  C   UNL     1      -4.630  -8.580   8.005  1.00  0.00    -0.014 A 
ATOM     76  C   UNL     1      -5.643  -9.515   7.746  1.00  0.00     0.009 A 
ATOM     77  C   UNL     1      -4.713  -7.307   7.418  1.00  0.00     0.009 A 
ATOM     78  C   UNL     1      -6.707  -9.188   6.902  1.00  0.00     0.001 A 
ATOM     79  C   UNL     1      -5.791  -6.975   6.596  1.00  0.00     0.001 A 
ATOM     80  C   UNL     1      -6.783  -7.918   6.332  1.00  0.00     0.000 A 
ENDBRANCH  56  75
BRANCH  68  81
ATOM     81  C   UNL     1       0.868 -12.794   7.318  1.00  0.00    -0.014 A 
ATOM     82  C   UNL     1       1.451 -12.255   6.160  1.00  0.00     0.009 A 
ATOM     83  C   UNL     1       0.766 -14.188   7.445  1.00  0.00     0.009 A 
ATOM     84  C   UNL     1       1.903 -13.096   5.142  1.00  0.00     0.001 A 
ATOM     85  C   UNL     1       1.242 -15.026   6.436  1.00  0.00     0.001 A 
ATOM     86  C   UNL     1       1.803 -14.480   5.283  1.00  0.00     0.000 A 
ENDBRANCH  68  81
ENDBRANCH  42  43
ENDBRANCH  34  37
ENDBRANCH  32  33
ENDBRANCH  31  32
ENDBRANCH  30  31
ENDBRANCH  28  30
ENDBRANCH  24  26
ENDBRANCH   4  24
TORSDOF 19
