REMARK SMILES N#C/C(=C\c1ccc(Oc2ccccc2Cl)c([N+](=O)[O-])c1)C(=O)NCCCNC(=O)c1ccc(-c2c3nc(c(-c4ccccc4)c4ccc([nH]4)c(-c4ccccc4)c4nc(c(-c5ccccc5)c5ccc2[nH]5)C=C4)C=C3)cc1
REMARK SMILES IDX 25 1 24 2 22 3 23 4 3 6 4 7 2 8 1 9 5 10 6 11 21 12 7 13
REMARK SMILES IDX 17 14 8 15 18 16 19 17 20 18 9 19 10 20 11 21 15 22 12 23
REMARK SMILES IDX 14 24 16 25 13 26 26 27 27 28 28 29 29 30 30 32 31 33 32 34
REMARK SMILES IDX 78 35 33 36 77 37 34 38 35 39 36 40 71 41 37 42 76 43 70 44
REMARK SMILES IDX 72 45 38 46 75 47 69 48 68 49 39 51 61 52 46 53 60 54 47 55
REMARK SMILES IDX 50 56 59 57 73 58 48 59 49 60 58 62 74 63 51 64 40 65 41 66
REMARK SMILES IDX 45 67 42 68 44 69 43 70 62 71 63 72 67 73 64 74 66 75 65 76
REMARK SMILES IDX 52 77 53 78 57 79 54 80 56 81 55 82
REMARK H PARENT 24 5 28 31 72 50 50 61
REMARK Flexibility Score: inf
ROOT
ATOM      1  C   UNL     1       6.742   0.127  -0.880  1.00  0.00     0.118 C 
ENDROOT
BRANCH   1   2
ATOM      2  N   UNL     1       5.693  -0.807  -1.247  1.00  0.00    -0.351 N 
ATOM      3  C   UNL     1       4.368  -0.879  -0.940  1.00  0.00     0.261 C 
ATOM      4  O   UNL     1       3.715  -1.762  -1.497  1.00  0.00    -0.268 OA
ATOM      5  H   UNL     1       6.001  -1.534  -1.835  1.00  0.00     0.163 HD
BRANCH   3   6
ATOM      6  C   UNL     1       3.692   0.045   0.012  1.00  0.00     0.117 C 
ATOM      7  C   UNL     1       4.273   0.721   1.034  1.00  0.00     0.033 C 
BRANCH   6   8
ATOM      8  C   UNL     1       2.172   0.045   0.012  1.00  0.00     0.105 C 
ATOM      9  N   UNL     1       0.911   0.045   0.012  1.00  0.00    -0.192 NA
ENDBRANCH   6   8
BRANCH   7  10
ATOM     10  C   UNL     1       3.554   1.566   2.018  1.00  0.00    -0.017 A 
ATOM     11  C   UNL     1       3.939   2.897   2.197  1.00  0.00     0.012 A 
ATOM     12  C   UNL     1       2.459   1.089   2.747  1.00  0.00     0.098 A 
ATOM     13  C   UNL     1       3.211   3.741   3.051  1.00  0.00     0.055 A 
ATOM     14  C   UNL     1       1.686   1.966   3.530  1.00  0.00     0.312 A 
ATOM     15  C   UNL     1       2.061   3.297   3.725  1.00  0.00     0.204 A 
BRANCH  14  16
ATOM     16  N   UNL     1       0.427   1.419   3.991  1.00  0.00     0.066 N 
ATOM     17  O   UNL     1      -0.604   1.852   3.462  1.00  0.00    -0.258 OA
ATOM     18  O   UNL     1       0.487   0.508   4.829  1.00  0.00    -0.258 OA
ENDBRANCH  14  16
BRANCH  15  19
ATOM     19  O   UNL     1       1.473   4.293   4.475  1.00  0.00    -0.449 OA
BRANCH  19  20
ATOM     20  C   UNL     1       0.501   3.999   5.397  1.00  0.00     0.146 A 
ATOM     21  C   UNL     1      -0.775   4.503   5.125  1.00  0.00     0.049 A 
ATOM     22  C   UNL     1       0.737   3.295   6.583  1.00  0.00     0.083 A 
ATOM     23  C   UNL     1      -1.836   4.218   5.984  1.00  0.00     0.004 A 
ATOM     24  C   UNL     1      -0.332   3.000   7.433  1.00  0.00     0.024 A 
ATOM     25  Cl  UNL     1       2.315   2.756   7.027  1.00  0.00    -0.080 Cl
ATOM     26  C   UNL     1      -1.618   3.451   7.127  1.00  0.00     0.002 A 
ENDBRANCH  19  20
ENDBRANCH  15  19
ENDBRANCH   7  10
ENDBRANCH   3   6
ENDBRANCH   1   2
BRANCH   1  27
ATOM     27  C   UNL     1       7.585  -0.381   0.294  1.00  0.00     0.042 C 
BRANCH  27  28
ATOM     28  C   UNL     1       8.583  -1.478  -0.075  1.00  0.00     0.118 C 
BRANCH  28  29
ATOM     29  N   UNL     1       9.632  -0.986  -0.952  1.00  0.00    -0.352 N 
ATOM     30  C   UNL     1      10.996  -1.033  -0.838  1.00  0.00     0.251 C 
ATOM     31  H   UNL     1       9.306  -0.542  -1.768  1.00  0.00     0.163 HD
ATOM     32  O   UNL     1      11.671  -0.355  -1.610  1.00  0.00    -0.269 OA
BRANCH  30  33
ATOM     33  C   UNL     1      11.676  -1.868   0.181  1.00  0.00     0.039 A 
ATOM     34  C   UNL     1      12.878  -1.391   0.719  1.00  0.00     0.014 A 
ATOM     35  C   UNL     1      11.219  -3.140   0.538  1.00  0.00     0.014 A 
ATOM     36  C   UNL     1      13.602  -2.170   1.623  1.00  0.00     0.010 A 
ATOM     37  C   UNL     1      11.915  -3.896   1.487  1.00  0.00     0.010 A 
ATOM     38  C   UNL     1      13.120  -3.425   2.026  1.00  0.00    -0.014 A 
BRANCH  38  39
ATOM     39  C   UNL     1      13.886  -4.242   3.001  1.00  0.00     0.031 A 
ATOM     40  C   UNL     1      14.556  -5.520   2.574  1.00  0.00     0.074 A 
ATOM     41  C   UNL     1      13.978  -3.832   4.280  1.00  0.00     0.049 A 
ATOM     42  N   UNL     1      15.286  -6.345   3.284  1.00  0.00    -0.248 NA
ATOM     43  C   UNL     1      14.371  -5.935   1.175  1.00  0.00     0.031 C 
ATOM     44  C   UNL     1      13.347  -2.630   4.832  1.00  0.00     0.029 A 
ATOM     45  N   UNL     1      14.645  -4.377   5.348  1.00  0.00    -0.354 N 
ATOM     46  C   UNL     1      15.643  -7.374   2.421  1.00  0.00     0.074 A 
ATOM     47  C   UNL     1      15.014  -7.094   1.148  1.00  0.00     0.031 C 
ATOM     48  C   UNL     1      13.679  -2.516   6.128  1.00  0.00     0.029 A 
ATOM     49  C   UNL     1      14.526  -3.643   6.503  1.00  0.00     0.049 A 
ATOM     50  H   UNL     1      15.159  -5.215   5.292  1.00  0.00     0.167 HD
ATOM     51  C   UNL     1      16.437  -8.445   2.659  1.00  0.00     0.031 A 
ATOM     52  C   UNL     1      15.046  -3.851   7.727  1.00  0.00     0.031 A 
ATOM     53  C   UNL     1      17.069  -8.728   3.920  1.00  0.00     0.049 A 
ATOM     54  C   UNL     1      15.935  -5.038   7.959  1.00  0.00     0.074 A 
ATOM     55  C   UNL     1      17.909  -9.779   4.250  1.00  0.00     0.029 A 
ATOM     56  N   UNL     1      16.935  -7.951   5.059  1.00  0.00    -0.354 N 
ATOM     57  N   UNL     1      16.299  -5.974   7.117  1.00  0.00    -0.248 NA
ATOM     58  C   UNL     1      16.500  -5.186   9.308  1.00  0.00     0.031 C 
ATOM     59  C   UNL     1      18.261  -9.652   5.598  1.00  0.00     0.029 A 
ATOM     60  C   UNL     1      17.672  -8.501   6.095  1.00  0.00     0.049 A 
ATOM     61  H   UNL     1      16.396  -7.129   5.123  1.00  0.00     0.167 HD
ATOM     62  C   UNL     1      17.148  -6.811   7.828  1.00  0.00     0.074 A 
ATOM     63  C   UNL     1      17.264  -6.259   9.162  1.00  0.00     0.031 C 
ATOM     64  C   UNL     1      17.773  -7.940   7.415  1.00  0.00     0.031 A 
BRANCH  51  65
ATOM     65  C   UNL     1      16.674  -9.396   1.519  1.00  0.00    -0.014 A 
ATOM     66  C   UNL     1      17.517  -9.044   0.453  1.00  0.00     0.009 A 
ATOM     67  C   UNL     1      16.087 -10.670   1.531  1.00  0.00     0.009 A 
ATOM     68  C   UNL     1      17.746  -9.941  -0.593  1.00  0.00     0.001 A 
ATOM     69  C   UNL     1      16.335 -11.573   0.495  1.00  0.00     0.001 A 
ATOM     70  C   UNL     1      17.159 -11.206  -0.569  1.00  0.00     0.000 A 
ENDBRANCH  51  65
BRANCH  52  71
ATOM     71  C   UNL     1      14.758  -2.897   8.828  1.00  0.00    -0.014 A 
ATOM     72  C   UNL     1      15.752  -2.023   9.292  1.00  0.00     0.009 A 
ATOM     73  C   UNL     1      13.491  -2.869   9.430  1.00  0.00     0.009 A 
ATOM     74  C   UNL     1      15.492  -1.158  10.357  1.00  0.00     0.001 A 
ATOM     75  C   UNL     1      13.226  -1.985  10.477  1.00  0.00     0.001 A 
ATOM     76  C   UNL     1      14.228  -1.138  10.946  1.00  0.00     0.000 A 
ENDBRANCH  52  71
BRANCH  64  77
ATOM     77  C   UNL     1      18.652  -8.633   8.415  1.00  0.00    -0.014 A 
ATOM     78  C   UNL     1      18.101  -9.368   9.477  1.00  0.00     0.009 A 
ATOM     79  C   UNL     1      20.047  -8.560   8.286  1.00  0.00     0.009 A 
ATOM     80  C   UNL     1      18.933  -9.985  10.413  1.00  0.00     0.001 A 
ATOM     81  C   UNL     1      20.876  -9.197   9.210  1.00  0.00     0.001 A 
ATOM     82  C   UNL     1      20.319  -9.901  10.278  1.00  0.00     0.000 A 
ENDBRANCH  64  77
ENDBRANCH  38  39
ENDBRANCH  30  33
ENDBRANCH  28  29
ENDBRANCH  27  28
ENDBRANCH   1  27
TORSDOF 15
