REMARK SMILES Cc1cc(C)c2c(c1)C=C(C(=O)NCCCNC(=O)c1ccc(-c3c4nc(c(-c5ccccc5)c5ccc([nH]5)c(-c5ccccc5)c5nc(c(-c6ccccc6)c6ccc3[nH]6)C=C5)C=C4)cc1)[C@@H](C(F)(F)F)O2
REMARK SMILES IDX 15 1 14 2 13 3 11 4 12 5 10 7 1 8 2 9 3 10 8 11 4 12 7 13
REMARK SMILES IDX 5 14 6 15 9 16 73 17 68 18 69 19 70 20 71 21 72 22 16 23
REMARK SMILES IDX 17 24 18 25 19 27 20 28 21 29 67 30 22 31 66 32 23 33 24 34
REMARK SMILES IDX 25 35 60 36 26 37 65 38 59 39 61 40 27 41 64 42 58 43 57 44
REMARK SMILES IDX 28 46 50 47 35 48 49 49 36 50 39 51 48 52 62 53 37 54 38 55
REMARK SMILES IDX 47 57 63 58 40 59 29 60 30 61 34 62 31 63 33 64 32 65 51 66
REMARK SMILES IDX 52 67 56 68 53 69 55 70 54 71 41 72 42 73 46 74 43 75 45 76
REMARK SMILES IDX 44 77
REMARK H PARENT 13 6 17 26 61 45 39 56
REMARK Flexibility Score: inf
ROOT
ATOM      1  C   UNL     1       0.857   9.709   2.264  1.00  0.00     0.042 C 
ENDROOT
BRANCH   1   2
ATOM      2  C   UNL     1       0.248   9.102   1.009  1.00  0.00     0.118 C 
BRANCH   2   3
ATOM      3  N   UNL     1       1.248   8.423   0.199  1.00  0.00    -0.352 N 
ATOM      4  C   UNL     1       1.586   7.147  -0.099  1.00  0.00     0.251 C 
ATOM      5  O   UNL     1       2.558   7.025  -0.851  1.00  0.00    -0.270 OA
ATOM      6  H   UNL     1       1.839   9.066  -0.255  1.00  0.00     0.163 HD
BRANCH   4   7
ATOM      7  C   UNL     1       0.884   5.935   0.410  1.00  0.00     0.067 C 
ATOM      8  C   UNL     1       0.980  -0.229  -0.015  1.00  0.00     0.044 C 
ATOM      9  C   UNL     1       0.560   1.108   0.519  1.00  0.00    -0.050 A 
ATOM     10  C   UNL     1      -0.466   1.206   1.469  1.00  0.00     0.010 A 
ATOM     11  C   UNL     1       1.169   2.277   0.042  1.00  0.00     0.015 A 
ATOM     12  C   UNL     1      -0.868   2.451   1.966  1.00  0.00    -0.008 A 
ATOM     13  C   UNL     1       0.775   3.528   0.524  1.00  0.00     0.018 A 
ATOM     14  C   UNL     1      -1.963   2.553   2.989  1.00  0.00     0.048 C 
ATOM     15  C   UNL     1      -0.238   3.604   1.483  1.00  0.00     0.130 A 
ATOM     16  C   UNL     1       1.426   4.751   0.071  1.00  0.00     0.025 C 
ATOM     17  O   UNL     1      -0.628   4.796   2.028  1.00  0.00    -0.475 OA
ATOM     18  C   UNL     1      -0.371   5.978   1.231  1.00  0.00     0.314 C 
BRANCH  18  19
ATOM     19  C   UNL     1      -1.623   6.312   0.396  1.00  0.00     0.429 C 
ATOM     20  F   UNL     1      -2.631   6.726   1.206  1.00  0.00    -0.167 F 
ATOM     21  F   UNL     1      -1.407   7.317  -0.487  1.00  0.00    -0.167 F 
ATOM     22  F   UNL     1      -2.080   5.259  -0.316  1.00  0.00    -0.167 F 
ENDBRANCH  18  19
ENDBRANCH   4   7
ENDBRANCH   2   3
ENDBRANCH   1   2
BRANCH   1  23
ATOM     23  C   UNL     1       1.609  10.997   1.960  1.00  0.00     0.118 C 
BRANCH  23  24
ATOM     24  N   UNL     1       0.711  12.047   1.484  1.00  0.00    -0.352 N 
ATOM     25  C   UNL     1       0.188  13.129   2.144  1.00  0.00     0.251 C 
ATOM     26  H   UNL     1       0.439  11.964   0.541  1.00  0.00     0.163 HD
ATOM     27  O   UNL     1      -0.772  13.733   1.672  1.00  0.00    -0.269 OA
BRANCH  25  28
ATOM     28  C   UNL     1       0.780  13.565   3.422  1.00  0.00     0.039 A 
ATOM     29  C   UNL     1      -0.054  13.993   4.457  1.00  0.00     0.014 A 
ATOM     30  C   UNL     1       2.166  13.569   3.584  1.00  0.00     0.014 A 
ATOM     31  C   UNL     1       0.508  14.364   5.679  1.00  0.00     0.010 A 
ATOM     32  C   UNL     1       2.714  13.829   4.830  1.00  0.00     0.010 A 
ATOM     33  C   UNL     1       1.893  14.252   5.883  1.00  0.00    -0.014 A 
BRANCH  33  34
ATOM     34  C   UNL     1       2.514  14.617   7.176  1.00  0.00     0.031 A 
ATOM     35  C   UNL     1       3.489  15.759   7.239  1.00  0.00     0.074 A 
ATOM     36  C   UNL     1       2.231  13.899   8.279  1.00  0.00     0.049 A 
ATOM     37  N   UNL     1       4.150  16.223   8.268  1.00  0.00    -0.248 NA
ATOM     38  C   UNL     1       3.781  16.458   5.975  1.00  0.00     0.031 C 
ATOM     39  C   UNL     1       1.323  12.751   8.332  1.00  0.00     0.029 A 
ATOM     40  N   UNL     1       2.667  14.040   9.571  1.00  0.00    -0.354 N 
ATOM     41  C   UNL     1       4.930  17.261   7.775  1.00  0.00     0.074 A 
ATOM     42  C   UNL     1       4.727  17.306   6.345  1.00  0.00     0.031 C 
ATOM     43  C   UNL     1       1.221  12.333   9.604  1.00  0.00     0.029 A 
ATOM     44  C   UNL     1       2.088  13.153  10.445  1.00  0.00     0.049 A 
ATOM     45  H   UNL     1       3.331  14.713   9.846  1.00  0.00     0.167 HD
ATOM     46  C   UNL     1       5.713  18.129   8.455  1.00  0.00     0.031 A 
ATOM     47  C   UNL     1       2.230  13.026  11.777  1.00  0.00     0.031 A 
ATOM     48  C   UNL     1       5.910  18.084   9.876  1.00  0.00     0.049 A 
ATOM     49  C   UNL     1       3.154  13.960  12.505  1.00  0.00     0.074 A 
ATOM     50  C   UNL     1       6.662  18.931  10.669  1.00  0.00     0.029 A 
ATOM     51  N   UNL     1       5.346  17.137  10.717  1.00  0.00    -0.354 N 
ATOM     52  N   UNL     1       3.847  14.968  12.032  1.00  0.00    -0.248 NA
ATOM     53  C   UNL     1       3.316  13.741  13.949  1.00  0.00     0.031 C 
ATOM     54  C   UNL     1       6.593  18.465  11.985  1.00  0.00     0.029 A 
ATOM     55  C   UNL     1       5.754  17.362  12.019  1.00  0.00     0.049 A 
ATOM     56  H   UNL     1       4.744  16.412  10.430  1.00  0.00     0.167 HD
ATOM     57  C   UNL     1       4.512  15.515  13.121  1.00  0.00     0.074 A 
ATOM     58  C   UNL     1       4.128  14.736  14.281  1.00  0.00     0.031 C 
ATOM     59  C   UNL     1       5.365  16.568  13.157  1.00  0.00     0.031 A 
BRANCH  46  60
ATOM     60  C   UNL     1       6.398  19.204   7.658  1.00  0.00    -0.014 A 
ATOM     61  C   UNL     1       5.658  20.238   7.060  1.00  0.00     0.009 A 
ATOM     62  C   UNL     1       7.793  19.196   7.511  1.00  0.00     0.009 A 
ATOM     63  C   UNL     1       6.296  21.216   6.295  1.00  0.00     0.001 A 
ATOM     64  C   UNL     1       8.431  20.194   6.772  1.00  0.00     0.001 A 
ATOM     65  C   UNL     1       7.682  21.196   6.156  1.00  0.00     0.000 A 
ENDBRANCH  46  60
BRANCH  47  66
ATOM     66  C   UNL     1       1.430  12.009  12.508  1.00  0.00    -0.014 A 
ATOM     67  C   UNL     1       0.361  12.412  13.323  1.00  0.00     0.009 A 
ATOM     68  C   UNL     1       1.696  10.639  12.365  1.00  0.00     0.009 A 
ATOM     69  C   UNL     1      -0.421  11.463  13.985  1.00  0.00     0.001 A 
ATOM     70  C   UNL     1       0.896   9.691  13.010  1.00  0.00     0.001 A 
ATOM     71  C   UNL     1      -0.158  10.104  13.822  1.00  0.00     0.000 A 
ENDBRANCH  47  66
BRANCH  59  72
ATOM     72  C   UNL     1       5.945  16.949  14.488  1.00  0.00    -0.014 A 
ATOM     73  C   UNL     1       6.958  16.178  15.079  1.00  0.00     0.009 A 
ATOM     74  C   UNL     1       5.547  18.145  15.106  1.00  0.00     0.009 A 
ATOM     75  C   UNL     1       7.554  16.595  16.270  1.00  0.00     0.001 A 
ATOM     76  C   UNL     1       6.164  18.572  16.282  1.00  0.00     0.001 A 
ATOM     77  C   UNL     1       7.164  17.795  16.865  1.00  0.00     0.000 A 
ENDBRANCH  59  72
ENDBRANCH  33  34
ENDBRANCH  25  28
ENDBRANCH  23  24
ENDBRANCH   1  23
TORSDOF 11
