REMARK SMILES CC(C)[NH2+][C@@]1(C(=O)NCCCNC(=O)c2ccc(-c3c4nc(c(-c5ccccc5)c5ccc([nH]5)c(-c5ccccc5)c5nc(c(-c6ccccc6)c6ccc3[nH]6)C=C5)C=C4)cc2)CCC[C@@H]([NH+]2CCS(=O)CC2)C1
REMARK SMILES IDX 10 1 9 2 8 3 6 4 7 5 5 7 63 8 74 9 64 10 66 11 65 12 4 13
REMARK SMILES IDX 2 16 1 17 3 18 67 19 68 20 73 21 69 23 72 24 70 25 71 26
REMARK SMILES IDX 11 27 12 28 13 29 14 31 15 32 16 33 62 34 17 35 61 36 18 37
REMARK SMILES IDX 19 38 20 39 55 40 21 41 60 42 54 43 56 44 22 45 59 46 53 47
REMARK SMILES IDX 52 48 23 50 45 51 30 52 44 53 31 54 34 55 43 56 57 57 32 58
REMARK SMILES IDX 33 59 42 61 58 62 35 63 24 64 25 65 29 66 26 67 28 68 27 69
REMARK SMILES IDX 46 70 47 71 51 72 48 73 50 74 49 75 36 76 37 77 41 78 38 79
REMARK SMILES IDX 40 80 39 81
REMARK H PARENT 8 6 4 14 4 15 67 22 12 30 56 49 34 60
REMARK Flexibility Score: inf
ROOT
ATOM      1  C   UNL     1      -4.205  -5.260   2.895  1.00  0.00     0.042 C 
ENDROOT
BRANCH   1   2
ATOM      2  C   UNL     1      -3.988  -4.905   1.427  1.00  0.00     0.118 C 
BRANCH   2   3
ATOM      3  N   UNL     1      -3.934  -3.479   1.197  1.00  0.00    -0.351 N 
ATOM      4  C   UNL     1      -2.958  -2.577   0.942  1.00  0.00     0.281 C 
ATOM      5  O   UNL     1      -3.397  -1.413   0.857  1.00  0.00    -0.268 OA
ATOM      6  H   UNL     1      -4.825  -3.062   1.236  1.00  0.00     0.163 HD
BRANCH   4   7
ATOM      7  C   UNL     1      -1.367  -2.821   0.860  1.00  0.00     0.181 C 
ATOM      8  C   UNL     1      -0.935  -3.889  -0.161  1.00  0.00     0.079 C 
ATOM      9  C   UNL     1      -0.851  -3.051   2.281  1.00  0.00     0.144 C 
ATOM     10  C   UNL     1      -0.674  -5.309   0.343  1.00  0.00     0.013 C 
ATOM     11  C   UNL     1      -0.829  -4.486   2.797  1.00  0.00     0.190 C 
ATOM     12  C   UNL     1      -0.164  -5.428   1.778  1.00  0.00     0.065 C 
BRANCH   7  13
ATOM     13  N   UNL     1      -0.881  -1.485   0.358  1.00  0.00    -0.331 N 
ATOM     14  H   UNL     1      -1.258  -1.397  -0.586  1.00  0.00     0.347 HD
ATOM     15  H   UNL     1      -1.188  -0.884   1.123  1.00  0.00     0.347 HD
BRANCH  13  16
ATOM     16  C   UNL     1       0.519  -1.076   0.256  1.00  0.00     0.176 C 
ATOM     17  C   UNL     1       0.534   0.177  -0.635  1.00  0.00     0.075 C 
ATOM     18  C   UNL     1       1.221  -0.699   1.567  1.00  0.00     0.075 C 
ENDBRANCH  13  16
ENDBRANCH   7  13
BRANCH  11  19
ATOM     19  N   UNL     1      -0.352  -4.648   4.190  1.00  0.00    -0.331 N 
ATOM     20  C   UNL     1       1.062  -4.934   4.442  1.00  0.00     0.276 C 
ATOM     21  C   UNL     1      -0.874  -3.704   5.193  1.00  0.00     0.276 C 
ATOM     22  H   UNL     1      -0.819  -5.544   4.331  1.00  0.00     0.348 HD
ATOM     23  C   UNL     1       1.985  -3.732   4.327  1.00  0.00     0.166 C 
ATOM     24  C   UNL     1      -0.164  -2.351   5.324  1.00  0.00     0.166 C 
ATOM     25  S   UNL     1       1.627  -2.460   5.567  1.00  0.00     0.032 S 
ATOM     26  O   UNL     1       1.884  -3.037   6.926  1.00  0.00    -0.259 OA
ENDBRANCH  11  19
ENDBRANCH   4   7
ENDBRANCH   2   3
ENDBRANCH   1   2
BRANCH   1  27
ATOM     27  C   UNL     1      -5.644  -5.577   3.252  1.00  0.00     0.118 C 
BRANCH  27  28
ATOM     28  N   UNL     1      -6.099  -6.825   2.650  1.00  0.00    -0.352 N 
ATOM     29  C   UNL     1      -6.443  -8.025   3.218  1.00  0.00     0.251 C 
ATOM     30  H   UNL     1      -6.172  -6.802   1.668  1.00  0.00     0.163 HD
ATOM     31  O   UNL     1      -6.596  -9.009   2.489  1.00  0.00    -0.269 OA
BRANCH  29  32
ATOM     32  C   UNL     1      -6.620  -8.166   4.680  1.00  0.00     0.039 A 
ATOM     33  C   UNL     1      -6.290  -9.380   5.293  1.00  0.00     0.014 A 
ATOM     34  C   UNL     1      -7.144  -7.128   5.452  1.00  0.00     0.014 A 
ATOM     35  C   UNL     1      -6.435  -9.526   6.675  1.00  0.00     0.010 A 
ATOM     36  C   UNL     1      -7.162  -7.228   6.837  1.00  0.00     0.010 A 
ATOM     37  C   UNL     1      -6.839  -8.438   7.464  1.00  0.00    -0.014 A 
BRANCH  37  38
ATOM     38  C   UNL     1      -6.984  -8.551   8.937  1.00  0.00     0.031 A 
ATOM     39  C   UNL     1      -8.323  -8.295   9.582  1.00  0.00     0.074 A 
ATOM     40  C   UNL     1      -5.906  -8.823   9.698  1.00  0.00     0.049 A 
ATOM     41  N   UNL     1      -8.640  -8.280  10.852  1.00  0.00    -0.248 NA
ATOM     42  C   UNL     1      -9.447  -7.978   8.684  1.00  0.00     0.031 C 
ATOM     43  C   UNL     1      -4.546  -9.042   9.200  1.00  0.00     0.029 A 
ATOM     44  N   UNL     1      -5.786  -8.959  11.058  1.00  0.00    -0.354 N 
ATOM     45  C   UNL     1      -9.983  -7.926  10.901  1.00  0.00     0.074 A 
ATOM     46  C   UNL     1     -10.405  -7.671   9.543  1.00  0.00     0.031 C 
ATOM     47  C   UNL     1      -3.739  -9.327  10.234  1.00  0.00     0.029 A 
ATOM     48  C   UNL     1      -4.511  -9.264  11.470  1.00  0.00     0.049 A 
ATOM     49  H   UNL     1      -6.541  -8.849  11.680  1.00  0.00     0.167 HD
ATOM     50  C   UNL     1     -10.804  -7.849  11.975  1.00  0.00     0.031 A 
ATOM     51  C   UNL     1      -4.019  -9.467  12.706  1.00  0.00     0.031 A 
ATOM     52  C   UNL     1     -10.387  -8.128  13.322  1.00  0.00     0.049 A 
ATOM     53  C   UNL     1      -4.949  -9.374  13.884  1.00  0.00     0.074 A 
ATOM     54  C   UNL     1     -11.150  -8.140  14.476  1.00  0.00     0.029 A 
ATOM     55  N   UNL     1      -9.090  -8.445  13.694  1.00  0.00    -0.354 N 
ATOM     56  N   UNL     1      -6.233  -9.110  13.905  1.00  0.00    -0.248 NA
ATOM     57  C   UNL     1      -4.362  -9.623  15.208  1.00  0.00     0.031 C 
ATOM     58  C   UNL     1     -10.303  -8.411  15.554  1.00  0.00     0.029 A 
ATOM     59  C   UNL     1      -9.025  -8.632  15.064  1.00  0.00     0.049 A 
ATOM     60  H   UNL     1      -8.328  -8.526  13.076  1.00  0.00     0.167 HD
ATOM     61  C   UNL     1      -6.614  -9.190  15.239  1.00  0.00     0.074 A 
ATOM     62  C   UNL     1      -5.428  -9.547  15.991  1.00  0.00     0.031 C 
ATOM     63  C   UNL     1      -7.835  -8.986  15.792  1.00  0.00     0.031 A 
BRANCH  50  64
ATOM     64  C   UNL     1     -12.233  -7.445  11.730  1.00  0.00    -0.014 A 
ATOM     65  C   UNL     1     -13.121  -8.282  11.034  1.00  0.00     0.009 A 
ATOM     66  C   UNL     1     -12.707  -6.219  12.222  1.00  0.00     0.009 A 
ATOM     67  C   UNL     1     -14.438  -7.881  10.798  1.00  0.00     0.001 A 
ATOM     68  C   UNL     1     -14.033  -5.836  12.015  1.00  0.00     0.001 A 
ATOM     69  C   UNL     1     -14.894  -6.661  11.294  1.00  0.00     0.000 A 
ENDBRANCH  50  64
BRANCH  51  70
ATOM     70  C   UNL     1      -2.581  -9.800  12.893  1.00  0.00    -0.014 A 
ATOM     71  C   UNL     1      -2.196 -11.080  13.324  1.00  0.00     0.009 A 
ATOM     72  C   UNL     1      -1.586  -8.842  12.648  1.00  0.00     0.009 A 
ATOM     73  C   UNL     1      -0.849 -11.382  13.534  1.00  0.00     0.001 A 
ATOM     74  C   UNL     1      -0.237  -9.157  12.827  1.00  0.00     0.001 A 
ATOM     75  C   UNL     1       0.130 -10.422  13.280  1.00  0.00     0.000 A 
ENDBRANCH  51  70
BRANCH  63  76
ATOM     76  C   UNL     1      -7.956  -9.185  17.277  1.00  0.00    -0.014 A 
ATOM     77  C   UNL     1      -7.381  -8.283  18.186  1.00  0.00     0.009 A 
ATOM     78  C   UNL     1      -8.691 -10.274  17.771  1.00  0.00     0.009 A 
ATOM     79  C   UNL     1      -7.507  -8.491  19.561  1.00  0.00     0.001 A 
ATOM     80  C   UNL     1      -8.845 -10.460  19.145  1.00  0.00     0.001 A 
ATOM     81  C   UNL     1      -8.243  -9.575  20.038  1.00  0.00     0.000 A 
ENDBRANCH  63  76
ENDBRANCH  37  38
ENDBRANCH  29  32
ENDBRANCH  27  28
ENDBRANCH   1  27
TORSDOF 13
