REMARK SMILES C[C@@](NC(=O)NCC(N)=O)(C(=O)NCCCNC(=O)c1ccc(-c2c3nc(c(-c4ccccc4)c4ccc([nH]4)c(-c4ccccc4)c4nc(c(-c5ccccc5)c5ccc2[nH]5)C=C4)C=C3)cc1)C(F)(F)F
REMARK SMILES IDX 14 1 13 2 11 3 12 4 2 6 1 7 3 8 4 9 5 11 6 12 7 14 8 15 9 16
REMARK SMILES IDX 10 17 68 20 69 21 70 22 71 23 15 24 16 25 17 26 18 27 19 29
REMARK SMILES IDX 20 30 21 31 67 32 22 33 66 34 23 35 24 36 25 37 60 38 26 39
REMARK SMILES IDX 65 40 59 41 61 42 27 43 64 44 58 45 57 46 28 48 50 49 35 50
REMARK SMILES IDX 49 51 36 52 39 53 48 54 62 55 37 56 38 57 47 59 63 60 40 61
REMARK SMILES IDX 29 62 30 63 34 64 31 65 33 66 32 67 51 68 52 69 56 70 53 71
REMARK SMILES IDX 55 72 54 73 41 74 42 75 46 76 43 77 45 78 44 79
REMARK H PARENT 13 5 3 10 6 13 9 18 9 19 17 28 61 47 39 58
REMARK Flexibility Score: inf
ROOT
ATOM      1  C   UNL     1      -0.884  -1.158   1.748  1.00  0.00     0.117 C 
ENDROOT
BRANCH   1   2
ATOM      2  N   UNL     1      -1.229  -0.247   0.665  1.00  0.00    -0.354 N 
ATOM      3  C   UNL     1      -0.647  -0.076  -0.561  1.00  0.00     0.255 C 
ATOM      4  O   UNL     1      -1.176   0.769  -1.286  1.00  0.00    -0.272 OA
ATOM      5  H   UNL     1      -2.001   0.337   0.844  1.00  0.00     0.163 HD
BRANCH   3   6
ATOM      6  C   UNL     1       0.665  -0.784  -0.923  1.00  0.00     0.213 C 
ATOM      7  C   UNL     1       1.758   0.029  -0.181  1.00  0.00     0.056 C 
BRANCH   6   8
ATOM      8  N   UNL     1       0.738  -2.199  -0.442  1.00  0.00    -0.316 N 
ATOM      9  C   UNL     1       0.098  -3.334  -0.746  1.00  0.00     0.316 C 
ATOM     10  H   UNL     1       1.415  -2.324   0.262  1.00  0.00     0.166 HD
ATOM     11  O   UNL     1       0.658  -4.382  -0.423  1.00  0.00    -0.249 OA
ATOM     12  N   UNL     1      -1.101  -3.406  -1.323  1.00  0.00    -0.329 N 
ATOM     13  H   UNL     1      -1.314  -4.308  -1.654  1.00  0.00     0.165 HD
BRANCH  12  14
ATOM     14  C   UNL     1      -2.158  -2.449  -1.570  1.00  0.00     0.217 C 
BRANCH  14  15
ATOM     15  C   UNL     1      -3.278  -2.963  -2.467  1.00  0.00     0.236 C 
ATOM     16  N   UNL     1      -4.383  -2.157  -2.496  1.00  0.00    -0.368 N 
ATOM     17  O   UNL     1      -3.208  -3.981  -3.145  1.00  0.00    -0.273 OA
ATOM     18  H   UNL     1      -4.415  -1.344  -1.942  1.00  0.00     0.159 HD
ATOM     19  H   UNL     1      -5.147  -2.389  -3.072  1.00  0.00     0.159 HD
ENDBRANCH  14  15
ENDBRANCH  12  14
ENDBRANCH   6   8
BRANCH   6  20
ATOM     20  C   UNL     1       0.955  -0.645  -2.434  1.00  0.00     0.420 C 
ATOM     21  F   UNL     1       1.009   0.643  -2.841  1.00  0.00    -0.168 F 
ATOM     22  F   UNL     1       2.175  -1.180  -2.716  1.00  0.00    -0.168 F 
ATOM     23  F   UNL     1       0.064  -1.288  -3.216  1.00  0.00    -0.168 F 
ENDBRANCH   6  20
ENDBRANCH   3   6
ENDBRANCH   1   2
BRANCH   1  24
ATOM     24  C   UNL     1      -1.248  -0.572   3.098  1.00  0.00     0.042 C 
BRANCH  24  25
ATOM     25  C   UNL     1      -2.746  -0.529   3.338  1.00  0.00     0.118 C 
BRANCH  25  26
ATOM     26  N   UNL     1      -3.310  -1.838   3.633  1.00  0.00    -0.352 N 
ATOM     27  C   UNL     1      -4.128  -2.195   4.678  1.00  0.00     0.251 C 
ATOM     28  H   UNL     1      -3.076  -2.558   3.004  1.00  0.00     0.163 HD
ATOM     29  O   UNL     1      -4.404  -3.373   4.881  1.00  0.00    -0.269 OA
BRANCH  27  30
ATOM     30  C   UNL     1      -4.638  -1.144   5.583  1.00  0.00     0.039 A 
ATOM     31  C   UNL     1      -4.529  -1.330   6.961  1.00  0.00     0.014 A 
ATOM     32  C   UNL     1      -5.157   0.047   5.067  1.00  0.00     0.014 A 
ATOM     33  C   UNL     1      -4.883  -0.291   7.821  1.00  0.00     0.010 A 
ATOM     34  C   UNL     1      -5.406   1.116   5.920  1.00  0.00     0.010 A 
ATOM     35  C   UNL     1      -5.286   0.955   7.307  1.00  0.00    -0.014 A 
BRANCH  35  36
ATOM     36  C   UNL     1      -5.585   2.087   8.220  1.00  0.00     0.031 A 
ATOM     37  C   UNL     1      -6.965   2.684   8.268  1.00  0.00     0.074 A 
ATOM     38  C   UNL     1      -4.603   2.591   8.993  1.00  0.00     0.049 A 
ATOM     39  N   UNL     1      -7.426   3.628   9.049  1.00  0.00    -0.248 NA
ATOM     40  C   UNL     1      -7.949   2.177   7.298  1.00  0.00     0.031 C 
ATOM     41  C   UNL     1      -3.206   2.148   8.989  1.00  0.00     0.029 A 
ATOM     42  N   UNL     1      -4.634   3.576   9.947  1.00  0.00    -0.354 N 
ATOM     43  C   UNL     1      -8.745   3.829   8.659  1.00  0.00     0.074 A 
ATOM     44  C   UNL     1      -8.990   2.962   7.529  1.00  0.00     0.031 C 
ATOM     45  C   UNL     1      -2.530   2.817   9.937  1.00  0.00     0.029 A 
ATOM     46  C   UNL     1      -3.434   3.756  10.591  1.00  0.00     0.049 A 
ATOM     47  H   UNL     1      -5.440   4.104  10.152  1.00  0.00     0.167 HD
ATOM     48  C   UNL     1      -9.680   4.638   9.210  1.00  0.00     0.031 A 
ATOM     49  C   UNL     1      -3.102   4.574  11.608  1.00  0.00     0.031 A 
ATOM     50  C   UNL     1      -9.438   5.497  10.339  1.00  0.00     0.049 A 
ATOM     51  C   UNL     1      -4.162   5.452  12.212  1.00  0.00     0.074 A 
ATOM     52  C   UNL     1     -10.331   6.316  11.007  1.00  0.00     0.029 A 
ATOM     53  N   UNL     1      -8.210   5.649  10.963  1.00  0.00    -0.354 N 
ATOM     54  N   UNL     1      -5.428   5.565  11.889  1.00  0.00    -0.248 NA
ATOM     55  C   UNL     1      -3.748   6.298  13.340  1.00  0.00     0.031 C 
ATOM     56  C   UNL     1      -9.630   7.004  12.003  1.00  0.00     0.029 A 
ATOM     57  C   UNL     1      -8.315   6.565  11.996  1.00  0.00     0.049 A 
ATOM     58  H   UNL     1      -7.385   5.176  10.710  1.00  0.00     0.167 HD
ATOM     59  C   UNL     1      -5.968   6.472  12.791  1.00  0.00     0.074 A 
ATOM     60  C   UNL     1      -4.898   6.857  13.688  1.00  0.00     0.031 C 
ATOM     61  C   UNL     1      -7.237   6.946  12.871  1.00  0.00     0.031 A 
BRANCH  48  62
ATOM     62  C   UNL     1     -11.052   4.628   8.592  1.00  0.00    -0.014 A 
ATOM     63  C   UNL     1     -11.886   3.501   8.686  1.00  0.00     0.009 A 
ATOM     64  C   UNL     1     -11.529   5.769   7.928  1.00  0.00     0.009 A 
ATOM     65  C   UNL     1     -13.151   3.502   8.094  1.00  0.00     0.001 A 
ATOM     66  C   UNL     1     -12.807   5.779   7.365  1.00  0.00     0.001 A 
ATOM     67  C   UNL     1     -13.612   4.643   7.439  1.00  0.00     0.000 A 
ENDBRANCH  48  62
BRANCH  49  68
ATOM     68  C   UNL     1      -1.717   4.571  12.149  1.00  0.00    -0.014 A 
ATOM     69  C   UNL     1      -1.451   4.062  13.430  1.00  0.00     0.009 A 
ATOM     70  C   UNL     1      -0.654   5.087  11.391  1.00  0.00     0.009 A 
ATOM     71  C   UNL     1      -0.156   4.102  13.954  1.00  0.00     0.001 A 
ATOM     72  C   UNL     1       0.644   5.095  11.905  1.00  0.00     0.001 A 
ATOM     73  C   UNL     1       0.890   4.614  13.189  1.00  0.00     0.000 A 
ENDBRANCH  49  68
BRANCH  61  74
ATOM     74  C   UNL     1      -7.534   7.905  13.990  1.00  0.00    -0.014 A 
ATOM     75  C   UNL     1      -6.998   9.203  14.007  1.00  0.00     0.009 A 
ATOM     76  C   UNL     1      -8.368   7.502  15.045  1.00  0.00     0.009 A 
ATOM     77  C   UNL     1      -7.246  10.055  15.085  1.00  0.00     0.001 A 
ATOM     78  C   UNL     1      -8.644   8.369  16.103  1.00  0.00     0.001 A 
ATOM     79  C   UNL     1      -8.069   9.639  16.130  1.00  0.00     0.000 A 
ENDBRANCH  61  74
ENDBRANCH  35  36
ENDBRANCH  27  30
ENDBRANCH  25  26
ENDBRANCH  24  25
ENDBRANCH   1  24
TORSDOF 14
