REMARK SMILES CC[C@H](C)[C@H](NC(=O)[C@H](C(C)C)n1c(=O)[nH]c2ccccc2c1=O)C(=O)NCCCNC(=O)c1ccc(-c2c3nc(c(-c4ccccc4)c4ccc([nH]4)c(-c4ccccc4)c4nc(c(-c5ccccc5)c5ccc2[nH]5)C=C4)C=C3)cc1
REMARK SMILES IDX 28 1 27 2 25 3 26 4 5 6 3 7 4 8 2 9 1 10 6 11 7 12 8 14 9 15
REMARK SMILES IDX 13 16 14 17 23 18 15 19 16 20 22 21 24 22 17 23 21 25 18 26
REMARK SMILES IDX 20 27 19 28 10 29 11 30 12 31 29 32 30 33 31 34 32 35 33 37
REMARK SMILES IDX 34 38 35 39 81 40 36 41 80 42 37 43 38 44 39 45 74 46 40 47
REMARK SMILES IDX 79 48 73 49 75 50 41 51 78 52 72 53 71 54 42 56 64 57 49 58
REMARK SMILES IDX 63 59 50 60 53 61 62 62 76 63 51 64 52 65 61 67 77 68 54 69
REMARK SMILES IDX 43 70 44 71 48 72 45 73 47 74 46 75 65 76 66 77 70 78 67 79
REMARK SMILES IDX 69 80 68 81 55 82 56 83 60 84 57 85 59 86 58 87
REMARK H PARENT 27 5 6 13 16 24 31 36 75 55 53 66
REMARK Flexibility Score: inf
ROOT
ATOM      1  C   UNL     1      -2.096  -0.067   2.063  1.00  0.00     0.117 C 
ENDROOT
BRANCH   1   2
ATOM      2  N   UNL     1      -0.650   0.088   2.018  1.00  0.00    -0.354 N 
ATOM      3  C   UNL     1       0.143   1.144   2.354  1.00  0.00     0.242 C 
ATOM      4  O   UNL     1       1.290   0.868   2.722  1.00  0.00    -0.273 OA
ATOM      5  H   UNL     1      -0.163  -0.703   1.691  1.00  0.00     0.163 HD
BRANCH   3   6
ATOM      6  C   UNL     1      -0.395   2.586   2.448  1.00  0.00     0.174 C 
BRANCH   6   7
ATOM      7  C   UNL     1      -0.792   2.908   3.930  1.00  0.00     0.018 C 
ATOM      8  C   UNL     1      -1.532   4.248   4.038  1.00  0.00     0.010 C 
BRANCH   7   9
ATOM      9  C   UNL     1      -1.585   1.796   4.660  1.00  0.00     0.002 C 
ATOM     10  C   UNL     1      -1.612   1.940   6.176  1.00  0.00     0.004 C 
ENDBRANCH   7   9
ENDBRANCH   6   7
BRANCH   6  11
ATOM     11  N   UNL     1      -1.443   2.867   1.471  1.00  0.00    -0.342 N 
ATOM     12  C   UNL     1      -1.461   3.174   0.156  1.00  0.00     0.244 C 
ATOM     13  H   UNL     1      -2.346   2.822   1.862  1.00  0.00     0.164 HD
ATOM     14  O   UNL     1      -2.616   3.285  -0.290  1.00  0.00    -0.273 OA
BRANCH  12  15
ATOM     15  C   UNL     1      -0.263   3.506  -0.783  1.00  0.00     0.187 C 
BRANCH  15  16
ATOM     16  N   UNL     1       0.133   4.935  -0.664  1.00  0.00    -0.247 N 
ATOM     17  C   UNL     1      -0.551   5.849  -1.468  1.00  0.00     0.329 A 
ATOM     18  C   UNL     1       1.122   5.331   0.226  1.00  0.00     0.264 A 
ATOM     19  O   UNL     1      -1.341   5.553  -2.363  1.00  0.00    -0.248 OA
ATOM     20  N   UNL     1      -0.317   7.176  -1.248  1.00  0.00    -0.307 N 
ATOM     21  C   UNL     1       1.312   6.774   0.451  1.00  0.00     0.064 A 
ATOM     22  O   UNL     1       1.856   4.576   0.850  1.00  0.00    -0.268 OA
ATOM     23  C   UNL     1       0.560   7.667  -0.293  1.00  0.00     0.055 A 
ATOM     24  H   UNL     1      -0.804   7.827  -1.803  1.00  0.00     0.171 HD
ATOM     25  C   UNL     1       2.211   7.243   1.415  1.00  0.00     0.016 A 
ATOM     26  C   UNL     1       0.683   9.040  -0.082  1.00  0.00     0.027 A 
ATOM     27  C   UNL     1       2.332   8.614   1.640  1.00  0.00     0.001 A 
ATOM     28  C   UNL     1       1.565   9.511   0.894  1.00  0.00     0.002 A 
ENDBRANCH  15  16
BRANCH  15  29
ATOM     29  C   UNL     1       0.809   2.454  -1.205  1.00  0.00     0.016 C 
ATOM     30  C   UNL     1       1.811   1.900  -0.199  1.00  0.00     0.010 C 
ATOM     31  C   UNL     1       0.131   1.253  -1.896  1.00  0.00     0.010 C 
ENDBRANCH  15  29
ENDBRANCH  12  15
ENDBRANCH   6  11
ENDBRANCH   3   6
ENDBRANCH   1   2
BRANCH   1  32
ATOM     32  C   UNL     1      -2.666  -0.730   0.825  1.00  0.00     0.042 C 
BRANCH  32  33
ATOM     33  C   UNL     1      -1.952  -2.021   0.454  1.00  0.00     0.118 C 
BRANCH  33  34
ATOM     34  N   UNL     1      -1.987  -3.026   1.516  1.00  0.00    -0.352 N 
ATOM     35  C   UNL     1      -2.808  -4.110   1.708  1.00  0.00     0.251 C 
ATOM     36  H   UNL     1      -1.304  -2.903   2.215  1.00  0.00     0.163 HD
ATOM     37  O   UNL     1      -2.776  -4.725   2.771  1.00  0.00    -0.269 OA
BRANCH  35  38
ATOM     38  C   UNL     1      -3.764  -4.506   0.658  1.00  0.00     0.039 A 
ATOM     39  C   UNL     1      -3.380  -4.502  -0.679  1.00  0.00     0.014 A 
ATOM     40  C   UNL     1      -5.072  -4.852   1.010  1.00  0.00     0.014 A 
ATOM     41  C   UNL     1      -4.346  -4.590  -1.668  1.00  0.00     0.010 A 
ATOM     42  C   UNL     1      -6.019  -5.078   0.008  1.00  0.00     0.010 A 
ATOM     43  C   UNL     1      -5.678  -4.883  -1.339  1.00  0.00    -0.014 A 
BRANCH  43  44
ATOM     44  C   UNL     1      -6.688  -4.982  -2.422  1.00  0.00     0.031 A 
ATOM     45  C   UNL     1      -7.873  -4.056  -2.458  1.00  0.00     0.074 A 
ATOM     46  C   UNL     1      -6.496  -5.874  -3.414  1.00  0.00     0.049 A 
ATOM     47  N   UNL     1      -8.860  -4.021  -3.318  1.00  0.00    -0.248 NA
ATOM     48  C   UNL     1      -7.973  -3.042  -1.396  1.00  0.00     0.031 C 
ATOM     49  C   UNL     1      -5.364  -6.799  -3.508  1.00  0.00     0.029 A 
ATOM     50  N   UNL     1      -7.222  -6.124  -4.551  1.00  0.00    -0.354 N 
ATOM     51  C   UNL     1      -9.713  -3.017  -2.878  1.00  0.00     0.074 A 
ATOM     52  C   UNL     1      -9.139  -2.471  -1.670  1.00  0.00     0.031 C 
ATOM     53  C   UNL     1      -5.427  -7.454  -4.674  1.00  0.00     0.029 A 
ATOM     54  C   UNL     1      -6.654  -7.073  -5.364  1.00  0.00     0.049 A 
ATOM     55  H   UNL     1      -8.068  -5.667  -4.763  1.00  0.00     0.167 HD
ATOM     56  C   UNL     1     -10.870  -2.591  -3.437  1.00  0.00     0.031 A 
ATOM     57  C   UNL     1      -7.079  -7.607  -6.524  1.00  0.00     0.031 A 
ATOM     58  C   UNL     1     -11.414  -3.113  -4.663  1.00  0.00     0.049 A 
ATOM     59  C   UNL     1      -8.390  -7.158  -7.092  1.00  0.00     0.074 A 
ATOM     60  C   UNL     1     -12.557  -2.712  -5.331  1.00  0.00     0.029 A 
ATOM     61  N   UNL     1     -10.853  -4.141  -5.404  1.00  0.00    -0.354 N 
ATOM     62  N   UNL     1      -9.194  -6.220  -6.653  1.00  0.00    -0.248 NA
ATOM     63  C   UNL     1      -8.867  -7.851  -8.295  1.00  0.00     0.031 C 
ATOM     64  C   UNL     1     -12.722  -3.540  -6.444  1.00  0.00     0.029 A 
ATOM     65  C   UNL     1     -11.648  -4.415  -6.502  1.00  0.00     0.049 A 
ATOM     66  H   UNL     1     -10.014  -4.607  -5.182  1.00  0.00     0.167 HD
ATOM     67  C   UNL     1     -10.274  -6.210  -7.523  1.00  0.00     0.074 A 
ATOM     68  C   UNL     1     -10.013  -7.221  -8.528  1.00  0.00     0.031 C 
ATOM     69  C   UNL     1     -11.383  -5.435  -7.484  1.00  0.00     0.031 A 
BRANCH  56  70
ATOM     70  C   UNL     1     -11.657  -1.527  -2.724  1.00  0.00    -0.014 A 
ATOM     71  C   UNL     1     -12.886  -1.861  -2.131  1.00  0.00     0.009 A 
ATOM     72  C   UNL     1     -11.244  -0.186  -2.720  1.00  0.00     0.009 A 
ATOM     73  C   UNL     1     -13.691  -0.874  -1.559  1.00  0.00     0.001 A 
ATOM     74  C   UNL     1     -12.040   0.796  -2.125  1.00  0.00     0.001 A 
ATOM     75  C   UNL     1     -13.266   0.453  -1.554  1.00  0.00     0.000 A 
ENDBRANCH  56  70
BRANCH  57  76
ATOM     76  C   UNL     1      -6.247  -8.642  -7.188  1.00  0.00    -0.014 A 
ATOM     77  C   UNL     1      -6.075  -9.905  -6.596  1.00  0.00     0.009 A 
ATOM     78  C   UNL     1      -5.541  -8.341  -8.361  1.00  0.00     0.009 A 
ATOM     79  C   UNL     1      -5.181 -10.829  -7.139  1.00  0.00     0.001 A 
ATOM     80  C   UNL     1      -4.669  -9.280  -8.919  1.00  0.00     0.001 A 
ATOM     81  C   UNL     1      -4.479 -10.516  -8.301  1.00  0.00     0.000 A 
ENDBRANCH  57  76
BRANCH  69  82
ATOM     82  C   UNL     1     -12.417  -5.641  -8.552  1.00  0.00    -0.014 A 
ATOM     83  C   UNL     1     -12.594  -4.669  -9.550  1.00  0.00     0.009 A 
ATOM     84  C   UNL     1     -13.291  -6.736  -8.500  1.00  0.00     0.009 A 
ATOM     85  C   UNL     1     -13.643  -4.778 -10.463  1.00  0.00     0.001 A 
ATOM     86  C   UNL     1     -14.325  -6.855  -9.431  1.00  0.00     0.001 A 
ATOM     87  C   UNL     1     -14.506  -5.871 -10.403  1.00  0.00     0.000 A 
ENDBRANCH  69  82
ENDBRANCH  43  44
ENDBRANCH  35  38
ENDBRANCH  33  34
ENDBRANCH  32  33
ENDBRANCH   1  32
TORSDOF 16
