REMARK SMILES O=C(NCCCNC(=O)[C@H]1Cc2cc(O)ccc2C[NH2+]1)c1ccc(-c2c3nc(c(-c4ccccc4)c4ccc([nH]4)c(-c4ccccc4)c4nc(c(-c5ccccc5)c5ccc2[nH]5)C=C4)C=C3)cc1
REMARK SMILES IDX 4 1 3 2 1 3 2 4 21 6 22 7 68 8 23 9 67 10 24 11 25 12 26 13
REMARK SMILES IDX 61 14 27 15 66 16 60 17 62 18 28 19 65 20 59 21 58 22 29 24
REMARK SMILES IDX 51 25 36 26 50 27 37 28 40 29 49 30 63 31 38 32 39 33 48 35
REMARK SMILES IDX 64 36 41 37 30 38 31 39 35 40 32 41 34 42 33 43 52 44 53 45
REMARK SMILES IDX 57 46 54 47 56 48 55 49 42 50 43 51 47 52 44 53 46 54 45 55
REMARK SMILES IDX 5 56 6 57 7 58 8 59 9 61 10 62 11 63 20 64 12 65 19 66 13 69
REMARK SMILES IDX 18 70 14 71 17 72 16 73 15 74
REMARK H PARENT 3 5 62 23 40 34 7 60 20 67 20 68 15 75
REMARK Flexibility Score: inf
ROOT
ATOM      1  C   UNL     1       4.656   0.030  -1.436  1.00  0.00     0.118 C 
ENDROOT
BRANCH   1   2
ATOM      2  N   UNL     1       3.220   0.164  -1.234  1.00  0.00    -0.352 N 
ATOM      3  O   UNL     1       1.242   0.093  -0.185  1.00  0.00    -0.269 OA
ATOM      4  C   UNL     1       2.463   0.180  -0.090  1.00  0.00     0.251 C 
ATOM      5  H   UNL     1       2.701   0.259  -2.065  1.00  0.00     0.163 HD
BRANCH   4   6
ATOM      6  C   UNL     1       3.080   0.302   1.252  1.00  0.00     0.039 A 
ATOM      7  C   UNL     1       2.462  -0.339   2.333  1.00  0.00     0.014 A 
ATOM      8  C   UNL     1       4.193   1.112   1.483  1.00  0.00     0.014 A 
ATOM      9  C   UNL     1       2.969  -0.183   3.627  1.00  0.00     0.010 A 
ATOM     10  C   UNL     1       4.758   1.188   2.753  1.00  0.00     0.010 A 
ATOM     11  C   UNL     1       4.128   0.576   3.846  1.00  0.00    -0.014 A 
BRANCH  11  12
ATOM     12  C   UNL     1       4.639   0.833   5.216  1.00  0.00     0.031 A 
ATOM     13  C   UNL     1       4.647   2.242   5.753  1.00  0.00     0.074 A 
ATOM     14  C   UNL     1       5.118  -0.176   5.967  1.00  0.00     0.049 A 
ATOM     15  N   UNL     1       5.116   2.691   6.889  1.00  0.00    -0.248 NA
ATOM     16  C   UNL     1       4.076   3.289   4.887  1.00  0.00     0.031 C 
ATOM     17  C   UNL     1       5.178  -1.581   5.561  1.00  0.00     0.029 A 
ATOM     18  N   UNL     1       5.641  -0.173   7.236  1.00  0.00    -0.354 N 
ATOM     19  C   UNL     1       4.922   4.067   6.859  1.00  0.00     0.074 A 
ATOM     20  C   UNL     1       4.342   4.388   5.575  1.00  0.00     0.031 C 
ATOM     21  C   UNL     1       5.667  -2.310   6.578  1.00  0.00     0.029 A 
ATOM     22  C   UNL     1       5.992  -1.421   7.690  1.00  0.00     0.049 A 
ATOM     23  H   UNL     1       5.753   0.646   7.771  1.00  0.00     0.167 HD
ATOM     24  C   UNL     1       5.177   4.981   7.823  1.00  0.00     0.031 A 
ATOM     25  C   UNL     1       6.511  -1.807   8.871  1.00  0.00     0.031 A 
ATOM     26  C   UNL     1       5.713   4.659   9.117  1.00  0.00     0.049 A 
ATOM     27  C   UNL     1       6.780  -0.775   9.932  1.00  0.00     0.074 A 
ATOM     28  C   UNL     1       5.973   5.511  10.175  1.00  0.00     0.029 A 
ATOM     29  N   UNL     1       6.053   3.382   9.533  1.00  0.00    -0.354 N 
ATOM     30  N   UNL     1       6.576   0.519   9.893  1.00  0.00    -0.248 NA
ATOM     31  C   UNL     1       7.339  -1.258  11.203  1.00  0.00     0.031 C 
ATOM     32  C   UNL     1       6.505   4.753  11.222  1.00  0.00     0.029 A 
ATOM     33  C   UNL     1       6.525   3.423  10.832  1.00  0.00     0.049 A 
ATOM     34  H   UNL     1       5.970   2.567   8.986  1.00  0.00     0.167 HD
ATOM     35  C   UNL     1       6.957   1.002  11.138  1.00  0.00     0.074 A 
ATOM     36  C   UNL     1       7.394  -0.140  11.915  1.00  0.00     0.031 C 
ATOM     37  C   UNL     1       6.946   2.277  11.594  1.00  0.00     0.031 A 
BRANCH  24  38
ATOM     38  C   UNL     1       4.865   6.420   7.524  1.00  0.00    -0.014 A 
ATOM     39  C   UNL     1       5.908   7.349   7.383  1.00  0.00     0.009 A 
ATOM     40  C   UNL     1       3.538   6.871   7.443  1.00  0.00     0.009 A 
ATOM     41  C   UNL     1       5.628   8.700   7.172  1.00  0.00     0.001 A 
ATOM     42  C   UNL     1       3.262   8.218   7.202  1.00  0.00     0.001 A 
ATOM     43  C   UNL     1       4.307   9.133   7.075  1.00  0.00     0.000 A 
ENDBRANCH  24  38
BRANCH  25  44
ATOM     44  C   UNL     1       6.760  -3.249   9.127  1.00  0.00    -0.014 A 
ATOM     45  C   UNL     1       7.803  -3.928   8.478  1.00  0.00     0.009 A 
ATOM     46  C   UNL     1       5.924  -3.965   9.998  1.00  0.00     0.009 A 
ATOM     47  C   UNL     1       7.994  -5.296   8.683  1.00  0.00     0.001 A 
ATOM     48  C   UNL     1       6.133  -5.328  10.221  1.00  0.00     0.001 A 
ATOM     49  C   UNL     1       7.162  -5.994   9.557  1.00  0.00     0.000 A 
ENDBRANCH  25  44
BRANCH  37  50
ATOM     50  C   UNL     1       7.388   2.522  13.008  1.00  0.00    -0.014 A 
ATOM     51  C   UNL     1       6.443   2.902  13.974  1.00  0.00     0.009 A 
ATOM     52  C   UNL     1       8.745   2.484  13.359  1.00  0.00     0.009 A 
ATOM     53  C   UNL     1       6.849   3.253  15.262  1.00  0.00     0.001 A 
ATOM     54  C   UNL     1       9.146   2.811  14.656  1.00  0.00     0.001 A 
ATOM     55  C   UNL     1       8.200   3.204  15.602  1.00  0.00     0.000 A 
ENDBRANCH  37  50
ENDBRANCH  11  12
ENDBRANCH   4   6
ENDBRANCH   1   2
BRANCH   1  56
ATOM     56  C   UNL     1       5.047  -1.324  -2.006  1.00  0.00     0.042 C 
BRANCH  56  57
ATOM     57  C   UNL     1       4.509  -1.604  -3.401  1.00  0.00     0.118 C 
BRANCH  57  58
ATOM     58  N   UNL     1       5.020  -0.682  -4.404  1.00  0.00    -0.351 N 
ATOM     59  C   UNL     1       5.643  -0.888  -5.599  1.00  0.00     0.278 C 
ATOM     60  H   UNL     1       4.892   0.268  -4.177  1.00  0.00     0.163 HD
ATOM     61  O   UNL     1       5.908   0.126  -6.258  1.00  0.00    -0.268 OA
BRANCH  59  62
ATOM     62  C   UNL     1       6.093  -2.270  -6.109  1.00  0.00     0.277 C 
ATOM     63  C   UNL     1       7.547  -2.489  -5.671  1.00  0.00     0.111 C 
ATOM     64  N   UNL     1       5.192  -3.353  -5.679  1.00  0.00    -0.332 N 
ATOM     65  C   UNL     1       8.025  -3.889  -5.954  1.00  0.00    -0.029 A 
ATOM     66  C   UNL     1       5.612  -4.661  -6.170  1.00  0.00     0.298 C 
ATOM     67  H   UNL     1       4.255  -3.157  -6.031  1.00  0.00     0.347 HD
ATOM     68  H   UNL     1       5.212  -3.385  -4.660  1.00  0.00     0.347 HD
ATOM     69  C   UNL     1       9.398  -4.167  -6.021  1.00  0.00     0.050 A 
ATOM     70  C   UNL     1       7.095  -4.933  -6.097  1.00  0.00     0.010 A 
ATOM     71  C   UNL     1       9.834  -5.470  -6.229  1.00  0.00     0.115 A 
ATOM     72  C   UNL     1       7.559  -6.246  -6.275  1.00  0.00     0.013 A 
ATOM     73  C   UNL     1       8.927  -6.517  -6.339  1.00  0.00     0.046 A 
BRANCH  71  74
ATOM     74  O   UNL     1      11.177  -5.684  -6.324  1.00  0.00    -0.508 OA
ATOM     75  H   UNL     1      11.773  -4.965  -6.247  1.00  0.00     0.293 HD
ENDBRANCH  71  74
ENDBRANCH  59  62
ENDBRANCH  57  58
ENDBRANCH  56  57
ENDBRANCH   1  56
TORSDOF 11
