REMARK SMILES O=C(NCCCNC(=O)[C@@]1(Nc2ccc(Cl)c(Br)c2)CCCOCC1)c1ccc(-c2c3nc(c(-c4ccccc4)c4ccc([nH]4)c(-c4ccccc4)c4nc(c(-c5ccccc5)c5ccc2[nH]5)C=C4)C=C3)cc1
REMARK SMILES IDX 6 1 5 2 4 3 3 4 1 5 2 6 26 8 27 9 73 10 28 11 72 12 29 13
REMARK SMILES IDX 30 14 31 15 66 16 32 17 71 18 65 19 67 20 33 21 70 22 64 23
REMARK SMILES IDX 63 24 34 26 56 27 41 28 55 29 42 30 45 31 54 32 68 33 43 34
REMARK SMILES IDX 44 35 53 37 69 38 46 39 35 40 36 41 40 42 37 43 39 44 38 45
REMARK SMILES IDX 57 46 58 47 62 48 59 49 61 50 60 51 47 52 48 53 52 54 49 55
REMARK SMILES IDX 51 56 50 57 7 58 8 59 9 61 10 62 20 63 21 64 25 66 24 67
REMARK SMILES IDX 23 68 22 69 11 71 12 73 13 74 19 75 14 76 17 77 15 78 18 79
REMARK SMILES IDX 16 80
REMARK H PARENT 3 7 67 25 45 36 7 60 11 72
REMARK Flexibility Score: 90.00
ROOT
ATOM      1  C   UNL     1       6.546  -3.754   2.108  1.00  0.00     0.117 C 
ENDROOT
BRANCH   1   2
ATOM      2  C   UNL     1       6.302  -4.248   3.535  1.00  0.00     0.042 C 
BRANCH   2   3
ATOM      3  C   UNL     1       7.553  -4.268   4.415  1.00  0.00     0.118 C 
BRANCH   3   4
ATOM      4  N   UNL     1       7.939  -2.933   4.834  1.00  0.00    -0.352 N 
ATOM      5  O   UNL     1       7.993  -1.114   6.138  1.00  0.00    -0.269 OA
ATOM      6  C   UNL     1       7.874  -2.334   6.067  1.00  0.00     0.251 C 
ATOM      7  H   UNL     1       8.306  -2.365   4.119  1.00  0.00     0.163 HD
BRANCH   6   8
ATOM      8  C   UNL     1       7.684  -3.117   7.314  1.00  0.00     0.039 A 
ATOM      9  C   UNL     1       6.958  -2.531   8.358  1.00  0.00     0.014 A 
ATOM     10  C   UNL     1       8.323  -4.342   7.526  1.00  0.00     0.014 A 
ATOM     11  C   UNL     1       6.880  -3.160   9.605  1.00  0.00     0.010 A 
ATOM     12  C   UNL     1       8.191  -5.002   8.751  1.00  0.00     0.010 A 
ATOM     13  C   UNL     1       7.505  -4.397   9.816  1.00  0.00    -0.014 A 
BRANCH  13  14
ATOM     14  C   UNL     1       7.550  -5.010  11.171  1.00  0.00     0.031 A 
ATOM     15  C   UNL     1       8.867  -5.112  11.898  1.00  0.00     0.074 A 
ATOM     16  C   UNL     1       6.428  -5.471  11.755  1.00  0.00     0.049 A 
ATOM     17  N   UNL     1       9.132  -5.660  13.058  1.00  0.00    -0.248 NA
ATOM     18  C   UNL     1      10.045  -4.536  11.227  1.00  0.00     0.031 C 
ATOM     19  C   UNL     1       5.088  -5.427  11.171  1.00  0.00     0.029 A 
ATOM     20  N   UNL     1       6.238  -6.064  12.980  1.00  0.00    -0.354 N 
ATOM     21  C   UNL     1      10.502  -5.516  13.240  1.00  0.00     0.074 A 
ATOM     22  C   UNL     1      11.022  -4.866  12.058  1.00  0.00     0.031 C 
ATOM     23  C   UNL     1       4.210  -5.938  12.050  1.00  0.00     0.029 A 
ATOM     24  C   UNL     1       4.928  -6.382  13.242  1.00  0.00     0.049 A 
ATOM     25  H   UNL     1       6.973  -6.244  13.611  1.00  0.00     0.167 HD
ATOM     26  C   UNL     1      11.260  -5.872  14.304  1.00  0.00     0.031 A 
ATOM     27  C   UNL     1       4.366  -6.964  14.320  1.00  0.00     0.031 A 
ATOM     28  C   UNL     1      10.744  -6.481  15.499  1.00  0.00     0.049 A 
ATOM     29  C   UNL     1       5.230  -7.364  15.485  1.00  0.00     0.074 A 
ATOM     30  C   UNL     1      11.434  -6.846  16.642  1.00  0.00     0.029 A 
ATOM     31  N   UNL     1       9.413  -6.798  15.712  1.00  0.00    -0.354 N 
ATOM     32  N   UNL     1       6.522  -7.212  15.642  1.00  0.00    -0.248 NA
ATOM     33  C   UNL     1       4.558  -8.009  16.623  1.00  0.00     0.031 C 
ATOM     34  C   UNL     1      10.525  -7.418  17.535  1.00  0.00     0.029 A 
ATOM     35  C   UNL     1       9.263  -7.364  16.965  1.00  0.00     0.049 A 
ATOM     36  H   UNL     1       8.684  -6.643  15.069  1.00  0.00     0.167 HD
ATOM     37  C   UNL     1       6.813  -7.720  16.902  1.00  0.00     0.074 A 
ATOM     38  C   UNL     1       5.564  -8.175  17.473  1.00  0.00     0.031 C 
ATOM     39  C   UNL     1       8.012  -7.802  17.526  1.00  0.00     0.031 A 
BRANCH  26  40
ATOM     40  C   UNL     1      12.736  -5.604  14.235  1.00  0.00    -0.014 A 
ATOM     41  C   UNL     1      13.637  -6.676  14.128  1.00  0.00     0.009 A 
ATOM     42  C   UNL     1      13.241  -4.300  14.357  1.00  0.00     0.009 A 
ATOM     43  C   UNL     1      15.014  -6.448  14.150  1.00  0.00     0.001 A 
ATOM     44  C   UNL     1      14.619  -4.073  14.352  1.00  0.00     0.001 A 
ATOM     45  C   UNL     1      15.503  -5.147  14.258  1.00  0.00     0.000 A 
ENDBRANCH  26  40
BRANCH  27  46
ATOM     46  C   UNL     1       2.895  -7.179  14.358  1.00  0.00    -0.014 A 
ATOM     47  C   UNL     1       2.290  -8.151  13.547  1.00  0.00     0.009 A 
ATOM     48  C   UNL     1       2.087  -6.395  15.196  1.00  0.00     0.009 A 
ATOM     49  C   UNL     1       0.904  -8.324  13.563  1.00  0.00     0.001 A 
ATOM     50  C   UNL     1       0.704  -6.588  15.229  1.00  0.00     0.001 A 
ATOM     51  C   UNL     1       0.113  -7.547  14.407  1.00  0.00     0.000 A 
ENDBRANCH  27  46
BRANCH  39  52
ATOM     52  C   UNL     1       8.048  -8.380  18.912  1.00  0.00    -0.014 A 
ATOM     53  C   UNL     1       8.299  -7.539  20.008  1.00  0.00     0.009 A 
ATOM     54  C   UNL     1       7.950  -9.763  19.120  1.00  0.00     0.009 A 
ATOM     55  C   UNL     1       8.465  -8.074  21.286  1.00  0.00     0.001 A 
ATOM     56  C   UNL     1       8.094 -10.293  20.404  1.00  0.00     0.001 A 
ATOM     57  C   UNL     1       8.360  -9.450  21.483  1.00  0.00     0.000 A 
ENDBRANCH  39  52
ENDBRANCH  13  14
ENDBRANCH   6   8
ENDBRANCH   3   4
ENDBRANCH   2   3
ENDBRANCH   1   2
BRANCH   1  58
ATOM     58  N   UNL     1       7.456  -4.618   1.381  1.00  0.00    -0.354 N 
ATOM     59  C   UNL     1       7.293  -5.615   0.475  1.00  0.00     0.245 C 
ATOM     60  H   UNL     1       8.402  -4.443   1.591  1.00  0.00     0.163 HD
ATOM     61  O   UNL     1       8.357  -6.016  -0.021  1.00  0.00    -0.272 OA
BRANCH  59  62
ATOM     62  C   UNL     1       5.903  -6.161  -0.060  1.00  0.00     0.119 C 
BRANCH  62  63
ATOM     63  C   UNL     1       6.178  -7.548  -0.739  1.00  0.00     0.041 C 
BRANCH  63  64
ATOM     64  C   UNL     1       6.789  -8.624   0.171  1.00  0.00     0.031 CG0
ATOM     65  G   UNL     1       5.796  -9.382   1.046  1.00  0.00     0.000 G0
ENDBRANCH  63  64
ENDBRANCH  62  63
BRANCH  62  66
ATOM     66  C   UNL     1       4.797  -6.301   1.000  1.00  0.00     0.067 C 
BRANCH  66  67
ATOM     67  C   UNL     1       5.065  -7.345   2.074  1.00  0.00     0.163 C 
BRANCH  67  68
ATOM     68  O   UNL     1       4.718  -8.620   1.560  1.00  0.00    -0.381 OA
BRANCH  68  69
ATOM     69  C   UNL     1       5.796  -9.382   1.046  1.00  0.00     0.160 CG0
ATOM     70  G   UNL     1       6.789  -8.624   0.171  1.00  0.00     0.000 G0
ENDBRANCH  68  69
ENDBRANCH  67  68
ENDBRANCH  66  67
ENDBRANCH  62  66
BRANCH  62  71
ATOM     71  N   UNL     1       5.502  -5.177  -1.130  1.00  0.00    -0.371 N 
ATOM     72  H   UNL     1       6.049  -4.371  -1.273  1.00  0.00     0.161 HD
BRANCH  71  73
ATOM     73  C   UNL     1       4.373  -5.384  -1.920  1.00  0.00     0.036 A 
ATOM     74  C   UNL     1       3.102  -5.034  -1.460  1.00  0.00     0.027 A 
ATOM     75  C   UNL     1       4.477  -6.036  -3.155  1.00  0.00     0.043 A 
ATOM     76  C   UNL     1       1.957  -5.358  -2.192  1.00  0.00     0.024 A 
ATOM     77  C   UNL     1       3.334  -6.372  -3.893  1.00  0.00     0.038 A 
ATOM     78  C   UNL     1       2.068  -6.039  -3.405  1.00  0.00     0.055 A 
ATOM     79  Br  UNL     1       3.590  -7.307  -5.527  1.00  0.00    -0.049 Br
ATOM     80  Cl  UNL     1       0.607  -6.448  -4.230  1.00  0.00    -0.083 Cl
ENDBRANCH  71  73
ENDBRANCH  62  71
ENDBRANCH  59  62
ENDBRANCH   1  58
TORSDOF 12
