REMARK SMILES [NH3+][C@H](CC(=O)NCCCNC(=O)c1ccc(-c2c3nc(c(-c4ccccc4)c4ccc([nH]4)c(-c4ccccc4)c4nc(c(-c5ccccc5)c5ccc2[nH]5)C=C4)C=C3)cc1)c1ccccc1Br
REMARK SMILES IDX 8 1 7 2 6 3 4 4 5 5 3 7 2 8 1 9 61 13 62 14 66 15 63 16
REMARK SMILES IDX 65 17 67 18 64 19 9 20 10 21 11 22 12 24 13 25 14 26 60 27
REMARK SMILES IDX 15 28 59 29 16 30 17 31 18 32 53 33 19 34 58 35 52 36 54 37
REMARK SMILES IDX 20 38 57 39 51 40 50 41 21 43 43 44 28 45 42 46 29 47 32 48
REMARK SMILES IDX 41 49 55 50 30 51 31 52 40 54 56 55 33 56 22 57 23 58 27 59
REMARK SMILES IDX 24 60 26 61 25 62 44 63 45 64 49 65 46 66 48 67 47 68 34 69
REMARK SMILES IDX 35 70 39 71 36 72 38 73 37 74
REMARK H PARENT 6 6 1 10 1 11 1 12 10 23 54 42 32 53
REMARK Flexibility Score: inf
ROOT
ATOM      1  C   UNL     1       1.339  -0.571  -4.072  1.00  0.00     0.042 C 
ENDROOT
BRANCH   1   2
ATOM      2  C   UNL     1       1.444  -1.280  -2.727  1.00  0.00     0.117 C 
BRANCH   2   3
ATOM      3  N   UNL     1       2.539  -0.780  -1.914  1.00  0.00    -0.356 N 
ATOM      4  C   UNL     1       2.512  -0.169  -0.694  1.00  0.00     0.226 C 
ATOM      5  O   UNL     1       3.580   0.204  -0.208  1.00  0.00    -0.275 OA
ATOM      6  H   UNL     1       3.436  -0.899  -2.302  1.00  0.00     0.163 HD
BRANCH   4   7
ATOM      7  C   UNL     1       1.199   0.019   0.037  1.00  0.00     0.170 C 
BRANCH   7   8
ATOM      8  C   UNL     1       0.298   1.188  -0.413  1.00  0.00     0.222 C 
BRANCH   8   9
ATOM      9  N   UNL     1       0.712   1.884  -1.644  1.00  0.00    -0.351 N 
ATOM     10  H   UNL     1       0.051   2.634  -1.849  1.00  0.00     0.345 HD
ATOM     11  H   UNL     1       0.725   1.222  -2.420  1.00  0.00     0.345 HD
ATOM     12  H   UNL     1       1.644   2.277  -1.516  1.00  0.00     0.345 HD
ENDBRANCH   8   9
BRANCH   8  13
ATOM     13  C   UNL     1      -1.239   1.078  -0.423  1.00  0.00     0.024 A 
ATOM     14  C   UNL     1      -1.896   2.342  -0.482  1.00  0.00     0.011 A 
ATOM     15  C   UNL     1      -2.081  -0.052  -0.446  1.00  0.00     0.027 A 
ATOM     16  C   UNL     1      -3.282   2.482  -0.575  1.00  0.00     0.001 A 
ATOM     17  C   UNL     1      -3.482   0.100  -0.535  1.00  0.00     0.016 A 
ATOM     18  Br  UNL     1      -1.569  -1.880  -0.387  1.00  0.00    -0.050 Br
ATOM     19  C   UNL     1      -4.079   1.353  -0.604  1.00  0.00     0.001 A 
ENDBRANCH   8  13
ENDBRANCH   7   8
ENDBRANCH   4   7
ENDBRANCH   2   3
ENDBRANCH   1   2
BRANCH   1  20
ATOM     20  C   UNL     1       2.545  -0.755  -4.978  1.00  0.00     0.118 C 
BRANCH  20  21
ATOM     21  N   UNL     1       2.600  -2.077  -5.576  1.00  0.00    -0.352 N 
ATOM     22  C   UNL     1       2.551  -2.441  -6.898  1.00  0.00     0.251 C 
ATOM     23  H   UNL     1       2.684  -2.822  -4.938  1.00  0.00     0.163 HD
ATOM     24  O   UNL     1       2.426  -3.631  -7.193  1.00  0.00    -0.269 OA
BRANCH  22  25
ATOM     25  C   UNL     1       2.621  -1.424  -7.973  1.00  0.00     0.039 A 
ATOM     26  C   UNL     1       1.812  -1.583  -9.102  1.00  0.00     0.014 A 
ATOM     27  C   UNL     1       3.497  -0.338  -7.900  1.00  0.00     0.014 A 
ATOM     28  C   UNL     1       1.847  -0.633 -10.127  1.00  0.00     0.010 A 
ATOM     29  C   UNL     1       3.464   0.656  -8.876  1.00  0.00     0.010 A 
ATOM     30  C   UNL     1       2.654   0.510 -10.012  1.00  0.00    -0.014 A 
BRANCH  30  31
ATOM     31  C   UNL     1       2.689   1.540 -11.084  1.00  0.00     0.031 A 
ATOM     32  C   UNL     1       3.973   1.818 -11.825  1.00  0.00     0.074 A 
ATOM     33  C   UNL     1       1.587   2.265 -11.359  1.00  0.00     0.049 A 
ATOM     34  N   UNL     1       4.213   2.707 -12.755  1.00  0.00    -0.248 NA
ATOM     35  C   UNL     1       5.148   1.012 -11.453  1.00  0.00     0.031 C 
ATOM     36  C   UNL     1       0.293   2.137 -10.684  1.00  0.00     0.029 A 
ATOM     37  N   UNL     1       1.381   3.264 -12.279  1.00  0.00    -0.354 N 
ATOM     38  C   UNL     1       5.566   2.589 -13.053  1.00  0.00     0.074 A 
ATOM     39  C   UNL     1       6.105   1.571 -12.179  1.00  0.00     0.031 C 
ATOM     40  C   UNL     1      -0.576   3.006 -11.227  1.00  0.00     0.029 A 
ATOM     41  C   UNL     1       0.105   3.776 -12.263  1.00  0.00     0.049 A 
ATOM     42  H   UNL     1       2.081   3.583 -12.893  1.00  0.00     0.167 HD
ATOM     43  C   UNL     1       6.293   3.253 -13.982  1.00  0.00     0.031 A 
ATOM     44  C   UNL     1      -0.453   4.759 -12.995  1.00  0.00     0.031 A 
ATOM     45  C   UNL     1       5.753   4.234 -14.884  1.00  0.00     0.049 A 
ATOM     46  C   UNL     1       0.371   5.455 -14.044  1.00  0.00     0.074 A 
ATOM     47  C   UNL     1       6.393   4.895 -15.918  1.00  0.00     0.029 A 
ATOM     48  N   UNL     1       4.446   4.691 -14.862  1.00  0.00    -0.354 N 
ATOM     49  N   UNL     1       1.625   5.263 -14.373  1.00  0.00    -0.248 NA
ATOM     50  C   UNL     1      -0.307   6.492 -14.837  1.00  0.00     0.031 C 
ATOM     51  C   UNL     1       5.484   5.788 -16.493  1.00  0.00     0.029 A 
ATOM     52  C   UNL     1       4.266   5.643 -15.850  1.00  0.00     0.049 A 
ATOM     53  H   UNL     1       3.750   4.385 -14.237  1.00  0.00     0.167 HD
ATOM     54  C   UNL     1       1.876   6.129 -15.429  1.00  0.00     0.074 A 
ATOM     55  C   UNL     1       0.640   6.833 -15.698  1.00  0.00     0.031 C 
ATOM     56  C   UNL     1       3.027   6.325 -16.115  1.00  0.00     0.031 A 
BRANCH  43  57
ATOM     57  C   UNL     1       7.761   2.943 -14.079  1.00  0.00    -0.014 A 
ATOM     58  C   UNL     1       8.217   1.729 -14.615  1.00  0.00     0.009 A 
ATOM     59  C   UNL     1       8.701   3.911 -13.691  1.00  0.00     0.009 A 
ATOM     60  C   UNL     1       9.586   1.482 -14.739  1.00  0.00     0.001 A 
ATOM     61  C   UNL     1      10.068   3.672 -13.841  1.00  0.00     0.001 A 
ATOM     62  C   UNL     1      10.509   2.455 -14.359  1.00  0.00     0.000 A 
ENDBRANCH  43  57
BRANCH  44  63
ATOM     63  C   UNL     1      -1.871   5.149 -12.776  1.00  0.00    -0.014 A 
ATOM     64  C   UNL     1      -2.846   4.880 -13.749  1.00  0.00     0.009 A 
ATOM     65  C   UNL     1      -2.250   5.829 -11.608  1.00  0.00     0.009 A 
ATOM     66  C   UNL     1      -4.160   5.321 -13.577  1.00  0.00     0.001 A 
ATOM     67  C   UNL     1      -3.571   6.241 -11.424  1.00  0.00     0.001 A 
ATOM     68  C   UNL     1      -4.522   6.000 -12.414  1.00  0.00     0.000 A 
ENDBRANCH  44  63
BRANCH  56  69
ATOM     69  C   UNL     1       2.993   7.304 -17.254  1.00  0.00    -0.014 A 
ATOM     70  C   UNL     1       2.907   8.686 -17.027  1.00  0.00     0.009 A 
ATOM     71  C   UNL     1       3.084   6.834 -18.573  1.00  0.00     0.009 A 
ATOM     72  C   UNL     1       2.875   9.576 -18.103  1.00  0.00     0.001 A 
ATOM     73  C   UNL     1       3.082   7.727 -19.645  1.00  0.00     0.001 A 
ATOM     74  C   UNL     1       2.967   9.096 -19.409  1.00  0.00     0.000 A 
ENDBRANCH  56  69
ENDBRANCH  30  31
ENDBRANCH  22  25
ENDBRANCH  20  21
ENDBRANCH   1  20
TORSDOF 13
