REMARK SMILES O=C(C[C@@H]1C=CS(=O)(=O)C1)NCCCNC(=O)c1ccc(-c2c3nc(c(-c4ccccc4)c4ccc([nH]4)c(-c4ccccc4)c4nc(c(-c5ccccc5)c5ccc2[nH]5)C=C4)C=C3)cc1
REMARK SMILES IDX 13 1 12 2 11 3 1 4 2 5 3 7 4 8 5 9 10 10 6 11 7 12 8 13 9 14
REMARK SMILES IDX 14 15 15 16 16 17 17 19 18 20 19 21 65 22 20 23 64 24 21 25
REMARK SMILES IDX 22 26 23 27 58 28 24 29 63 30 57 31 59 32 25 33 62 34 56 35
REMARK SMILES IDX 55 36 26 38 48 39 33 40 47 41 34 42 37 43 46 44 60 45 35 46
REMARK SMILES IDX 36 47 45 49 61 50 38 51 27 52 28 53 32 54 29 55 31 56 30 57
REMARK SMILES IDX 49 58 50 59 54 60 51 61 53 62 52 63 39 64 40 65 44 66 41 67
REMARK SMILES IDX 43 68 42 69
REMARK H PARENT 11 6 15 18 59 37 37 48
REMARK Flexibility Score: inf
ROOT
ATOM      1  C   UNL     1       8.297  -4.545  -2.474  1.00  0.00     0.042 C 
ENDROOT
BRANCH   1   2
ATOM      2  C   UNL     1       7.296  -3.447  -2.800  1.00  0.00     0.117 C 
BRANCH   2   3
ATOM      3  N   UNL     1       6.567  -2.989  -1.633  1.00  0.00    -0.356 N 
ATOM      4  O   UNL     1       6.889  -0.738  -1.987  1.00  0.00    -0.275 OA
ATOM      5  C   UNL     1       6.355  -1.656  -1.376  1.00  0.00     0.220 C 
ATOM      6  H   UNL     1       6.213  -3.656  -1.002  1.00  0.00     0.163 HD
BRANCH   5   7
ATOM      7  C   UNL     1       5.354  -1.391  -0.269  1.00  0.00     0.108 C 
BRANCH   7   8
ATOM      8  C   UNL     1       3.888  -1.654  -0.656  1.00  0.00     0.037 C 
ATOM      9  C   UNL     1       3.549  -3.122  -0.773  1.00  0.00    -0.010 C 
ATOM     10  C   UNL     1       3.451  -0.973  -1.963  1.00  0.00     0.150 C 
ATOM     11  C   UNL     1       3.186  -3.560  -1.985  1.00  0.00     0.102 C 
ATOM     12  S   UNL     1       3.183  -2.286  -3.158  1.00  0.00     0.171 S 
ATOM     13  O   UNL     1       1.847  -2.155  -3.710  1.00  0.00    -0.224 OA
ATOM     14  O   UNL     1       4.346  -2.422  -4.002  1.00  0.00    -0.224 OA
ENDBRANCH   7   8
ENDBRANCH   5   7
ENDBRANCH   2   3
ENDBRANCH   1   2
BRANCH   1  15
ATOM     15  C   UNL     1       7.697  -5.798  -1.847  1.00  0.00     0.118 C 
BRANCH  15  16
ATOM     16  N   UNL     1       6.769  -6.507  -2.713  1.00  0.00    -0.352 N 
ATOM     17  C   UNL     1       6.686  -7.848  -3.004  1.00  0.00     0.251 C 
ATOM     18  H   UNL     1       6.098  -5.941  -3.159  1.00  0.00     0.163 HD
ATOM     19  O   UNL     1       5.873  -8.239  -3.837  1.00  0.00    -0.269 OA
BRANCH  17  20
ATOM     20  C   UNL     1       7.586  -8.826  -2.347  1.00  0.00     0.039 A 
ATOM     21  C   UNL     1       8.132  -9.853  -3.123  1.00  0.00     0.014 A 
ATOM     22  C   UNL     1       7.875  -8.763  -0.982  1.00  0.00     0.014 A 
ATOM     23  C   UNL     1       8.998 -10.783  -2.542  1.00  0.00     0.010 A 
ATOM     24  C   UNL     1       8.806  -9.638  -0.423  1.00  0.00     0.010 A 
ATOM     25  C   UNL     1       9.363 -10.671  -1.191  1.00  0.00    -0.014 A 
BRANCH  25  26
ATOM     26  C   UNL     1      10.295 -11.648  -0.570  1.00  0.00     0.031 A 
ATOM     27  C   UNL     1       9.823 -12.548   0.543  1.00  0.00     0.074 A 
ATOM     28  C   UNL     1      11.575 -11.716  -0.985  1.00  0.00     0.049 A 
ATOM     29  N   UNL     1      10.484 -13.473   1.195  1.00  0.00    -0.248 NA
ATOM     30  C   UNL     1       8.436 -12.371   1.000  1.00  0.00     0.031 C 
ATOM     31  C   UNL     1      12.178 -10.874  -2.021  1.00  0.00     0.029 A 
ATOM     32  N   UNL     1      12.601 -12.539  -0.589  1.00  0.00    -0.354 N 
ATOM     33  C   UNL     1       9.598 -13.975   2.141  1.00  0.00     0.074 A 
ATOM     34  C   UNL     1       8.376 -13.211   2.022  1.00  0.00     0.031 C 
ATOM     35  C   UNL     1      13.454 -11.251  -2.206  1.00  0.00     0.029 A 
ATOM     36  C   UNL     1      13.770 -12.336  -1.283  1.00  0.00     0.049 A 
ATOM     37  H   UNL     1      12.508 -13.211   0.124  1.00  0.00     0.167 HD
ATOM     38  C   UNL     1       9.772 -14.995   3.015  1.00  0.00     0.031 A 
ATOM     39  C   UNL     1      14.960 -12.958  -1.192  1.00  0.00     0.031 A 
ATOM     40  C   UNL     1      10.982 -15.765   3.132  1.00  0.00     0.049 A 
ATOM     41  C   UNL     1      15.128 -14.090  -0.216  1.00  0.00     0.074 A 
ATOM     42  C   UNL     1      11.239 -16.849   3.954  1.00  0.00     0.029 A 
ATOM     43  N   UNL     1      12.138 -15.532   2.404  1.00  0.00    -0.354 N 
ATOM     44  N   UNL     1      14.257 -14.598   0.622  1.00  0.00    -0.248 NA
ATOM     45  C   UNL     1      16.441 -14.750  -0.193  1.00  0.00     0.031 C 
ATOM     46  C   UNL     1      12.568 -17.241   3.759  1.00  0.00     0.029 A 
ATOM     47  C   UNL     1      13.117 -16.441   2.769  1.00  0.00     0.049 A 
ATOM     48  H   UNL     1      12.247 -14.825   1.728  1.00  0.00     0.167 HD
ATOM     49  C   UNL     1      14.903 -15.660   1.242  1.00  0.00     0.074 A 
ATOM     50  C   UNL     1      16.233 -15.732   0.672  1.00  0.00     0.031 C 
ATOM     51  C   UNL     1      14.435 -16.505   2.194  1.00  0.00     0.031 A 
BRANCH  38  52
ATOM     52  C   UNL     1       8.618 -15.333   3.921  1.00  0.00    -0.014 A 
ATOM     53  C   UNL     1       7.438 -15.902   3.415  1.00  0.00     0.009 A 
ATOM     54  C   UNL     1       8.721 -15.104   5.301  1.00  0.00     0.009 A 
ATOM     55  C   UNL     1       6.370 -16.195   4.266  1.00  0.00     0.001 A 
ATOM     56  C   UNL     1       7.664 -15.428   6.155  1.00  0.00     0.001 A 
ATOM     57  C   UNL     1       6.486 -15.962   5.636  1.00  0.00     0.000 A 
ENDBRANCH  38  52
BRANCH  39  58
ATOM     58  C   UNL     1      16.085 -12.552  -2.077  1.00  0.00    -0.014 A 
ATOM     59  C   UNL     1      16.529 -13.403  -3.102  1.00  0.00     0.009 A 
ATOM     60  C   UNL     1      16.732 -11.321  -1.891  1.00  0.00     0.009 A 
ATOM     61  C   UNL     1      17.619 -13.044  -3.899  1.00  0.00     0.001 A 
ATOM     62  C   UNL     1      17.801 -10.951  -2.710  1.00  0.00     0.001 A 
ATOM     63  C   UNL     1      18.251 -11.817  -3.705  1.00  0.00     0.000 A 
ENDBRANCH  39  58
BRANCH  51  64
ATOM     64  C   UNL     1      15.350 -17.613   2.639  1.00  0.00    -0.014 A 
ATOM     65  C   UNL     1      16.502 -17.358   3.399  1.00  0.00     0.009 A 
ATOM     66  C   UNL     1      15.038 -18.940   2.302  1.00  0.00     0.009 A 
ATOM     67  C   UNL     1      17.348 -18.406   3.771  1.00  0.00     0.001 A 
ATOM     68  C   UNL     1      15.867 -19.988   2.705  1.00  0.00     0.001 A 
ATOM     69  C   UNL     1      17.028 -19.719   3.427  1.00  0.00     0.000 A 
ENDBRANCH  51  64
ENDBRANCH  25  26
ENDBRANCH  17  20
ENDBRANCH  15  16
ENDBRANCH   1  15
TORSDOF 11
