REMARK SMILES COc1cc([C@@H]2[NH2+][C@H](C(=O)NCCCNC(=O)c3ccc(-c4c5nc(c(-c6ccccc6)c6ccc([nH]6)c(-c6ccccc6)c6nc(c(-c7ccccc7)c7ccc4[nH]7)C=C6)C=C5)cc3)CS2)ccc1OCc1ccc(Cl)cc1
REMARK SMILES IDX 12 1 11 2 9 3 10 4 8 6 6 7 7 8 67 9 66 12 5 13 3 14 4 15
REMARK SMILES IDX 70 16 69 17 68 18 2 19 1 20 71 21 72 22 73 23 74 24 79 25
REMARK SMILES IDX 75 26 78 27 76 28 77 29 13 30 14 31 15 32 16 33 17 35 18 36
REMARK SMILES IDX 19 37 65 38 20 39 64 40 21 41 22 42 23 43 58 44 24 45 63 46
REMARK SMILES IDX 57 47 59 48 25 49 62 50 56 51 55 52 26 54 48 55 33 56 47 57
REMARK SMILES IDX 34 58 37 59 46 60 60 61 35 62 36 63 45 65 61 66 38 67 27 68
REMARK SMILES IDX 28 69 32 70 29 71 31 72 30 73 49 74 50 75 54 76 51 77 53 78
REMARK SMILES IDX 52 79 39 80 40 81 44 82 41 83 43 84 42 85
REMARK H PARENT 11 5 7 10 7 11 15 34 59 53 37 64
REMARK Flexibility Score: inf
ROOT
ATOM      1  C   UNL     1       3.174  -4.930   3.463  1.00  0.00     0.118 C 
ENDROOT
BRANCH   1   2
ATOM      2  N   UNL     1       2.982  -5.893   4.534  1.00  0.00    -0.351 N 
ATOM      3  C   UNL     1       1.917  -6.674   4.863  1.00  0.00     0.279 C 
ATOM      4  O   UNL     1       2.044  -7.387   5.866  1.00  0.00    -0.268 OA
ATOM      5  H   UNL     1       3.761  -5.999   5.128  1.00  0.00     0.163 HD
BRANCH   3   6
ATOM      6  C   UNL     1       0.629  -6.767   4.028  1.00  0.00     0.283 C 
ATOM      7  C   UNL     1      -0.625  -5.554   2.342  1.00  0.00     0.274 C 
ATOM      8  N   UNL     1       0.099  -5.444   3.623  1.00  0.00    -0.321 N 
ATOM      9  S   UNL     1      -0.682  -7.306   1.880  1.00  0.00    -0.088 SA
ATOM     10  H   UNL     1      -0.539  -5.103   4.342  1.00  0.00     0.348 HD
ATOM     11  H   UNL     1       0.877  -4.795   3.509  1.00  0.00     0.348 HD
ATOM     12  C   UNL     1       0.811  -7.674   2.824  1.00  0.00     0.151 C 
BRANCH   7  13
ATOM     13  C   UNL     1       0.063  -4.634   1.336  1.00  0.00     0.024 A 
ATOM     14  C   UNL     1       0.809  -2.346   0.836  1.00  0.00     0.161 A 
ATOM     15  C   UNL     1      -0.046  -3.237   1.510  1.00  0.00     0.061 A 
ATOM     16  C   UNL     1       1.772  -2.848  -0.044  1.00  0.00     0.161 A 
ATOM     17  C   UNL     1       1.819  -4.222  -0.289  1.00  0.00     0.051 A 
ATOM     18  C   UNL     1       0.968  -5.101   0.373  1.00  0.00     0.015 A 
BRANCH  14  19
ATOM     19  O   UNL     1       0.821  -1.023   1.191  1.00  0.00    -0.493 OA
ATOM     20  C   UNL     1      -0.446  -0.389   1.024  1.00  0.00     0.278 C 
ENDBRANCH  14  19
BRANCH  16  21
ATOM     21  O   UNL     1       2.733  -2.172  -0.741  1.00  0.00    -0.485 OA
BRANCH  21  22
ATOM     22  C   UNL     1       2.545  -0.796  -1.058  1.00  0.00     0.265 C 
BRANCH  22  23
ATOM     23  C   UNL     1       1.376  -0.504  -1.975  1.00  0.00    -0.011 A 
ATOM     24  C   UNL     1       0.890   0.809  -2.063  1.00  0.00     0.009 A 
ATOM     25  C   UNL     1       0.758  -1.508  -2.736  1.00  0.00     0.009 A 
ATOM     26  C   UNL     1      -0.237   1.094  -2.836  1.00  0.00     0.021 A 
ATOM     27  C   UNL     1      -0.379  -1.229  -3.493  1.00  0.00     0.021 A 
ATOM     28  C   UNL     1      -0.877   0.069  -3.531  1.00  0.00     0.041 A 
ATOM     29  Cl  UNL     1      -2.299   0.408  -4.436  1.00  0.00    -0.084 Cl
ENDBRANCH  22  23
ENDBRANCH  21  22
ENDBRANCH  16  21
ENDBRANCH   7  13
ENDBRANCH   3   6
ENDBRANCH   1   2
BRANCH   1  30
ATOM     30  C   UNL     1       2.688  -3.538   3.851  1.00  0.00     0.042 C 
BRANCH  30  31
ATOM     31  C   UNL     1       3.703  -2.401   3.793  1.00  0.00     0.118 C 
BRANCH  31  32
ATOM     32  N   UNL     1       4.498  -2.299   2.581  1.00  0.00    -0.352 N 
ATOM     33  C   UNL     1       4.987  -1.210   1.894  1.00  0.00     0.251 C 
ATOM     34  H   UNL     1       4.729  -3.166   2.177  1.00  0.00     0.163 HD
ATOM     35  O   UNL     1       5.738  -1.412   0.945  1.00  0.00    -0.269 OA
BRANCH  33  36
ATOM     36  C   UNL     1       4.601   0.194   2.212  1.00  0.00     0.039 A 
ATOM     37  C   UNL     1       4.572   1.111   1.147  1.00  0.00     0.014 A 
ATOM     38  C   UNL     1       4.283   0.647   3.491  1.00  0.00     0.014 A 
ATOM     39  C   UNL     1       4.128   2.422   1.339  1.00  0.00     0.010 A 
ATOM     40  C   UNL     1       3.784   1.936   3.680  1.00  0.00     0.010 A 
ATOM     41  C   UNL     1       3.702   2.832   2.605  1.00  0.00    -0.014 A 
BRANCH  41  42
ATOM     42  C   UNL     1       3.249   4.221   2.849  1.00  0.00     0.031 A 
ATOM     43  C   UNL     1       4.135   5.154   3.623  1.00  0.00     0.074 A 
ATOM     44  C   UNL     1       2.037   4.624   2.426  1.00  0.00     0.049 A 
ATOM     45  N   UNL     1       3.913   6.388   3.996  1.00  0.00    -0.248 NA
ATOM     46  C   UNL     1       5.438   4.617   4.051  1.00  0.00     0.031 C 
ATOM     47  C   UNL     1       1.079   3.804   1.683  1.00  0.00     0.029 A 
ATOM     48  N   UNL     1       1.399   5.830   2.577  1.00  0.00    -0.354 N 
ATOM     49  C   UNL     1       5.041   6.771   4.708  1.00  0.00     0.074 A 
ATOM     50  C   UNL     1       5.925   5.626   4.756  1.00  0.00     0.031 C 
ATOM     51  C   UNL     1      -0.023   4.534   1.437  1.00  0.00     0.029 A 
ATOM     52  C   UNL     1       0.142   5.861   2.025  1.00  0.00     0.049 A 
ATOM     53  H   UNL     1       1.805   6.600   3.037  1.00  0.00     0.167 HD
ATOM     54  C   UNL     1       5.327   7.973   5.259  1.00  0.00     0.031 A 
ATOM     55  C   UNL     1      -0.772   6.849   2.004  1.00  0.00     0.031 A 
ATOM     56  C   UNL     1       4.449   9.109   5.217  1.00  0.00     0.049 A 
ATOM     57  C   UNL     1      -0.444   8.169   2.648  1.00  0.00     0.074 A 
ATOM     58  C   UNL     1       4.657  10.383   5.717  1.00  0.00     0.029 A 
ATOM     59  N   UNL     1       3.188   9.104   4.641  1.00  0.00    -0.354 N 
ATOM     60  N   UNL     1       0.652   8.536   3.267  1.00  0.00    -0.248 NA
ATOM     61  C   UNL     1      -1.475   9.214   2.576  1.00  0.00     0.031 C 
ATOM     62  C   UNL     1       3.503  11.137   5.476  1.00  0.00     0.029 A 
ATOM     63  C   UNL     1       2.597  10.346   4.788  1.00  0.00     0.049 A 
ATOM     64  H   UNL     1       2.775   8.330   4.193  1.00  0.00     0.167 HD
ATOM     65  C   UNL     1       0.455   9.861   3.634  1.00  0.00     0.074 A 
ATOM     66  C   UNL     1      -0.861  10.236   3.158  1.00  0.00     0.031 C 
ATOM     67  C   UNL     1       1.287  10.695   4.304  1.00  0.00     0.031 A 
BRANCH  54  68
ATOM     68  C   UNL     1       6.647   8.100   5.965  1.00  0.00    -0.014 A 
ATOM     69  C   UNL     1       7.852   8.129   5.245  1.00  0.00     0.009 A 
ATOM     70  C   UNL     1       6.688   8.180   7.364  1.00  0.00     0.009 A 
ATOM     71  C   UNL     1       9.075   8.192   5.915  1.00  0.00     0.001 A 
ATOM     72  C   UNL     1       7.911   8.268   8.031  1.00  0.00     0.001 A 
ATOM     73  C   UNL     1       9.103   8.262   7.308  1.00  0.00     0.000 A 
ENDBRANCH  54  68
BRANCH  55  74
ATOM     74  C   UNL     1      -2.083   6.641   1.337  1.00  0.00    -0.014 A 
ATOM     75  C   UNL     1      -2.367   7.274   0.117  1.00  0.00     0.009 A 
ATOM     76  C   UNL     1      -3.064   5.826   1.923  1.00  0.00     0.009 A 
ATOM     77  C   UNL     1      -3.615   7.116  -0.490  1.00  0.00     0.001 A 
ATOM     78  C   UNL     1      -4.303   5.650   1.301  1.00  0.00     0.001 A 
ATOM     79  C   UNL     1      -4.580   6.302   0.100  1.00  0.00     0.000 A 
ENDBRANCH  55  74
BRANCH  67  80
ATOM     80  C   UNL     1       0.811  12.101   4.530  1.00  0.00    -0.014 A 
ATOM     81  C   UNL     1      -0.170  12.390   5.491  1.00  0.00     0.009 A 
ATOM     82  C   UNL     1       1.384  13.154   3.800  1.00  0.00     0.009 A 
ATOM     83  C   UNL     1      -0.588  13.707   5.695  1.00  0.00     0.001 A 
ATOM     84  C   UNL     1       0.982  14.470   4.024  1.00  0.00     0.001 A 
ATOM     85  C   UNL     1      -0.009  14.745   4.965  1.00  0.00     0.000 A 
ENDBRANCH  67  80
ENDBRANCH  41  42
ENDBRANCH  33  36
ENDBRANCH  31  32
ENDBRANCH  30  31
ENDBRANCH   1  30
TORSDOF 15
