REMARK SMILES COc1ccc(NC2=[NH+]C(=O)/C(=C\c3ccccc3C(=O)NCCCNC(=O)c3ccc(-c4c5nc(c(-c6ccccc6)c6ccc([nH]6)c(-c6ccccc6)c6nc(c(-c7ccccc7)c7ccc4[nH]7)C=C6)C=C5)cc3)S2)cc1
REMARK SMILES IDX 23 1 22 2 20 3 21 4 19 6 14 7 15 8 16 9 18 10 17 11 13 12
REMARK SMILES IDX 7 13 8 14 9 16 77 17 10 18 12 20 11 21 6 22 3 23 4 24 79 25
REMARK SMILES IDX 5 26 78 27 2 28 1 29 24 30 25 31 26 32 27 33 28 35 29 36
REMARK SMILES IDX 30 37 76 38 31 39 75 40 32 41 33 42 34 43 69 44 35 45 74 46
REMARK SMILES IDX 68 47 70 48 36 49 73 50 67 51 66 52 37 54 59 55 44 56 58 57
REMARK SMILES IDX 45 58 48 59 57 60 71 61 46 62 47 63 56 65 72 66 49 67 38 68
REMARK SMILES IDX 39 69 43 70 40 71 42 72 41 73 60 74 61 75 65 76 62 77 64 78
REMARK SMILES IDX 63 79 50 80 51 81 55 82 52 83 54 84 53 85
REMARK H PARENT 22 5 7 15 9 19 26 34 70 53 48 64
REMARK Flexibility Score: inf
ROOT
ATOM      1  C   UNL     1      -2.491   7.555  -3.767  1.00  0.00     0.118 C 
ENDROOT
BRANCH   1   2
ATOM      2  N   UNL     1      -2.219   7.223  -5.141  1.00  0.00    -0.352 N 
ATOM      3  C   UNL     1      -1.830   8.069  -6.157  1.00  0.00     0.251 C 
ATOM      4  O   UNL     1      -1.646   7.577  -7.271  1.00  0.00    -0.269 OA
ATOM      5  H   UNL     1      -2.323   6.275  -5.384  1.00  0.00     0.163 HD
BRANCH   3   6
ATOM      6  C   UNL     1      -1.775   9.557  -5.983  1.00  0.00     0.047 A 
ATOM      7  C   UNL     1      -1.232  10.286  -4.900  1.00  0.00    -0.011 A 
ATOM      8  C   UNL     1      -1.487  11.674  -4.841  1.00  0.00     0.009 A 
ATOM      9  C   UNL     1      -2.156  12.344  -5.867  1.00  0.00     0.001 A 
ATOM     10  C   UNL     1      -2.392  10.261  -7.040  1.00  0.00     0.014 A 
ATOM     11  C   UNL     1      -2.575  11.642  -6.987  1.00  0.00     0.001 A 
BRANCH   7  12
ATOM     12  C   UNL     1      -0.458   9.779  -3.746  1.00  0.00     0.032 C 
ATOM     13  N   UNL     1       2.459   5.953  -2.397  1.00  0.00    -0.235 N 
ATOM     14  C   UNL     1       1.891   6.926  -3.162  1.00  0.00     0.322 C 
ATOM     15  H   UNL     1       3.242   6.221  -1.864  1.00  0.00     0.313 HD
ATOM     16  N   UNL     1       1.757   6.992  -4.443  1.00  0.00    -0.199 N 
ATOM     17  S   UNL     1       1.254   8.300  -2.263  1.00  0.00     0.006 SA
ATOM     18  C   UNL     1       1.194   8.180  -4.861  1.00  0.00     0.346 C 
ATOM     19  H   UNL     1       2.028   6.271  -5.057  1.00  0.00     0.316 HD
ATOM     20  C   UNL     1       0.558   8.903  -3.725  1.00  0.00     0.110 C 
ATOM     21  O   UNL     1       1.242   8.630  -5.996  1.00  0.00    -0.240 OA
BRANCH  13  22
ATOM     22  C   UNL     1       2.057   4.606  -2.280  1.00  0.00     0.125 A 
ATOM     23  C   UNL     1       1.201   1.977  -1.692  1.00  0.00     0.119 A 
ATOM     24  C   UNL     1       0.539   2.746  -2.652  1.00  0.00     0.051 A 
ATOM     25  C   UNL     1       2.357   2.481  -1.107  1.00  0.00     0.051 A 
ATOM     26  C   UNL     1       0.977   4.044  -2.963  1.00  0.00     0.055 A 
ATOM     27  C   UNL     1       2.781   3.781  -1.405  1.00  0.00     0.055 A 
BRANCH  23  28
ATOM     28  O   UNL     1       0.645   0.756  -1.419  1.00  0.00    -0.497 OA
ATOM     29  C   UNL     1       1.020   0.171  -0.173  1.00  0.00     0.278 C 
ENDBRANCH  23  28
ENDBRANCH  13  22
ENDBRANCH   7  12
ENDBRANCH   3   6
ENDBRANCH   1   2
BRANCH   1  30
ATOM     30  C   UNL     1      -3.465   6.666  -3.032  1.00  0.00     0.042 C 
BRANCH  30  31
ATOM     31  C   UNL     1      -2.876   5.367  -2.498  1.00  0.00     0.118 C 
BRANCH  31  32
ATOM     32  N   UNL     1      -1.694   5.511  -1.646  1.00  0.00    -0.352 N 
ATOM     33  C   UNL     1      -1.325   4.880  -0.478  1.00  0.00     0.251 C 
ATOM     34  H   UNL     1      -1.045   6.178  -1.966  1.00  0.00     0.163 HD
ATOM     35  O   UNL     1      -0.266   5.190   0.063  1.00  0.00    -0.269 OA
BRANCH  33  36
ATOM     36  C   UNL     1      -2.238   3.925   0.187  1.00  0.00     0.039 A 
ATOM     37  C   UNL     1      -2.310   3.949   1.582  1.00  0.00     0.014 A 
ATOM     38  C   UNL     1      -3.110   3.117  -0.537  1.00  0.00     0.014 A 
ATOM     39  C   UNL     1      -3.366   3.312   2.228  1.00  0.00     0.010 A 
ATOM     40  C   UNL     1      -4.246   2.621   0.085  1.00  0.00     0.010 A 
ATOM     41  C   UNL     1      -4.397   2.733   1.472  1.00  0.00    -0.014 A 
BRANCH  41  42
ATOM     42  C   UNL     1      -5.652   2.279   2.115  1.00  0.00     0.031 A 
ATOM     43  C   UNL     1      -6.090   0.849   1.980  1.00  0.00     0.074 A 
ATOM     44  C   UNL     1      -6.424   3.177   2.762  1.00  0.00     0.049 A 
ATOM     45  N   UNL     1      -7.169   0.272   2.442  1.00  0.00    -0.248 NA
ATOM     46  C   UNL     1      -5.222  -0.045   1.194  1.00  0.00     0.031 C 
ATOM     47  C   UNL     1      -6.139   4.611   2.889  1.00  0.00     0.029 A 
ATOM     48  N   UNL     1      -7.606   3.020   3.439  1.00  0.00    -0.354 N 
ATOM     49  C   UNL     1      -7.108  -1.043   1.998  1.00  0.00     0.074 A 
ATOM     50  C   UNL     1      -5.936  -1.159   1.163  1.00  0.00     0.031 C 
ATOM     51  C   UNL     1      -7.088   5.187   3.644  1.00  0.00     0.029 A 
ATOM     52  C   UNL     1      -8.072   4.179   4.014  1.00  0.00     0.049 A 
ATOM     53  H   UNL     1      -8.078   2.158   3.507  1.00  0.00     0.167 HD
ATOM     54  C   UNL     1      -7.933  -2.074   2.294  1.00  0.00     0.031 A 
ATOM     55  C   UNL     1      -9.171   4.401   4.760  1.00  0.00     0.031 A 
ATOM     56  C   UNL     1      -9.094  -1.952   3.130  1.00  0.00     0.049 A 
ATOM     57  C   UNL     1     -10.073   3.238   5.069  1.00  0.00     0.074 A 
ATOM     58  C   UNL     1      -9.984  -2.934   3.521  1.00  0.00     0.029 A 
ATOM     59  N   UNL     1      -9.520  -0.766   3.710  1.00  0.00    -0.354 N 
ATOM     60  N   UNL     1      -9.960   1.984   4.702  1.00  0.00    -0.248 NA
ATOM     61  C   UNL     1     -11.245   3.517   5.909  1.00  0.00     0.031 C 
ATOM     62  C   UNL     1     -10.975  -2.334   4.304  1.00  0.00     0.029 A 
ATOM     63  C   UNL     1     -10.668  -0.990   4.449  1.00  0.00     0.049 A 
ATOM     64  H   UNL     1      -9.072   0.105   3.611  1.00  0.00     0.167 HD
ATOM     65  C   UNL     1     -11.026   1.319   5.292  1.00  0.00     0.074 A 
ATOM     66  C   UNL     1     -11.761   2.306   6.057  1.00  0.00     0.031 C 
ATOM     67  C   UNL     1     -11.371   0.011   5.207  1.00  0.00     0.031 A 
BRANCH  54  68
ATOM     68  C   UNL     1      -7.585  -3.417   1.715  1.00  0.00    -0.014 A 
ATOM     69  C   UNL     1      -6.443  -4.114   2.145  1.00  0.00     0.009 A 
ATOM     70  C   UNL     1      -8.408  -4.000   0.740  1.00  0.00     0.009 A 
ATOM     71  C   UNL     1      -6.110  -5.347   1.581  1.00  0.00     0.001 A 
ATOM     72  C   UNL     1      -8.089  -5.248   0.200  1.00  0.00     0.001 A 
ATOM     73  C   UNL     1      -6.936  -5.915   0.613  1.00  0.00     0.000 A 
ENDBRANCH  54  68
BRANCH  55  74
ATOM     74  C   UNL     1      -9.473   5.762   5.282  1.00  0.00    -0.014 A 
ATOM     75  C   UNL     1      -9.416   6.031   6.660  1.00  0.00     0.009 A 
ATOM     76  C   UNL     1      -9.845   6.796   4.409  1.00  0.00     0.009 A 
ATOM     77  C   UNL     1      -9.767   7.290   7.153  1.00  0.00     0.001 A 
ATOM     78  C   UNL     1     -10.163   8.064   4.902  1.00  0.00     0.001 A 
ATOM     79  C   UNL     1     -10.138   8.306   6.274  1.00  0.00     0.000 A 
ENDBRANCH  55  74
BRANCH  67  80
ATOM     80  C   UNL     1     -12.567  -0.430   6.001  1.00  0.00    -0.014 A 
ATOM     81  C   UNL     1     -13.869  -0.061   5.629  1.00  0.00     0.009 A 
ATOM     82  C   UNL     1     -12.385  -1.262   7.117  1.00  0.00     0.009 A 
ATOM     83  C   UNL     1     -14.963  -0.487   6.383  1.00  0.00     0.001 A 
ATOM     84  C   UNL     1     -13.483  -1.713   7.848  1.00  0.00     0.001 A 
ATOM     85  C   UNL     1     -14.770  -1.316   7.488  1.00  0.00     0.000 A 
ENDBRANCH  67  80
ENDBRANCH  41  42
ENDBRANCH  33  36
ENDBRANCH  31  32
ENDBRANCH  30  31
ENDBRANCH   1  30
TORSDOF 13
