REMARK SMILES Cc1c(C(=O)NCCCNC(=O)c2ccc(-c3c4nc(c(-c5ccccc5)c5ccc([nH]5)c(-c5ccccc5)c5nc(c(-c6ccccc6)c6ccc3[nH]6)C=C5)C=C4)cc2)oc2c1/C(=N/NC(=O)C(c1ccccc1)c1ccccc1)CCC2
REMARK SMILES IDX 7 1 6 2 4 3 5 4 3 6 1 7 2 8 63 9 61 10 62 11 64 12 84 13
REMARK SMILES IDX 65 14 82 15 83 16 66 17 67 18 68 20 69 21 70 22 71 23 75 24
REMARK SMILES IDX 72 25 74 26 73 27 76 28 77 29 81 30 78 31 80 32 79 33 8 34
REMARK SMILES IDX 9 35 10 36 11 37 12 39 13 40 14 41 60 42 15 43 59 44 16 45
REMARK SMILES IDX 17 46 18 47 53 48 19 49 58 50 52 51 54 52 20 53 57 54 51 55
REMARK SMILES IDX 50 56 21 58 43 59 28 60 42 61 29 62 32 63 41 64 55 65 30 66
REMARK SMILES IDX 31 67 40 69 56 70 33 71 22 72 23 73 27 74 24 75 26 76 25 77
REMARK SMILES IDX 44 78 45 79 49 80 46 81 48 82 47 83 34 84 35 85 39 86 36 87
REMARK SMILES IDX 38 88 37 89
REMARK H PARENT 6 5 66 19 10 38 54 57 32 68
REMARK Flexibility Score: inf
ROOT
ATOM      1  C   UNL     1      -1.854   0.778  -5.056  1.00  0.00     0.118 C 
ENDROOT
BRANCH   1   2
ATOM      2  N   UNL     1      -1.358  -0.488  -4.489  1.00  0.00    -0.349 N 
ATOM      3  C   UNL     1      -0.553  -0.704  -3.369  1.00  0.00     0.287 C 
ATOM      4  O   UNL     1      -0.421  -1.856  -2.963  1.00  0.00    -0.266 OA
ATOM      5  H   UNL     1      -1.635  -1.301  -4.970  1.00  0.00     0.163 HD
BRANCH   3   6
ATOM      6  C   UNL     1       0.038   0.453  -2.733  1.00  0.00     0.195 A 
ATOM      7  C   UNL     1       0.838  -0.160  -0.334  1.00  0.00     0.049 C 
ATOM      8  C   UNL     1       0.574   0.751  -1.477  1.00  0.00     0.010 A 
ATOM      9  C   UNL     1       0.677   2.183  -1.455  1.00  0.00     0.043 A 
ATOM     10  O   UNL     1       0.047   1.571  -3.495  1.00  0.00    -0.455 OA
ATOM     11  C   UNL     1       0.271   2.599  -2.699  1.00  0.00     0.114 A 
ATOM     12  C   UNL     1       0.987   3.190  -0.446  1.00  0.00     0.072 C 
ATOM     13  C   UNL     1      -0.070   3.924  -3.233  1.00  0.00     0.076 C 
ATOM     14  N   UNL     1       1.661   2.742   0.573  1.00  0.00    -0.177 NA
ATOM     15  C   UNL     1       0.358   4.526  -0.853  1.00  0.00     0.059 C 
ATOM     16  C   UNL     1       0.558   4.939  -2.317  1.00  0.00     0.014 C 
BRANCH  14  17
ATOM     17  N   UNL     1       2.224   3.249   1.719  1.00  0.00    -0.246 N 
ATOM     18  C   UNL     1       2.511   4.487   2.273  1.00  0.00     0.252 C 
ATOM     19  H   UNL     1       2.504   2.522   2.322  1.00  0.00     0.193 HD
ATOM     20  O   UNL     1       3.174   4.518   3.318  1.00  0.00    -0.272 OA
BRANCH  18  21
ATOM     21  C   UNL     1       2.005   5.784   1.643  1.00  0.00     0.140 C 
BRANCH  21  22
ATOM     22  C   UNL     1       2.805   5.980   0.280  1.00  0.00    -0.031 A 
ATOM     23  C   UNL     1       3.681   4.966  -0.216  1.00  0.00     0.005 A 
ATOM     24  C   UNL     1       2.720   7.127  -0.521  1.00  0.00     0.005 A 
ATOM     25  C   UNL     1       4.282   5.000  -1.478  1.00  0.00     0.000 A 
ATOM     26  C   UNL     1       3.376   7.191  -1.776  1.00  0.00     0.000 A 
ATOM     27  C   UNL     1       4.124   6.118  -2.268  1.00  0.00     0.000 A 
ENDBRANCH  21  22
BRANCH  21  28
ATOM     28  C   UNL     1       0.419   5.774   1.806  1.00  0.00    -0.031 A 
ATOM     29  C   UNL     1      -0.439   6.751   1.276  1.00  0.00     0.005 A 
ATOM     30  C   UNL     1      -0.233   4.668   2.431  1.00  0.00     0.005 A 
ATOM     31  C   UNL     1      -1.834   6.517   1.197  1.00  0.00     0.000 A 
ATOM     32  C   UNL     1      -1.601   4.411   2.307  1.00  0.00     0.000 A 
ATOM     33  C   UNL     1      -2.403   5.329   1.661  1.00  0.00     0.000 A 
ENDBRANCH  21  28
ENDBRANCH  18  21
ENDBRANCH  14  17
ENDBRANCH   3   6
ENDBRANCH   1   2
BRANCH   1  34
ATOM     34  C   UNL     1      -0.910   1.436  -6.084  1.00  0.00     0.042 C 
BRANCH  34  35
ATOM     35  C   UNL     1      -1.058   0.842  -7.469  1.00  0.00     0.118 C 
BRANCH  35  36
ATOM     36  N   UNL     1      -2.356   1.158  -8.072  1.00  0.00    -0.352 N 
ATOM     37  C   UNL     1      -2.954   0.612  -9.195  1.00  0.00     0.251 C 
ATOM     38  H   UNL     1      -2.876   1.857  -7.614  1.00  0.00     0.163 HD
ATOM     39  O   UNL     1      -3.855   1.188  -9.770  1.00  0.00    -0.269 OA
BRANCH  37  40
ATOM     40  C   UNL     1      -2.463  -0.691  -9.679  1.00  0.00     0.039 A 
ATOM     41  C   UNL     1      -2.302  -0.954 -11.041  1.00  0.00     0.014 A 
ATOM     42  C   UNL     1      -2.095  -1.629  -8.723  1.00  0.00     0.014 A 
ATOM     43  C   UNL     1      -1.675  -2.138 -11.419  1.00  0.00     0.010 A 
ATOM     44  C   UNL     1      -1.286  -2.669  -9.083  1.00  0.00     0.010 A 
ATOM     45  C   UNL     1      -1.140  -2.978 -10.427  1.00  0.00    -0.014 A 
BRANCH  45  46
ATOM     46  C   UNL     1      -0.321  -4.134 -10.768  1.00  0.00     0.031 A 
ATOM     47  C   UNL     1       0.827  -3.813 -11.650  1.00  0.00     0.074 A 
ATOM     48  C   UNL     1      -0.450  -5.335 -10.159  1.00  0.00     0.049 A 
ATOM     49  N   UNL     1       0.946  -4.087 -12.905  1.00  0.00    -0.248 NA
ATOM     50  C   UNL     1       1.893  -2.942 -11.125  1.00  0.00     0.031 C 
ATOM     51  C   UNL     1      -1.317  -5.681  -9.021  1.00  0.00     0.029 A 
ATOM     52  N   UNL     1       0.257  -6.483 -10.348  1.00  0.00    -0.354 N 
ATOM     53  C   UNL     1       2.216  -3.645 -13.265  1.00  0.00     0.074 A 
ATOM     54  C   UNL     1       2.649  -2.765 -12.211  1.00  0.00     0.031 C 
ATOM     55  C   UNL     1      -0.906  -6.844  -8.471  1.00  0.00     0.029 A 
ATOM     56  C   UNL     1       0.105  -7.422  -9.332  1.00  0.00     0.049 A 
ATOM     57  H   UNL     1       0.828  -6.635 -11.136  1.00  0.00     0.167 HD
ATOM     58  C   UNL     1       2.929  -4.307 -14.218  1.00  0.00     0.031 A 
ATOM     59  C   UNL     1       0.763  -8.598  -9.209  1.00  0.00     0.031 A 
ATOM     60  C   UNL     1       2.098  -5.262 -14.909  1.00  0.00     0.049 A 
ATOM     61  C   UNL     1       1.264  -8.959 -10.549  1.00  0.00     0.074 A 
ATOM     62  C   UNL     1       1.064  -5.228 -15.817  1.00  0.00     0.029 A 
ATOM     63  N   UNL     1       2.073  -6.493 -14.302  1.00  0.00    -0.354 N 
ATOM     64  N   UNL     1       0.480  -9.254 -11.546  1.00  0.00    -0.248 NA
ATOM     65  C   UNL     1       2.641  -8.649 -10.906  1.00  0.00     0.031 C 
ATOM     66  C   UNL     1       0.285  -6.398 -15.563  1.00  0.00     0.029 A 
ATOM     67  C   UNL     1       0.895  -7.140 -14.551  1.00  0.00     0.049 A 
ATOM     68  H   UNL     1       2.807  -6.861 -13.760  1.00  0.00     0.167 HD
ATOM     69  C   UNL     1       1.125  -8.731 -12.651  1.00  0.00     0.074 A 
ATOM     70  C   UNL     1       2.510  -8.550 -12.232  1.00  0.00     0.031 C 
ATOM     71  C   UNL     1       0.413  -8.196 -13.685  1.00  0.00     0.031 A 
BRANCH  58  72
ATOM     72  C   UNL     1       4.430  -4.519 -14.158  1.00  0.00    -0.014 A 
ATOM     73  C   UNL     1       5.037  -5.262 -15.189  1.00  0.00     0.009 A 
ATOM     74  C   UNL     1       5.205  -4.301 -13.003  1.00  0.00     0.009 A 
ATOM     75  C   UNL     1       6.316  -5.814 -15.040  1.00  0.00     0.001 A 
ATOM     76  C   UNL     1       6.495  -4.822 -12.864  1.00  0.00     0.001 A 
ATOM     77  C   UNL     1       7.042  -5.601 -13.873  1.00  0.00     0.000 A 
ENDBRANCH  58  72
BRANCH  59  78
ATOM     78  C   UNL     1       1.172  -9.338  -7.998  1.00  0.00    -0.014 A 
ATOM     79  C   UNL     1       1.502 -10.701  -8.072  1.00  0.00     0.009 A 
ATOM     80  C   UNL     1       1.536  -8.635  -6.836  1.00  0.00     0.009 A 
ATOM     81  C   UNL     1       2.227 -11.322  -7.047  1.00  0.00     0.001 A 
ATOM     82  C   UNL     1       2.261  -9.256  -5.813  1.00  0.00     0.001 A 
ATOM     83  C   UNL     1       2.625 -10.595  -5.928  1.00  0.00     0.000 A 
ENDBRANCH  59  78
BRANCH  71  84
ATOM     84  C   UNL     1      -1.027  -8.606 -13.823  1.00  0.00    -0.014 A 
ATOM     85  C   UNL     1      -2.027  -8.291 -12.889  1.00  0.00     0.009 A 
ATOM     86  C   UNL     1      -1.397  -9.269 -15.003  1.00  0.00     0.009 A 
ATOM     87  C   UNL     1      -3.358  -8.655 -13.124  1.00  0.00     0.001 A 
ATOM     88  C   UNL     1      -2.726  -9.612 -15.246  1.00  0.00     0.001 A 
ATOM     89  C   UNL     1      -3.706  -9.310 -14.304  1.00  0.00     0.000 A 
ENDBRANCH  71  84
ENDBRANCH  45  46
ENDBRANCH  37  40
ENDBRANCH  35  36
ENDBRANCH  34  35
ENDBRANCH   1  34
TORSDOF 14
