REMARK SMILES COc1ccc(/C=C2/C(=O)N(c3ccccc3)C(=O)[NH+]=C2NCCCNC(=O)c2ccc(-c3c4nc(c(-c5ccccc5)c5ccc([nH]5)c(-c5ccccc5)c5nc(c(-c6ccccc6)c6ccc3[nH]6)C=C5)C=C4)cc2)cc1C(=O)[O-]
REMARK SMILES IDX 24 1 23 2 22 3 7 4 8 5 9 6 21 7 10 8 11 9 20 10 18 11 19 14
REMARK SMILES IDX 6 15 3 16 4 17 78 18 5 19 77 20 2 21 1 22 79 23 80 24 81 25
REMARK SMILES IDX 12 26 13 27 17 28 14 29 16 30 15 31 25 32 26 33 27 34 28 36
REMARK SMILES IDX 29 37 30 38 76 39 31 40 75 41 32 42 33 43 34 44 69 45 35 46
REMARK SMILES IDX 74 47 68 48 70 49 36 50 73 51 67 52 66 53 37 55 59 56 44 57
REMARK SMILES IDX 58 58 45 59 48 60 57 61 71 62 46 63 47 64 56 66 72 67 49 68
REMARK SMILES IDX 38 69 39 70 43 71 40 72 42 73 41 74 60 75 61 76 65 77 62 78
REMARK SMILES IDX 64 79 63 80 50 81 51 82 55 83 52 84 54 85 53 86
REMARK H PARENT 20 12 22 13 26 35 70 54 48 65
REMARK Flexibility Score: inf
ROOT
ATOM      1  C   UNL     1      -1.768  -2.892  -2.773  1.00  0.00     0.059 C 
ENDROOT
BRANCH   1   2
ATOM      2  C   UNL     1      -1.783  -4.381  -2.530  1.00  0.00     0.195 C 
BRANCH   2   3
ATOM      3  N   UNL     1      -1.524  -5.130  -3.708  1.00  0.00    -0.305 N 
ATOM      4  C   UNL     1       1.889  -4.593  -4.365  1.00  0.00     0.030 C 
ATOM      5  C   UNL     1       0.846  -5.216  -4.990  1.00  0.00     0.129 C 
ATOM      6  C   UNL     1       1.299  -5.939  -6.275  1.00  0.00     0.328 C 
ATOM      7  C   UNL     1      -0.627  -5.369  -4.703  1.00  0.00     0.236 C 
ATOM      8  O   UNL     1       2.501  -6.018  -6.551  1.00  0.00    -0.249 OA
ATOM      9  N   UNL     1       0.303  -6.455  -7.101  1.00  0.00    -0.155 N 
ATOM     10  N   UNL     1      -1.416  -5.927  -5.583  1.00  0.00    -0.209 N 
ATOM     11  C   UNL     1      -1.044  -6.426  -6.776  1.00  0.00     0.448 C 
ATOM     12  H   UNL     1      -2.371  -5.986  -5.352  1.00  0.00     0.270 HD
ATOM     13  H   UNL     1      -2.305  -5.706  -3.870  1.00  0.00     0.256 HD
ATOM     14  O   UNL     1      -1.932  -6.896  -7.485  1.00  0.00    -0.212 OA
BRANCH   4  15
ATOM     15  C   UNL     1       2.065  -3.813  -3.118  1.00  0.00    -0.024 A 
ATOM     16  C   UNL     1       2.161  -2.199  -0.803  1.00  0.00     0.127 A 
ATOM     17  C   UNL     1       1.252  -3.242  -0.907  1.00  0.00     0.048 A 
ATOM     18  C   UNL     1       3.198  -2.113  -1.733  1.00  0.00     0.040 A 
ATOM     19  C   UNL     1       1.277  -4.088  -2.018  1.00  0.00     0.012 A 
ATOM     20  C   UNL     1       3.110  -2.882  -2.922  1.00  0.00     0.022 A 
BRANCH  16  21
ATOM     21  O   UNL     1       1.997  -1.365   0.268  1.00  0.00    -0.496 OA
ATOM     22  C   UNL     1       1.513  -0.087  -0.155  1.00  0.00     0.278 C 
ENDBRANCH  16  21
BRANCH  18  23
ATOM     23  C   UNL     1       4.426  -1.312  -1.480  1.00  0.00     0.075 C 
ATOM     24  O   UNL     1       5.269  -1.023  -2.314  1.00  0.00    -0.545 OA
ATOM     25  O   UNL     1       4.600  -0.997  -0.184  1.00  0.00    -0.545 OA
ENDBRANCH  18  23
ENDBRANCH   4  15
BRANCH   9  26
ATOM     26  C   UNL     1       0.642  -7.141  -8.319  1.00  0.00     0.111 A 
ATOM     27  C   UNL     1      -0.072  -6.878  -9.503  1.00  0.00     0.044 A 
ATOM     28  C   UNL     1       1.581  -8.180  -8.322  1.00  0.00     0.044 A 
ATOM     29  C   UNL     1       0.123  -7.648 -10.650  1.00  0.00     0.004 A 
ATOM     30  C   UNL     1       1.763  -8.962  -9.469  1.00  0.00     0.004 A 
ATOM     31  C   UNL     1       1.034  -8.698 -10.628  1.00  0.00     0.000 A 
ENDBRANCH   9  26
ENDBRANCH   2   3
ENDBRANCH   1   2
BRANCH   1  32
ATOM     32  C   UNL     1      -2.520  -2.141  -1.686  1.00  0.00     0.119 C 
BRANCH  32  33
ATOM     33  N   UNL     1      -2.213  -2.528  -0.314  1.00  0.00    -0.352 N 
ATOM     34  C   UNL     1      -2.161  -1.766   0.831  1.00  0.00     0.251 C 
ATOM     35  H   UNL     1      -2.011  -3.483  -0.186  1.00  0.00     0.163 HD
ATOM     36  O   UNL     1      -1.856  -2.299   1.894  1.00  0.00    -0.269 OA
BRANCH  34  37
ATOM     37  C   UNL     1      -2.424  -0.312   0.778  1.00  0.00     0.039 A 
ATOM     38  C   UNL     1      -1.691   0.541   1.609  1.00  0.00     0.014 A 
ATOM     39  C   UNL     1      -3.365   0.221  -0.102  1.00  0.00     0.014 A 
ATOM     40  C   UNL     1      -1.842   1.924   1.489  1.00  0.00     0.010 A 
ATOM     41  C   UNL     1      -3.415   1.587  -0.317  1.00  0.00     0.010 A 
ATOM     42  C   UNL     1      -2.675   2.455   0.494  1.00  0.00    -0.014 A 
BRANCH  42  43
ATOM     43  C   UNL     1      -2.857   3.911   0.303  1.00  0.00     0.031 A 
ATOM     44  C   UNL     1      -4.230   4.505   0.468  1.00  0.00     0.074 A 
ATOM     45  C   UNL     1      -1.825   4.668  -0.115  1.00  0.00     0.049 A 
ATOM     46  N   UNL     1      -4.638   5.724   0.228  1.00  0.00    -0.248 NA
ATOM     47  C   UNL     1      -5.297   3.594   0.921  1.00  0.00     0.031 C 
ATOM     48  C   UNL     1      -0.461   4.191  -0.356  1.00  0.00     0.029 A 
ATOM     49  N   UNL     1      -1.771   6.002  -0.426  1.00  0.00    -0.354 N 
ATOM     50  C   UNL     1      -6.005   5.715   0.476  1.00  0.00     0.074 A 
ATOM     51  C   UNL     1      -6.371   4.359   0.813  1.00  0.00     0.031 C 
ATOM     52  C   UNL     1       0.301   5.224  -0.750  1.00  0.00     0.029 A 
ATOM     53  C   UNL     1      -0.528   6.421  -0.834  1.00  0.00     0.049 A 
ATOM     54  H   UNL     1      -2.548   6.602  -0.362  1.00  0.00     0.167 HD
ATOM     55  C   UNL     1      -6.876   6.750   0.455  1.00  0.00     0.031 A 
ATOM     56  C   UNL     1      -0.111   7.636  -1.237  1.00  0.00     0.031 A 
ATOM     57  C   UNL     1      -6.500   8.099   0.136  1.00  0.00     0.049 A 
ATOM     58  C   UNL     1      -1.100   8.769  -1.265  1.00  0.00     0.074 A 
ATOM     59  C   UNL     1      -7.284   9.238   0.144  1.00  0.00     0.029 A 
ATOM     60  N   UNL     1      -5.227   8.488  -0.252  1.00  0.00    -0.354 N 
ATOM     61  N   UNL     1      -2.374   8.764  -0.953  1.00  0.00    -0.248 NA
ATOM     62  C   UNL     1      -0.589  10.080  -1.689  1.00  0.00     0.031 C 
ATOM     63  C   UNL     1      -6.499  10.307  -0.297  1.00  0.00     0.029 A 
ATOM     64  C   UNL     1      -5.209   9.846  -0.513  1.00  0.00     0.049 A 
ATOM     65  H   UNL     1      -4.451   7.887  -0.329  1.00  0.00     0.167 HD
ATOM     66  C   UNL     1      -2.810  10.073  -1.112  1.00  0.00     0.074 A 
ATOM     67  C   UNL     1      -1.658  10.847  -1.530  1.00  0.00     0.031 C 
ATOM     68  C   UNL     1      -4.049  10.592  -0.929  1.00  0.00     0.031 A 
BRANCH  55  69
ATOM     69  C   UNL     1      -8.314   6.453   0.783  1.00  0.00    -0.014 A 
ATOM     70  C   UNL     1      -8.703   6.056   2.074  1.00  0.00     0.009 A 
ATOM     71  C   UNL     1      -9.299   6.588  -0.207  1.00  0.00     0.009 A 
ATOM     72  C   UNL     1     -10.038   5.758   2.353  1.00  0.00     0.001 A 
ATOM     73  C   UNL     1     -10.639   6.323   0.084  1.00  0.00     0.001 A 
ATOM     74  C   UNL     1     -11.005   5.897   1.359  1.00  0.00     0.000 A 
ENDBRANCH  55  69
BRANCH  56  75
ATOM     75  C   UNL     1       1.308   7.850  -1.626  1.00  0.00    -0.014 A 
ATOM     76  C   UNL     1       2.154   8.635  -0.826  1.00  0.00     0.009 A 
ATOM     77  C   UNL     1       1.826   7.279  -2.799  1.00  0.00     0.009 A 
ATOM     78  C   UNL     1       3.477   8.869  -1.208  1.00  0.00     0.001 A 
ATOM     79  C   UNL     1       3.158   7.488  -3.163  1.00  0.00     0.001 A 
ATOM     80  C   UNL     1       3.979   8.292  -2.373  1.00  0.00     0.000 A 
ENDBRANCH  56  75
BRANCH  68  81
ATOM     81  C   UNL     1      -4.213  12.070  -1.144  1.00  0.00    -0.014 A 
ATOM     82  C   UNL     1      -4.156  12.634  -2.428  1.00  0.00     0.009 A 
ATOM     83  C   UNL     1      -4.475  12.904  -0.045  1.00  0.00     0.009 A 
ATOM     84  C   UNL     1      -4.322  14.009  -2.602  1.00  0.00     0.001 A 
ATOM     85  C   UNL     1      -4.676  14.272  -0.226  1.00  0.00     0.001 A 
ATOM     86  C   UNL     1      -4.588  14.825  -1.502  1.00  0.00     0.000 A 
ENDBRANCH  68  81
ENDBRANCH  42  43
ENDBRANCH  34  37
ENDBRANCH  32  33
ENDBRANCH   1  32
TORSDOF 13
