REMARK SMILES O=C(C[C@H](Cc1ccc(Cl)cc1)C(=O)Nc1cc(Cl)ccc1Cl)NCCCNC(=O)c1ccc(-c2c3nc(c(-c4ccccc4)c4ccc([nH]4)c(-c4ccccc4)c4nc(c(-c5ccccc5)c5ccc2[nH]5)C=C4)C=C3)cc1
REMARK SMILES IDX 25 1 24 2 1 3 2 4 3 6 4 7 13 8 14 9 15 10 16 12 17 13 22 14
REMARK SMILES IDX 18 15 21 16 23 17 19 18 20 19 5 20 6 21 7 22 12 23 8 24
REMARK SMILES IDX 11 25 9 26 10 27 26 28 27 29 28 30 29 31 30 33 31 34 32 35
REMARK SMILES IDX 78 36 33 37 77 38 34 39 35 40 36 41 71 42 37 43 76 44 70 45
REMARK SMILES IDX 72 46 38 47 75 48 69 49 68 50 39 52 61 53 46 54 60 55 47 56
REMARK SMILES IDX 50 57 59 58 73 59 48 60 49 61 58 63 74 64 51 65 40 66 41 67
REMARK SMILES IDX 45 68 42 69 44 70 43 71 62 72 63 73 67 74 64 75 66 76 65 77
REMARK SMILES IDX 52 78 53 79 57 80 54 81 56 82 55 83
REMARK H PARENT 24 5 15 11 28 32 72 51 50 62
REMARK Flexibility Score: inf
ROOT
ATOM      1  C   UNL     1       4.779  -0.092  -4.990  1.00  0.00     0.117 C 
ENDROOT
BRANCH   1   2
ATOM      2  N   UNL     1       4.770  -0.684  -3.670  1.00  0.00    -0.356 N 
ATOM      3  O   UNL     1       4.886   1.280  -2.475  1.00  0.00    -0.275 OA
ATOM      4  C   UNL     1       4.922   0.057  -2.522  1.00  0.00     0.220 C 
ATOM      5  H   UNL     1       4.650  -1.658  -3.590  1.00  0.00     0.163 HD
BRANCH   4   6
ATOM      6  C   UNL     1       5.265  -0.782  -1.318  1.00  0.00     0.113 C 
BRANCH   6   7
ATOM      7  C   UNL     1       4.126  -1.676  -0.803  1.00  0.00     0.092 C 
BRANCH   7   8
ATOM      8  C   UNL     1       4.729  -3.083  -0.480  1.00  0.00     0.228 C 
ATOM      9  O   UNL     1       4.307  -4.078  -1.077  1.00  0.00    -0.274 OA
ATOM     10  N   UNL     1       5.867  -3.214   0.301  1.00  0.00    -0.324 N 
ATOM     11  H   UNL     1       6.410  -4.025   0.175  1.00  0.00     0.169 HD
BRANCH  10  12
ATOM     12  C   UNL     1       6.311  -2.284   1.258  1.00  0.00     0.061 A 
ATOM     13  C   UNL     1       5.307  -1.655   1.998  1.00  0.00     0.048 A 
ATOM     14  C   UNL     1       7.623  -1.917   1.438  1.00  0.00     0.064 A 
ATOM     15  C   UNL     1       5.329  -0.297   2.623  1.00  0.00     0.043 A 
ATOM     16  C   UNL     1       7.873  -0.803   2.221  1.00  0.00     0.024 A 
ATOM     17  Cl  UNL     1       8.912  -2.729   0.645  1.00  0.00    -0.082 Cl
ATOM     18  Cl  UNL     1       3.376   1.145   3.095  1.00  0.00    -0.084 Cl
ATOM     19  C   UNL     1       6.804  -0.012   2.749  1.00  0.00     0.022 A 
ENDBRANCH  10  12
ENDBRANCH   7   8
BRANCH   7  20
ATOM     20  C   UNL     1       3.062  -1.017   0.141  1.00  0.00     0.049 C 
BRANCH  20  21
ATOM     21  C   UNL     1       3.515  -0.267   1.387  1.00  0.00    -0.047 A 
ATOM     22  C   UNL     1       4.585   1.198   1.220  1.00  0.00     0.005 A 
ATOM     23  C   UNL     1       3.280  -1.039   3.052  1.00  0.00     0.005 A 
ATOM     24  C   UNL     1       5.388   1.924   2.681  1.00  0.00     0.021 A 
ATOM     25  C   UNL     1       4.202  -0.395   4.484  1.00  0.00     0.021 A 
ATOM     26  C   UNL     1       5.211   1.104   4.312  1.00  0.00     0.041 A 
ATOM     27  Cl  UNL     1       5.951   1.798   5.703  1.00  0.00    -0.084 Cl
ENDBRANCH  20  21
ENDBRANCH   7  20
ENDBRANCH   6   7
ENDBRANCH   4   6
ENDBRANCH   1   2
BRANCH   1  28
ATOM     28  C   UNL     1       6.021  -0.521  -5.770  1.00  0.00     0.042 C 
BRANCH  28  29
ATOM     29  C   UNL     1       6.159  -2.031  -5.959  1.00  0.00     0.118 C 
BRANCH  29  30
ATOM     30  N   UNL     1       5.038  -2.618  -6.673  1.00  0.00    -0.352 N 
ATOM     31  C   UNL     1       5.016  -3.440  -7.770  1.00  0.00     0.251 C 
ATOM     32  H   UNL     1       4.152  -2.389  -6.311  1.00  0.00     0.163 HD
ATOM     33  O   UNL     1       3.942  -3.688  -8.312  1.00  0.00    -0.269 OA
BRANCH  31  34
ATOM     34  C   UNL     1       6.263  -4.020  -8.318  1.00  0.00     0.039 A 
ATOM     35  C   UNL     1       6.383  -4.137  -9.706  1.00  0.00     0.014 A 
ATOM     36  C   UNL     1       7.283  -4.499  -7.492  1.00  0.00     0.014 A 
ATOM     37  C   UNL     1       7.531  -4.704 -10.262  1.00  0.00     0.010 A 
ATOM     38  C   UNL     1       8.465  -4.984  -8.050  1.00  0.00     0.010 A 
ATOM     39  C   UNL     1       8.593  -5.115  -9.440  1.00  0.00    -0.014 A 
BRANCH  39  40
ATOM     40  C   UNL     1       9.818  -5.712 -10.033  1.00  0.00     0.031 A 
ATOM     41  C   UNL     1      10.193  -7.141  -9.737  1.00  0.00     0.074 A 
ATOM     42  C   UNL     1      10.603  -4.966 -10.835  1.00  0.00     0.049 A 
ATOM     43  N   UNL     1      11.201  -7.842 -10.194  1.00  0.00    -0.248 NA
ATOM     44  C   UNL     1       9.339  -7.873  -8.788  1.00  0.00     0.031 C 
ATOM     45  C   UNL     1      10.378  -3.559 -11.172  1.00  0.00     0.029 A 
ATOM     46  N   UNL     1      11.745  -5.293 -11.524  1.00  0.00    -0.354 N 
ATOM     47  C   UNL     1      11.105  -9.087  -9.584  1.00  0.00     0.074 A 
ATOM     48  C   UNL     1       9.981  -9.026  -8.677  1.00  0.00     0.031 C 
ATOM     49  C   UNL     1      11.322  -3.158 -12.037  1.00  0.00     0.029 A 
ATOM     50  C   UNL     1      12.241  -4.263 -12.286  1.00  0.00     0.049 A 
ATOM     51  H   UNL     1      12.167  -6.181 -11.476  1.00  0.00     0.167 HD
ATOM     52  C   UNL     1      11.865 -10.192  -9.776  1.00  0.00     0.031 A 
ATOM     53  C   UNL     1      13.313  -4.215 -13.100  1.00  0.00     0.031 A 
ATOM     54  C   UNL     1      12.985 -10.256 -10.678  1.00  0.00     0.049 A 
ATOM     55  C   UNL     1      14.149  -5.452 -13.287  1.00  0.00     0.074 A 
ATOM     56  C   UNL     1      13.792 -11.341 -10.976  1.00  0.00     0.029 A 
ATOM     57  N   UNL     1      13.459  -9.189 -11.426  1.00  0.00    -0.354 N 
ATOM     58  N   UNL     1      14.001  -6.641 -12.755  1.00  0.00    -0.248 NA
ATOM     59  C   UNL     1      15.287  -5.341 -14.209  1.00  0.00     0.031 C 
ATOM     60  C   UNL     1      14.791 -10.915 -11.858  1.00  0.00     0.029 A 
ATOM     61  C   UNL     1      14.560  -9.584 -12.168  1.00  0.00     0.049 A 
ATOM     62  H   UNL     1      13.070  -8.284 -11.428  1.00  0.00     0.167 HD
ATOM     63  C   UNL     1      15.003  -7.429 -13.308  1.00  0.00     0.074 A 
ATOM     64  C   UNL     1      15.737  -6.587 -14.229  1.00  0.00     0.031 C 
ATOM     65  C   UNL     1      15.286  -8.736 -13.079  1.00  0.00     0.031 A 
BRANCH  52  66
ATOM     66  C   UNL     1      11.513 -11.422  -8.982  1.00  0.00    -0.014 A 
ATOM     67  C   UNL     1      10.320 -12.127  -9.216  1.00  0.00     0.009 A 
ATOM     68  C   UNL     1      12.399 -11.901  -8.005  1.00  0.00     0.009 A 
ATOM     69  C   UNL     1      10.004 -13.258  -8.460  1.00  0.00     0.001 A 
ATOM     70  C   UNL     1      12.097 -13.052  -7.275  1.00  0.00     0.001 A 
ATOM     71  C   UNL     1      10.895 -13.723  -7.494  1.00  0.00     0.000 A 
ENDBRANCH  52  66
BRANCH  53  72
ATOM     72  C   UNL     1      13.645  -2.960 -13.826  1.00  0.00    -0.014 A 
ATOM     73  C   UNL     1      13.518  -2.885 -15.222  1.00  0.00     0.009 A 
ATOM     74  C   UNL     1      14.110  -1.835 -13.127  1.00  0.00     0.009 A 
ATOM     75  C   UNL     1      13.885  -1.723 -15.906  1.00  0.00     0.001 A 
ATOM     76  C   UNL     1      14.443  -0.663 -13.810  1.00  0.00     0.001 A 
ATOM     77  C   UNL     1      14.343  -0.613 -15.199  1.00  0.00     0.000 A 
ENDBRANCH  53  72
BRANCH  65  78
ATOM     78  C   UNL     1      16.404  -9.346 -13.881  1.00  0.00    -0.014 A 
ATOM     79  C   UNL     1      17.743  -8.969 -13.692  1.00  0.00     0.009 A 
ATOM     80  C   UNL     1      16.106 -10.325 -14.843  1.00  0.00     0.009 A 
ATOM     81  C   UNL     1      18.751  -9.518 -14.489  1.00  0.00     0.001 A 
ATOM     82  C   UNL     1      17.119 -10.900 -15.610  1.00  0.00     0.001 A 
ATOM     83  C   UNL     1      18.438 -10.484 -15.444  1.00  0.00     0.000 A 
ENDBRANCH  65  78
ENDBRANCH  39  40
ENDBRANCH  31  34
ENDBRANCH  29  30
ENDBRANCH  28  29
ENDBRANCH   1  28
TORSDOF 15
