REMARK SMILES COc1ccc(/C=C(/Sc2nc(C)n[nH]2)C(=O)NCCCNC(=O)c2ccc(-c3c4nc(c(-c5ccccc5)c5ccc([nH]5)c(-c5ccccc5)c5nc(c(-c6ccccc6)c6ccc3[nH]6)C=C5)C=C4)cc2)cc1OC
REMARK SMILES IDX 20 1 19 2 18 3 16 4 17 5 8 7 7 8 6 9 3 10 4 11 74 12 5 13
REMARK SMILES IDX 73 14 2 15 1 16 75 17 76 18 9 19 10 20 11 21 15 22 12 23
REMARK SMILES IDX 14 24 13 26 21 27 22 28 23 29 24 31 25 32 26 33 72 34 27 35
REMARK SMILES IDX 71 36 28 37 29 38 30 39 65 40 31 41 70 42 64 43 66 44 32 45
REMARK SMILES IDX 69 46 63 47 62 48 33 50 55 51 40 52 54 53 41 54 44 55 53 56
REMARK SMILES IDX 67 57 42 58 43 59 52 61 68 62 45 63 34 64 35 65 39 66 36 67
REMARK SMILES IDX 38 68 37 69 56 70 57 71 61 72 58 73 60 74 59 75 46 76 47 77
REMARK SMILES IDX 51 78 48 79 50 80 49 81
REMARK H PARENT 18 6 15 25 22 30 66 49 44 60
REMARK Flexibility Score: inf
ROOT
ATOM      1  C   UNL     1      -1.024  -9.666   4.767  1.00  0.00     0.042 C 
ENDROOT
BRANCH   1   2
ATOM      2  C   UNL     1      -1.059  -9.342   3.271  1.00  0.00     0.118 C 
BRANCH   2   3
ATOM      3  N   UNL     1      -1.206  -7.927   2.959  1.00  0.00    -0.352 N 
ATOM      4  C   UNL     1      -0.363  -7.044   2.336  1.00  0.00     0.258 C 
ATOM      5  O   UNL     1      -0.933  -6.254   1.578  1.00  0.00    -0.269 OA
ATOM      6  H   UNL     1      -2.062  -7.535   3.247  1.00  0.00     0.163 HD
BRANCH   4   7
ATOM      7  C   UNL     1       1.132  -6.958   2.591  1.00  0.00     0.081 C 
ATOM      8  C   UNL     1       1.818  -5.807   2.388  1.00  0.00     0.029 C 
BRANCH   8   9
ATOM      9  C   UNL     1       1.460  -4.437   1.941  1.00  0.00    -0.020 A 
ATOM     10  C   UNL     1       1.091  -1.695   1.319  1.00  0.00     0.160 A 
ATOM     11  C   UNL     1       0.095  -2.422   1.980  1.00  0.00     0.051 A 
ATOM     12  C   UNL     1       2.295  -2.318   0.983  1.00  0.00     0.161 A 
ATOM     13  C   UNL     1       0.289  -3.772   2.308  1.00  0.00     0.012 A 
ATOM     14  C   UNL     1       2.449  -3.687   1.277  1.00  0.00     0.058 A 
BRANCH  10  15
ATOM     15  O   UNL     1       0.880  -0.351   1.166  1.00  0.00    -0.493 OA
ATOM     16  C   UNL     1       0.185  -0.052  -0.044  1.00  0.00     0.278 C 
ENDBRANCH  10  15
BRANCH  12  17
ATOM     17  O   UNL     1       3.421  -1.776   0.425  1.00  0.00    -0.493 OA
ATOM     18  C   UNL     1       3.437  -0.399   0.087  1.00  0.00     0.278 C 
ENDBRANCH  12  17
ENDBRANCH   8   9
BRANCH   7  19
ATOM     19  S   UNL     1       1.919  -8.313   3.370  1.00  0.00    -0.045 SA
BRANCH  19  20
ATOM     20  C   UNL     1       3.381  -8.527   2.487  1.00  0.00     0.188 A 
ATOM     21  N   UNL     1       4.329  -7.656   2.247  1.00  0.00    -0.206 NA
ATOM     22  N   UNL     1       3.827  -9.778   2.184  1.00  0.00    -0.254 N 
ATOM     23  C   UNL     1       5.365  -8.438   1.802  1.00  0.00     0.148 A 
ATOM     24  N   UNL     1       5.095  -9.749   1.738  1.00  0.00    -0.158 NA
ATOM     25  H   UNL     1       3.290 -10.598   2.279  1.00  0.00     0.192 HD
ATOM     26  C   UNL     1       6.697  -7.873   1.506  1.00  0.00     0.092 C 
ENDBRANCH  19  20
ENDBRANCH   7  19
ENDBRANCH   4   7
ENDBRANCH   2   3
ENDBRANCH   1   2
BRANCH   1  27
ATOM     27  C   UNL     1      -2.399  -9.579   5.409  1.00  0.00     0.118 C 
BRANCH  27  28
ATOM     28  N   UNL     1      -3.346 -10.575   4.891  1.00  0.00    -0.352 N 
ATOM     29  C   UNL     1      -4.651 -10.829   5.285  1.00  0.00     0.251 C 
ATOM     30  H   UNL     1      -3.006 -11.142   4.162  1.00  0.00     0.163 HD
ATOM     31  O   UNL     1      -5.217 -11.856   4.962  1.00  0.00    -0.269 OA
BRANCH  29  32
ATOM     32  C   UNL     1      -5.343  -9.818   6.104  1.00  0.00     0.039 A 
ATOM     33  C   UNL     1      -6.191 -10.165   7.159  1.00  0.00     0.014 A 
ATOM     34  C   UNL     1      -5.083  -8.486   5.809  1.00  0.00     0.014 A 
ATOM     35  C   UNL     1      -6.709  -9.148   7.958  1.00  0.00     0.010 A 
ATOM     36  C   UNL     1      -5.396  -7.522   6.720  1.00  0.00     0.010 A 
ATOM     37  C   UNL     1      -6.288  -7.829   7.734  1.00  0.00    -0.014 A 
BRANCH  37  38
ATOM     38  C   UNL     1      -6.670  -6.730   8.604  1.00  0.00     0.031 A 
ATOM     39  C   UNL     1      -6.270  -6.920  10.019  1.00  0.00     0.074 A 
ATOM     40  C   UNL     1      -7.096  -5.545   8.111  1.00  0.00     0.049 A 
ATOM     41  N   UNL     1      -7.046  -7.140  11.025  1.00  0.00    -0.248 NA
ATOM     42  C   UNL     1      -4.836  -7.050  10.333  1.00  0.00     0.031 C 
ATOM     43  C   UNL     1      -7.221  -5.131   6.705  1.00  0.00     0.029 A 
ATOM     44  N   UNL     1      -7.383  -4.397   8.775  1.00  0.00    -0.354 N 
ATOM     45  C   UNL     1      -6.216  -7.197  12.139  1.00  0.00     0.074 A 
ATOM     46  C   UNL     1      -4.879  -7.362  11.630  1.00  0.00     0.031 C 
ATOM     47  C   UNL     1      -7.310  -3.784   6.631  1.00  0.00     0.029 A 
ATOM     48  C   UNL     1      -7.428  -3.258   7.978  1.00  0.00     0.049 A 
ATOM     49  H   UNL     1      -7.547  -4.372   9.746  1.00  0.00     0.167 HD
ATOM     50  C   UNL     1      -6.667  -6.795  13.361  1.00  0.00     0.031 A 
ATOM     51  C   UNL     1      -7.533  -1.973   8.401  1.00  0.00     0.031 A 
ATOM     52  C   UNL     1      -8.106  -6.654  13.361  1.00  0.00     0.049 A 
ATOM     53  C   UNL     1      -8.054  -2.016   9.787  1.00  0.00     0.074 A 
ATOM     54  C   UNL     1      -9.169  -7.495  13.103  1.00  0.00     0.029 A 
ATOM     55  N   UNL     1      -8.598  -5.374  13.241  1.00  0.00    -0.354 N 
ATOM     56  N   UNL     1      -9.256  -2.421  10.081  1.00  0.00    -0.248 NA
ATOM     57  C   UNL     1      -7.091  -2.077  10.875  1.00  0.00     0.031 C 
ATOM     58  C   UNL     1     -10.101  -6.694  12.376  1.00  0.00     0.029 A 
ATOM     59  C   UNL     1      -9.602  -5.392  12.311  1.00  0.00     0.049 A 
ATOM     60  H   UNL     1      -8.283  -4.584  13.737  1.00  0.00     0.167 HD
ATOM     61  C   UNL     1      -9.091  -3.212  11.209  1.00  0.00     0.074 A 
ATOM     62  C   UNL     1      -7.760  -2.873  11.716  1.00  0.00     0.031 C 
ATOM     63  C   UNL     1      -9.915  -4.276  11.445  1.00  0.00     0.031 A 
BRANCH  50  64
ATOM     64  C   UNL     1      -5.808  -6.066  14.373  1.00  0.00    -0.014 A 
ATOM     65  C   UNL     1      -6.425  -5.606  15.552  1.00  0.00     0.009 A 
ATOM     66  C   UNL     1      -4.528  -5.553  14.096  1.00  0.00     0.009 A 
ATOM     67  C   UNL     1      -5.852  -4.595  16.331  1.00  0.00     0.001 A 
ATOM     68  C   UNL     1      -3.933  -4.572  14.894  1.00  0.00     0.001 A 
ATOM     69  C   UNL     1      -4.613  -4.065  15.990  1.00  0.00     0.000 A 
ENDBRANCH  50  64
BRANCH  51  70
ATOM     70  C   UNL     1      -7.004  -0.729   7.801  1.00  0.00    -0.014 A 
ATOM     71  C   UNL     1      -7.502   0.526   8.189  1.00  0.00     0.009 A 
ATOM     72  C   UNL     1      -5.811  -0.756   7.056  1.00  0.00     0.009 A 
ATOM     73  C   UNL     1      -6.806   1.705   7.884  1.00  0.00     0.001 A 
ATOM     74  C   UNL     1      -5.117   0.421   6.751  1.00  0.00     0.001 A 
ATOM     75  C   UNL     1      -5.606   1.651   7.179  1.00  0.00     0.000 A 
ENDBRANCH  51  70
BRANCH  63  76
ATOM     76  C   UNL     1     -11.136  -4.433  10.568  1.00  0.00    -0.014 A 
ATOM     77  C   UNL     1     -11.069  -4.639   9.177  1.00  0.00     0.009 A 
ATOM     78  C   UNL     1     -12.386  -4.531  11.192  1.00  0.00     0.009 A 
ATOM     79  C   UNL     1     -12.225  -4.907   8.434  1.00  0.00     0.001 A 
ATOM     80  C   UNL     1     -13.537  -4.819  10.455  1.00  0.00     0.001 A 
ATOM     81  C   UNL     1     -13.457  -5.001   9.076  1.00  0.00     0.000 A 
ENDBRANCH  63  76
ENDBRANCH  37  38
ENDBRANCH  29  32
ENDBRANCH  27  28
ENDBRANCH   1  27
TORSDOF 15
