REMARK SMILES C[C@H]([NH3+])c1ccc(F)cc1OCC(C)(C)C(=O)NCCCNC(=O)c1ccc(-c2c3nc(c(-c4ccccc4)c4ccc([nH]4)c(-c4ccccc4)c4nc(c(-c5ccccc5)c5ccc2[nH]5)C=C4)C=C3)cc1
REMARK SMILES IDX 16 1 17 2 18 3 13 5 14 6 15 7 12 8 11 9 10 10 4 11 5 12 6 13
REMARK SMILES IDX 9 14 7 15 8 16 2 17 1 18 3 19 19 23 20 24 21 25 22 26 23 27
REMARK SMILES IDX 24 29 25 30 26 31 72 32 27 33 71 34 28 35 29 36 30 37 65 38
REMARK SMILES IDX 31 39 70 40 64 41 66 42 32 43 69 44 63 45 62 46 33 48 55 49
REMARK SMILES IDX 40 50 54 51 41 52 44 53 53 54 67 55 42 56 43 57 52 59 68 60
REMARK SMILES IDX 45 61 34 62 35 63 39 64 36 65 38 66 37 67 56 68 57 69 61 70
REMARK SMILES IDX 58 71 60 72 59 73 46 74 47 75 51 76 48 77 50 78 49 79
REMARK H PARENT 18 4 3 20 3 21 3 22 22 28 66 47 44 58
REMARK Flexibility Score: inf
ROOT
ATOM      1  C   UNL     1       0.535   2.919  -2.940  1.00  0.00     0.229 C 
ATOM      2  O   UNL     1      -0.039   3.221  -3.985  1.00  0.00    -0.274 OA
ATOM      3  N   UNL     1       1.037   3.942  -2.170  1.00  0.00    -0.355 N 
ATOM      4  H   UNL     1       0.964   4.839  -2.568  1.00  0.00     0.163 HD
ENDROOT
BRANCH   1   5
ATOM      5  C   UNL     1       0.750   1.467  -2.486  1.00  0.00     0.077 C 
ATOM      6  C   UNL     1       0.200   1.362  -1.045  1.00  0.00     0.025 C 
ATOM      7  C   UNL     1       2.280   1.213  -2.595  1.00  0.00     0.025 C 
BRANCH   5   8
ATOM      8  C   UNL     1       0.123   0.435  -3.484  1.00  0.00     0.245 C 
BRANCH   8   9
ATOM      9  O   UNL     1      -1.255   0.139  -3.341  1.00  0.00    -0.492 OA
BRANCH   9  10
ATOM     10  C   UNL     1      -1.822  -0.665  -2.394  1.00  0.00     0.131 A 
ATOM     11  C   UNL     1      -1.261  -1.510  -1.403  1.00  0.00     0.051 A 
ATOM     12  C   UNL     1      -2.147  -2.052  -0.433  1.00  0.00     0.017 A 
ATOM     13  C   UNL     1      -3.510  -1.760  -0.422  1.00  0.00     0.040 A 
ATOM     14  C   UNL     1      -3.213  -0.445  -2.406  1.00  0.00     0.086 A 
ATOM     15  C   UNL     1      -4.035  -0.968  -1.422  1.00  0.00     0.126 A 
ATOM     16  F   UNL     1      -5.340  -0.669  -1.421  1.00  0.00    -0.207 F 
BRANCH  11  17
ATOM     17  C   UNL     1       0.217  -1.837  -1.220  1.00  0.00     0.212 C 
ATOM     18  C   UNL     1       0.615  -3.173  -1.832  1.00  0.00     0.081 C 
BRANCH  17  19
ATOM     19  N   UNL     1       0.630  -1.821   0.197  1.00  0.00    -0.351 N 
ATOM     20  H   UNL     1       0.145  -2.563   0.701  1.00  0.00     0.345 HD
ATOM     21  H   UNL     1       0.393  -0.918   0.610  1.00  0.00     0.345 HD
ATOM     22  H   UNL     1       1.637  -1.969   0.259  1.00  0.00     0.345 HD
ENDBRANCH  17  19
ENDBRANCH  11  17
ENDBRANCH   9  10
ENDBRANCH   8   9
ENDBRANCH   5   8
ENDBRANCH   1   5
BRANCH   3  23
ATOM     23  C   UNL     1       1.663   3.897  -0.851  1.00  0.00     0.117 C 
BRANCH  23  24
ATOM     24  C   UNL     1       2.931   4.705  -0.772  1.00  0.00     0.042 C 
BRANCH  24  25
ATOM     25  C   UNL     1       2.635   6.186  -0.753  1.00  0.00     0.118 C 
BRANCH  25  26
ATOM     26  N   UNL     1       1.893   6.589   0.441  1.00  0.00    -0.352 N 
ATOM     27  C   UNL     1       2.272   7.436   1.456  1.00  0.00     0.251 C 
ATOM     28  H   UNL     1       0.994   6.198   0.531  1.00  0.00     0.163 HD
ATOM     29  O   UNL     1       1.625   7.510   2.487  1.00  0.00    -0.269 OA
BRANCH  27  30
ATOM     30  C   UNL     1       3.498   8.234   1.273  1.00  0.00     0.039 A 
ATOM     31  C   UNL     1       4.428   8.317   2.309  1.00  0.00     0.014 A 
ATOM     32  C   UNL     1       3.750   8.826   0.035  1.00  0.00     0.014 A 
ATOM     33  C   UNL     1       5.656   8.930   2.067  1.00  0.00     0.010 A 
ATOM     34  C   UNL     1       5.019   9.297  -0.244  1.00  0.00     0.010 A 
ATOM     35  C   UNL     1       5.976   9.380   0.775  1.00  0.00    -0.014 A 
BRANCH  35  36
ATOM     36  C   UNL     1       7.285   9.995   0.460  1.00  0.00     0.031 A 
ATOM     37  C   UNL     1       7.324  11.402  -0.074  1.00  0.00     0.074 A 
ATOM     38  C   UNL     1       8.415   9.271   0.573  1.00  0.00     0.049 A 
ATOM     39  N   UNL     1       8.346  12.091  -0.513  1.00  0.00    -0.248 NA
ATOM     40  C   UNL     1       6.037  12.114  -0.168  1.00  0.00     0.031 C 
ATOM     41  C   UNL     1       8.498   7.881   1.030  1.00  0.00     0.029 A 
ATOM     42  N   UNL     1       9.716   9.610   0.306  1.00  0.00    -0.354 N 
ATOM     43  C   UNL     1       7.818  13.296  -0.957  1.00  0.00     0.074 A 
ATOM     44  C   UNL     1       6.384  13.219  -0.807  1.00  0.00     0.031 C 
ATOM     45  C   UNL     1       9.787   7.503   1.055  1.00  0.00     0.029 A 
ATOM     46  C   UNL     1      10.613   8.603   0.571  1.00  0.00     0.049 A 
ATOM     47  H   UNL     1       9.983  10.491  -0.042  1.00  0.00     0.167 HD
ATOM     48  C   UNL     1       8.470  14.389  -1.415  1.00  0.00     0.031 A 
ATOM     49  C   UNL     1      11.952   8.576   0.437  1.00  0.00     0.031 A 
ATOM     50  C   UNL     1       9.899  14.474  -1.530  1.00  0.00     0.049 A 
ATOM     51  C   UNL     1      12.654   9.802  -0.078  1.00  0.00     0.074 A 
ATOM     52  C   UNL     1      10.669  15.551  -1.929  1.00  0.00     0.029 A 
ATOM     53  N   UNL     1      10.772  13.439  -1.234  1.00  0.00    -0.354 N 
ATOM     54  N   UNL     1      12.147  10.958  -0.436  1.00  0.00    -0.248 NA
ATOM     55  C   UNL     1      14.117   9.723  -0.196  1.00  0.00     0.031 C 
ATOM     56  C   UNL     1      12.009  15.152  -1.916  1.00  0.00     0.029 A 
ATOM     57  C   UNL     1      12.074  13.846  -1.456  1.00  0.00     0.049 A 
ATOM     58  H   UNL     1      10.504  12.547  -0.914  1.00  0.00     0.167 HD
ATOM     59  C   UNL     1      13.230  11.752  -0.789  1.00  0.00     0.074 A 
ATOM     60  C   UNL     1      14.420  10.952  -0.588  1.00  0.00     0.031 C 
ATOM     61  C   UNL     1      13.241  13.031  -1.239  1.00  0.00     0.031 A 
BRANCH  48  62
ATOM     62  C   UNL     1       7.636  15.575  -1.809  1.00  0.00    -0.014 A 
ATOM     63  C   UNL     1       6.937  16.324  -0.847  1.00  0.00     0.009 A 
ATOM     64  C   UNL     1       7.555  15.958  -3.156  1.00  0.00     0.009 A 
ATOM     65  C   UNL     1       6.141  17.405  -1.231  1.00  0.00     0.001 A 
ATOM     66  C   UNL     1       6.785  17.060  -3.533  1.00  0.00     0.001 A 
ATOM     67  C   UNL     1       6.070  17.775  -2.573  1.00  0.00     0.000 A 
ENDBRANCH  48  62
BRANCH  49  68
ATOM     68  C   UNL     1      12.722   7.364   0.820  1.00  0.00    -0.014 A 
ATOM     69  C   UNL     1      13.557   7.383   1.948  1.00  0.00     0.009 A 
ATOM     70  C   UNL     1      12.642   6.190   0.056  1.00  0.00     0.009 A 
ATOM     71  C   UNL     1      14.321   6.263   2.283  1.00  0.00     0.001 A 
ATOM     72  C   UNL     1      13.385   5.062   0.410  1.00  0.00     0.001 A 
ATOM     73  C   UNL     1      14.233   5.103   1.516  1.00  0.00     0.000 A 
ENDBRANCH  49  68
BRANCH  61  74
ATOM     74  C   UNL     1      14.582  13.654  -1.498  1.00  0.00    -0.014 A 
ATOM     75  C   UNL     1      15.359  13.280  -2.605  1.00  0.00     0.009 A 
ATOM     76  C   UNL     1      15.049  14.666  -0.645  1.00  0.00     0.009 A 
ATOM     77  C   UNL     1      16.596  13.885  -2.832  1.00  0.00     0.001 A 
ATOM     78  C   UNL     1      16.272  15.290  -0.892  1.00  0.00     0.001 A 
ATOM     79  C   UNL     1      17.048  14.893  -1.980  1.00  0.00     0.000 A 
ENDBRANCH  61  74
ENDBRANCH  35  36
ENDBRANCH  27  30
ENDBRANCH  25  26
ENDBRANCH  24  25
ENDBRANCH  23  24
ENDBRANCH   3  23
TORSDOF 15
