REMARK SMILES C[C@H]1[C@@H](C(=O)NCCCNC(=O)c2ccc(-c3c4nc(c(-c5ccccc5)c5ccc([nH]5)c(-c5ccccc5)c5nc(c(-c6ccccc6)c6ccc3[nH]6)C=C5)C=C4)cc2)CC[N@@H+]1CC(=O)NNc1ccccn1
REMARK SMILES IDX 7 1 6 2 4 3 5 4 3 6 1 7 2 8 63 9 61 10 62 11 64 13 65 14
REMARK SMILES IDX 66 15 67 16 68 18 69 20 70 21 74 22 71 23 73 24 72 25 8 26
REMARK SMILES IDX 9 27 10 28 11 29 12 31 13 32 14 33 60 34 15 35 59 36 16 37
REMARK SMILES IDX 17 38 18 39 53 40 19 41 58 42 52 43 54 44 20 45 57 46 51 47
REMARK SMILES IDX 50 48 21 50 43 51 28 52 42 53 29 54 32 55 41 56 55 57 30 58
REMARK SMILES IDX 31 59 40 61 56 62 33 63 22 64 23 65 27 66 24 67 26 68 25 69
REMARK SMILES IDX 44 70 45 71 49 72 46 73 48 74 47 75 34 76 35 77 39 78 36 79
REMARK SMILES IDX 38 80 37 81
REMARK H PARENT 6 5 63 12 67 17 68 19 10 30 54 49 32 60
REMARK Flexibility Score: inf
ROOT
ATOM      1  C   UNL     1       2.866   1.679  -1.056  1.00  0.00     0.117 C 
ENDROOT
BRANCH   1   2
ATOM      2  N   UNL     1       1.653   1.820  -1.841  1.00  0.00    -0.356 N 
ATOM      3  C   UNL     1       0.395   1.346  -1.631  1.00  0.00     0.229 C 
ATOM      4  O   UNL     1      -0.384   1.439  -2.583  1.00  0.00    -0.275 OA
ATOM      5  H   UNL     1       1.758   2.348  -2.665  1.00  0.00     0.163 HD
BRANCH   3   6
ATOM      6  C   UNL     1      -0.033   0.822  -0.264  1.00  0.00     0.142 C 
ATOM      7  C   UNL     1       1.206  -1.431  -0.810  1.00  0.00     0.076 C 
ATOM      8  C   UNL     1       0.507  -0.540   0.215  1.00  0.00     0.194 C 
ATOM      9  N   UNL     1      -0.649  -1.315   0.696  1.00  0.00    -0.324 N 
ATOM     10  C   UNL     1      -1.563   0.691  -0.168  1.00  0.00     0.081 C 
ATOM     11  C   UNL     1      -1.821  -0.794  -0.003  1.00  0.00     0.263 C 
ATOM     12  H   UNL     1      -0.534  -2.302   0.465  1.00  0.00     0.348 HD
BRANCH   9  13
ATOM     13  C   UNL     1      -0.764  -1.423   2.161  1.00  0.00     0.365 C 
BRANCH  13  14
ATOM     14  C   UNL     1      -1.365  -0.213   2.873  1.00  0.00     0.293 C 
ATOM     15  O   UNL     1      -2.587  -0.065   2.977  1.00  0.00    -0.267 OA
ATOM     16  N   UNL     1      -0.545   0.732   3.431  1.00  0.00    -0.264 N 
ATOM     17  H   UNL     1      -0.966   1.497   3.886  1.00  0.00     0.191 HD
BRANCH  16  18
ATOM     18  N   UNL     1       0.849   0.681   3.395  1.00  0.00    -0.282 N 
ATOM     19  H   UNL     1       1.358  -0.160   3.346  1.00  0.00     0.190 HD
BRANCH  18  20
ATOM     20  C   UNL     1       1.455   1.953   3.437  1.00  0.00     0.144 A 
ATOM     21  C   UNL     1       1.465   2.671   4.634  1.00  0.00     0.048 A 
ATOM     22  N   UNL     1       1.990   2.453   2.305  1.00  0.00    -0.238 NA
ATOM     23  C   UNL     1       2.031   3.943   4.665  1.00  0.00     0.005 A 
ATOM     24  C   UNL     1       2.536   3.690   2.360  1.00  0.00     0.113 A 
ATOM     25  C   UNL     1       2.580   4.466   3.503  1.00  0.00     0.020 A 
ENDBRANCH  18  20
ENDBRANCH  16  18
ENDBRANCH  13  14
ENDBRANCH   9  13
ENDBRANCH   3   6
ENDBRANCH   1   2
BRANCH   1  26
ATOM     26  C   UNL     1       3.839   0.722  -1.746  1.00  0.00     0.042 C 
BRANCH  26  27
ATOM     27  C   UNL     1       4.371   1.228  -3.081  1.00  0.00     0.118 C 
BRANCH  27  28
ATOM     28  N   UNL     1       5.655   1.888  -2.952  1.00  0.00    -0.352 N 
ATOM     29  C   UNL     1       6.923   1.451  -3.250  1.00  0.00     0.251 C 
ATOM     30  H   UNL     1       5.612   2.803  -2.590  1.00  0.00     0.163 HD
ATOM     31  O   UNL     1       7.881   2.118  -2.866  1.00  0.00    -0.269 OA
BRANCH  29  32
ATOM     32  C   UNL     1       7.170   0.192  -4.001  1.00  0.00     0.039 A 
ATOM     33  C   UNL     1       8.300  -0.563  -3.669  1.00  0.00     0.014 A 
ATOM     34  C   UNL     1       6.372  -0.218  -5.072  1.00  0.00     0.014 A 
ATOM     35  C   UNL     1       8.606  -1.729  -4.379  1.00  0.00     0.010 A 
ATOM     36  C   UNL     1       6.620  -1.433  -5.715  1.00  0.00     0.010 A 
ATOM     37  C   UNL     1       7.757  -2.188  -5.398  1.00  0.00    -0.014 A 
BRANCH  37  38
ATOM     38  C   UNL     1       8.079  -3.420  -6.169  1.00  0.00     0.031 A 
ATOM     39  C   UNL     1       8.348  -3.344  -7.651  1.00  0.00     0.074 A 
ATOM     40  C   UNL     1       8.107  -4.617  -5.551  1.00  0.00     0.049 A 
ATOM     41  N   UNL     1       8.627  -4.310  -8.492  1.00  0.00    -0.248 NA
ATOM     42  C   UNL     1       8.268  -2.014  -8.276  1.00  0.00     0.031 C 
ATOM     43  C   UNL     1       7.824  -4.848  -4.133  1.00  0.00     0.029 A 
ATOM     44  N   UNL     1       8.391  -5.868  -6.041  1.00  0.00    -0.354 N 
ATOM     45  C   UNL     1       8.730  -3.707  -9.741  1.00  0.00     0.074 A 
ATOM     46  C   UNL     1       8.436  -2.303  -9.557  1.00  0.00     0.031 C 
ATOM     47  C   UNL     1       7.980  -6.154  -3.861  1.00  0.00     0.029 A 
ATOM     48  C   UNL     1       8.343  -6.856  -5.088  1.00  0.00     0.049 A 
ATOM     49  H   UNL     1       8.608  -6.041  -6.986  1.00  0.00     0.167 HD
ATOM     50  C   UNL     1       9.062  -4.261 -10.932  1.00  0.00     0.031 A 
ATOM     51  C   UNL     1       8.570  -8.180  -5.186  1.00  0.00     0.031 A 
ATOM     52  C   UNL     1       9.382  -5.650 -11.122  1.00  0.00     0.049 A 
ATOM     53  C   UNL     1       8.961  -8.769  -6.512  1.00  0.00     0.074 A 
ATOM     54  C   UNL     1       9.785  -6.292 -12.280  1.00  0.00     0.029 A 
ATOM     55  N   UNL     1       9.341  -6.611 -10.125  1.00  0.00    -0.354 N 
ATOM     56  N   UNL     1       9.112  -8.172  -7.669  1.00  0.00    -0.248 NA
ATOM     57  C   UNL     1       9.227 -10.215  -6.539  1.00  0.00     0.031 C 
ATOM     58  C   UNL     1       9.955  -7.651 -11.991  1.00  0.00     0.029 A 
ATOM     59  C   UNL     1       9.699  -7.844 -10.643  1.00  0.00     0.049 A 
ATOM     60  H   UNL     1       9.095  -6.442  -9.187  1.00  0.00     0.167 HD
ATOM     61  C   UNL     1       9.507  -9.164  -8.557  1.00  0.00     0.074 A 
ATOM     62  C   UNL     1       9.594 -10.396  -7.800  1.00  0.00     0.031 C 
ATOM     63  C   UNL     1       9.774  -9.062  -9.881  1.00  0.00     0.031 A 
BRANCH  50  64
ATOM     64  C   UNL     1       9.095  -3.350 -12.128  1.00  0.00    -0.014 A 
ATOM     65  C   UNL     1      10.108  -2.390 -12.280  1.00  0.00     0.009 A 
ATOM     66  C   UNL     1       8.115  -3.468 -13.125  1.00  0.00     0.009 A 
ATOM     67  C   UNL     1      10.116  -1.538 -13.386  1.00  0.00     0.001 A 
ATOM     68  C   UNL     1       8.141  -2.633 -14.244  1.00  0.00     0.001 A 
ATOM     69  C   UNL     1       9.134  -1.662 -14.369  1.00  0.00     0.000 A 
ENDBRANCH  50  64
BRANCH  51  70
ATOM     70  C   UNL     1       8.457  -9.041  -3.981  1.00  0.00    -0.014 A 
ATOM     71  C   UNL     1       9.609  -9.555  -3.365  1.00  0.00     0.009 A 
ATOM     72  C   UNL     1       7.200  -9.350  -3.440  1.00  0.00     0.009 A 
ATOM     73  C   UNL     1       9.502 -10.380  -2.243  1.00  0.00     0.001 A 
ATOM     74  C   UNL     1       7.098 -10.155  -2.304  1.00  0.00     0.001 A 
ATOM     75  C   UNL     1       8.248 -10.675  -1.711  1.00  0.00     0.000 A 
ENDBRANCH  51  70
BRANCH  63  76
ATOM     76  C   UNL     1      10.205 -10.314 -10.590  1.00  0.00    -0.014 A 
ATOM     77  C   UNL     1       9.285 -11.331 -10.889  1.00  0.00     0.009 A 
ATOM     78  C   UNL     1      11.542 -10.464 -10.988  1.00  0.00     0.009 A 
ATOM     79  C   UNL     1       9.705 -12.491 -11.543  1.00  0.00     0.001 A 
ATOM     80  C   UNL     1      11.953 -11.614 -11.665  1.00  0.00     0.001 A 
ATOM     81  C   UNL     1      11.037 -12.630 -11.933  1.00  0.00     0.000 A 
ENDBRANCH  63  76
ENDBRANCH  37  38
ENDBRANCH  29  32
ENDBRANCH  27  28
ENDBRANCH  26  27
ENDBRANCH   1  26
TORSDOF 14
