REMARK SMILES O=C(CC[N@@H+]1C[C@@H](c2ccccc2)[C@@H]2[C@H]1[C@H]1CC[N@H+]2CC1)NCCCNC(=O)c1ccc(-c2c3nc(c(-c4ccccc4)c4ccc([nH]4)c(-c4ccccc4)c4nc(c(-c5ccccc5)c5ccc2[nH]5)C=C4)C=C3)cc1
REMARK SMILES IDX 23 1 22 2 1 3 2 4 3 6 4 7 5 8 6 9 15 10 7 12 14 13 16 14
REMARK SMILES IDX 19 15 17 16 21 17 18 18 20 19 8 21 9 22 13 23 10 24 12 25
REMARK SMILES IDX 11 26 24 27 25 28 26 29 27 30 28 32 29 33 30 34 76 35 31 36
REMARK SMILES IDX 75 37 32 38 33 39 34 40 69 41 35 42 74 43 68 44 70 45 36 46
REMARK SMILES IDX 73 47 67 48 66 49 37 51 59 52 44 53 58 54 45 55 48 56 57 57
REMARK SMILES IDX 71 58 46 59 47 60 56 62 72 63 49 64 38 65 39 66 43 67 40 68
REMARK SMILES IDX 42 69 41 70 60 71 61 72 65 73 62 74 64 75 63 76 50 77 51 78
REMARK SMILES IDX 55 79 52 80 54 81 53 82
REMARK H PARENT 22 5 5 11 19 20 26 31 70 50 48 61
REMARK Flexibility Score: inf
ROOT
ATOM      1  C   UNL     1       2.056   1.875  -1.606  1.00  0.00     0.117 C 
ENDROOT
BRANCH   1   2
ATOM      2  N   UNL     1       2.649   0.841  -0.787  1.00  0.00    -0.356 N 
ATOM      3  O   UNL     1       0.714   0.224   0.281  1.00  0.00    -0.275 OA
ATOM      4  C   UNL     1       1.913   0.062   0.072  1.00  0.00     0.225 C 
ATOM      5  H   UNL     1       3.620   0.690  -0.847  1.00  0.00     0.163 HD
BRANCH   4   6
ATOM      6  C   UNL     1       2.715  -0.986   0.814  1.00  0.00     0.161 C 
BRANCH   6   7
ATOM      7  C   UNL     1       3.661  -1.775  -0.092  1.00  0.00     0.272 C 
BRANCH   7   8
ATOM      8  N   UNL     1       4.900  -1.048  -0.463  1.00  0.00    -0.326 N 
ATOM      9  C   UNL     1       5.642  -1.839  -1.509  1.00  0.00     0.277 C 
ATOM     10  C   UNL     1       5.798  -0.840   0.713  1.00  0.00     0.247 C 
ATOM     11  H   UNL     1       4.629  -0.132  -0.822  1.00  0.00     0.348 HD
ATOM     12  C   UNL     1       7.196  -1.746  -1.418  1.00  0.00     0.139 C 
ATOM     13  C   UNL     1       7.439  -1.442   0.072  1.00  0.00     0.256 C 
ATOM     14  C   UNL     1       6.003   0.890   1.299  1.00  0.00     0.065 C 
ATOM     15  N   UNL     1       8.729  -0.646   0.662  1.00  0.00    -0.327 N 
ATOM     16  C   UNL     1       6.935   0.749   0.272  1.00  0.00     0.071 C 
ATOM     17  C   UNL     1       7.516   1.827   1.712  1.00  0.00     0.071 C 
ATOM     18  C   UNL     1       7.805  -0.330   1.633  1.00  0.00     0.263 C 
ATOM     19  C   UNL     1       9.004   0.967   0.858  1.00  0.00     0.263 C 
ATOM     20  H   UNL     1       9.581  -1.119   0.359  1.00  0.00     0.348 HD
BRANCH  12  21
ATOM     21  C   UNL     1       7.978  -0.884  -2.395  1.00  0.00    -0.033 A 
ATOM     22  C   UNL     1       7.484   0.288  -2.984  1.00  0.00     0.004 A 
ATOM     23  C   UNL     1       9.310  -1.248  -2.670  1.00  0.00     0.004 A 
ATOM     24  C   UNL     1       8.319   1.113  -3.746  1.00  0.00     0.000 A 
ATOM     25  C   UNL     1      10.131  -0.447  -3.465  1.00  0.00     0.000 A 
ATOM     26  C   UNL     1       9.641   0.746  -3.984  1.00  0.00     0.000 A 
ENDBRANCH  12  21
ENDBRANCH   7   8
ENDBRANCH   6   7
ENDBRANCH   4   6
ENDBRANCH   1   2
BRANCH   1  27
ATOM     27  C   UNL     1       2.350   3.277  -1.086  1.00  0.00     0.042 C 
BRANCH  27  28
ATOM     28  C   UNL     1       3.822   3.674  -1.121  1.00  0.00     0.118 C 
BRANCH  28  29
ATOM     29  N   UNL     1       4.393   3.677  -2.459  1.00  0.00    -0.352 N 
ATOM     30  C   UNL     1       5.113   4.636  -3.126  1.00  0.00     0.251 C 
ATOM     31  H   UNL     1       4.235   2.852  -2.973  1.00  0.00     0.163 HD
ATOM     32  O   UNL     1       5.413   4.447  -4.301  1.00  0.00    -0.269 OA
BRANCH  30  33
ATOM     33  C   UNL     1       5.519   5.899  -2.466  1.00  0.00     0.039 A 
ATOM     34  C   UNL     1       5.475   7.080  -3.215  1.00  0.00     0.014 A 
ATOM     35  C   UNL     1       6.001   5.933  -1.155  1.00  0.00     0.014 A 
ATOM     36  C   UNL     1       5.878   8.290  -2.644  1.00  0.00     0.010 A 
ATOM     37  C   UNL     1       6.330   7.152  -0.560  1.00  0.00     0.010 A 
ATOM     38  C   UNL     1       6.292   8.342  -1.303  1.00  0.00    -0.014 A 
BRANCH  38  39
ATOM     39  C   UNL     1       6.721   9.628  -0.691  1.00  0.00     0.031 A 
ATOM     40  C   UNL     1       8.145   9.819  -0.238  1.00  0.00     0.074 A 
ATOM     41  C   UNL     1       5.830  10.625  -0.523  1.00  0.00     0.049 A 
ATOM     42  N   UNL     1       8.706  10.871   0.306  1.00  0.00    -0.248 NA
ATOM     43  C   UNL     1       9.055   8.673  -0.398  1.00  0.00     0.031 C 
ATOM     44  C   UNL     1       4.412  10.565  -0.886  1.00  0.00     0.029 A 
ATOM     45  N   UNL     1       5.988  11.888  -0.008  1.00  0.00    -0.354 N 
ATOM     46  C   UNL     1      10.023  10.509   0.562  1.00  0.00     0.074 A 
ATOM     47  C   UNL     1      10.164   9.125   0.168  1.00  0.00     0.031 C 
ATOM     48  C   UNL     1       3.840  11.750  -0.615  1.00  0.00     0.029 A 
ATOM     49  C   UNL     1       4.837  12.640  -0.028  1.00  0.00     0.049 A 
ATOM     50  H   UNL     1       6.844  12.224   0.342  1.00  0.00     0.167 HD
ATOM     51  C   UNL     1      11.034  11.263   1.059  1.00  0.00     0.031 A 
ATOM     52  C   UNL     1       4.609  13.904   0.376  1.00  0.00     0.031 A 
ATOM     53  C   UNL     1      10.903  12.643   1.447  1.00  0.00     0.049 A 
ATOM     54  C   UNL     1       5.745  14.717   0.936  1.00  0.00     0.074 A 
ATOM     55  C   UNL     1      11.881  13.503   1.918  1.00  0.00     0.029 A 
ATOM     56  N   UNL     1       9.720  13.364   1.410  1.00  0.00    -0.354 N 
ATOM     57  N   UNL     1       6.999  14.379   1.109  1.00  0.00    -0.248 NA
ATOM     58  C   UNL     1       5.432  16.096   1.339  1.00  0.00     0.031 C 
ATOM     59  C   UNL     1      11.278  14.729   2.217  1.00  0.00     0.029 A 
ATOM     60  C   UNL     1       9.939  14.653   1.869  1.00  0.00     0.049 A 
ATOM     61  H   UNL     1       8.853  13.013   1.104  1.00  0.00     0.167 HD
ATOM     62  C   UNL     1       7.633  15.513   1.602  1.00  0.00     0.074 A 
ATOM     63  C   UNL     1       6.627  16.551   1.688  1.00  0.00     0.031 C 
ATOM     64  C   UNL     1       8.933  15.680   1.947  1.00  0.00     0.031 A 
BRANCH  51  65
ATOM     65  C   UNL     1      12.376  10.602   1.218  1.00  0.00    -0.014 A 
ATOM     66  C   UNL     1      13.143  10.231   0.101  1.00  0.00     0.009 A 
ATOM     67  C   UNL     1      12.896  10.374   2.502  1.00  0.00     0.009 A 
ATOM     68  C   UNL     1      14.382   9.608   0.268  1.00  0.00     0.001 A 
ATOM     69  C   UNL     1      14.149   9.781   2.665  1.00  0.00     0.001 A 
ATOM     70  C   UNL     1      14.886   9.388   1.549  1.00  0.00     0.000 A 
ENDBRANCH  51  65
BRANCH  52  71
ATOM     71  C   UNL     1       3.252  14.497   0.243  1.00  0.00    -0.014 A 
ATOM     72  C   UNL     1       3.009  15.523  -0.685  1.00  0.00     0.009 A 
ATOM     73  C   UNL     1       2.197  14.055   1.055  1.00  0.00     0.009 A 
ATOM     74  C   UNL     1       1.747  16.115  -0.772  1.00  0.00     0.001 A 
ATOM     75  C   UNL     1       0.928  14.627   0.943  1.00  0.00     0.001 A 
ATOM     76  C   UNL     1       0.707  15.664   0.038  1.00  0.00     0.000 A 
ENDBRANCH  52  71
BRANCH  64  77
ATOM     77  C   UNL     1       9.355  17.052   2.399  1.00  0.00    -0.014 A 
ATOM     78  C   UNL     1       8.945  17.581   3.632  1.00  0.00     0.009 A 
ATOM     79  C   UNL     1      10.205  17.815   1.582  1.00  0.00     0.009 A 
ATOM     80  C   UNL     1       9.341  18.864   4.017  1.00  0.00     0.001 A 
ATOM     81  C   UNL     1      10.626  19.083   1.984  1.00  0.00     0.001 A 
ATOM     82  C   UNL     1      10.184  19.612   3.195  1.00  0.00     0.000 A 
ENDBRANCH  64  77
ENDBRANCH  38  39
ENDBRANCH  30  33
ENDBRANCH  28  29
ENDBRANCH  27  28
ENDBRANCH   1  27
TORSDOF 13
