REMARK SMILES Cc1cccc(O[C@H]2CC[C@@]([NH2+]C(C)C)(C(=O)NCCCNC(=O)c3ccc(-c4c5nc(c(-c6ccccc6)c6ccc([nH]6)c(-c6ccccc6)c6nc(c(-c7ccccc7)c7ccc4[nH]7)C=C6)C=C5)cc3)C2)c1
REMARK SMILES IDX 20 1 19 2 18 3 16 4 17 5 11 7 8 8 9 9 73 10 10 11 7 12 6 13
REMARK SMILES IDX 1 14 2 15 3 16 74 17 4 18 5 19 12 20 13 23 14 24 15 25 21 26
REMARK SMILES IDX 22 27 23 28 24 30 25 31 26 32 72 33 27 34 71 35 28 36 29 37
REMARK SMILES IDX 30 38 65 39 31 40 70 41 64 42 66 43 32 44 69 45 63 46 62 47
REMARK SMILES IDX 33 49 55 50 40 51 54 52 41 53 44 54 53 55 67 56 42 57 43 58
REMARK SMILES IDX 52 60 68 61 45 62 34 63 35 64 39 65 36 66 38 67 37 68 56 69
REMARK SMILES IDX 57 70 61 71 58 72 60 73 59 74 46 75 47 76 51 77 48 78 50 79
REMARK SMILES IDX 49 80
REMARK H PARENT 18 6 12 21 12 22 22 29 66 48 44 59
REMARK Flexibility Score: inf
ROOT
ATOM      1  C   UNL     1       2.652   7.797  -0.251  1.00  0.00     0.042 C 
ENDROOT
BRANCH   1   2
ATOM      2  C   UNL     1       2.469   7.255   1.161  1.00  0.00     0.118 C 
BRANCH   2   3
ATOM      3  N   UNL     1       1.072   7.173   1.567  1.00  0.00    -0.351 N 
ATOM      4  C   UNL     1       0.224   6.094   1.632  1.00  0.00     0.281 C 
ATOM      5  O   UNL     1      -0.874   6.287   2.162  1.00  0.00    -0.268 OA
ATOM      6  H   UNL     1       0.670   8.030   1.840  1.00  0.00     0.163 HD
BRANCH   4   7
ATOM      7  C   UNL     1       0.647   4.690   1.081  1.00  0.00     0.179 C 
ATOM      8  C   UNL     1      -1.107   3.549  -0.234  1.00  0.00     0.180 C 
ATOM      9  C   UNL     1       0.127   3.697  -1.115  1.00  0.00     0.052 C 
ATOM     10  C   UNL     1      -0.492   3.633   1.167  1.00  0.00     0.124 C 
ATOM     11  C   UNL     1       0.904   4.818  -0.442  1.00  0.00     0.083 C 
BRANCH   8  12
ATOM     12  O   UNL     1      -2.009   4.643  -0.386  1.00  0.00    -0.490 OA
BRANCH  12  13
ATOM     13  C   UNL     1      -2.919   4.612  -1.405  1.00  0.00     0.119 A 
ATOM     14  C   UNL     1      -5.936   6.789  -2.248  1.00  0.00     0.044 C 
ATOM     15  C   UNL     1      -4.882   5.725  -2.328  1.00  0.00    -0.047 A 
ATOM     16  C   UNL     1      -4.853   4.848  -3.417  1.00  0.00     0.003 A 
ATOM     17  C   UNL     1      -3.902   5.604  -1.333  1.00  0.00     0.049 A 
ATOM     18  C   UNL     1      -3.878   3.853  -3.491  1.00  0.00     0.004 A 
ATOM     19  C   UNL     1      -2.919   3.728  -2.482  1.00  0.00     0.046 A 
ENDBRANCH  12  13
ENDBRANCH   8  12
BRANCH   7  20
ATOM     20  N   UNL     1       1.878   4.195   1.754  1.00  0.00    -0.332 N 
ATOM     21  H   UNL     1       2.659   4.758   1.418  1.00  0.00     0.347 HD
ATOM     22  H   UNL     1       1.928   3.204   1.518  1.00  0.00     0.347 HD
BRANCH  20  23
ATOM     23  C   UNL     1       1.901   4.238   3.222  1.00  0.00     0.176 C 
ATOM     24  C   UNL     1       1.234   3.027   3.873  1.00  0.00     0.075 C 
ATOM     25  C   UNL     1       3.375   4.293   3.641  1.00  0.00     0.075 C 
ENDBRANCH  20  23
ENDBRANCH   7  20
ENDBRANCH   4   7
ENDBRANCH   2   3
ENDBRANCH   1   2
BRANCH   1  26
ATOM     26  C   UNL     1       2.544   9.311  -0.339  1.00  0.00     0.118 C 
BRANCH  26  27
ATOM     27  N   UNL     1       3.833   9.999  -0.341  1.00  0.00    -0.352 N 
ATOM     28  C   UNL     1       4.093  11.359  -0.389  1.00  0.00     0.251 C 
ATOM     29  H   UNL     1       4.625   9.416  -0.302  1.00  0.00     0.163 HD
ATOM     30  O   UNL     1       5.240  11.774  -0.364  1.00  0.00    -0.269 OA
BRANCH  28  31
ATOM     31  C   UNL     1       2.954  12.305  -0.331  1.00  0.00     0.039 A 
ATOM     32  C   UNL     1       2.983  13.293   0.658  1.00  0.00     0.014 A 
ATOM     33  C   UNL     1       1.790  12.062  -1.055  1.00  0.00     0.014 A 
ATOM     34  C   UNL     1       1.784  13.839   1.102  1.00  0.00     0.010 A 
ATOM     35  C   UNL     1       0.591  12.519  -0.546  1.00  0.00     0.010 A 
ATOM     36  C   UNL     1       0.588  13.347   0.581  1.00  0.00    -0.014 A 
BRANCH  36  37
ATOM     37  C   UNL     1      -0.693  13.527   1.251  1.00  0.00     0.031 A 
ATOM     38  C   UNL     1      -1.702  14.454   0.710  1.00  0.00     0.074 A 
ATOM     39  C   UNL     1      -0.966  12.804   2.359  1.00  0.00     0.049 A 
ATOM     40  N   UNL     1      -2.623  15.019   1.415  1.00  0.00    -0.248 NA
ATOM     41  C   UNL     1      -1.705  14.871  -0.687  1.00  0.00     0.031 C 
ATOM     42  C   UNL     1      -2.253  12.639   3.026  1.00  0.00     0.029 A 
ATOM     43  N   UNL     1      -0.043  12.239   3.240  1.00  0.00    -0.354 N 
ATOM     44  C   UNL     1      -3.497  15.624   0.542  1.00  0.00     0.074 A 
ATOM     45  C   UNL     1      -2.834  15.583  -0.741  1.00  0.00     0.031 C 
ATOM     46  C   UNL     1      -2.037  12.250   4.293  1.00  0.00     0.029 A 
ATOM     47  C   UNL     1      -0.603  12.300   4.527  1.00  0.00     0.049 A 
ATOM     48  H   UNL     1       0.837  11.867   3.004  1.00  0.00     0.167 HD
ATOM     49  C   UNL     1      -4.747  15.959   0.967  1.00  0.00     0.031 A 
ATOM     50  C   UNL     1      -0.003  13.023   5.517  1.00  0.00     0.031 A 
ATOM     51  C   UNL     1      -4.921  15.714   2.398  1.00  0.00     0.049 A 
ATOM     52  C   UNL     1      -0.851  14.165   6.036  1.00  0.00     0.074 A 
ATOM     53  C   UNL     1      -5.512  14.683   3.112  1.00  0.00     0.029 A 
ATOM     54  N   UNL     1      -4.177  16.451   3.312  1.00  0.00    -0.354 N 
ATOM     55  N   UNL     1      -1.880  14.656   5.403  1.00  0.00    -0.248 NA
ATOM     56  C   UNL     1      -0.577  14.870   7.286  1.00  0.00     0.031 C 
ATOM     57  C   UNL     1      -5.048  14.756   4.451  1.00  0.00     0.029 A 
ATOM     58  C   UNL     1      -4.205  15.849   4.556  1.00  0.00     0.049 A 
ATOM     59  H   UNL     1      -3.697  17.284   3.103  1.00  0.00     0.167 HD
ATOM     60  C   UNL     1      -2.395  15.707   6.114  1.00  0.00     0.074 A 
ATOM     61  C   UNL     1      -1.553  15.796   7.293  1.00  0.00     0.031 C 
ATOM     62  C   UNL     1      -3.466  16.426   5.670  1.00  0.00     0.031 A 
BRANCH  49  63
ATOM     63  C   UNL     1      -5.896  16.211   0.017  1.00  0.00    -0.014 A 
ATOM     64  C   UNL     1      -7.211  15.912   0.421  1.00  0.00     0.009 A 
ATOM     65  C   UNL     1      -5.752  16.667  -1.304  1.00  0.00     0.009 A 
ATOM     66  C   UNL     1      -8.293  15.959  -0.469  1.00  0.00     0.001 A 
ATOM     67  C   UNL     1      -6.820  16.677  -2.213  1.00  0.00     0.001 A 
ATOM     68  C   UNL     1      -8.091  16.309  -1.797  1.00  0.00     0.000 A 
ENDBRANCH  49  63
BRANCH  50  69
ATOM     69  C   UNL     1       1.483  13.050   5.427  1.00  0.00    -0.014 A 
ATOM     70  C   UNL     1       2.188  11.847   5.632  1.00  0.00     0.009 A 
ATOM     71  C   UNL     1       2.150  14.119   4.812  1.00  0.00     0.009 A 
ATOM     72  C   UNL     1       3.484  11.681   5.135  1.00  0.00     0.001 A 
ATOM     73  C   UNL     1       3.453  13.951   4.324  1.00  0.00     0.001 A 
ATOM     74  C   UNL     1       4.105  12.725   4.455  1.00  0.00     0.000 A 
ENDBRANCH  50  69
BRANCH  62  75
ATOM     75  C   UNL     1      -3.973  17.709   6.275  1.00  0.00    -0.014 A 
ATOM     76  C   UNL     1      -3.171  18.613   6.984  1.00  0.00     0.009 A 
ATOM     77  C   UNL     1      -5.300  18.111   6.004  1.00  0.00     0.009 A 
ATOM     78  C   UNL     1      -3.682  19.836   7.439  1.00  0.00     0.001 A 
ATOM     79  C   UNL     1      -5.800  19.347   6.418  1.00  0.00     0.001 A 
ATOM     80  C   UNL     1      -4.992  20.207   7.148  1.00  0.00     0.000 A 
ENDBRANCH  62  75
ENDBRANCH  36  37
ENDBRANCH  28  31
ENDBRANCH  26  27
ENDBRANCH   1  26
TORSDOF 14
