REMARK SMILES CC(C)(C(=O)NCCCNC(=O)c1ccc(-c2c3nc(c(-c4ccccc4)c4ccc([nH]4)c(-c4ccccc4)c4nc(c(-c5ccccc5)c5ccc2[nH]5)C=C4)C=C3)cc1)c1ccc(C(=O)CCCCl)cc1
REMARK SMILES IDX 4 1 5 2 6 3 2 5 1 6 3 7 61 8 62 9 72 10 63 11 71 12 64 13
REMARK SMILES IDX 65 14 66 15 67 16 68 17 69 18 70 19 7 20 8 21 9 22 10 23
REMARK SMILES IDX 11 24 12 26 13 27 14 28 60 29 15 30 59 31 16 32 17 33 18 34
REMARK SMILES IDX 53 35 19 36 58 37 52 38 54 39 20 40 57 41 51 42 50 43 21 45
REMARK SMILES IDX 43 46 28 47 42 48 29 49 32 50 41 51 55 52 30 53 31 54 40 56
REMARK SMILES IDX 56 57 33 58 22 59 23 60 27 61 24 62 26 63 25 64 44 65 45 66
REMARK SMILES IDX 49 67 46 68 48 69 47 70 34 71 35 72 39 73 36 74 38 75 37 76
REMARK H PARENT 6 4 10 25 54 44 32 55
REMARK Flexibility Score: inf
ROOT
ATOM      1  C   UNL     1      -0.705  -0.795  -1.376  1.00  0.00     0.230 C 
ATOM      2  O   UNL     1      -1.406  -0.118  -2.139  1.00  0.00    -0.274 OA
ATOM      3  N   UNL     1      -1.406  -1.603  -0.535  1.00  0.00    -0.355 N 
ATOM      4  H   UNL     1      -2.381  -1.530  -0.648  1.00  0.00     0.163 HD
ENDROOT
BRANCH   1   5
ATOM      5  C   UNL     1       0.855  -0.727  -1.405  1.00  0.00     0.068 C 
ATOM      6  C   UNL     1       1.419  -0.353  -0.016  1.00  0.00     0.026 C 
ATOM      7  C   UNL     1       1.414  -2.106  -1.821  1.00  0.00     0.026 C 
BRANCH   5   8
ATOM      8  C   UNL     1       1.288   0.373  -2.421  1.00  0.00    -0.033 A 
ATOM      9  C   UNL     1       1.767   0.064  -3.706  1.00  0.00     0.005 A 
ATOM     10  C   UNL     1       1.138   1.736  -2.098  1.00  0.00     0.005 A 
ATOM     11  C   UNL     1       2.048   1.069  -4.637  1.00  0.00     0.012 A 
ATOM     12  C   UNL     1       1.433   2.744  -3.022  1.00  0.00     0.012 A 
ATOM     13  C   UNL     1       1.848   2.413  -4.311  1.00  0.00     0.018 A 
BRANCH  13  14
ATOM     14  C   UNL     1       2.023   3.426  -5.388  1.00  0.00     0.162 C 
ATOM     15  O   UNL     1       2.695   3.141  -6.378  1.00  0.00    -0.294 OA
BRANCH  14  16
ATOM     16  C   UNL     1       1.307   4.762  -5.296  1.00  0.00     0.082 C 
BRANCH  16  17
ATOM     17  C   UNL     1      -0.151   4.683  -5.760  1.00  0.00     0.024 C 
BRANCH  17  18
ATOM     18  C   UNL     1      -1.166   4.236  -4.710  1.00  0.00     0.110 C 
ATOM     19  Cl  UNL     1      -1.232   5.358  -3.328  1.00  0.00    -0.127 Cl
ENDBRANCH  17  18
ENDBRANCH  16  17
ENDBRANCH  14  16
ENDBRANCH  13  14
ENDBRANCH   5   8
ENDBRANCH   1   5
BRANCH   3  20
ATOM     20  C   UNL     1      -1.015  -2.549   0.492  1.00  0.00     0.117 C 
BRANCH  20  21
ATOM     21  C   UNL     1      -1.399  -2.075   1.888  1.00  0.00     0.042 C 
BRANCH  21  22
ATOM     22  C   UNL     1      -2.903  -2.022   2.137  1.00  0.00     0.118 C 
BRANCH  22  23
ATOM     23  N   UNL     1      -3.535  -3.329   2.029  1.00  0.00    -0.352 N 
ATOM     24  C   UNL     1      -4.182  -4.098   2.964  1.00  0.00     0.251 C 
ATOM     25  H   UNL     1      -3.491  -3.731   1.131  1.00  0.00     0.163 HD
ATOM     26  O   UNL     1      -4.455  -5.264   2.692  1.00  0.00    -0.269 OA
BRANCH  24  27
ATOM     27  C   UNL     1      -4.547  -3.554   4.291  1.00  0.00     0.039 A 
ATOM     28  C   UNL     1      -4.473  -4.400   5.402  1.00  0.00     0.014 A 
ATOM     29  C   UNL     1      -5.021  -2.249   4.446  1.00  0.00     0.014 A 
ATOM     30  C   UNL     1      -4.826  -3.924   6.667  1.00  0.00     0.010 A 
ATOM     31  C   UNL     1      -5.292  -1.749   5.718  1.00  0.00     0.010 A 
ATOM     32  C   UNL     1      -5.213  -2.586   6.840  1.00  0.00    -0.014 A 
BRANCH  32  33
ATOM     33  C   UNL     1      -5.551  -2.059   8.186  1.00  0.00     0.031 A 
ATOM     34  C   UNL     1      -6.948  -1.589   8.493  1.00  0.00     0.074 A 
ATOM     35  C   UNL     1      -4.589  -1.967   9.124  1.00  0.00     0.049 A 
ATOM     36  N   UNL     1      -7.426  -1.099   9.610  1.00  0.00    -0.248 NA
ATOM     37  C   UNL     1      -7.929  -1.652   7.398  1.00  0.00     0.031 C 
ATOM     38  C   UNL     1      -3.184  -2.337   8.939  1.00  0.00     0.029 A 
ATOM     39  N   UNL     1      -4.650  -1.535  10.425  1.00  0.00    -0.354 N 
ATOM     40  C   UNL     1      -8.752  -0.779   9.345  1.00  0.00     0.074 A 
ATOM     41  C   UNL     1      -8.990  -1.084   7.951  1.00  0.00     0.031 C 
ATOM     42  C   UNL     1      -2.526  -2.154  10.094  1.00  0.00     0.029 A 
ATOM     43  C   UNL     1      -3.452  -1.628  11.091  1.00  0.00     0.049 A 
ATOM     44  H   UNL     1      -5.473  -1.192  10.841  1.00  0.00     0.167 HD
ATOM     45  C   UNL     1      -9.695  -0.296  10.189  1.00  0.00     0.031 A 
ATOM     46  C   UNL     1      -3.137  -1.332  12.365  1.00  0.00     0.031 A 
ATOM     47  C   UNL     1      -9.469  -0.013  11.581  1.00  0.00     0.049 A 
ATOM     48  C   UNL     1      -4.207  -0.827  13.290  1.00  0.00     0.074 A 
ATOM     49  C   UNL     1     -10.375   0.422  12.532  1.00  0.00     0.029 A 
ATOM     50  N   UNL     1      -8.246  -0.142  12.221  1.00  0.00    -0.354 N 
ATOM     51  N   UNL     1      -5.473  -0.597  13.041  1.00  0.00    -0.248 NA
ATOM     52  C   UNL     1      -3.806  -0.558  14.678  1.00  0.00     0.031 C 
ATOM     53  C   UNL     1      -9.692   0.591  13.742  1.00  0.00     0.029 A 
ATOM     54  C   UNL     1      -8.371   0.218  13.552  1.00  0.00     0.049 A 
ATOM     55  H   UNL     1      -7.413  -0.444  11.793  1.00  0.00     0.167 HD
ATOM     56  C   UNL     1      -6.026  -0.181  14.245  1.00  0.00     0.074 A 
ATOM     57  C   UNL     1      -4.960  -0.207  15.226  1.00  0.00     0.031 C 
ATOM     58  C   UNL     1      -7.301   0.190  14.514  1.00  0.00     0.031 A 
BRANCH  45  59
ATOM     59  C   UNL     1     -11.064  -0.045   9.621  1.00  0.00    -0.014 A 
ATOM     60  C   UNL     1     -11.909  -1.109   9.267  1.00  0.00     0.009 A 
ATOM     61  C   UNL     1     -11.525   1.271   9.461  1.00  0.00     0.009 A 
ATOM     62  C   UNL     1     -13.173  -0.859   8.729  1.00  0.00     0.001 A 
ATOM     63  C   UNL     1     -12.800   1.517   8.948  1.00  0.00     0.001 A 
ATOM     64  C   UNL     1     -13.619   0.453   8.573  1.00  0.00     0.000 A 
ENDBRANCH  45  59
BRANCH  46  65
ATOM     65  C   UNL     1      -1.752  -1.548  12.856  1.00  0.00    -0.014 A 
ATOM     66  C   UNL     1      -1.466  -2.612  13.724  1.00  0.00     0.009 A 
ATOM     67  C   UNL     1      -0.712  -0.694  12.460  1.00  0.00     0.009 A 
ATOM     68  C   UNL     1      -0.170  -2.802  14.207  1.00  0.00     0.001 A 
ATOM     69  C   UNL     1       0.589  -0.901  12.925  1.00  0.00     0.001 A 
ATOM     70  C   UNL     1       0.857  -1.950  13.804  1.00  0.00     0.000 A 
ENDBRANCH  46  65
BRANCH  58  71
ATOM     71  C   UNL     1      -7.615   0.568  15.932  1.00  0.00    -0.014 A 
ATOM     72  C   UNL     1      -7.172   1.784  16.476  1.00  0.00     0.009 A 
ATOM     73  C   UNL     1      -8.382  -0.296  16.728  1.00  0.00     0.009 A 
ATOM     74  C   UNL     1      -7.460   2.109  17.803  1.00  0.00     0.001 A 
ATOM     75  C   UNL     1      -8.691   0.043  18.046  1.00  0.00     0.001 A 
ATOM     76  C   UNL     1      -8.221   1.240  18.585  1.00  0.00     0.000 A 
ENDBRANCH  58  71
ENDBRANCH  32  33
ENDBRANCH  24  27
ENDBRANCH  22  23
ENDBRANCH  21  22
ENDBRANCH  20  21
ENDBRANCH   3  20
TORSDOF 15
