REMARK SMILES NS(=O)(=O)c1ccc(-n2nc(C(=O)NCCCC(=O)NCCCNC(=O)c3ccc(-c4c5nc(c(-c6ccccc6)c6ccc([nH]6)c(-c6ccccc6)c6nc(c(-c7ccccc7)c7ccc4[nH]7)C=C6)C=C5)cc3)cc2-c2ccccc2)cc1
REMARK SMILES IDX 18 1 19 2 20 3 17 5 16 6 15 7 14 8 12 9 13 10 11 12 9 13
REMARK SMILES IDX 10 14 76 15 75 16 8 17 5 18 6 19 84 20 7 21 83 22 2 23 3 24
REMARK SMILES IDX 4 25 1 26 77 29 78 30 82 31 79 32 81 33 80 34 21 35 22 36
REMARK SMILES IDX 23 37 24 38 25 39 26 41 27 42 28 43 74 44 29 45 73 46 30 47
REMARK SMILES IDX 31 48 32 49 67 50 33 51 72 52 66 53 68 54 34 55 71 56 65 57
REMARK SMILES IDX 64 58 35 60 57 61 42 62 56 63 43 64 46 65 55 66 69 67 44 68
REMARK SMILES IDX 45 69 54 71 70 72 47 73 36 74 37 75 41 76 38 77 40 78 39 79
REMARK SMILES IDX 58 80 59 81 63 82 60 83 62 84 61 85 48 86 49 87 53 88 50 89
REMARK SMILES IDX 52 90 51 91
REMARK H PARENT 20 4 14 11 1 27 1 28 24 40 68 59 46 70
REMARK Flexibility Score: inf
ROOT
ATOM      1  C   UNL     1       4.276  -2.977  13.524  1.00  0.00     0.220 C 
ATOM      2  O   UNL     1       5.226  -3.690  13.852  1.00  0.00    -0.275 OA
ATOM      3  N   UNL     1       3.091  -3.582  13.238  1.00  0.00    -0.356 N 
ATOM      4  H   UNL     1       3.078  -4.553  13.400  1.00  0.00     0.163 HD
ENDROOT
BRANCH   1   5
ATOM      5  C   UNL     1       4.426  -1.472  13.446  1.00  0.00     0.102 C 
BRANCH   5   6
ATOM      6  C   UNL     1       5.125  -0.986  12.175  1.00  0.00     0.031 C 
BRANCH   6   7
ATOM      7  C   UNL     1       4.285  -1.035  10.903  1.00  0.00     0.116 C 
BRANCH   7   8
ATOM      8  N   UNL     1       3.023  -0.327  11.012  1.00  0.00    -0.351 N 
ATOM      9  C   UNL     1       2.076  -0.026  10.056  1.00  0.00     0.271 C 
ATOM     10  O   UNL     1       1.091   0.609  10.438  1.00  0.00    -0.267 OA
ATOM     11  H   UNL     1       2.808  -0.008  11.918  1.00  0.00     0.163 HD
BRANCH   9  12
ATOM     12  C   UNL     1       2.259  -0.449   8.656  1.00  0.00     0.151 A 
ATOM     13  N   UNL     1       2.091  -0.378   6.516  1.00  0.00    -0.232 N 
ATOM     14  N   UNL     1       1.804   0.315   7.643  1.00  0.00    -0.162 NA
ATOM     15  C   UNL     1       2.939  -1.445   6.779  1.00  0.00     0.075 A 
ATOM     16  C   UNL     1       2.907  -1.601   8.147  1.00  0.00     0.065 A 
BRANCH  13  17
ATOM     17  C   UNL     1       1.581   0.023   5.253  1.00  0.00     0.065 A 
ATOM     18  C   UNL     1       0.801   0.801   2.696  1.00  0.00     0.082 A 
ATOM     19  C   UNL     1       0.919  -0.557   2.994  1.00  0.00     0.024 A 
ATOM     20  C   UNL     1       1.020   1.772   3.680  1.00  0.00     0.024 A 
ATOM     21  C   UNL     1       1.318  -0.945   4.270  1.00  0.00     0.030 A 
ATOM     22  C   UNL     1       1.381   1.381   4.974  1.00  0.00     0.030 A 
BRANCH  18  23
ATOM     23  S   UNL     1       0.444   1.299   1.038  1.00  0.00     0.238 S 
ATOM     24  O   UNL     1       1.156   2.532   0.759  1.00  0.00    -0.207 OA
ATOM     25  O   UNL     1      -0.962   1.132   0.795  1.00  0.00    -0.207 OA
BRANCH  23  26
ATOM     26  N   UNL     1       1.226   0.136   0.104  1.00  0.00    -0.225 NA
ATOM     27  H   UNL     1       1.078   0.338  -0.885  1.00  0.00     0.137 HD
ATOM     28  H   UNL     1       0.849  -0.786   0.323  1.00  0.00     0.137 HD
ENDBRANCH  23  26
ENDBRANCH  18  23
ENDBRANCH  13  17
BRANCH  15  29
ATOM     29  C   UNL     1       3.816  -2.097   5.810  1.00  0.00     0.000 A 
ATOM     30  C   UNL     1       4.661  -1.315   5.005  1.00  0.00     0.010 A 
ATOM     31  C   UNL     1       3.877  -3.490   5.710  1.00  0.00     0.010 A 
ATOM     32  C   UNL     1       5.534  -1.914   4.100  1.00  0.00     0.001 A 
ATOM     33  C   UNL     1       4.753  -4.088   4.802  1.00  0.00     0.001 A 
ATOM     34  C   UNL     1       5.579  -3.301   3.998  1.00  0.00     0.000 A 
ENDBRANCH  15  29
ENDBRANCH   9  12
ENDBRANCH   7   8
ENDBRANCH   6   7
ENDBRANCH   5   6
ENDBRANCH   1   5
BRANCH   3  35
ATOM     35  C   UNL     1       1.838  -3.035  12.735  1.00  0.00     0.117 C 
BRANCH  35  36
ATOM     36  C   UNL     1       1.592  -3.441  11.278  1.00  0.00     0.042 C 
BRANCH  36  37
ATOM     37  C   UNL     1       1.083  -4.864  11.129  1.00  0.00     0.118 C 
BRANCH  37  38
ATOM     38  N   UNL     1      -0.330  -4.989  11.455  1.00  0.00    -0.352 N 
ATOM     39  C   UNL     1      -1.111  -6.123  11.398  1.00  0.00     0.251 C 
ATOM     40  H   UNL     1      -0.782  -4.165  11.751  1.00  0.00     0.163 HD
ATOM     41  O   UNL     1      -2.332  -6.037  11.356  1.00  0.00    -0.269 OA
BRANCH  39  42
ATOM     42  C   UNL     1      -0.458  -7.445  11.351  1.00  0.00     0.039 A 
ATOM     43  C   UNL     1      -0.933  -8.423  10.476  1.00  0.00     0.014 A 
ATOM     44  C   UNL     1       0.645  -7.699  12.165  1.00  0.00     0.014 A 
ATOM     45  C   UNL     1      -0.239  -9.624  10.361  1.00  0.00     0.010 A 
ATOM     46  C   UNL     1       1.394  -8.842  11.973  1.00  0.00     0.010 A 
ATOM     47  C   UNL     1       0.946  -9.822  11.089  1.00  0.00    -0.014 A 
BRANCH  47  48
ATOM     48  C   UNL     1       1.767 -11.004  10.819  1.00  0.00     0.031 A 
ATOM     49  C   UNL     1       2.128 -11.219   9.388  1.00  0.00     0.074 A 
ATOM     50  C   UNL     1       2.357 -11.761  11.768  1.00  0.00     0.049 A 
ATOM     51  N   UNL     1       1.798 -12.209   8.626  1.00  0.00    -0.248 NA
ATOM     52  C   UNL     1       2.883 -10.160   8.700  1.00  0.00     0.031 C 
ATOM     53  C   UNL     1       2.404 -11.529  13.214  1.00  0.00     0.029 A 
ATOM     54  N   UNL     1       3.155 -12.857  11.609  1.00  0.00    -0.354 N 
ATOM     55  C   UNL     1       2.441 -11.995   7.408  1.00  0.00     0.074 A 
ATOM     56  C   UNL     1       2.976 -10.657   7.465  1.00  0.00     0.031 C 
ATOM     57  C   UNL     1       3.370 -12.299  13.761  1.00  0.00     0.029 A 
ATOM     58  C   UNL     1       3.884 -13.195  12.741  1.00  0.00     0.049 A 
ATOM     59  H   UNL     1       3.209 -13.363  10.767  1.00  0.00     0.167 HD
ATOM     60  C   UNL     1       2.671 -13.012   6.530  1.00  0.00     0.031 A 
ATOM     61  C   UNL     1       4.859 -14.128  12.838  1.00  0.00     0.031 A 
ATOM     62  C   UNL     1       1.881 -14.175   6.841  1.00  0.00     0.049 A 
ATOM     63  C   UNL     1       4.717 -15.051  11.693  1.00  0.00     0.074 A 
ATOM     64  C   UNL     1       0.533 -14.451   6.945  1.00  0.00     0.029 A 
ATOM     65  N   UNL     1       2.528 -15.219   7.456  1.00  0.00    -0.354 N 
ATOM     66  N   UNL     1       3.736 -15.896  11.563  1.00  0.00    -0.248 NA
ATOM     67  C   UNL     1       5.480 -14.791  10.484  1.00  0.00     0.031 C 
ATOM     68  C   UNL     1       0.430 -15.389   8.014  1.00  0.00     0.029 A 
ATOM     69  C   UNL     1       1.721 -15.670   8.464  1.00  0.00     0.049 A 
ATOM     70  H   UNL     1       3.413 -15.577   7.216  1.00  0.00     0.167 HD
ATOM     71  C   UNL     1       3.479 -15.927  10.202  1.00  0.00     0.074 A 
ATOM     72  C   UNL     1       4.666 -15.346   9.583  1.00  0.00     0.031 C 
ATOM     73  C   UNL     1       2.216 -16.156   9.733  1.00  0.00     0.031 A 
BRANCH  60  74
ATOM     74  C   UNL     1       3.903 -13.112   5.656  1.00  0.00    -0.014 A 
ATOM     75  C   UNL     1       4.046 -14.240   4.822  1.00  0.00     0.009 A 
ATOM     76  C   UNL     1       5.050 -12.318   5.836  1.00  0.00     0.009 A 
ATOM     77  C   UNL     1       5.290 -14.607   4.292  1.00  0.00     0.001 A 
ATOM     78  C   UNL     1       6.284 -12.656   5.269  1.00  0.00     0.001 A 
ATOM     79  C   UNL     1       6.411 -13.821   4.527  1.00  0.00     0.000 A 
ENDBRANCH  60  74
BRANCH  61  80
ATOM     80  C   UNL     1       6.014 -14.191  13.755  1.00  0.00    -0.014 A 
ATOM     81  C   UNL     1       6.696 -15.400  13.962  1.00  0.00     0.009 A 
ATOM     82  C   UNL     1       6.612 -13.009  14.227  1.00  0.00     0.009 A 
ATOM     83  C   UNL     1       7.954 -15.419  14.577  1.00  0.00     0.001 A 
ATOM     84  C   UNL     1       7.865 -13.029  14.848  1.00  0.00     0.001 A 
ATOM     85  C   UNL     1       8.544 -14.233  15.006  1.00  0.00     0.000 A 
ENDBRANCH  61  80
BRANCH  73  86
ATOM     86  C   UNL     1       1.187 -16.695  10.694  1.00  0.00    -0.014 A 
ATOM     87  C   UNL     1       0.810 -16.031  11.875  1.00  0.00     0.009 A 
ATOM     88  C   UNL     1       0.473 -17.845  10.322  1.00  0.00     0.009 A 
ATOM     89  C   UNL     1      -0.224 -16.527  12.676  1.00  0.00     0.001 A 
ATOM     90  C   UNL     1      -0.576 -18.325  11.108  1.00  0.00     0.001 A 
ATOM     91  C   UNL     1      -0.918 -17.671  12.289  1.00  0.00     0.000 A 
ENDBRANCH  73  86
ENDBRANCH  47  48
ENDBRANCH  39  42
ENDBRANCH  37  38
ENDBRANCH  36  37
ENDBRANCH  35  36
ENDBRANCH   3  35
TORSDOF 18
