REMARK SMILES C[C@@H](C(=O)NCCCNC(=O)c1ccc(-c2c3nc(c(-c4ccccc4)c4ccc([nH]4)c(-c4ccccc4)c4nc(c(-c5ccccc5)c5ccc2[nH]5)C=C4)C=C3)cc1)c1ccc(C[C@H]2CCCC2=O)cc1
REMARK SMILES IDX 6 1 5 2 3 3 4 4 2 6 1 7 60 8 61 9 72 10 62 11 71 12 63 13
REMARK SMILES IDX 64 14 65 15 66 16 69 17 67 18 68 19 70 20 7 21 8 22 9 23
REMARK SMILES IDX 10 24 11 26 12 27 13 28 59 29 14 30 58 31 15 32 16 33 17 34
REMARK SMILES IDX 52 35 18 36 57 37 51 38 53 39 19 40 56 41 50 42 49 43 20 45
REMARK SMILES IDX 42 46 27 47 41 48 28 49 31 50 40 51 54 52 29 53 30 54 39 56
REMARK SMILES IDX 55 57 32 58 21 59 22 60 26 61 23 62 25 63 24 64 43 65 44 66
REMARK SMILES IDX 48 67 45 68 47 69 46 70 33 71 34 72 38 73 35 74 37 75 36 76
REMARK H PARENT 5 5 9 25 53 44 31 55
REMARK Flexibility Score: inf
ROOT
ATOM      1  C   UNL     1       3.459   1.919   0.316  1.00  0.00     0.117 C 
ENDROOT
BRANCH   1   2
ATOM      2  N   UNL     1       2.376   2.526  -0.435  1.00  0.00    -0.356 N 
ATOM      3  C   UNL     1       1.088   2.112  -0.621  1.00  0.00     0.227 C 
ATOM      4  O   UNL     1       0.473   2.653  -1.543  1.00  0.00    -0.274 OA
ATOM      5  H   UNL     1       2.607   3.372  -0.883  1.00  0.00     0.163 HD
BRANCH   3   6
ATOM      6  C   UNL     1       0.473   1.046   0.308  1.00  0.00     0.105 C 
ATOM      7  C   UNL     1       0.975  -0.336  -0.128  1.00  0.00     0.023 C 
BRANCH   6   8
ATOM      8  C   UNL     1      -1.058   1.121   0.410  1.00  0.00    -0.036 A 
ATOM      9  C   UNL     1      -1.715   2.362   0.404  1.00  0.00     0.005 A 
ATOM     10  C   UNL     1      -1.854  -0.027   0.559  1.00  0.00     0.005 A 
ATOM     11  C   UNL     1      -3.109   2.446   0.462  1.00  0.00     0.004 A 
ATOM     12  C   UNL     1      -3.246   0.057   0.655  1.00  0.00     0.004 A 
ATOM     13  C   UNL     1      -3.889   1.296   0.606  1.00  0.00    -0.047 A 
BRANCH  13  14
ATOM     14  C   UNL     1      -5.392   1.381   0.711  1.00  0.00     0.047 C 
BRANCH  14  15
ATOM     15  C   UNL     1      -5.951   1.903   2.039  1.00  0.00     0.060 C 
ATOM     16  C   UNL     1      -5.457   1.206   3.310  1.00  0.00     0.012 C 
ATOM     17  C   UNL     1      -5.570   3.341   2.296  1.00  0.00     0.136 C 
ATOM     18  C   UNL     1      -4.326   2.067   3.861  1.00  0.00     0.009 C 
ATOM     19  C   UNL     1      -4.682   3.502   3.502  1.00  0.00     0.076 C 
ATOM     20  O   UNL     1      -5.948   4.280   1.605  1.00  0.00    -0.299 OA
ENDBRANCH  14  15
ENDBRANCH  13  14
ENDBRANCH   6   8
ENDBRANCH   3   6
ENDBRANCH   1   2
BRANCH   1  21
ATOM     21  C   UNL     1       4.386   1.122  -0.603  1.00  0.00     0.042 C 
BRANCH  21  22
ATOM     22  C   UNL     1       5.090   1.963  -1.665  1.00  0.00     0.118 C 
BRANCH  22  23
ATOM     23  N   UNL     1       6.059   2.887  -1.095  1.00  0.00    -0.352 N 
ATOM     24  C   UNL     1       7.422   2.934  -1.242  1.00  0.00     0.251 C 
ATOM     25  H   UNL     1       5.677   3.586  -0.516  1.00  0.00     0.163 HD
ATOM     26  O   UNL     1       8.089   3.670  -0.517  1.00  0.00    -0.269 OA
BRANCH  24  27
ATOM     27  C   UNL     1       8.100   2.082  -2.243  1.00  0.00     0.039 A 
ATOM     28  C   UNL     1       9.252   1.388  -1.864  1.00  0.00     0.014 A 
ATOM     29  C   UNL     1       7.610   1.965  -3.546  1.00  0.00     0.014 A 
ATOM     30  C   UNL     1       9.858   0.505  -2.762  1.00  0.00     0.010 A 
ATOM     31  C   UNL     1       8.175   1.035  -4.418  1.00  0.00     0.010 A 
ATOM     32  C   UNL     1       9.292   0.281  -4.027  1.00  0.00    -0.014 A 
BRANCH  32  33
ATOM     33  C   UNL     1       9.804  -0.790  -4.922  1.00  0.00     0.031 A 
ATOM     34  C   UNL     1      10.396  -0.454  -6.262  1.00  0.00     0.074 A 
ATOM     35  C   UNL     1       9.649  -2.079  -4.556  1.00  0.00     0.049 A 
ATOM     36  N   UNL     1      10.801  -1.265  -7.208  1.00  0.00    -0.248 NA
ATOM     37  C   UNL     1      10.537   0.973  -6.594  1.00  0.00     0.031 C 
ATOM     38  C   UNL     1       9.057  -2.538  -3.296  1.00  0.00     0.029 A 
ATOM     39  N   UNL     1       9.957  -3.243  -5.217  1.00  0.00    -0.354 N 
ATOM     40  C   UNL     1      11.223  -0.450  -8.251  1.00  0.00     0.074 A 
ATOM     41  C   UNL     1      11.003   0.918  -7.835  1.00  0.00     0.031 C 
ATOM     42  C   UNL     1       9.054  -3.880  -3.272  1.00  0.00     0.029 A 
ATOM     43  C   UNL     1       9.592  -4.379  -4.532  1.00  0.00     0.049 A 
ATOM     44  H   UNL     1      10.396  -3.262  -6.097  1.00  0.00     0.167 HD
ATOM     45  C   UNL     1      11.752  -0.812  -9.443  1.00  0.00     0.031 A 
ATOM     46  C   UNL     1       9.654  -5.676  -4.888  1.00  0.00     0.031 A 
ATOM     47  C   UNL     1      11.984  -2.174  -9.849  1.00  0.00     0.049 A 
ATOM     48  C   UNL     1      10.209  -6.041  -6.238  1.00  0.00     0.074 A 
ATOM     49  C   UNL     1      12.596  -2.631 -11.004  1.00  0.00     0.029 A 
ATOM     50  N   UNL     1      11.602  -3.292  -9.128  1.00  0.00    -0.354 N 
ATOM     51  N   UNL     1      10.700  -5.258  -7.168  1.00  0.00    -0.248 NA
ATOM     52  C   UNL     1      10.216  -7.469  -6.588  1.00  0.00     0.031 C 
ATOM     53  C   UNL     1      12.518  -4.026 -11.015  1.00  0.00     0.029 A 
ATOM     54  C   UNL     1      11.916  -4.438  -9.838  1.00  0.00     0.049 A 
ATOM     55  H   UNL     1      11.171  -3.274  -8.243  1.00  0.00     0.167 HD
ATOM     56  C   UNL     1      11.091  -6.100  -8.201  1.00  0.00     0.074 A 
ATOM     57  C   UNL     1      10.808  -7.453  -7.774  1.00  0.00     0.031 C 
ATOM     58  C   UNL     1      11.630  -5.779  -9.402  1.00  0.00     0.031 A 
BRANCH  45  59
ATOM     59  C   UNL     1      12.111   0.272 -10.420  1.00  0.00    -0.014 A 
ATOM     60  C   UNL     1      13.231   1.093 -10.221  1.00  0.00     0.009 A 
ATOM     61  C   UNL     1      11.377   0.400 -11.611  1.00  0.00     0.009 A 
ATOM     62  C   UNL     1      13.599   2.031 -11.189  1.00  0.00     0.001 A 
ATOM     63  C   UNL     1      11.763   1.319 -12.587  1.00  0.00     0.001 A 
ATOM     64  C   UNL     1      12.871   2.136 -12.374  1.00  0.00     0.000 A 
ENDBRANCH  45  59
BRANCH  46  65
ATOM     65  C   UNL     1       9.139  -6.736  -3.978  1.00  0.00    -0.014 A 
ATOM     66  C   UNL     1      10.009  -7.682  -3.415  1.00  0.00     0.009 A 
ATOM     67  C   UNL     1       7.764  -6.837  -3.710  1.00  0.00     0.009 A 
ATOM     68  C   UNL     1       9.508  -8.730  -2.639  1.00  0.00     0.001 A 
ATOM     69  C   UNL     1       7.271  -7.864  -2.903  1.00  0.00     0.001 A 
ATOM     70  C   UNL     1       8.141  -8.819  -2.382  1.00  0.00     0.000 A 
ENDBRANCH  46  65
BRANCH  58  71
ATOM     71  C   UNL     1      11.966  -6.909 -10.333  1.00  0.00    -0.014 A 
ATOM     72  C   UNL     1      10.957  -7.630 -10.990  1.00  0.00     0.009 A 
ATOM     73  C   UNL     1      13.309  -7.219 -10.599  1.00  0.00     0.009 A 
ATOM     74  C   UNL     1      11.287  -8.657 -11.876  1.00  0.00     0.001 A 
ATOM     75  C   UNL     1      13.635  -8.225 -11.509  1.00  0.00     0.001 A 
ATOM     76  C   UNL     1      12.625  -8.948 -12.141  1.00  0.00     0.000 A 
ENDBRANCH  58  71
ENDBRANCH  32  33
ENDBRANCH  24  27
ENDBRANCH  22  23
ENDBRANCH  21  22
ENDBRANCH   1  21
TORSDOF 13
