REMARK SMILES CC[C@H](CCO)CNc1cc(C(=O)NCCCNC(=O)c2ccc(-c3c4nc(c(-c5ccccc5)c5ccc([nH]5)c(-c5ccccc5)c5nc(c(-c6ccccc6)c6ccc3[nH]6)C=C5)C=C4)cc2)ccn1
REMARK SMILES IDX 12 1 13 2 14 3 11 5 9 6 10 7 71 8 70 9 69 10 8 11 7 13 3 14
REMARK SMILES IDX 2 15 1 16 4 17 5 18 6 19 15 21 16 22 17 23 18 24 19 25 20 27
REMARK SMILES IDX 21 28 22 29 68 30 23 31 67 32 24 33 25 34 26 35 61 36 27 37
REMARK SMILES IDX 66 38 60 39 62 40 28 41 65 42 59 43 58 44 29 46 51 47 36 48
REMARK SMILES IDX 50 49 37 50 40 51 49 52 63 53 38 54 39 55 48 57 64 58 41 59
REMARK SMILES IDX 30 60 31 61 35 62 32 63 34 64 33 65 52 66 53 67 57 68 54 69
REMARK SMILES IDX 56 70 55 71 42 72 43 73 47 74 44 75 46 76 45 77
REMARK H PARENT 14 4 8 12 6 20 18 26 62 45 40 56
REMARK Flexibility Score: inf
ROOT
ATOM      1  C   UNL     1       2.108  -6.775  -5.725  1.00  0.00     0.251 C 
ATOM      2  O   UNL     1       2.758  -7.303  -6.629  1.00  0.00    -0.269 OA
ATOM      3  N   UNL     1       1.182  -7.562  -5.091  1.00  0.00    -0.352 N 
ATOM      4  H   UNL     1       1.138  -8.477  -5.452  1.00  0.00     0.163 HD
ENDROOT
BRANCH   1   5
ATOM      5  C   UNL     1       2.409  -5.365  -5.358  1.00  0.00     0.044 A 
ATOM      6  C   UNL     1       1.994  -3.252  -4.296  1.00  0.00     0.126 A 
ATOM      7  C   UNL     1       1.549  -4.512  -4.673  1.00  0.00     0.060 A 
ATOM      8  N   UNL     1       3.186  -2.768  -4.684  1.00  0.00    -0.240 NA
ATOM      9  C   UNL     1       3.986  -3.574  -5.408  1.00  0.00     0.114 A 
ATOM     10  C   UNL     1       3.656  -4.871  -5.747  1.00  0.00     0.034 A 
BRANCH   6  11
ATOM     11  N   UNL     1       1.274  -2.432  -3.451  1.00  0.00    -0.370 N 
ATOM     12  H   UNL     1       1.182  -1.472  -3.650  1.00  0.00     0.162 HD
BRANCH  11  13
ATOM     13  C   UNL     1       0.651  -2.998  -2.264  1.00  0.00     0.118 C 
BRANCH  13  14
ATOM     14  C   UNL     1       0.890  -2.096  -1.027  1.00  0.00     0.010 C 
BRANCH  14  15
ATOM     15  C   UNL     1       0.548  -2.887   0.260  1.00  0.00     0.002 C 
ATOM     16  C   UNL     1       1.531  -2.637   1.398  1.00  0.00     0.004 C 
ENDBRANCH  14  15
BRANCH  14  17
ATOM     17  C   UNL     1       0.050  -0.802  -1.160  1.00  0.00     0.033 C 
BRANCH  17  18
ATOM     18  C   UNL     1       0.256   0.237  -0.063  1.00  0.00     0.156 C 
BRANCH  18  19
ATOM     19  O   UNL     1       1.586   0.734  -0.073  1.00  0.00    -0.396 OA
ATOM     20  H   UNL     1       2.205   0.003   0.084  1.00  0.00     0.210 HD
ENDBRANCH  18  19
ENDBRANCH  17  18
ENDBRANCH  14  17
ENDBRANCH  13  14
ENDBRANCH  11  13
ENDBRANCH   6  11
ENDBRANCH   1   5
BRANCH   3  21
ATOM     21  C   UNL     1       0.254  -7.332  -4.000  1.00  0.00     0.118 C 
BRANCH  21  22
ATOM     22  C   UNL     1      -1.144  -7.007  -4.530  1.00  0.00     0.042 C 
BRANCH  22  23
ATOM     23  C   UNL     1      -1.890  -8.238  -5.046  1.00  0.00     0.118 C 
BRANCH  23  24
ATOM     24  N   UNL     1      -2.279  -9.128  -3.960  1.00  0.00    -0.352 N 
ATOM     25  C   UNL     1      -3.517  -9.593  -3.595  1.00  0.00     0.251 C 
ATOM     26  H   UNL     1      -1.535  -9.446  -3.400  1.00  0.00     0.163 HD
ATOM     27  O   UNL     1      -3.655 -10.147  -2.509  1.00  0.00    -0.269 OA
BRANCH  25  28
ATOM     28  C   UNL     1      -4.684  -9.432  -4.489  1.00  0.00     0.039 A 
ATOM     29  C   UNL     1      -5.925  -9.121  -3.921  1.00  0.00     0.014 A 
ATOM     30  C   UNL     1      -4.583  -9.649  -5.866  1.00  0.00     0.014 A 
ATOM     31  C   UNL     1      -7.050  -8.981  -4.737  1.00  0.00     0.010 A 
ATOM     32  C   UNL     1      -5.692  -9.450  -6.685  1.00  0.00     0.010 A 
ATOM     33  C   UNL     1      -6.937  -9.120  -6.129  1.00  0.00    -0.014 A 
BRANCH  33  34
ATOM     34  C   UNL     1      -8.110  -8.924  -7.017  1.00  0.00     0.031 A 
ATOM     35  C   UNL     1      -8.662 -10.074  -7.813  1.00  0.00     0.074 A 
ATOM     36  C   UNL     1      -8.640  -7.693  -7.155  1.00  0.00     0.049 A 
ATOM     37  N   UNL     1      -9.631 -10.079  -8.693  1.00  0.00    -0.248 NA
ATOM     38  C   UNL     1      -8.027 -11.386  -7.609  1.00  0.00     0.031 C 
ATOM     39  C   UNL     1      -8.175  -6.488  -6.465  1.00  0.00     0.029 A 
ATOM     40  N   UNL     1      -9.680  -7.251  -7.934  1.00  0.00    -0.354 N 
ATOM     41  C   UNL     1      -9.709 -11.385  -9.161  1.00  0.00     0.074 A 
ATOM     42  C   UNL     1      -8.664 -12.135  -8.498  1.00  0.00     0.031 C 
ATOM     43  C   UNL     1      -8.938  -5.448  -6.838  1.00  0.00     0.029 A 
ATOM     44  C   UNL     1      -9.918  -5.903  -7.819  1.00  0.00     0.049 A 
ATOM     45  H   UNL     1     -10.205  -7.844  -8.519  1.00  0.00     0.167 HD
ATOM     46  C   UNL     1     -10.582 -11.917 -10.051  1.00  0.00     0.031 A 
ATOM     47  C   UNL     1     -10.817  -5.119  -8.442  1.00  0.00     0.031 A 
ATOM     48  C   UNL     1     -11.627 -11.175 -10.703  1.00  0.00     0.049 A 
ATOM     49  C   UNL     1     -11.768  -5.730  -9.431  1.00  0.00     0.074 A 
ATOM     50  C   UNL     1     -12.593 -11.636 -11.582  1.00  0.00     0.029 A 
ATOM     51  N   UNL     1     -11.843  -9.815 -10.549  1.00  0.00    -0.354 N 
ATOM     52  N   UNL     1     -11.866  -6.979  -9.818  1.00  0.00    -0.248 NA
ATOM     53  C   UNL     1     -12.740  -4.825 -10.060  1.00  0.00     0.031 C 
ATOM     54  C   UNL     1     -13.367 -10.545 -11.992  1.00  0.00     0.029 A 
ATOM     55  C   UNL     1     -12.914  -9.415 -11.330  1.00  0.00     0.049 A 
ATOM     56  H   UNL     1     -11.313  -9.221  -9.969  1.00  0.00     0.167 HD
ATOM     57  C   UNL     1     -12.924  -7.014 -10.716  1.00  0.00     0.074 A 
ATOM     58  C   UNL     1     -13.445  -5.665 -10.804  1.00  0.00     0.031 C 
ATOM     59  C   UNL     1     -13.419  -8.069 -11.407  1.00  0.00     0.031 A 
BRANCH  46  60
ATOM     60  C   UNL     1     -10.433 -13.378 -10.375  1.00  0.00    -0.014 A 
ATOM     61  C   UNL     1     -10.767 -14.368  -9.436  1.00  0.00     0.009 A 
ATOM     62  C   UNL     1      -9.985 -13.771 -11.645  1.00  0.00     0.009 A 
ATOM     63  C   UNL     1     -10.618 -15.720  -9.751  1.00  0.00     0.001 A 
ATOM     64  C   UNL     1      -9.864 -15.124 -11.967  1.00  0.00     0.001 A 
ATOM     65  C   UNL     1     -10.171 -16.097 -11.017  1.00  0.00     0.000 A 
ENDBRANCH  46  60
BRANCH  47  66
ATOM     66  C   UNL     1     -10.868  -3.665  -8.138  1.00  0.00    -0.014 A 
ATOM     67  C   UNL     1     -11.934  -3.130  -7.400  1.00  0.00     0.009 A 
ATOM     68  C   UNL     1      -9.851  -2.807  -8.585  1.00  0.00     0.009 A 
ATOM     69  C   UNL     1     -11.993  -1.760  -7.135  1.00  0.00     0.001 A 
ATOM     70  C   UNL     1      -9.900  -1.441  -8.294  1.00  0.00     0.001 A 
ATOM     71  C   UNL     1     -10.974  -0.918  -7.578  1.00  0.00     0.000 A 
ENDBRANCH  47  66
BRANCH  59  72
ATOM     72  C   UNL     1     -14.605  -7.812 -12.292  1.00  0.00    -0.014 A 
ATOM     73  C   UNL     1     -14.470  -7.123 -13.507  1.00  0.00     0.009 A 
ATOM     74  C   UNL     1     -15.867  -8.301 -11.921  1.00  0.00     0.009 A 
ATOM     75  C   UNL     1     -15.585  -6.902 -14.319  1.00  0.00     0.001 A 
ATOM     76  C   UNL     1     -16.974  -8.101 -12.747  1.00  0.00     0.001 A 
ATOM     77  C   UNL     1     -16.833  -7.394 -13.941  1.00  0.00     0.000 A 
ENDBRANCH  59  72
ENDBRANCH  33  34
ENDBRANCH  25  28
ENDBRANCH  23  24
ENDBRANCH  22  23
ENDBRANCH  21  22
ENDBRANCH   3  21
TORSDOF 17
