REMARK SMILES COc1cc(Cl)c(C)cc1N1C(=O)C[C@H](Nc2cc(C(=O)NCCCNC(=O)c3ccc(-c4c5nc(c(-c6ccccc6)c6ccc([nH]6)c(-c6ccccc6)c6nc(c(-c7ccccc7)c7ccc4[nH]7)C=C6)C=C5)cc3)ccc2C)C1=O
REMARK SMILES IDX 23 1 22 2 20 3 21 4 19 6 17 7 18 8 79 9 78 10 80 11 77 12
REMARK SMILES IDX 16 13 15 15 11 16 12 17 81 18 13 19 14 20 82 21 10 22 3 23
REMARK SMILES IDX 4 24 5 25 9 26 6 27 7 28 8 29 2 30 1 31 24 32 25 33 26 34
REMARK SMILES IDX 27 35 28 37 29 38 30 39 76 40 31 41 75 42 32 43 33 44 34 45
REMARK SMILES IDX 69 46 35 47 74 48 68 49 70 50 36 51 73 52 67 53 66 54 37 56
REMARK SMILES IDX 59 57 44 58 58 59 45 60 48 61 57 62 71 63 46 64 47 65 56 67
REMARK SMILES IDX 72 68 49 69 38 70 39 71 43 72 40 73 42 74 41 75 60 76 61 77
REMARK SMILES IDX 65 78 62 79 64 80 63 81 50 82 51 83 55 84 52 85 54 86 53 87
REMARK H PARENT 22 5 16 14 26 36 70 55 48 66
REMARK Flexibility Score: inf
ROOT
ATOM      1  C   UNL     1       2.639   4.050  -1.929  1.00  0.00     0.118 C 
ENDROOT
BRANCH   1   2
ATOM      2  N   UNL     1       3.475   4.720  -2.914  1.00  0.00    -0.352 N 
ATOM      3  C   UNL     1       4.754   4.498  -3.369  1.00  0.00     0.251 C 
ATOM      4  O   UNL     1       5.159   5.240  -4.266  1.00  0.00    -0.269 OA
ATOM      5  H   UNL     1       3.035   5.490  -3.341  1.00  0.00     0.163 HD
BRANCH   3   6
ATOM      6  C   UNL     1       5.663   3.416  -2.874  1.00  0.00     0.041 A 
ATOM      7  C   UNL     1       6.358   1.669  -1.296  1.00  0.00     0.038 A 
ATOM      8  C   UNL     1       5.495   2.707  -1.687  1.00  0.00     0.039 A 
ATOM      9  C   UNL     1       7.504   1.414  -2.055  1.00  0.00    -0.028 A 
ATOM     10  C   UNL     1       7.708   2.140  -3.238  1.00  0.00     0.006 A 
ATOM     11  C   UNL     1       8.514   0.371  -1.667  1.00  0.00     0.046 C 
ATOM     12  C   UNL     1       6.793   3.118  -3.647  1.00  0.00     0.014 A 
BRANCH   7  13
ATOM     13  N   UNL     1       6.106   0.980  -0.105  1.00  0.00    -0.373 N 
ATOM     14  H   UNL     1       6.739   0.996   0.648  1.00  0.00     0.161 HD
BRANCH  13  15
ATOM     15  C   UNL     1       4.843   0.231  -0.039  1.00  0.00     0.179 C 
ATOM     16  N   UNL     1       3.378  -0.294   1.704  1.00  0.00    -0.245 N 
ATOM     17  C   UNL     1       4.065  -1.452   1.458  1.00  0.00     0.236 C 
ATOM     18  C   UNL     1       3.908   0.770   1.025  1.00  0.00     0.256 C 
ATOM     19  O   UNL     1       3.899  -2.545   1.980  1.00  0.00    -0.274 OA
ATOM     20  C   UNL     1       5.092  -1.201   0.394  1.00  0.00     0.136 C 
ATOM     21  O   UNL     1       3.753   1.959   1.271  1.00  0.00    -0.272 OA
BRANCH  16  22
ATOM     22  C   UNL     1       2.345  -0.160   2.654  1.00  0.00     0.094 A 
ATOM     23  C   UNL     1       1.139   0.484   2.333  1.00  0.00     0.144 A 
ATOM     24  C   UNL     1       0.140   0.642   3.295  1.00  0.00     0.069 A 
ATOM     25  C   UNL     1       0.338   0.160   4.590  1.00  0.00     0.047 A 
ATOM     26  C   UNL     1       2.522  -0.658   3.952  1.00  0.00     0.035 A 
ATOM     27  Cl  UNL     1      -0.943   0.358   5.733  1.00  0.00    -0.084 Cl
ATOM     28  C   UNL     1       1.541  -0.471   4.942  1.00  0.00    -0.030 A 
ATOM     29  C   UNL     1       1.817  -0.934   6.346  1.00  0.00     0.046 C 
BRANCH  23  30
ATOM     30  O   UNL     1       0.874   0.977   1.078  1.00  0.00    -0.495 OA
ATOM     31  C   UNL     1       0.561  -0.071   0.158  1.00  0.00     0.278 C 
ENDBRANCH  23  30
ENDBRANCH  16  22
ENDBRANCH  13  15
ENDBRANCH   7  13
ENDBRANCH   3   6
ENDBRANCH   1   2
BRANCH   1  32
ATOM     32  C   UNL     1       2.914   4.562  -0.518  1.00  0.00     0.042 C 
BRANCH  32  33
ATOM     33  C   UNL     1       1.984   5.667  -0.067  1.00  0.00     0.118 C 
BRANCH  33  34
ATOM     34  N   UNL     1       0.829   5.195   0.695  1.00  0.00    -0.352 N 
ATOM     35  C   UNL     1      -0.285   5.912   1.105  1.00  0.00     0.251 C 
ATOM     36  H   UNL     1       0.844   4.244   0.950  1.00  0.00     0.163 HD
ATOM     37  O   UNL     1      -1.185   5.381   1.728  1.00  0.00    -0.269 OA
BRANCH  35  38
ATOM     38  C   UNL     1      -0.411   7.318   0.652  1.00  0.00     0.039 A 
ATOM     39  C   UNL     1      -1.579   7.684  -0.023  1.00  0.00     0.014 A 
ATOM     40  C   UNL     1       0.698   8.159   0.659  1.00  0.00     0.014 A 
ATOM     41  C   UNL     1      -1.540   8.764  -0.899  1.00  0.00     0.010 A 
ATOM     42  C   UNL     1       0.778   9.150  -0.296  1.00  0.00     0.010 A 
ATOM     43  C   UNL     1      -0.321   9.409  -1.118  1.00  0.00    -0.014 A 
BRANCH  43  44
ATOM     44  C   UNL     1      -0.087  10.291  -2.253  1.00  0.00     0.031 A 
ATOM     45  C   UNL     1      -0.074  11.752  -2.059  1.00  0.00     0.074 A 
ATOM     46  C   UNL     1       0.104   9.789  -3.494  1.00  0.00     0.049 A 
ATOM     47  N   UNL     1      -0.542  12.590  -2.924  1.00  0.00    -0.248 NA
ATOM     48  C   UNL     1       0.431  12.383  -0.845  1.00  0.00     0.031 C 
ATOM     49  C   UNL     1       0.522  10.531  -4.682  1.00  0.00     0.029 A 
ATOM     50  N   UNL     1      -0.259   8.537  -3.990  1.00  0.00    -0.354 N 
ATOM     51  C   UNL     1      -0.128  13.838  -2.529  1.00  0.00     0.074 A 
ATOM     52  C   UNL     1       0.380  13.675  -1.185  1.00  0.00     0.031 C 
ATOM     53  C   UNL     1       0.108   9.864  -5.771  1.00  0.00     0.029 A 
ATOM     54  C   UNL     1      -0.688   8.737  -5.312  1.00  0.00     0.049 A 
ATOM     55  H   UNL     1      -0.222   7.680  -3.507  1.00  0.00     0.167 HD
ATOM     56  C   UNL     1      -0.085  14.862  -3.423  1.00  0.00     0.031 A 
ATOM     57  C   UNL     1      -1.921   8.390  -5.780  1.00  0.00     0.031 A 
ATOM     58  C   UNL     1      -0.476  14.445  -4.762  1.00  0.00     0.049 A 
ATOM     59  C   UNL     1      -2.667   9.550  -6.398  1.00  0.00     0.074 A 
ATOM     60  C   UNL     1       0.266  14.098  -5.880  1.00  0.00     0.029 A 
ATOM     61  N   UNL     1      -1.781  14.047  -5.012  1.00  0.00    -0.354 N 
ATOM     62  N   UNL     1      -2.353  10.798  -6.196  1.00  0.00    -0.248 NA
ATOM     63  C   UNL     1      -3.863   9.409  -7.225  1.00  0.00     0.031 C 
ATOM     64  C   UNL     1      -0.601  13.470  -6.806  1.00  0.00     0.029 A 
ATOM     65  C   UNL     1      -1.868  13.448  -6.253  1.00  0.00     0.049 A 
ATOM     66  H   UNL     1      -2.536  14.173  -4.393  1.00  0.00     0.167 HD
ATOM     67  C   UNL     1      -3.255  11.613  -6.831  1.00  0.00     0.074 A 
ATOM     68  C   UNL     1      -4.183  10.695  -7.462  1.00  0.00     0.031 C 
ATOM     69  C   UNL     1      -3.148  12.972  -6.758  1.00  0.00     0.031 A 
BRANCH  56  70
ATOM     70  C   UNL     1       0.631  16.153  -3.134  1.00  0.00    -0.014 A 
ATOM     71  C   UNL     1       1.337  16.805  -4.162  1.00  0.00     0.009 A 
ATOM     72  C   UNL     1       0.671  16.756  -1.866  1.00  0.00     0.009 A 
ATOM     73  C   UNL     1       2.122  17.936  -3.918  1.00  0.00     0.001 A 
ATOM     74  C   UNL     1       1.485  17.867  -1.607  1.00  0.00     0.001 A 
ATOM     75  C   UNL     1       2.220  18.450  -2.632  1.00  0.00     0.000 A 
ENDBRANCH  56  70
BRANCH  57  76
ATOM     76  C   UNL     1      -2.572   7.287  -5.027  1.00  0.00    -0.014 A 
ATOM     77  C   UNL     1      -2.032   5.992  -5.137  1.00  0.00     0.009 A 
ATOM     78  C   UNL     1      -3.422   7.574  -3.949  1.00  0.00     0.009 A 
ATOM     79  C   UNL     1      -2.246   5.043  -4.133  1.00  0.00     0.001 A 
ATOM     80  C   UNL     1      -3.637   6.618  -2.949  1.00  0.00     0.001 A 
ATOM     81  C   UNL     1      -3.022   5.368  -3.024  1.00  0.00     0.000 A 
ENDBRANCH  57  76
BRANCH  69  82
ATOM     82  C   UNL     1      -4.156  14.008  -7.203  1.00  0.00    -0.014 A 
ATOM     83  C   UNL     1      -5.496  13.748  -7.505  1.00  0.00     0.009 A 
ATOM     84  C   UNL     1      -3.766  15.371  -7.210  1.00  0.00     0.009 A 
ATOM     85  C   UNL     1      -6.389  14.786  -7.820  1.00  0.00     0.001 A 
ATOM     86  C   UNL     1      -4.660  16.410  -7.478  1.00  0.00     0.001 A 
ATOM     87  C   UNL     1      -5.975  16.115  -7.793  1.00  0.00     0.000 A 
ENDBRANCH  69  82
ENDBRANCH  43  44
ENDBRANCH  35  38
ENDBRANCH  33  34
ENDBRANCH  32  33
ENDBRANCH   1  32
TORSDOF 14
