REMARK SMILES Cc1ccc(Cl)c(Nc2ccccc2C(=O)NCCCNC(=O)c2ccc(-c3c4nc(c(-c5ccccc5)c5ccc([nH]5)c(-c5ccccc5)c5nc(c(-c6ccccc6)c6ccc3[nH]6)C=C5)C=C4)cc2)c1Cl
REMARK SMILES IDX 19 1 18 2 17 3 15 4 16 5 14 7 9 8 10 9 11 10 13 11 12 12
REMARK SMILES IDX 8 13 7 15 1 16 2 17 3 18 72 19 4 20 73 21 5 22 6 23 20 24
REMARK SMILES IDX 21 25 22 26 23 28 24 29 25 30 71 31 26 32 70 33 27 34 28 35
REMARK SMILES IDX 29 36 64 37 30 38 69 39 63 40 65 41 31 42 68 43 62 44 61 45
REMARK SMILES IDX 32 47 54 48 39 49 53 50 40 51 43 52 52 53 66 54 41 55 42 56
REMARK SMILES IDX 51 58 67 59 44 60 33 61 34 62 38 63 35 64 37 65 36 66 55 67
REMARK SMILES IDX 56 68 60 69 57 70 59 71 58 72 45 73 46 74 50 75 47 76 49 77
REMARK SMILES IDX 48 78
REMARK H PARENT 17 6 8 14 21 27 65 46 43 57
REMARK Flexibility Score: inf
ROOT
ATOM      1  C   UNL     1      -2.202  -1.396   2.363  1.00  0.00     0.042 C 
ENDROOT
BRANCH   1   2
ATOM      2  C   UNL     1      -0.962  -1.513   1.506  1.00  0.00     0.118 C 
BRANCH   2   3
ATOM      3  N   UNL     1       0.297  -1.592   2.197  1.00  0.00    -0.352 N 
ATOM      4  C   UNL     1       1.480  -2.139   1.755  1.00  0.00     0.253 C 
ATOM      5  O   UNL     1       2.490  -1.885   2.417  1.00  0.00    -0.269 OA
ATOM      6  H   UNL     1       0.315  -1.205   3.102  1.00  0.00     0.163 HD
BRANCH   4   7
ATOM      7  C   UNL     1       1.571  -3.134   0.637  1.00  0.00     0.063 A 
ATOM      8  C   UNL     1       0.965  -3.105  -0.639  1.00  0.00     0.051 A 
ATOM      9  C   UNL     1       1.112  -4.249  -1.462  1.00  0.00     0.027 A 
ATOM     10  C   UNL     1       1.884  -5.348  -1.088  1.00  0.00     0.002 A 
ATOM     11  C   UNL     1       2.376  -4.247   0.984  1.00  0.00     0.016 A 
ATOM     12  C   UNL     1       2.541  -5.337   0.130  1.00  0.00     0.001 A 
BRANCH   8  13
ATOM     13  N   UNL     1       0.296  -2.031  -1.266  1.00  0.00    -0.352 N 
ATOM     14  H   UNL     1      -0.430  -2.333  -1.859  1.00  0.00     0.167 HD
BRANCH  13  15
ATOM     15  C   UNL     1       0.424  -0.620  -1.242  1.00  0.00     0.077 A 
ATOM     16  C   UNL     1       2.801   2.191  -0.155  1.00  0.00     0.046 C 
ATOM     17  C   UNL     1       1.573   1.458  -0.624  1.00  0.00    -0.030 A 
ATOM     18  C   UNL     1       0.372   2.168  -0.767  1.00  0.00     0.006 A 
ATOM     19  C   UNL     1       1.602   0.072  -0.900  1.00  0.00     0.069 A 
ATOM     20  C   UNL     1      -0.779   1.524  -1.206  1.00  0.00     0.023 A 
ATOM     21  Cl  UNL     1       3.145  -0.729  -0.943  1.00  0.00    -0.082 Cl
ATOM     22  C   UNL     1      -0.750   0.152  -1.447  1.00  0.00     0.066 A 
ATOM     23  Cl  UNL     1      -2.246  -0.614  -1.889  1.00  0.00    -0.082 Cl
ENDBRANCH  13  15
ENDBRANCH   8  13
ENDBRANCH   4   7
ENDBRANCH   2   3
ENDBRANCH   1   2
BRANCH   1  24
ATOM     24  C   UNL     1      -2.374  -0.052   3.061  1.00  0.00     0.118 C 
BRANCH  24  25
ATOM     25  N   UNL     1      -2.391   1.114   2.173  1.00  0.00    -0.352 N 
ATOM     26  C   UNL     1      -3.396   1.973   1.778  1.00  0.00     0.251 C 
ATOM     27  H   UNL     1      -1.513   1.325   1.781  1.00  0.00     0.163 HD
ATOM     28  O   UNL     1      -3.163   2.832   0.937  1.00  0.00    -0.269 OA
BRANCH  26  29
ATOM     29  C   UNL     1      -4.763   1.845   2.330  1.00  0.00     0.039 A 
ATOM     30  C   UNL     1      -5.869   2.051   1.497  1.00  0.00     0.014 A 
ATOM     31  C   UNL     1      -4.964   1.516   3.666  1.00  0.00     0.014 A 
ATOM     32  C   UNL     1      -7.160   1.809   1.980  1.00  0.00     0.010 A 
ATOM     33  C   UNL     1      -6.223   1.132   4.100  1.00  0.00     0.010 A 
ATOM     34  C   UNL     1      -7.342   1.287   3.269  1.00  0.00    -0.014 A 
BRANCH  34  35
ATOM     35  C   UNL     1      -8.676   0.914   3.806  1.00  0.00     0.031 A 
ATOM     36  C   UNL     1      -9.156   1.530   5.095  1.00  0.00     0.074 A 
ATOM     37  C   UNL     1      -9.392  -0.064   3.218  1.00  0.00     0.049 A 
ATOM     38  N   UNL     1     -10.193   1.215   5.830  1.00  0.00    -0.248 NA
ATOM     39  C   UNL     1      -8.324   2.604   5.662  1.00  0.00     0.031 C 
ATOM     40  C   UNL     1      -9.008  -0.790   2.006  1.00  0.00     0.029 A 
ATOM     41  N   UNL     1     -10.588  -0.632   3.579  1.00  0.00    -0.354 N 
ATOM     42  C   UNL     1     -10.104   2.015   6.962  1.00  0.00     0.074 A 
ATOM     43  C   UNL     1      -8.880   2.775   6.851  1.00  0.00     0.031 C 
ATOM     44  C   UNL     1      -9.961  -1.688   1.710  1.00  0.00     0.029 A 
ATOM     45  C   UNL     1     -10.999  -1.634   2.734  1.00  0.00     0.049 A 
ATOM     46  H   UNL     1     -11.102  -0.349   4.370  1.00  0.00     0.167 HD
ATOM     47  C   UNL     1     -10.976   2.133   7.992  1.00  0.00     0.031 A 
ATOM     48  C   UNL     1     -12.085  -2.427   2.783  1.00  0.00     0.031 A 
ATOM     49  C   UNL     1     -12.212   1.404   8.079  1.00  0.00     0.049 A 
ATOM     50  C   UNL     1     -13.066  -2.253   3.907  1.00  0.00     0.074 A 
ATOM     51  C   UNL     1     -13.208   1.502   9.033  1.00  0.00     0.029 A 
ATOM     52  N   UNL     1     -12.621   0.444   7.166  1.00  0.00    -0.354 N 
ATOM     53  N   UNL     1     -13.005  -1.443   4.937  1.00  0.00    -0.248 NA
ATOM     54  C   UNL     1     -14.272  -3.090   3.867  1.00  0.00     0.031 C 
ATOM     55  C   UNL     1     -14.203   0.569   8.719  1.00  0.00     0.029 A 
ATOM     56  C   UNL     1     -13.850  -0.070   7.541  1.00  0.00     0.049 A 
ATOM     57  H   UNL     1     -12.113   0.169   6.369  1.00  0.00     0.167 HD
ATOM     58  C   UNL     1     -14.173  -1.656   5.657  1.00  0.00     0.074 A 
ATOM     59  C   UNL     1     -14.931  -2.659   4.935  1.00  0.00     0.031 C 
ATOM     60  C   UNL     1     -14.583  -1.073   6.811  1.00  0.00     0.031 A 
BRANCH  47  61
ATOM     61  C   UNL     1     -10.608   3.089   9.095  1.00  0.00    -0.014 A 
ATOM     62  C   UNL     1     -10.536   4.474   8.870  1.00  0.00     0.009 A 
ATOM     63  C   UNL     1     -10.307   2.598  10.375  1.00  0.00     0.009 A 
ATOM     64  C   UNL     1     -10.109   5.338   9.880  1.00  0.00     0.001 A 
ATOM     65  C   UNL     1      -9.916   3.468  11.395  1.00  0.00     0.001 A 
ATOM     66  C   UNL     1      -9.801   4.835  11.142  1.00  0.00     0.000 A 
ENDBRANCH  47  61
BRANCH  48  67
ATOM     67  C   UNL     1     -12.310  -3.433   1.712  1.00  0.00    -0.014 A 
ATOM     68  C   UNL     1     -13.297  -3.223   0.738  1.00  0.00     0.009 A 
ATOM     69  C   UNL     1     -11.514  -4.587   1.633  1.00  0.00     0.009 A 
ATOM     70  C   UNL     1     -13.494  -4.154  -0.285  1.00  0.00     0.001 A 
ATOM     71  C   UNL     1     -11.696  -5.503   0.595  1.00  0.00     0.001 A 
ATOM     72  C   UNL     1     -12.689  -5.289  -0.360  1.00  0.00     0.000 A 
ENDBRANCH  48  67
BRANCH  60  73
ATOM     73  C   UNL     1     -15.923  -1.487   7.347  1.00  0.00    -0.014 A 
ATOM     74  C   UNL     1     -16.115  -2.744   7.939  1.00  0.00     0.009 A 
ATOM     75  C   UNL     1     -16.997  -0.583   7.301  1.00  0.00     0.009 A 
ATOM     76  C   UNL     1     -17.366  -3.101   8.446  1.00  0.00     0.001 A 
ATOM     77  C   UNL     1     -18.238  -0.932   7.833  1.00  0.00     0.001 A 
ATOM     78  C   UNL     1     -18.424  -2.193   8.397  1.00  0.00     0.000 A 
ENDBRANCH  60  73
ENDBRANCH  34  35
ENDBRANCH  26  29
ENDBRANCH  24  25
ENDBRANCH   1  24
TORSDOF 12
