REMARK SMILES CC[C@H](C)[C@@H](NC(=O)[C@@H]1CCCN1C(=O)C1CC1)C(=O)NCCCNC(=O)c1ccc(-c2c3nc(c(-c4ccccc4)c4ccc([nH]4)c(-c4ccccc4)c4nc(c(-c5ccccc5)c5ccc2[nH]5)C=C4)C=C3)cc1
REMARK SMILES IDX 22 1 21 2 19 3 20 4 5 6 3 7 4 8 2 9 1 10 6 11 7 12 8 14 9 15
REMARK SMILES IDX 10 16 13 17 11 18 12 19 14 20 15 21 16 22 17 23 18 24 23 25
REMARK SMILES IDX 24 26 25 27 26 28 27 30 28 31 29 32 75 33 30 34 74 35 31 36
REMARK SMILES IDX 32 37 33 38 68 39 34 40 73 41 67 42 69 43 35 44 72 45 66 46
REMARK SMILES IDX 65 47 36 49 58 50 43 51 57 52 44 53 47 54 56 55 70 56 45 57
REMARK SMILES IDX 46 58 55 60 71 61 48 62 37 63 38 64 42 65 39 66 41 67 40 68
REMARK SMILES IDX 59 69 60 70 64 71 61 72 63 73 62 74 49 75 50 76 54 77 51 78
REMARK SMILES IDX 53 79 52 80
REMARK H PARENT 21 5 6 13 25 29 69 48 47 59
REMARK Flexibility Score: inf
ROOT
ATOM      1  C   UNL     1       4.117  -3.687   0.965  1.00  0.00     0.117 C 
ENDROOT
BRANCH   1   2
ATOM      2  N   UNL     1       3.174  -4.292   1.889  1.00  0.00    -0.354 N 
ATOM      3  C   UNL     1       1.825  -4.143   1.966  1.00  0.00     0.242 C 
ATOM      4  O   UNL     1       1.250  -4.582   2.962  1.00  0.00    -0.273 OA
ATOM      5  H   UNL     1       3.569  -4.898   2.557  1.00  0.00     0.163 HD
BRANCH   3   6
ATOM      6  C   UNL     1       1.079  -3.405   0.843  1.00  0.00     0.174 C 
BRANCH   6   7
ATOM      7  C   UNL     1       1.148  -1.869   1.079  1.00  0.00     0.018 C 
ATOM      8  C   UNL     1       0.424  -1.126  -0.051  1.00  0.00     0.010 C 
BRANCH   7   9
ATOM      9  C   UNL     1       0.580  -1.482   2.466  1.00  0.00     0.002 C 
ATOM     10  C   UNL     1       0.884  -0.044   2.867  1.00  0.00     0.004 C 
ENDBRANCH   7   9
ENDBRANCH   6   7
BRANCH   6  11
ATOM     11  N   UNL     1       1.664  -3.793  -0.462  1.00  0.00    -0.342 N 
ATOM     12  C   UNL     1       1.859  -5.058  -0.968  1.00  0.00     0.243 C 
ATOM     13  H   UNL     1       1.949  -3.050  -1.042  1.00  0.00     0.164 HD
ATOM     14  O   UNL     1       2.601  -5.187  -1.943  1.00  0.00    -0.273 OA
BRANCH  12  15
ATOM     15  C   UNL     1       1.323  -6.248  -0.185  1.00  0.00     0.174 C 
ATOM     16  C   UNL     1       1.622  -7.675  -0.612  1.00  0.00     0.037 C 
ATOM     17  N   UNL     1      -0.071  -6.341   0.224  1.00  0.00    -0.330 N 
ATOM     18  C   UNL     1       0.986  -8.444   0.564  1.00  0.00     0.024 C 
ATOM     19  C   UNL     1      -0.167  -7.542   1.050  1.00  0.00     0.120 C 
BRANCH  17  20
ATOM     20  C   UNL     1      -1.168  -6.027  -0.583  1.00  0.00     0.226 C 
ATOM     21  O   UNL     1      -2.198  -6.694  -0.581  1.00  0.00    -0.275 OA
BRANCH  20  22
ATOM     22  C   UNL     1      -1.202  -4.726  -1.323  1.00  0.00     0.079 C 
ATOM     23  C   UNL     1      -0.438  -4.340  -2.568  1.00  0.00     0.014 C 
ATOM     24  C   UNL     1      -1.869  -4.718  -2.691  1.00  0.00     0.014 C 
ENDBRANCH  20  22
ENDBRANCH  17  20
ENDBRANCH  12  15
ENDBRANCH   6  11
ENDBRANCH   3   6
ENDBRANCH   1   2
BRANCH   1  25
ATOM     25  C   UNL     1       5.147  -2.897   1.726  1.00  0.00     0.042 C 
BRANCH  25  26
ATOM     26  C   UNL     1       5.838  -3.753   2.757  1.00  0.00     0.118 C 
BRANCH  26  27
ATOM     27  N   UNL     1       6.421  -4.965   2.180  1.00  0.00    -0.352 N 
ATOM     28  C   UNL     1       7.705  -5.416   2.348  1.00  0.00     0.251 C 
ATOM     29  H   UNL     1       5.832  -5.512   1.613  1.00  0.00     0.163 HD
ATOM     30  O   UNL     1       8.174  -6.326   1.680  1.00  0.00    -0.269 OA
BRANCH  28  31
ATOM     31  C   UNL     1       8.489  -4.726   3.377  1.00  0.00     0.039 A 
ATOM     32  C   UNL     1       9.670  -4.079   3.025  1.00  0.00     0.014 A 
ATOM     33  C   UNL     1       7.891  -4.549   4.629  1.00  0.00     0.014 A 
ATOM     34  C   UNL     1      10.252  -3.221   3.951  1.00  0.00     0.010 A 
ATOM     35  C   UNL     1       8.377  -3.568   5.465  1.00  0.00     0.010 A 
ATOM     36  C   UNL     1       9.599  -2.950   5.166  1.00  0.00    -0.014 A 
BRANCH  36  37
ATOM     37  C   UNL     1      10.234  -2.127   6.214  1.00  0.00     0.031 A 
ATOM     38  C   UNL     1      10.532  -2.770   7.543  1.00  0.00     0.074 A 
ATOM     39  C   UNL     1      10.502  -0.830   5.988  1.00  0.00     0.049 A 
ATOM     40  N   UNL     1      11.056  -2.241   8.616  1.00  0.00    -0.248 NA
ATOM     41  C   UNL     1      10.137  -4.183   7.708  1.00  0.00     0.031 C 
ATOM     42  C   UNL     1      10.188  -0.091   4.762  1.00  0.00     0.029 A 
ATOM     43  N   UNL     1      11.115   0.097   6.788  1.00  0.00    -0.354 N 
ATOM     44  C   UNL     1      11.024  -3.246   9.575  1.00  0.00     0.074 A 
ATOM     45  C   UNL     1      10.334  -4.373   9.000  1.00  0.00     0.031 C 
ATOM     46  C   UNL     1      10.660   1.162   4.873  1.00  0.00     0.029 A 
ATOM     47  C   UNL     1      11.280   1.319   6.185  1.00  0.00     0.049 A 
ATOM     48  H   UNL     1      11.409  -0.095   7.708  1.00  0.00     0.167 HD
ATOM     49  C   UNL     1      11.573  -3.257  10.809  1.00  0.00     0.031 A 
ATOM     50  C   UNL     1      11.885   2.430   6.642  1.00  0.00     0.031 A 
ATOM     51  C   UNL     1      12.297  -2.147  11.354  1.00  0.00     0.049 A 
ATOM     52  C   UNL     1      12.525   2.388   8.003  1.00  0.00     0.074 A 
ATOM     53  C   UNL     1      12.945  -2.048  12.570  1.00  0.00     0.029 A 
ATOM     54  N   UNL     1      12.477  -0.938  10.696  1.00  0.00    -0.354 N 
ATOM     55  N   UNL     1      12.552   1.408   8.875  1.00  0.00    -0.248 NA
ATOM     56  C   UNL     1      13.242   3.596   8.429  1.00  0.00     0.031 C 
ATOM     57  C   UNL     1      13.485  -0.761  12.665  1.00  0.00     0.029 A 
ATOM     58  C   UNL     1      13.222  -0.082  11.484  1.00  0.00     0.049 A 
ATOM     59  H   UNL     1      12.127  -0.724   9.802  1.00  0.00     0.167 HD
ATOM     60  C   UNL     1      13.312   1.869   9.941  1.00  0.00     0.074 A 
ATOM     61  C   UNL     1      13.743   3.209   9.594  1.00  0.00     0.031 C 
ATOM     62  C   UNL     1      13.630   1.245  11.103  1.00  0.00     0.031 A 
BRANCH  49  63
ATOM     63  C   UNL     1      11.413  -4.514  11.618  1.00  0.00    -0.014 A 
ATOM     64  C   UNL     1      12.028  -5.717  11.225  1.00  0.00     0.009 A 
ATOM     65  C   UNL     1      10.613  -4.509  12.769  1.00  0.00     0.009 A 
ATOM     66  C   UNL     1      11.800  -6.897  11.936  1.00  0.00     0.001 A 
ATOM     67  C   UNL     1      10.417  -5.682  13.500  1.00  0.00     0.001 A 
ATOM     68  C   UNL     1      10.998  -6.877  13.076  1.00  0.00     0.000 A 
ENDBRANCH  49  63
BRANCH  50  69
ATOM     69  C   UNL     1      11.959   3.643   5.787  1.00  0.00    -0.014 A 
ATOM     70  C   UNL     1      13.179   4.047   5.222  1.00  0.00     0.009 A 
ATOM     71  C   UNL     1      10.807   4.397   5.519  1.00  0.00     0.009 A 
ATOM     72  C   UNL     1      13.248   5.197   4.432  1.00  0.00     0.001 A 
ATOM     73  C   UNL     1      10.873   5.530   4.705  1.00  0.00     0.001 A 
ATOM     74  C   UNL     1      12.095   5.935   4.170  1.00  0.00     0.000 A 
ENDBRANCH  50  69
BRANCH  62  75
ATOM     75  C   UNL     1      14.515   1.994  12.057  1.00  0.00    -0.014 A 
ATOM     76  C   UNL     1      14.042   3.102  12.776  1.00  0.00     0.009 A 
ATOM     77  C   UNL     1      15.831   1.553  12.267  1.00  0.00     0.009 A 
ATOM     78  C   UNL     1      14.886   3.779  13.657  1.00  0.00     0.001 A 
ATOM     79  C   UNL     1      16.661   2.212  13.173  1.00  0.00     0.001 A 
ATOM     80  C   UNL     1      16.191   3.331  13.857  1.00  0.00     0.000 A 
ENDBRANCH  62  75
ENDBRANCH  36  37
ENDBRANCH  28  31
ENDBRANCH  26  27
ENDBRANCH  25  26
ENDBRANCH   1  25
TORSDOF 16
