REMARK SMILES CCOc1c(F)cccc1C(=O)NCCCNC(=O)c1ccc(-c2c3nc(c(-c4ccccc4)c4ccc([nH]4)c(-c4ccccc4)c4nc(c(-c5ccccc5)c5ccc2[nH]5)C=C4)C=C3)cc1
REMARK SMILES IDX 15 1 14 2 13 3 11 4 12 5 10 7 4 8 5 9 6 10 7 11 9 12 8 13
REMARK SMILES IDX 3 14 2 15 1 16 16 17 17 18 18 19 19 21 20 22 21 23 67 24
REMARK SMILES IDX 22 25 66 26 23 27 24 28 25 29 60 30 26 31 65 32 59 33 61 34
REMARK SMILES IDX 27 35 64 36 58 37 57 38 28 40 50 41 35 42 49 43 36 44 39 45
REMARK SMILES IDX 48 46 62 47 37 48 38 49 47 51 63 52 40 53 29 54 30 55 34 56
REMARK SMILES IDX 31 57 33 58 32 59 51 60 52 61 56 62 53 63 55 64 54 65 41 66
REMARK SMILES IDX 42 67 46 68 43 69 45 70 44 71
REMARK H PARENT 13 6 17 20 61 39 39 50
REMARK Flexibility Score: inf
ROOT
ATOM      1  C   UNL     1      -1.011   3.093  -1.602  1.00  0.00     0.042 C 
ENDROOT
BRANCH   1   2
ATOM      2  C   UNL     1      -0.302   2.778  -2.921  1.00  0.00     0.118 C 
BRANCH   2   3
ATOM      3  N   UNL     1       0.796   3.696  -3.131  1.00  0.00    -0.352 N 
ATOM      4  C   UNL     1       2.141   3.700  -2.900  1.00  0.00     0.255 C 
ATOM      5  O   UNL     1       2.673   4.789  -3.157  1.00  0.00    -0.269 OA
ATOM      6  H   UNL     1       0.496   4.535  -3.550  1.00  0.00     0.163 HD
BRANCH   4   7
ATOM      7  C   UNL     1       3.031   2.581  -2.437  1.00  0.00     0.084 A 
ATOM      8  C   UNL     1       2.724   1.353  -1.833  1.00  0.00     0.167 A 
ATOM      9  C   UNL     1       3.762   0.430  -1.585  1.00  0.00     0.165 A 
ATOM     10  F   UNL     1       3.479  -0.803  -1.142  1.00  0.00    -0.203 F 
ATOM     11  C   UNL     1       5.100   0.729  -1.808  1.00  0.00     0.043 A 
ATOM     12  C   UNL     1       4.411   2.859  -2.654  1.00  0.00     0.018 A 
ATOM     13  C   UNL     1       5.432   1.962  -2.331  1.00  0.00     0.004 A 
BRANCH   8  14
ATOM     14  O   UNL     1       1.451   0.957  -1.534  1.00  0.00    -0.490 OA
BRANCH  14  15
ATOM     15  C   UNL     1       1.169   0.916  -0.127  1.00  0.00     0.226 C 
ATOM     16  C   UNL     1       1.236  -0.487   0.451  1.00  0.00     0.049 C 
ENDBRANCH  14  15
ENDBRANCH   8  14
ENDBRANCH   4   7
ENDBRANCH   2   3
ENDBRANCH   1   2
BRANCH   1  17
ATOM     17  C   UNL     1      -1.966   4.283  -1.689  1.00  0.00     0.118 C 
BRANCH  17  18
ATOM     18  N   UNL     1      -3.163   3.950  -2.446  1.00  0.00    -0.352 N 
ATOM     19  C   UNL     1      -4.463   3.778  -2.043  1.00  0.00     0.251 C 
ATOM     20  H   UNL     1      -3.015   3.827  -3.412  1.00  0.00     0.163 HD
ATOM     21  O   UNL     1      -5.243   3.202  -2.796  1.00  0.00    -0.269 OA
BRANCH  19  22
ATOM     22  C   UNL     1      -4.953   4.280  -0.736  1.00  0.00     0.039 A 
ATOM     23  C   UNL     1      -5.975   3.571  -0.095  1.00  0.00     0.014 A 
ATOM     24  C   UNL     1      -4.511   5.489  -0.192  1.00  0.00     0.014 A 
ATOM     25  C   UNL     1      -6.535   4.058   1.089  1.00  0.00     0.010 A 
ATOM     26  C   UNL     1      -5.019   5.939   1.029  1.00  0.00     0.010 A 
ATOM     27  C   UNL     1      -6.053   5.241   1.670  1.00  0.00    -0.014 A 
BRANCH  27  28
ATOM     28  C   UNL     1      -6.654   5.774   2.921  1.00  0.00     0.031 A 
ATOM     29  C   UNL     1      -7.395   7.087   2.911  1.00  0.00     0.074 A 
ATOM     30  C   UNL     1      -6.524   5.085   4.071  1.00  0.00     0.049 A 
ATOM     31  N   UNL     1      -7.974   7.716   3.904  1.00  0.00    -0.248 NA
ATOM     32  C   UNL     1      -7.479   7.796   1.624  1.00  0.00     0.031 C 
ATOM     33  C   UNL     1      -5.805   3.819   4.225  1.00  0.00     0.029 A 
ATOM     34  N   UNL     1      -6.999   5.352   5.331  1.00  0.00    -0.354 N 
ATOM     35  C   UNL     1      -8.478   8.894   3.364  1.00  0.00     0.074 A 
ATOM     36  C   UNL     1      -8.092   8.918   1.970  1.00  0.00     0.031 C 
ATOM     37  C   UNL     1      -5.918   3.401   5.496  1.00  0.00     0.029 A 
ATOM     38  C   UNL     1      -6.688   4.383   6.253  1.00  0.00     0.049 A 
ATOM     39  H   UNL     1      -7.515   6.161   5.552  1.00  0.00     0.167 HD
ATOM     40  C   UNL     1      -9.216   9.858   3.964  1.00  0.00     0.031 A 
ATOM     41  C   UNL     1      -6.993   4.291   7.561  1.00  0.00     0.031 A 
ATOM     42  C   UNL     1      -9.617   9.833   5.345  1.00  0.00     0.049 A 
ATOM     43  C   UNL     1      -7.820   5.372   8.200  1.00  0.00     0.074 A 
ATOM     44  C   UNL     1     -10.384  10.752   6.041  1.00  0.00     0.029 A 
ATOM     45  N   UNL     1      -9.291   8.826   6.239  1.00  0.00    -0.354 N 
ATOM     46  N   UNL     1      -8.319   6.458   7.662  1.00  0.00    -0.248 NA
ATOM     47  C   UNL     1      -8.140   5.201   9.624  1.00  0.00     0.031 C 
ATOM     48  C   UNL     1     -10.499  10.313   7.364  1.00  0.00     0.029 A 
ATOM     49  C   UNL     1      -9.839   9.101   7.480  1.00  0.00     0.049 A 
ATOM     50  H   UNL     1      -8.750   8.032   6.023  1.00  0.00     0.167 HD
ATOM     51  C   UNL     1      -9.033   7.086   8.674  1.00  0.00     0.074 A 
ATOM     52  C   UNL     1      -8.919   6.248   9.851  1.00  0.00     0.031 C 
ATOM     53  C   UNL     1      -9.719   8.253   8.636  1.00  0.00     0.031 A 
BRANCH  40  54
ATOM     54  C   UNL     1      -9.651  11.023   3.117  1.00  0.00    -0.014 A 
ATOM     55  C   UNL     1     -10.645  10.869   2.136  1.00  0.00     0.009 A 
ATOM     56  C   UNL     1      -9.091  12.293   3.322  1.00  0.00     0.009 A 
ATOM     57  C   UNL     1     -11.044  11.956   1.357  1.00  0.00     0.001 A 
ATOM     58  C   UNL     1      -9.511  13.384   2.559  1.00  0.00     0.001 A 
ATOM     59  C   UNL     1     -10.481  13.213   1.571  1.00  0.00     0.000 A 
ENDBRANCH  40  54
BRANCH  41  60
ATOM     60  C   UNL     1      -6.542   3.120   8.356  1.00  0.00    -0.014 A 
ATOM     61  C   UNL     1      -7.467   2.159   8.793  1.00  0.00     0.009 A 
ATOM     62  C   UNL     1      -5.191   2.969   8.703  1.00  0.00     0.009 A 
ATOM     63  C   UNL     1      -7.054   1.090   9.590  1.00  0.00     0.001 A 
ATOM     64  C   UNL     1      -4.776   1.883   9.477  1.00  0.00     0.001 A 
ATOM     65  C   UNL     1      -5.709   0.951   9.930  1.00  0.00     0.000 A 
ENDBRANCH  41  60
BRANCH  53  66
ATOM     66  C   UNL     1     -10.428   8.666   9.893  1.00  0.00    -0.014 A 
ATOM     67  C   UNL     1      -9.717   9.149  11.003  1.00  0.00     0.009 A 
ATOM     68  C   UNL     1     -11.827   8.585   9.961  1.00  0.00     0.009 A 
ATOM     69  C   UNL     1     -10.393   9.504  12.171  1.00  0.00     0.001 A 
ATOM     70  C   UNL     1     -12.501   8.966  11.121  1.00  0.00     0.001 A 
ATOM     71  C   UNL     1     -11.783   9.415  12.229  1.00  0.00     0.000 A 
ENDBRANCH  53  66
ENDBRANCH  27  28
ENDBRANCH  19  22
ENDBRANCH  17  18
ENDBRANCH   1  17
TORSDOF 12
