REMARK SMILES O=C(NCCCNC(=O)c1cc(F)c(OCc2ccc(Br)cc2)c(F)c1)c1ccc(-c2c3nc(c(-c4ccccc4)c4ccc([nH]4)c(-c4ccccc4)c4nc(c(-c5ccccc5)c5ccc2[nH]5)C=C4)C=C3)cc1
REMARK SMILES IDX 5 1 4 2 3 3 1 4 2 5 27 7 28 8 74 9 29 10 73 11 30 12 31 13
REMARK SMILES IDX 32 14 67 15 33 16 72 17 66 18 68 19 34 20 71 21 65 22 64 23
REMARK SMILES IDX 35 25 57 26 42 27 56 28 43 29 46 30 55 31 69 32 44 33 45 34
REMARK SMILES IDX 54 36 70 37 47 38 36 39 37 40 41 41 38 42 40 43 39 44 58 45
REMARK SMILES IDX 59 46 63 47 60 48 62 49 61 50 48 51 49 52 53 53 50 54 52 55
REMARK SMILES IDX 51 56 6 57 7 58 8 59 9 61 10 62 11 63 26 64 12 65 24 66
REMARK SMILES IDX 13 67 14 68 25 69 15 70 16 71 17 72 18 73 23 74 19 75 22 76
REMARK SMILES IDX 20 77 21 78
REMARK H PARENT 3 6 68 24 46 35 7 60
REMARK Flexibility Score: inf
ROOT
ATOM      1  C   UNL     1       4.950  -2.116  -1.552  1.00  0.00     0.042 C 
ENDROOT
BRANCH   1   2
ATOM      2  C   UNL     1       4.591  -0.652  -1.340  1.00  0.00     0.118 C 
BRANCH   2   3
ATOM      3  N   UNL     1       3.160  -0.425  -1.187  1.00  0.00    -0.352 N 
ATOM      4  O   UNL     1       1.216   0.039  -0.148  1.00  0.00    -0.269 OA
ATOM      5  C   UNL     1       2.442   0.058  -0.117  1.00  0.00     0.251 C 
ATOM      6  H   UNL     1       2.619  -0.656  -1.976  1.00  0.00     0.163 HD
BRANCH   5   7
ATOM      7  C   UNL     1       3.140   0.569   1.084  1.00  0.00     0.039 A 
ATOM      8  C   UNL     1       4.283   1.358   0.966  1.00  0.00     0.014 A 
ATOM      9  C   UNL     1       2.639   0.255   2.351  1.00  0.00     0.014 A 
ATOM     10  C   UNL     1       5.032   1.661   2.096  1.00  0.00     0.010 A 
ATOM     11  C   UNL     1       3.332   0.664   3.495  1.00  0.00     0.010 A 
ATOM     12  C   UNL     1       4.561   1.331   3.377  1.00  0.00    -0.014 A 
BRANCH  12  13
ATOM     13  C   UNL     1       5.354   1.741   4.565  1.00  0.00     0.031 A 
ATOM     14  C   UNL     1       5.932   0.724   5.512  1.00  0.00     0.074 A 
ATOM     15  C   UNL     1       5.593   3.053   4.760  1.00  0.00     0.049 A 
ATOM     16  N   UNL     1       6.702   0.917   6.555  1.00  0.00    -0.248 NA
ATOM     17  C   UNL     1       5.602  -0.688   5.266  1.00  0.00     0.031 C 
ATOM     18  C   UNL     1       5.088   4.138   3.913  1.00  0.00     0.029 A 
ATOM     19  N   UNL     1       6.348   3.697   5.707  1.00  0.00    -0.354 N 
ATOM     20  C   UNL     1       6.927  -0.341   7.102  1.00  0.00     0.074 A 
ATOM     21  C   UNL     1       6.190  -1.287   6.292  1.00  0.00     0.031 C 
ATOM     22  C   UNL     1       5.603   5.301   4.334  1.00  0.00     0.029 A 
ATOM     23  C   UNL     1       6.410   5.057   5.523  1.00  0.00     0.049 A 
ATOM     24  H   UNL     1       6.800   3.231   6.446  1.00  0.00     0.167 HD
ATOM     25  C   UNL     1       7.680  -0.677   8.178  1.00  0.00     0.031 A 
ATOM     26  C   UNL     1       7.038   6.010   6.235  1.00  0.00     0.031 A 
ATOM     27  C   UNL     1       8.411   0.267   8.985  1.00  0.00     0.049 A 
ATOM     28  C   UNL     1       7.827   5.612   7.447  1.00  0.00     0.074 A 
ATOM     29  C   UNL     1       9.233   0.019  10.071  1.00  0.00     0.029 A 
ATOM     30  N   UNL     1       8.398   1.642   8.801  1.00  0.00    -0.354 N 
ATOM     31  N   UNL     1       8.065   4.414   7.922  1.00  0.00    -0.248 NA
ATOM     32  C   UNL     1       8.435   6.702   8.220  1.00  0.00     0.031 C 
ATOM     33  C   UNL     1       9.664   1.247  10.584  1.00  0.00     0.029 A 
ATOM     34  C   UNL     1       9.169   2.257   9.775  1.00  0.00     0.049 A 
ATOM     35  H   UNL     1       7.912   2.111   8.085  1.00  0.00     0.167 HD
ATOM     36  C   UNL     1       8.873   4.603   9.034  1.00  0.00     0.074 A 
ATOM     37  C   UNL     1       9.100   6.030   9.149  1.00  0.00     0.031 C 
ATOM     38  C   UNL     1       9.382   3.678   9.883  1.00  0.00     0.031 A 
BRANCH  25  39
ATOM     39  C   UNL     1       7.720  -2.130   8.574  1.00  0.00    -0.014 A 
ATOM     40  C   UNL     1       8.375  -3.092   7.788  1.00  0.00     0.009 A 
ATOM     41  C   UNL     1       7.120  -2.537   9.777  1.00  0.00     0.009 A 
ATOM     42  C   UNL     1       8.392  -4.434   8.177  1.00  0.00     0.001 A 
ATOM     43  C   UNL     1       7.165  -3.873  10.180  1.00  0.00     0.001 A 
ATOM     44  C   UNL     1       7.791  -4.823   9.374  1.00  0.00     0.000 A 
ENDBRANCH  25  39
BRANCH  26  45
ATOM     45  C   UNL     1       6.938   7.434   5.821  1.00  0.00    -0.014 A 
ATOM     46  C   UNL     1       8.065   8.117   5.340  1.00  0.00     0.009 A 
ATOM     47  C   UNL     1       5.714   8.116   5.900  1.00  0.00     0.009 A 
ATOM     48  C   UNL     1       7.973   9.461   4.972  1.00  0.00     0.001 A 
ATOM     49  C   UNL     1       5.617   9.449   5.499  1.00  0.00     0.001 A 
ATOM     50  C   UNL     1       6.749  10.124   5.046  1.00  0.00     0.000 A 
ENDBRANCH  26  45
BRANCH  38  51
ATOM     51  C   UNL     1      10.271   4.182  10.987  1.00  0.00    -0.014 A 
ATOM     52  C   UNL     1       9.758   4.925  12.062  1.00  0.00     0.009 A 
ATOM     53  C   UNL     1      11.645   3.896  10.953  1.00  0.00     0.009 A 
ATOM     54  C   UNL     1      10.610   5.408  13.057  1.00  0.00     0.001 A 
ATOM     55  C   UNL     1      12.489   4.351  11.967  1.00  0.00     0.001 A 
ATOM     56  C   UNL     1      11.973   5.117  13.011  1.00  0.00     0.000 A 
ENDBRANCH  38  51
ENDBRANCH  12  13
ENDBRANCH   5   7
ENDBRANCH   2   3
ENDBRANCH   1   2
BRANCH   1  57
ATOM     57  C   UNL     1       4.431  -2.701  -2.858  1.00  0.00     0.118 C 
BRANCH  57  58
ATOM     58  N   UNL     1       4.984  -2.028  -4.028  1.00  0.00    -0.352 N 
ATOM     59  C   UNL     1       5.837  -2.498  -4.993  1.00  0.00     0.251 C 
ATOM     60  H   UNL     1       4.701  -1.092  -4.142  1.00  0.00     0.163 HD
ATOM     61  O   UNL     1       6.351  -1.734  -5.803  1.00  0.00    -0.269 OA
BRANCH  59  62
ATOM     62  C   UNL     1       6.164  -3.932  -5.036  1.00  0.00     0.045 A 
ATOM     63  C   UNL     1       5.149  -4.890  -5.070  1.00  0.00     0.057 A 
ATOM     64  C   UNL     1       7.501  -4.319  -5.009  1.00  0.00     0.057 A 
ATOM     65  C   UNL     1       5.473  -6.234  -4.924  1.00  0.00     0.168 A 
ATOM     66  C   UNL     1       7.803  -5.669  -4.873  1.00  0.00     0.168 A 
ATOM     67  F   UNL     1       4.459  -7.108  -4.880  1.00  0.00    -0.203 F 
ATOM     68  C   UNL     1       6.798  -6.637  -4.755  1.00  0.00     0.191 A 
ATOM     69  F   UNL     1       9.092  -6.025  -4.764  1.00  0.00    -0.203 F 
BRANCH  68  70
ATOM     70  O   UNL     1       7.234  -7.877  -4.378  1.00  0.00    -0.483 OA
BRANCH  70  71
ATOM     71  C   UNL     1       6.311  -8.800  -3.794  1.00  0.00     0.265 C 
BRANCH  71  72
ATOM     72  C   UNL     1       5.816  -8.507  -2.382  1.00  0.00    -0.011 A 
ATOM     73  C   UNL     1       5.124  -9.526  -1.703  1.00  0.00     0.008 A 
ATOM     74  C   UNL     1       5.967  -7.272  -1.734  1.00  0.00     0.008 A 
ATOM     75  C   UNL     1       4.579  -9.309  -0.434  1.00  0.00     0.016 A 
ATOM     76  C   UNL     1       5.400  -7.042  -0.476  1.00  0.00     0.016 A 
ATOM     77  C   UNL     1       4.706  -8.060   0.167  1.00  0.00     0.017 A 
ATOM     78  Br  UNL     1       3.932  -7.744   1.861  1.00  0.00    -0.051 Br
ENDBRANCH  71  72
ENDBRANCH  70  71
ENDBRANCH  68  70
ENDBRANCH  59  62
ENDBRANCH  57  58
ENDBRANCH   1  57
TORSDOF 13
