REMARK SMILES CCCCc1cc(S(F)(F)(F)(F)F)cc2c1O[C@@H](C(F)(F)F)C(C(=O)NCCCNC(=O)c1ccc(-c3c4nc(c(-c5ccccc5)c5ccc([nH]5)c(-c5ccccc5)c5nc(c(-c6ccccc6)c6ccc3[nH]6)C=C5)C=C4)cc1)=C2
REMARK SMILES IDX 27 1 26 2 24 3 25 4 23 6 5 7 6 8 16 9 7 10 15 11 17 12 14 13
REMARK SMILES IDX 81 14 18 15 4 16 3 17 2 18 1 19 8 20 9 21 10 22 11 23 12 24
REMARK SMILES IDX 13 25 19 26 20 27 21 28 22 29 28 30 29 31 30 32 31 33 32 35
REMARK SMILES IDX 33 36 34 37 80 38 35 39 79 40 36 41 37 42 38 43 73 44 39 45
REMARK SMILES IDX 78 46 72 47 74 48 40 49 77 50 71 51 70 52 41 54 63 55 48 56
REMARK SMILES IDX 62 57 49 58 52 59 61 60 75 61 50 62 51 63 60 65 76 66 53 67
REMARK SMILES IDX 42 68 43 69 47 70 44 71 46 72 45 73 64 74 65 75 69 76 66 77
REMARK SMILES IDX 68 78 67 79 54 80 55 81 59 82 56 83 58 84 57 85
REMARK H PARENT 26 5 30 34 74 53 52 64
REMARK Flexibility Score: inf
ROOT
ATOM      1  C   UNL     1      -6.023  -2.015  -1.311  1.00  0.00     0.118 C 
ENDROOT
BRANCH   1   2
ATOM      2  N   UNL     1      -5.253  -3.266  -1.367  1.00  0.00    -0.352 N 
ATOM      3  C   UNL     1      -3.821  -3.232  -1.697  1.00  0.00     0.251 C 
ATOM      4  O   UNL     1      -3.155  -4.314  -1.746  1.00  0.00    -0.270 OA
ATOM      5  H   UNL     1      -5.696  -4.126  -1.185  1.00  0.00     0.163 HD
BRANCH   3   6
ATOM      6  C   UNL     1      -3.137  -1.905  -1.980  1.00  0.00     0.067 C 
ATOM      7  C   UNL     1      -1.088   1.724  -2.274  1.00  0.00    -0.004 A 
ATOM      8  C   UNL     1      -1.793   2.904  -2.423  1.00  0.00     0.032 A 
ATOM      9  C   UNL     1      -1.788   0.551  -2.126  1.00  0.00     0.131 A 
ATOM     10  C   UNL     1      -3.163   2.912  -2.419  1.00  0.00     0.108 A 
ATOM     11  C   UNL     1      -3.171   0.518  -2.136  1.00  0.00     0.019 A 
ATOM     12  O   UNL     1      -1.078  -0.596  -1.867  1.00  0.00    -0.475 OA
ATOM     13  C   UNL     1      -3.849   1.722  -2.283  1.00  0.00     0.036 A 
ATOM     14  C   UNL     1      -3.819  -0.767  -1.933  1.00  0.00     0.025 C 
ATOM     15  C   UNL     1      -1.654  -1.851  -2.323  1.00  0.00     0.314 C 
BRANCH   7  16
ATOM     16  C   UNL     1       0.432   1.724  -2.274  1.00  0.00     0.039 C 
BRANCH  16  17
ATOM     17  C   UNL     1       0.939   2.316  -0.969  1.00  0.00     0.005 C 
BRANCH  17  18
ATOM     18  C   UNL     1       0.432   1.481   0.196  1.00  0.00    -0.003 C 
ATOM     19  C   UNL     1       0.939   0.055   0.057  1.00  0.00     0.004 C 
ENDBRANCH  17  18
ENDBRANCH  16  17
ENDBRANCH   7  16
BRANCH  10  20
ATOM     20  S   UNL     1      -4.066   4.471  -2.591  1.00  0.00     0.310 S 
ATOM     21  F   UNL     1      -4.463   4.486  -1.056  1.00  0.00    -0.094 F 
ATOM     22  F   UNL     1      -5.388   3.655  -2.854  1.00  0.00    -0.094 F 
ATOM     23  F   UNL     1      -4.833   5.815  -2.740  1.00  0.00    -0.094 F 
ATOM     24  F   UNL     1      -2.764   5.268  -2.188  1.00  0.00    -0.094 F 
ATOM     25  F   UNL     1      -3.300   3.113  -2.326  1.00  0.00    -0.094 F 
ENDBRANCH  10  20
BRANCH  15  26
ATOM     26  C   UNL     1      -0.943  -3.004  -1.633  1.00  0.00     0.429 C 
ATOM     27  F   UNL     1      -1.461  -4.156  -2.048  1.00  0.00    -0.167 F 
ATOM     28  F   UNL     1       0.353  -2.967  -1.931  1.00  0.00    -0.167 F 
ATOM     29  F   UNL     1      -1.099  -2.896  -0.317  1.00  0.00    -0.167 F 
ENDBRANCH  15  26
ENDBRANCH   3   6
ENDBRANCH   1   2
BRANCH   1  30
ATOM     30  C   UNL     1      -7.153  -2.070  -2.327  1.00  0.00     0.042 C 
BRANCH  30  31
ATOM     31  C   UNL     1      -8.066  -3.243  -2.006  1.00  0.00     0.118 C 
BRANCH  31  32
ATOM     32  N   UNL     1      -8.627  -3.073  -0.658  1.00  0.00    -0.352 N 
ATOM     33  C   UNL     1     -10.082  -2.985  -0.474  1.00  0.00     0.251 C 
ATOM     34  H   UNL     1      -8.027  -3.018   0.121  1.00  0.00     0.163 HD
ATOM     35  O   UNL     1     -10.567  -2.838   0.692  1.00  0.00    -0.269 OA
BRANCH  33  36
ATOM     36  C   UNL     1     -11.008  -3.069  -1.677  1.00  0.00     0.039 A 
ATOM     37  C   UNL     1     -12.056  -2.171  -1.792  1.00  0.00     0.014 A 
ATOM     38  C   UNL     1     -10.794  -4.001  -2.599  1.00  0.00     0.014 A 
ATOM     39  C   UNL     1     -13.006  -2.522  -2.780  1.00  0.00     0.010 A 
ATOM     40  C   UNL     1     -11.698  -4.199  -3.615  1.00  0.00     0.010 A 
ATOM     41  C   UNL     1     -12.788  -3.386  -3.755  1.00  0.00    -0.014 A 
BRANCH  41  42
ATOM     42  C   UNL     1     -13.700  -3.472  -4.967  1.00  0.00     0.031 A 
ATOM     43  C   UNL     1     -14.348  -4.684  -5.215  1.00  0.00     0.074 A 
ATOM     44  C   UNL     1     -13.837  -2.345  -5.760  1.00  0.00     0.049 A 
ATOM     45  N   UNL     1     -15.207  -4.961  -6.198  1.00  0.00    -0.248 NA
ATOM     46  C   UNL     1     -14.178  -5.892  -4.395  1.00  0.00     0.031 C 
ATOM     47  C   UNL     1     -13.194  -1.117  -5.511  1.00  0.00     0.029 A 
ATOM     48  N   UNL     1     -14.594  -2.201  -6.901  1.00  0.00    -0.354 N 
ATOM     49  C   UNL     1     -15.631  -6.223  -6.097  1.00  0.00     0.074 A 
ATOM     50  C   UNL     1     -14.971  -6.841  -4.939  1.00  0.00     0.031 C 
ATOM     51  C   UNL     1     -13.549  -0.249  -6.495  1.00  0.00     0.029 A 
ATOM     52  C   UNL     1     -14.420  -0.919  -7.374  1.00  0.00     0.049 A 
ATOM     53  H   UNL     1     -15.161  -2.895  -7.309  1.00  0.00     0.167 HD
ATOM     54  C   UNL     1     -16.544  -6.880  -6.923  1.00  0.00     0.031 A 
ATOM     55  C   UNL     1     -14.978  -0.350  -8.507  1.00  0.00     0.031 A 
ATOM     56  C   UNL     1     -17.137  -6.296  -8.031  1.00  0.00     0.049 A 
ATOM     57  C   UNL     1     -15.847  -1.026  -9.367  1.00  0.00     0.074 A 
ATOM     58  C   UNL     1     -18.065  -6.942  -8.870  1.00  0.00     0.029 A 
ATOM     59  N   UNL     1     -16.944  -5.022  -8.518  1.00  0.00    -0.354 N 
ATOM     60  N   UNL     1     -16.301  -2.274  -9.243  1.00  0.00    -0.248 NA
ATOM     61  C   UNL     1     -16.419  -0.443 -10.588  1.00  0.00     0.031 C 
ATOM     62  C   UNL     1     -18.420  -6.074  -9.854  1.00  0.00     0.029 A 
ATOM     63  C   UNL     1     -17.718  -4.871  -9.647  1.00  0.00     0.049 A 
ATOM     64  H   UNL     1     -16.354  -4.338  -8.126  1.00  0.00     0.167 HD
ATOM     65  C   UNL     1     -17.128  -2.564 -10.250  1.00  0.00     0.074 A 
ATOM     66  C   UNL     1     -17.211  -1.392 -11.133  1.00  0.00     0.031 C 
ATOM     67  C   UNL     1     -17.821  -3.756 -10.465  1.00  0.00     0.031 A 
BRANCH  54  68
ATOM     68  C   UNL     1     -16.909  -8.317  -6.588  1.00  0.00    -0.014 A 
ATOM     69  C   UNL     1     -17.440  -8.635  -5.349  1.00  0.00     0.009 A 
ATOM     70  C   UNL     1     -16.657  -9.257  -7.491  1.00  0.00     0.009 A 
ATOM     71  C   UNL     1     -17.402 -10.016  -5.046  1.00  0.00     0.001 A 
ATOM     72  C   UNL     1     -16.772 -10.587  -7.166  1.00  0.00     0.001 A 
ATOM     73  C   UNL     1     -17.234 -10.975  -5.939  1.00  0.00     0.000 A 
ENDBRANCH  54  68
BRANCH  55  74
ATOM     74  C   UNL     1     -14.626   1.093  -8.832  1.00  0.00    -0.014 A 
ATOM     75  C   UNL     1     -15.595   2.081  -8.893  1.00  0.00     0.009 A 
ATOM     76  C   UNL     1     -13.344   1.372  -9.036  1.00  0.00     0.009 A 
ATOM     77  C   UNL     1     -15.143   3.293  -9.466  1.00  0.00     0.001 A 
ATOM     78  C   UNL     1     -12.960   2.619  -9.466  1.00  0.00     0.001 A 
ATOM     79  C   UNL     1     -13.873   3.627  -9.605  1.00  0.00     0.000 A 
ENDBRANCH  55  74
BRANCH  67  80
ATOM     80  C   UNL     1     -18.744  -3.839 -11.670  1.00  0.00    -0.014 A 
ATOM     81  C   UNL     1     -18.220  -3.666 -12.940  1.00  0.00     0.009 A 
ATOM     82  C   UNL     1     -20.037  -4.077 -11.484  1.00  0.00     0.009 A 
ATOM     83  C   UNL     1     -19.200  -3.475 -13.943  1.00  0.00     0.001 A 
ATOM     84  C   UNL     1     -20.919  -4.006 -12.536  1.00  0.00     0.001 A 
ATOM     85  C   UNL     1     -20.478  -3.780 -13.810  1.00  0.00     0.000 A 
ENDBRANCH  67  80
ENDBRANCH  41  42
ENDBRANCH  33  36
ENDBRANCH  31  32
ENDBRANCH  30  31
ENDBRANCH   1  30
TORSDOF 15
