REMARK SMILES COc1cccc(-c2nn(-c3cc4c(cc3C(N)=O)OCO4)cc2C(=O)NCCCNC(=O)c2ccc(-c3c4nc(c(-c5ccccc5)c5ccc([nH]5)c(-c5ccccc5)c5nc(c(-c6ccccc6)c6ccc3[nH]6)C=C5)C=C4)cc2)c1
REMARK SMILES IDX 29 1 28 2 27 3 25 4 26 5 24 7 8 8 9 9 10 10 23 11 7 12 3 13
REMARK SMILES IDX 4 14 82 15 5 16 6 17 2 18 1 19 11 20 12 21 16 22 13 23 15 24
REMARK SMILES IDX 14 25 22 26 20 27 21 28 17 29 18 30 19 31 30 34 31 35 32 36
REMARK SMILES IDX 33 38 34 39 35 40 81 41 36 42 80 43 37 44 38 45 39 46 74 47
REMARK SMILES IDX 40 48 79 49 73 50 75 51 41 52 78 53 72 54 71 55 42 57 64 58
REMARK SMILES IDX 49 59 63 60 50 61 53 62 62 63 76 64 51 65 52 66 61 68 77 69
REMARK SMILES IDX 54 70 43 71 44 72 48 73 45 74 47 75 46 76 65 77 66 78 70 79
REMARK SMILES IDX 67 80 69 81 68 82 55 83 56 84 60 85 57 86 59 87 58 88
REMARK H PARENT 27 6 18 32 18 33 31 37 75 56 53 67
REMARK Flexibility Score: inf
ROOT
ATOM      1  C   UNL     1       6.442  -8.042   0.885  1.00  0.00     0.042 C 
ENDROOT
BRANCH   1   2
ATOM      2  C   UNL     1       5.733  -7.076  -0.072  1.00  0.00     0.118 C 
BRANCH   2   3
ATOM      3  N   UNL     1       4.334  -6.873   0.272  1.00  0.00    -0.352 N 
ATOM      4  C   UNL     1       3.700  -5.917   1.033  1.00  0.00     0.255 C 
ATOM      5  O   UNL     1       2.470  -5.980   1.055  1.00  0.00    -0.269 OA
ATOM      6  H   UNL     1       3.727  -7.546  -0.111  1.00  0.00     0.163 HD
BRANCH   4   7
ATOM      7  C   UNL     1       4.445  -4.885   1.739  1.00  0.00     0.086 A 
ATOM      8  C   UNL     1       3.971  -3.640   2.291  1.00  0.00     0.106 A 
ATOM      9  N   UNL     1       4.991  -2.893   2.774  1.00  0.00    -0.167 NA
ATOM     10  N   UNL     1       6.090  -3.566   2.374  1.00  0.00    -0.239 N 
ATOM     11  C   UNL     1       5.783  -4.865   2.061  1.00  0.00     0.129 A 
BRANCH   8  12
ATOM     12  C   UNL     1       2.586  -3.169   2.361  1.00  0.00     0.007 A 
ATOM     13  C   UNL     1       0.860  -1.571   1.756  1.00  0.00     0.119 A 
ATOM     14  C   UNL     1      -0.090  -2.353   2.417  1.00  0.00     0.046 A 
ATOM     15  C   UNL     1       2.201  -1.971   1.737  1.00  0.00     0.056 A 
ATOM     16  C   UNL     1       0.285  -3.536   3.048  1.00  0.00     0.005 A 
ATOM     17  C   UNL     1       1.620  -3.937   3.028  1.00  0.00     0.011 A 
BRANCH  13  18
ATOM     18  O   UNL     1       0.372  -0.412   1.214  1.00  0.00    -0.497 OA
ATOM     19  C   UNL     1       1.004   0.023   0.016  1.00  0.00     0.278 C 
ENDBRANCH  13  18
ENDBRANCH   8  12
BRANCH  10  20
ATOM     20  C   UNL     1       7.410  -3.057   2.443  1.00  0.00     0.081 A 
ATOM     21  C   UNL     1       7.813  -2.414   3.626  1.00  0.00     0.079 A 
ATOM     22  C   UNL     1       8.341  -3.305   1.386  1.00  0.00     0.069 A 
ATOM     23  C   UNL     1       9.154  -2.115   3.751  1.00  0.00     0.167 A 
ATOM     24  C   UNL     1       9.707  -3.081   1.613  1.00  0.00     0.066 A 
ATOM     25  C   UNL     1      10.071  -2.469   2.788  1.00  0.00     0.166 A 
ATOM     26  O   UNL     1       9.746  -1.470   4.793  1.00  0.00    -0.454 OA
ATOM     27  O   UNL     1      11.339  -2.094   3.106  1.00  0.00    -0.454 OA
ATOM     28  C   UNL     1      11.078  -1.280   4.266  1.00  0.00     0.468 C 
BRANCH  22  29
ATOM     29  C   UNL     1       7.883  -3.586  -0.020  1.00  0.00     0.251 C 
ATOM     30  N   UNL     1       8.792  -3.483  -1.039  1.00  0.00    -0.366 N 
ATOM     31  O   UNL     1       6.723  -3.821  -0.318  1.00  0.00    -0.269 OA
ATOM     32  H   UNL     1       9.737  -3.294  -0.838  1.00  0.00     0.159 HD
ATOM     33  H   UNL     1       8.500  -3.597  -1.972  1.00  0.00     0.159 HD
ENDBRANCH  22  29
ENDBRANCH  10  20
ENDBRANCH   4   7
ENDBRANCH   2   3
ENDBRANCH   1   2
BRANCH   1  34
ATOM     34  C   UNL     1       6.130  -9.489   0.554  1.00  0.00     0.118 C 
BRANCH  34  35
ATOM     35  N   UNL     1       6.714  -9.915  -0.728  1.00  0.00    -0.352 N 
ATOM     36  C   UNL     1       6.553 -11.107  -1.407  1.00  0.00     0.251 C 
ATOM     37  H   UNL     1       7.303  -9.257  -1.164  1.00  0.00     0.163 HD
ATOM     38  O   UNL     1       7.356 -11.455  -2.273  1.00  0.00    -0.269 OA
BRANCH  36  39
ATOM     39  C   UNL     1       5.397 -11.955  -1.083  1.00  0.00     0.039 A 
ATOM     40  C   UNL     1       5.448 -13.351  -1.071  1.00  0.00     0.014 A 
ATOM     41  C   UNL     1       4.234 -11.290  -0.726  1.00  0.00     0.014 A 
ATOM     42  C   UNL     1       4.321 -14.049  -0.638  1.00  0.00     0.010 A 
ATOM     43  C   UNL     1       3.283 -11.948  -0.012  1.00  0.00     0.010 A 
ATOM     44  C   UNL     1       3.244 -13.326  -0.102  1.00  0.00    -0.014 A 
BRANCH  44  45
ATOM     45  C   UNL     1       2.063 -13.957   0.460  1.00  0.00     0.031 A 
ATOM     46  C   UNL     1       2.368 -14.854   1.595  1.00  0.00     0.074 A 
ATOM     47  C   UNL     1       0.809 -13.546   0.163  1.00  0.00     0.049 A 
ATOM     48  N   UNL     1       2.377 -16.143   1.591  1.00  0.00    -0.248 NA
ATOM     49  C   UNL     1       2.921 -14.250   2.820  1.00  0.00     0.031 C 
ATOM     50  C   UNL     1       0.391 -12.399  -0.661  1.00  0.00     0.029 A 
ATOM     51  N   UNL     1      -0.377 -14.004   0.640  1.00  0.00    -0.354 N 
ATOM     52  C   UNL     1       2.690 -16.511   2.894  1.00  0.00     0.074 A 
ATOM     53  C   UNL     1       3.250 -15.339   3.517  1.00  0.00     0.031 C 
ATOM     54  C   UNL     1      -0.911 -12.119  -0.430  1.00  0.00     0.029 A 
ATOM     55  C   UNL     1      -1.464 -13.167   0.406  1.00  0.00     0.049 A 
ATOM     56  H   UNL     1      -0.462 -14.862   1.115  1.00  0.00     0.167 HD
ATOM     57  C   UNL     1       2.155 -17.635   3.445  1.00  0.00     0.031 A 
ATOM     58  C   UNL     1      -2.723 -13.317   0.885  1.00  0.00     0.031 A 
ATOM     59  C   UNL     1       1.538 -18.464   2.436  1.00  0.00     0.049 A 
ATOM     60  C   UNL     1      -2.856 -14.728   1.313  1.00  0.00     0.074 A 
ATOM     61  C   UNL     1       1.967 -19.117   1.300  1.00  0.00     0.029 A 
ATOM     62  N   UNL     1       0.172 -18.345   2.321  1.00  0.00    -0.354 N 
ATOM     63  N   UNL     1      -2.811 -15.737   0.490  1.00  0.00    -0.248 NA
ATOM     64  C   UNL     1      -2.573 -15.044   2.703  1.00  0.00     0.031 C 
ATOM     65  C   UNL     1       0.901 -18.970   0.363  1.00  0.00     0.029 A 
ATOM     66  C   UNL     1      -0.157 -18.309   0.993  1.00  0.00     0.049 A 
ATOM     67  H   UNL     1      -0.464 -18.294   3.071  1.00  0.00     0.167 HD
ATOM     68  C   UNL     1      -2.069 -16.702   1.156  1.00  0.00     0.074 A 
ATOM     69  C   UNL     1      -2.049 -16.264   2.551  1.00  0.00     0.031 C 
ATOM     70  C   UNL     1      -1.303 -17.597   0.463  1.00  0.00     0.031 A 
BRANCH  57  71
ATOM     71  C   UNL     1       1.747 -17.739   4.897  1.00  0.00    -0.014 A 
ATOM     72  C   UNL     1       1.180 -18.948   5.342  1.00  0.00     0.009 A 
ATOM     73  C   UNL     1       1.621 -16.633   5.759  1.00  0.00     0.009 A 
ATOM     74  C   UNL     1       0.451 -19.017   6.535  1.00  0.00     0.001 A 
ATOM     75  C   UNL     1       0.930 -16.708   6.971  1.00  0.00     0.001 A 
ATOM     76  C   UNL     1       0.318 -17.894   7.344  1.00  0.00     0.000 A 
ENDBRANCH  57  71
BRANCH  58  77
ATOM     77  C   UNL     1      -3.701 -12.277   1.277  1.00  0.00    -0.014 A 
ATOM     78  C   UNL     1      -5.070 -12.570   1.392  1.00  0.00     0.009 A 
ATOM     79  C   UNL     1      -3.249 -11.056   1.813  1.00  0.00     0.009 A 
ATOM     80  C   UNL     1      -5.945 -11.688   2.046  1.00  0.00     0.001 A 
ATOM     81  C   UNL     1      -4.121 -10.179   2.468  1.00  0.00     0.001 A 
ATOM     82  C   UNL     1      -5.468 -10.501   2.596  1.00  0.00     0.000 A 
ENDBRANCH  58  77
BRANCH  70  83
ATOM     83  C   UNL     1      -1.515 -17.706  -1.028  1.00  0.00    -0.014 A 
ATOM     84  C   UNL     1      -1.235 -16.669  -1.936  1.00  0.00     0.009 A 
ATOM     85  C   UNL     1      -1.852 -18.967  -1.543  1.00  0.00     0.009 A 
ATOM     86  C   UNL     1      -1.304 -16.891  -3.317  1.00  0.00     0.001 A 
ATOM     87  C   UNL     1      -1.900 -19.194  -2.919  1.00  0.00     0.001 A 
ATOM     88  C   UNL     1      -1.628 -18.156  -3.807  1.00  0.00     0.000 A 
ENDBRANCH  70  83
ENDBRANCH  44  45
ENDBRANCH  36  39
ENDBRANCH  34  35
ENDBRANCH   1  34
TORSDOF 14
