REMARK SMILES N#CCC[NH+]1CCN(c2cc(C(=O)NCCCNC(=O)c3ccc(-c4c5nc(c(-c6ccccc6)c6ccc([nH]6)c(-c6ccccc6)c6nc(c(-c7ccccc7)c7ccc4[nH]7)C=C6)C=C5)cc3)c3cc(NS(=O)(=O)c4ccccc4Cl)ccc3n2)CC1
REMARK SMILES IDX 15 1 14 2 12 3 13 4 11 6 9 7 10 8 86 9 85 10 69 11 84 12
REMARK SMILES IDX 70 13 83 14 71 15 8 16 5 17 6 18 88 19 7 21 87 22 4 23 3 24
REMARK SMILES IDX 2 25 1 26 72 27 73 29 74 30 75 31 76 32 77 33 81 34 78 35
REMARK SMILES IDX 80 36 82 37 79 38 16 39 17 40 18 41 19 42 20 44 21 45 22 46
REMARK SMILES IDX 68 47 23 48 67 49 24 50 25 51 26 52 61 53 27 54 66 55 60 56
REMARK SMILES IDX 62 57 28 58 65 59 59 60 58 61 29 63 51 64 36 65 50 66 37 67
REMARK SMILES IDX 40 68 49 69 63 70 38 71 39 72 48 74 64 75 41 76 30 77 31 78
REMARK SMILES IDX 35 79 32 80 34 81 33 82 52 83 53 84 57 85 54 86 56 87 55 88
REMARK SMILES IDX 42 89 43 90 47 91 44 92 46 93 45 94
REMARK H PARENT 14 5 5 20 72 28 18 43 62 62 40 73
REMARK Flexibility Score: inf
ROOT
ATOM      1  C   UNL     1       7.383  10.348   1.343  1.00  0.00     0.118 C 
ENDROOT
BRANCH   1   2
ATOM      2  N   UNL     1       8.139   9.158   1.279  1.00  0.00    -0.352 N 
ATOM      3  C   UNL     1       7.649   7.909   1.399  1.00  0.00     0.252 C 
ATOM      4  O   UNL     1       8.458   7.010   1.156  1.00  0.00    -0.269 OA
ATOM      5  H   UNL     1       9.108   9.249   1.134  1.00  0.00     0.163 HD
BRANCH   3   6
ATOM      6  C   UNL     1       6.183   7.640   1.572  1.00  0.00     0.052 A 
ATOM      7  C   UNL     1       4.640   5.989   0.862  1.00  0.00     0.130 A 
ATOM      8  C   UNL     1       5.918   6.450   0.961  1.00  0.00     0.061 A 
ATOM      9  N   UNL     1       3.580   6.780   1.136  1.00  0.00    -0.231 NA
ATOM     10  C   UNL     1       3.806   8.043   1.586  1.00  0.00     0.074 A 
ATOM     11  C   UNL     1       5.077   8.465   1.950  1.00  0.00     0.015 A 
ATOM     12  C   UNL     1       2.818   9.037   1.637  1.00  0.00     0.031 A 
ATOM     13  C   UNL     1       5.130   9.754   2.549  1.00  0.00     0.038 A 
ATOM     14  C   UNL     1       3.165  10.428   1.716  1.00  0.00     0.029 A 
ATOM     15  C   UNL     1       4.479  10.845   1.954  1.00  0.00     0.050 A 
BRANCH   7  16
ATOM     16  N   UNL     1       4.557   4.690   0.424  1.00  0.00    -0.345 N 
ATOM     17  N   UNL     1       3.709   2.049   1.009  1.00  0.00    -0.331 N 
ATOM     18  C   UNL     1       4.761   2.672   1.811  1.00  0.00     0.284 C 
ATOM     19  C   UNL     1       2.742   3.086   0.549  1.00  0.00     0.284 C 
ATOM     20  H   UNL     1       3.198   1.376   1.580  1.00  0.00     0.348 HD
ATOM     21  C   UNL     1       5.512   3.722   0.998  1.00  0.00     0.179 C 
ATOM     22  C   UNL     1       3.384   4.210  -0.271  1.00  0.00     0.179 C 
BRANCH  17  23
ATOM     23  C   UNL     1       4.298   1.317  -0.119  1.00  0.00     0.277 C 
BRANCH  23  24
ATOM     24  C   UNL     1       3.819  -0.087   0.030  1.00  0.00     0.181 C 
BRANCH  24  25
ATOM     25  C   UNL     1       2.299  -0.087   0.030  1.00  0.00     0.068 C 
ATOM     26  N   UNL     1       1.038  -0.087   0.030  1.00  0.00    -0.198 NA
ENDBRANCH  24  25
ENDBRANCH  23  24
ENDBRANCH  17  23
ENDBRANCH   7  16
BRANCH  15  27
ATOM     27  N   UNL     1       5.066  11.768   0.773  1.00  0.00    -0.280 N 
ATOM     28  H   UNL     1       4.495  11.679  -0.024  1.00  0.00     0.180 HD
BRANCH  27  29
ATOM     29  S   UNL     1       6.492  12.976   0.394  1.00  0.00     0.263 S 
ATOM     30  O   UNL     1       5.964  13.495  -0.866  1.00  0.00    -0.201 OA
ATOM     31  O   UNL     1       6.523  13.855   1.532  1.00  0.00    -0.201 OA
BRANCH  29  32
ATOM     32  C   UNL     1       8.463  12.415  -0.215  1.00  0.00     0.106 A 
ATOM     33  C   UNL     1       9.409  11.554   0.504  1.00  0.00     0.024 A 
ATOM     34  C   UNL     1       9.040  12.912  -1.371  1.00  0.00     0.061 A 
ATOM     35  C   UNL     1      10.633  11.027   0.089  1.00  0.00     0.002 A 
ATOM     36  C   UNL     1      10.333  12.413  -1.794  1.00  0.00     0.022 A 
ATOM     37  Cl  UNL     1       8.426  14.219  -2.288  1.00  0.00    -0.083 Cl
ATOM     38  C   UNL     1      11.091  11.444  -1.113  1.00  0.00     0.002 A 
ENDBRANCH  29  32
ENDBRANCH  27  29
ENDBRANCH  15  27
ENDBRANCH   3   6
ENDBRANCH   1   2
BRANCH   1  39
ATOM     39  C   UNL     1       7.533  11.289   2.713  1.00  0.00     0.042 C 
BRANCH  39  40
ATOM     40  C   UNL     1       8.531  12.467   3.179  1.00  0.00     0.118 C 
BRANCH  40  41
ATOM     41  N   UNL     1       8.979  13.521   2.244  1.00  0.00    -0.352 N 
ATOM     42  C   UNL     1       9.065  14.878   2.361  1.00  0.00     0.251 C 
ATOM     43  H   UNL     1       9.273  13.178   1.369  1.00  0.00     0.163 HD
ATOM     44  O   UNL     1       9.057  15.630   1.386  1.00  0.00    -0.269 OA
BRANCH  42  45
ATOM     45  C   UNL     1       9.580  15.356   3.625  1.00  0.00     0.039 A 
ATOM     46  C   UNL     1       9.132  16.545   4.186  1.00  0.00     0.014 A 
ATOM     47  C   UNL     1      10.619  14.595   4.176  1.00  0.00     0.014 A 
ATOM     48  C   UNL     1       9.693  16.934   5.388  1.00  0.00     0.010 A 
ATOM     49  C   UNL     1      11.111  14.931   5.402  1.00  0.00     0.010 A 
ATOM     50  C   UNL     1      10.649  16.103   6.000  1.00  0.00    -0.014 A 
BRANCH  50  51
ATOM     51  C   UNL     1      11.178  16.411   7.321  1.00  0.00     0.031 A 
ATOM     52  C   UNL     1      12.618  16.773   7.452  1.00  0.00     0.074 A 
ATOM     53  C   UNL     1      10.349  16.224   8.358  1.00  0.00     0.049 A 
ATOM     54  N   UNL     1      13.296  17.032   8.533  1.00  0.00    -0.248 NA
ATOM     55  C   UNL     1      13.417  16.806   6.210  1.00  0.00     0.031 C 
ATOM     56  C   UNL     1       8.953  15.775   8.257  1.00  0.00     0.029 A 
ATOM     57  N   UNL     1      10.551  16.388   9.693  1.00  0.00    -0.354 N 
ATOM     58  C   UNL     1      14.596  17.256   8.105  1.00  0.00     0.074 A 
ATOM     59  C   UNL     1      14.634  17.029   6.680  1.00  0.00     0.031 C 
ATOM     60  C   UNL     1       8.409  15.760   9.481  1.00  0.00     0.029 A 
ATOM     61  C   UNL     1       9.428  16.152  10.443  1.00  0.00     0.049 A 
ATOM     62  H   UNL     1      11.417  16.649  10.082  1.00  0.00     0.167 HD
ATOM     63  C   UNL     1      15.651  17.646   8.853  1.00  0.00     0.031 A 
ATOM     64  C   UNL     1       9.259  16.262  11.770  1.00  0.00     0.031 A 
ATOM     65  C   UNL     1      15.551  17.851  10.272  1.00  0.00     0.049 A 
ATOM     66  C   UNL     1      10.441  16.724  12.569  1.00  0.00     0.074 A 
ATOM     67  C   UNL     1      16.518  18.285  11.156  1.00  0.00     0.029 A 
ATOM     68  N   UNL     1      14.393  17.631  11.010  1.00  0.00    -0.354 N 
ATOM     69  N   UNL     1      11.654  17.014  12.155  1.00  0.00    -0.248 NA
ATOM     70  C   UNL     1      10.230  16.896  14.007  1.00  0.00     0.031 C 
ATOM     71  C   UNL     1      15.957  18.277  12.438  1.00  0.00     0.029 A 
ATOM     72  C   UNL     1      14.623  17.902  12.344  1.00  0.00     0.049 A 
ATOM     73  H   UNL     1      13.535  17.326  10.636  1.00  0.00     0.167 HD
ATOM     74  C   UNL     1      12.350  17.428  13.279  1.00  0.00     0.074 A 
ATOM     75  C   UNL     1      11.408  17.373  14.384  1.00  0.00     0.031 C 
ATOM     76  C   UNL     1      13.644  17.816  13.400  1.00  0.00     0.031 A 
BRANCH  63  77
ATOM     77  C   UNL     1      16.961  17.852   8.147  1.00  0.00    -0.014 A 
ATOM     78  C   UNL     1      17.130  18.882   7.205  1.00  0.00     0.009 A 
ATOM     79  C   UNL     1      18.042  17.001   8.415  1.00  0.00     0.009 A 
ATOM     80  C   UNL     1      18.337  19.027   6.518  1.00  0.00     0.001 A 
ATOM     81  C   UNL     1      19.259  17.168   7.750  1.00  0.00     0.001 A 
ATOM     82  C   UNL     1      19.402  18.173   6.795  1.00  0.00     0.000 A 
ENDBRANCH  63  77
BRANCH  64  83
ATOM     83  C   UNL     1       7.936  15.984  12.379  1.00  0.00    -0.014 A 
ATOM     84  C   UNL     1       7.168  17.024  12.924  1.00  0.00     0.009 A 
ATOM     85  C   UNL     1       7.411  14.681  12.384  1.00  0.00     0.009 A 
ATOM     86  C   UNL     1       5.920  16.759  13.495  1.00  0.00     0.001 A 
ATOM     87  C   UNL     1       6.150  14.425  12.926  1.00  0.00     0.001 A 
ATOM     88  C   UNL     1       5.411  15.462  13.492  1.00  0.00     0.000 A 
ENDBRANCH  64  83
BRANCH  76  89
ATOM     89  C   UNL     1      14.083  18.231  14.773  1.00  0.00    -0.014 A 
ATOM     90  C   UNL     1      14.235  17.291  15.804  1.00  0.00     0.009 A 
ATOM     91  C   UNL     1      14.370  19.581  15.024  1.00  0.00     0.009 A 
ATOM     92  C   UNL     1      14.623  17.706  17.077  1.00  0.00     0.001 A 
ATOM     93  C   UNL     1      14.796  19.985  16.288  1.00  0.00     0.001 A 
ATOM     94  C   UNL     1      14.908  19.050  17.315  1.00  0.00     0.000 A 
ENDBRANCH  76  89
ENDBRANCH  50  51
ENDBRANCH  42  45
ENDBRANCH  40  41
ENDBRANCH  39  40
ENDBRANCH   1  39
TORSDOF 17
