REMARK SMILES O=C(NCCCNC(=O)[C@@H](Cc1c[nH]c2ccccc12)Nc1ncnc2ccccc12)c1ccc(-c2c3nc(c(-c4ccccc4)c4ccc([nH]4)c(-c4ccccc4)c4nc(c(-c5ccccc5)c5ccc2[nH]5)C=C4)C=C3)cc1
REMARK SMILES IDX 5 1 4 2 3 3 1 4 2 5 32 7 33 8 79 9 34 10 78 11 35 12 36 13
REMARK SMILES IDX 37 14 72 15 38 16 77 17 71 18 73 19 39 20 76 21 70 22 69 23
REMARK SMILES IDX 40 25 62 26 47 27 61 28 48 29 51 30 60 31 74 32 49 33 50 34
REMARK SMILES IDX 59 36 75 37 52 38 41 39 42 40 46 41 43 42 45 43 44 44 63 45
REMARK SMILES IDX 64 46 68 47 65 48 67 49 66 50 53 51 54 52 58 53 55 54 57 55
REMARK SMILES IDX 56 56 6 57 7 58 8 59 9 61 10 62 11 63 12 64 13 65 20 66
REMARK SMILES IDX 14 67 15 68 19 69 16 71 18 72 17 73 21 74 22 76 23 77 31 78
REMARK SMILES IDX 24 79 26 80 30 81 25 82 27 83 29 84 28 85
REMARK H PARENT 3 6 73 24 51 35 7 60 14 70 21 75
REMARK Flexibility Score: inf
ROOT
ATOM      1  C   UNL     1       4.270  -2.377  -0.091  1.00  0.00     0.042 C 
ENDROOT
BRANCH   1   2
ATOM      2  C   UNL     1       3.868  -1.541  -1.296  1.00  0.00     0.118 C 
BRANCH   2   3
ATOM      3  N   UNL     1       2.547  -0.957  -1.141  1.00  0.00    -0.352 N 
ATOM      4  O   UNL     1       0.897   0.312  -0.348  1.00  0.00    -0.269 OA
ATOM      5  C   UNL     1       2.109   0.198  -0.540  1.00  0.00     0.251 C 
ATOM      6  H   UNL     1       1.826  -1.493  -1.544  1.00  0.00     0.163 HD
BRANCH   5   7
ATOM      7  C   UNL     1       3.004   1.309  -0.108  1.00  0.00     0.039 A 
ATOM      8  C   UNL     1       4.179   1.660  -0.773  1.00  0.00     0.014 A 
ATOM      9  C   UNL     1       2.556   2.142   0.931  1.00  0.00     0.014 A 
ATOM     10  C   UNL     1       4.934   2.763  -0.358  1.00  0.00     0.010 A 
ATOM     11  C   UNL     1       3.263   3.300   1.288  1.00  0.00     0.010 A 
ATOM     12  C   UNL     1       4.467   3.621   0.650  1.00  0.00    -0.014 A 
BRANCH  12  13
ATOM     13  C   UNL     1       5.188   4.894   0.936  1.00  0.00     0.031 A 
ATOM     14  C   UNL     1       5.814   5.164   2.277  1.00  0.00     0.074 A 
ATOM     15  C   UNL     1       5.282   5.827  -0.033  1.00  0.00     0.049 A 
ATOM     16  N   UNL     1       6.520   6.199   2.662  1.00  0.00    -0.248 NA
ATOM     17  C   UNL     1       5.618   4.150   3.323  1.00  0.00     0.031 C 
ATOM     18  C   UNL     1       4.694   5.718  -1.371  1.00  0.00     0.029 A 
ATOM     19  N   UNL     1       5.923   7.042  -0.053  1.00  0.00    -0.354 N 
ATOM     20  C   UNL     1       6.838   5.971   3.995  1.00  0.00     0.074 A 
ATOM     21  C   UNL     1       6.230   4.708   4.359  1.00  0.00     0.031 C 
ATOM     22  C   UNL     1       5.052   6.786  -2.098  1.00  0.00     0.029 A 
ATOM     23  C   UNL     1       5.848   7.682  -1.267  1.00  0.00     0.049 A 
ATOM     24  H   UNL     1       6.391   7.418   0.727  1.00  0.00     0.167 HD
ATOM     25  C   UNL     1       7.572   6.737   4.840  1.00  0.00     0.031 A 
ATOM     26  C   UNL     1       6.359   8.859  -1.675  1.00  0.00     0.031 A 
ATOM     27  C   UNL     1       8.178   7.996   4.491  1.00  0.00     0.049 A 
ATOM     28  C   UNL     1       7.155   9.694  -0.718  1.00  0.00     0.074 A 
ATOM     29  C   UNL     1       8.975   8.815   5.273  1.00  0.00     0.029 A 
ATOM     30  N   UNL     1       8.047   8.624   3.263  1.00  0.00    -0.354 N 
ATOM     31  N   UNL     1       7.488   9.434   0.522  1.00  0.00    -0.248 NA
ATOM     32  C   UNL     1       7.644  10.987  -1.218  1.00  0.00     0.031 C 
ATOM     33  C   UNL     1       9.290   9.960   4.532  1.00  0.00     0.029 A 
ATOM     34  C   UNL     1       8.727   9.831   3.273  1.00  0.00     0.049 A 
ATOM     35  H   UNL     1       7.544   8.265   2.495  1.00  0.00     0.167 HD
ATOM     36  C   UNL     1       8.235  10.523   0.948  1.00  0.00     0.074 A 
ATOM     37  C   UNL     1       8.322  11.439  -0.171  1.00  0.00     0.031 C 
ATOM     38  C   UNL     1       8.797  10.742   2.161  1.00  0.00     0.031 A 
BRANCH  25  39
ATOM     39  C   UNL     1       7.740   6.238   6.248  1.00  0.00    -0.014 A 
ATOM     40  C   UNL     1       8.586   5.157   6.541  1.00  0.00     0.009 A 
ATOM     41  C   UNL     1       7.067   6.880   7.300  1.00  0.00     0.009 A 
ATOM     42  C   UNL     1       8.726   4.707   7.856  1.00  0.00     0.001 A 
ATOM     43  C   UNL     1       7.228   6.442   8.615  1.00  0.00     0.001 A 
ATOM     44  C   UNL     1       8.050   5.351   8.891  1.00  0.00     0.000 A 
ENDBRANCH  25  39
BRANCH  26  45
ATOM     45  C   UNL     1       6.138   9.311  -3.073  1.00  0.00    -0.014 A 
ATOM     46  C   UNL     1       7.188   9.281  -4.002  1.00  0.00     0.009 A 
ATOM     47  C   UNL     1       4.872   9.750  -3.489  1.00  0.00     0.009 A 
ATOM     48  C   UNL     1       6.977   9.693  -5.319  1.00  0.00     0.001 A 
ATOM     49  C   UNL     1       4.658  10.138  -4.813  1.00  0.00     0.001 A 
ATOM     50  C   UNL     1       5.712  10.114  -5.725  1.00  0.00     0.000 A 
ENDBRANCH  26  45
BRANCH  38  51
ATOM     51  C   UNL     1       9.571  12.018   2.333  1.00  0.00    -0.014 A 
ATOM     52  C   UNL     1       8.915  13.251   2.470  1.00  0.00     0.009 A 
ATOM     53  C   UNL     1      10.973  11.982   2.381  1.00  0.00     0.009 A 
ATOM     54  C   UNL     1       9.651  14.428   2.621  1.00  0.00     0.001 A 
ATOM     55  C   UNL     1      11.705  13.157   2.554  1.00  0.00     0.001 A 
ATOM     56  C   UNL     1      11.044  14.380   2.666  1.00  0.00     0.000 A 
ENDBRANCH  38  51
ENDBRANCH  12  13
ENDBRANCH   5   7
ENDBRANCH   2   3
ENDBRANCH   1   2
BRANCH   1  57
ATOM     57  C   UNL     1       3.877  -3.850  -0.171  1.00  0.00     0.117 C 
BRANCH  57  58
ATOM     58  N   UNL     1       4.791  -4.591  -1.025  1.00  0.00    -0.354 N 
ATOM     59  C   UNL     1       5.882  -5.362  -0.766  1.00  0.00     0.242 C 
ATOM     60  H   UNL     1       4.577  -4.521  -1.983  1.00  0.00     0.163 HD
ATOM     61  O   UNL     1       6.581  -5.636  -1.753  1.00  0.00    -0.273 OA
BRANCH  59  62
ATOM     62  C   UNL     1       6.300  -5.892   0.628  1.00  0.00     0.174 C 
BRANCH  62  63
ATOM     63  C   UNL     1       7.138  -4.897   1.451  1.00  0.00     0.072 C 
BRANCH  63  64
ATOM     64  C   UNL     1       6.470  -3.756   2.158  1.00  0.00    -0.020 A 
ATOM     65  C   UNL     1       5.431  -3.815   3.067  1.00  0.00     0.087 A 
ATOM     66  C   UNL     1       6.861  -2.375   2.079  1.00  0.00     0.003 A 
ATOM     67  N   UNL     1       5.125  -2.541   3.465  1.00  0.00    -0.361 N 
ATOM     68  C   UNL     1       5.968  -1.639   2.858  1.00  0.00     0.046 A 
ATOM     69  C   UNL     1       7.867  -1.680   1.375  1.00  0.00     0.010 A 
ATOM     70  H   UNL     1       4.407  -2.305   4.095  1.00  0.00     0.166 HD
ATOM     71  C   UNL     1       5.999  -0.240   2.930  1.00  0.00     0.026 A 
ATOM     72  C   UNL     1       7.919  -0.284   1.444  1.00  0.00     0.001 A 
ATOM     73  C   UNL     1       6.990   0.423   2.201  1.00  0.00     0.002 A 
ENDBRANCH  63  64
ENDBRANCH  62  63
BRANCH  62  74
ATOM     74  N   UNL     1       5.200  -6.523   1.371  1.00  0.00    -0.358 N 
ATOM     75  H   UNL     1       4.535  -5.940   1.805  1.00  0.00     0.162 HD
BRANCH  74  76
ATOM     76  C   UNL     1       5.049  -7.892   1.493  1.00  0.00     0.137 A 
ATOM     77  N   UNL     1       3.798  -8.279   1.192  1.00  0.00    -0.219 NA
ATOM     78  C   UNL     1       6.034  -8.807   1.923  1.00  0.00     0.043 A 
ATOM     79  C   UNL     1       3.536  -9.588   1.269  1.00  0.00     0.224 A 
ATOM     80  C   UNL     1       5.625 -10.151   1.958  1.00  0.00     0.076 A 
ATOM     81  C   UNL     1       7.353  -8.503   2.353  1.00  0.00     0.014 A 
ATOM     82  N   UNL     1       4.394 -10.546   1.628  1.00  0.00    -0.236 NA
ATOM     83  C   UNL     1       6.527 -11.126   2.371  1.00  0.00     0.029 A 
ATOM     84  C   UNL     1       8.245  -9.496   2.757  1.00  0.00     0.001 A 
ATOM     85  C   UNL     1       7.830 -10.816   2.763  1.00  0.00     0.002 A 
ENDBRANCH  74  76
ENDBRANCH  62  74
ENDBRANCH  59  62
ENDBRANCH  57  58
ENDBRANCH   1  57
TORSDOF 14
