REMARK SMILES CC[C@](C)(NC(=O)c1cccc2ncccc12)C(=O)NCCCNC(=O)c1ccc(-c2c3nc(c(-c4ccccc4)c4ccc([nH]4)c(-c4ccccc4)c4nc(c(-c5ccccc5)c5ccc2[nH]5)C=C4)C=C3)cc1
REMARK SMILES IDX 22 1 21 2 20 3 18 4 19 5 3 7 4 8 2 9 1 10 5 11 6 12 7 14
REMARK SMILES IDX 8 15 9 16 17 17 10 18 12 19 16 20 11 21 13 22 15 23 14 24
REMARK SMILES IDX 23 25 24 26 25 27 26 29 27 30 28 31 74 32 29 33 73 34 30 35
REMARK SMILES IDX 31 36 32 37 67 38 33 39 72 40 66 41 68 42 34 43 71 44 65 45
REMARK SMILES IDX 64 46 35 48 57 49 42 50 56 51 43 52 46 53 55 54 69 55 44 56
REMARK SMILES IDX 45 57 54 59 70 60 47 61 36 62 37 63 41 64 38 65 40 66 39 67
REMARK SMILES IDX 58 68 59 69 63 70 60 71 62 72 61 73 48 74 49 75 53 76 50 77
REMARK SMILES IDX 52 78 51 79
REMARK H PARENT 20 6 5 13 24 28 68 47 46 58
REMARK Flexibility Score: inf
ROOT
ATOM      1  C   UNL     1       2.514   4.715   4.066  1.00  0.00     0.042 C 
ENDROOT
BRANCH   1   2
ATOM      2  C   UNL     1       2.139   4.758   2.580  1.00  0.00     0.117 C 
BRANCH   2   3
ATOM      3  N   UNL     1       2.678   3.743   1.682  1.00  0.00    -0.354 N 
ATOM      4  C   UNL     1       2.304   2.468   1.333  1.00  0.00     0.245 C 
ATOM      5  O   UNL     1       2.951   1.954   0.413  1.00  0.00    -0.272 OA
ATOM      6  H   UNL     1       3.496   4.038   1.222  1.00  0.00     0.163 HD
BRANCH   4   7
ATOM      7  C   UNL     1       1.115   1.708   1.995  1.00  0.00     0.116 C 
ATOM      8  C   UNL     1       1.070   0.219   1.599  1.00  0.00     0.045 C 
BRANCH   7   9
ATOM      9  C   UNL     1      -0.171   2.390   1.409  1.00  0.00     0.035 C 
ATOM     10  C   UNL     1      -0.332   2.279  -0.114  1.00  0.00     0.007 C 
ENDBRANCH   7   9
BRANCH   7  11
ATOM     11  N   UNL     1       1.088   1.767   3.494  1.00  0.00    -0.338 N 
ATOM     12  C   UNL     1       1.840   1.198   4.521  1.00  0.00     0.252 C 
ATOM     13  H   UNL     1       0.366   2.344   3.833  1.00  0.00     0.164 HD
ATOM     14  O   UNL     1       1.241   1.096   5.594  1.00  0.00    -0.269 OA
BRANCH  12  15
ATOM     15  C   UNL     1       3.308   0.822   4.463  1.00  0.00     0.049 A 
ATOM     16  C   UNL     1       4.123   1.458   3.536  1.00  0.00     0.014 A 
ATOM     17  C   UNL     1       3.976   0.020   5.446  1.00  0.00     0.013 A 
ATOM     18  C   UNL     1       5.496   1.287   3.448  1.00  0.00     0.003 A 
ATOM     19  C   UNL     1       5.396  -0.119   5.380  1.00  0.00     0.071 A 
ATOM     20  C   UNL     1       3.376  -0.642   6.543  1.00  0.00     0.013 A 
ATOM     21  C   UNL     1       6.118   0.487   4.376  1.00  0.00     0.029 A 
ATOM     22  N   UNL     1       6.137  -0.786   6.272  1.00  0.00    -0.256 NA
ATOM     23  C   UNL     1       4.147  -1.323   7.487  1.00  0.00     0.021 A 
ATOM     24  C   UNL     1       5.512  -1.361   7.311  1.00  0.00     0.112 A 
ENDBRANCH  12  15
ENDBRANCH   7  11
ENDBRANCH   4   7
ENDBRANCH   2   3
ENDBRANCH   1   2
BRANCH   1  25
ATOM     25  C   UNL     1       3.984   4.804   4.473  1.00  0.00     0.118 C 
BRANCH  25  26
ATOM     26  N   UNL     1       4.676   5.979   3.992  1.00  0.00    -0.352 N 
ATOM     27  C   UNL     1       5.494   6.855   4.664  1.00  0.00     0.251 C 
ATOM     28  H   UNL     1       4.540   6.182   3.038  1.00  0.00     0.163 HD
ATOM     29  O   UNL     1       5.966   7.813   4.061  1.00  0.00    -0.269 OA
BRANCH  27  30
ATOM     30  C   UNL     1       5.786   6.692   6.110  1.00  0.00     0.039 A 
ATOM     31  C   UNL     1       5.674   7.825   6.923  1.00  0.00     0.014 A 
ATOM     32  C   UNL     1       6.220   5.484   6.664  1.00  0.00     0.014 A 
ATOM     33  C   UNL     1       5.953   7.740   8.290  1.00  0.00     0.010 A 
ATOM     34  C   UNL     1       6.453   5.389   8.043  1.00  0.00     0.010 A 
ATOM     35  C   UNL     1       6.323   6.516   8.871  1.00  0.00    -0.014 A 
BRANCH  35  36
ATOM     36  C   UNL     1       6.555   6.423  10.340  1.00  0.00     0.031 A 
ATOM     37  C   UNL     1       7.928   6.149  10.894  1.00  0.00     0.074 A 
ATOM     38  C   UNL     1       5.519   6.581  11.189  1.00  0.00     0.049 A 
ATOM     39  N   UNL     1       8.312   6.059  12.144  1.00  0.00    -0.248 NA
ATOM     40  C   UNL     1       9.008   5.939   9.919  1.00  0.00     0.031 C 
ATOM     41  C   UNL     1       4.133   6.834  10.793  1.00  0.00     0.029 A 
ATOM     42  N   UNL     1       5.473   6.559  12.563  1.00  0.00    -0.354 N 
ATOM     43  C   UNL     1       9.672   5.777  12.106  1.00  0.00     0.074 A 
ATOM     44  C   UNL     1      10.037   5.666  10.710  1.00  0.00     0.031 C 
ATOM     45  C   UNL     1       3.379   6.971  11.895  1.00  0.00     0.029 A 
ATOM     46  C   UNL     1       4.216   6.775  13.075  1.00  0.00     0.049 A 
ATOM     47  H   UNL     1       6.264   6.402  13.126  1.00  0.00     0.167 HD
ATOM     48  C   UNL     1      10.543   5.636  13.136  1.00  0.00     0.031 A 
ATOM     49  C   UNL     1       3.779   6.807  14.349  1.00  0.00     0.031 A 
ATOM     50  C   UNL     1      10.184   5.734  14.528  1.00  0.00     0.049 A 
ATOM     51  C   UNL     1       4.757   6.602  15.473  1.00  0.00     0.074 A 
ATOM     52  C   UNL     1      11.008   5.647  15.638  1.00  0.00     0.029 A 
ATOM     53  N   UNL     1       8.896   5.928  15.002  1.00  0.00    -0.354 N 
ATOM     54  N   UNL     1       6.052   6.405  15.418  1.00  0.00    -0.248 NA
ATOM     55  C   UNL     1       4.213   6.635  16.839  1.00  0.00     0.031 C 
ATOM     56  C   UNL     1      10.210   5.724  16.784  1.00  0.00     0.029 A 
ATOM     57  C   UNL     1       8.899   5.930  16.389  1.00  0.00     0.049 A 
ATOM     58  H   UNL     1       8.098   6.046  14.438  1.00  0.00     0.167 HD
ATOM     59  C   UNL     1       6.480   6.322  16.737  1.00  0.00     0.074 A 
ATOM     60  C   UNL     1       5.311   6.508  17.570  1.00  0.00     0.031 C 
ATOM     61  C   UNL     1       7.731   6.113  17.213  1.00  0.00     0.031 A 
BRANCH  48  62
ATOM     62  C   UNL     1      11.979   5.339  12.796  1.00  0.00    -0.014 A 
ATOM     63  C   UNL     1      12.801   6.304  12.191  1.00  0.00     0.009 A 
ATOM     64  C   UNL     1      12.533   4.093  13.129  1.00  0.00     0.009 A 
ATOM     65  C   UNL     1      14.134   6.013  11.892  1.00  0.00     0.001 A 
ATOM     66  C   UNL     1      13.875   3.816  12.857  1.00  0.00     0.001 A 
ATOM     67  C   UNL     1      14.671   4.772  12.229  1.00  0.00     0.000 A 
ENDBRANCH  48  62
BRANCH  49  68
ATOM     68  C   UNL     1       2.339   7.045  14.638  1.00  0.00    -0.014 A 
ATOM     69  C   UNL     1       1.919   8.232  15.259  1.00  0.00     0.009 A 
ATOM     70  C   UNL     1       1.377   6.076  14.310  1.00  0.00     0.009 A 
ATOM     71  C   UNL     1       0.572   8.430  15.571  1.00  0.00     0.001 A 
ATOM     72  C   UNL     1       0.027   6.291  14.594  1.00  0.00     0.001 A 
ATOM     73  C   UNL     1      -0.373   7.462  15.234  1.00  0.00     0.000 A 
ENDBRANCH  49  68
BRANCH  61  74
ATOM     74  C   UNL     1       7.912   6.111  18.707  1.00  0.00    -0.014 A 
ATOM     75  C   UNL     1       7.418   5.068  19.506  1.00  0.00     0.009 A 
ATOM     76  C   UNL     1       8.620   7.157  19.321  1.00  0.00     0.009 A 
ATOM     77  C   UNL     1       7.598   5.091  20.891  1.00  0.00     0.001 A 
ATOM     78  C   UNL     1       8.828   7.161  20.701  1.00  0.00     0.001 A 
ATOM     79  C   UNL     1       8.308   6.134  21.486  1.00  0.00     0.000 A 
ENDBRANCH  61  74
ENDBRANCH  35  36
ENDBRANCH  27  30
ENDBRANCH  25  26
ENDBRANCH   1  25
TORSDOF 13
