REMARK SMILES O=C(NCCCNC(=O)c1ccc(-c2cccc(O)c2)cc1Cl)c1ccc(-c2c3nc(c(-c4ccccc4)c4ccc([nH]4)c(-c4ccccc4)c4nc(c(-c5ccccc5)c5ccc2[nH]5)C=C4)C=C3)cc1
REMARK SMILES IDX 5 1 4 2 3 3 1 4 2 5 24 7 25 8 71 9 26 10 70 11 27 12 28 13
REMARK SMILES IDX 29 14 64 15 30 16 69 17 63 18 65 19 31 20 68 21 62 22 61 23
REMARK SMILES IDX 32 25 54 26 39 27 53 28 40 29 43 30 52 31 66 32 41 33 42 34
REMARK SMILES IDX 51 36 67 37 44 38 33 39 34 40 38 41 35 42 37 43 36 44 55 45
REMARK SMILES IDX 56 46 60 47 57 48 59 49 58 50 45 51 46 52 50 53 47 54 49 55
REMARK SMILES IDX 48 56 6 57 7 58 8 59 9 61 10 62 11 63 22 64 12 65 21 66
REMARK SMILES IDX 23 67 13 68 14 69 15 70 20 71 16 72 18 73 17 74 19 75
REMARK H PARENT 3 6 65 24 43 35 7 60 19 76
REMARK Flexibility Score: inf
ROOT
ATOM      1  C   UNL     1       5.059   2.211   0.904  1.00  0.00     0.042 C 
ENDROOT
BRANCH   1   2
ATOM      2  C   UNL     1       4.624   0.762   1.042  1.00  0.00     0.118 C 
BRANCH   2   3
ATOM      3  N   UNL     1       3.184   0.591   0.899  1.00  0.00    -0.352 N 
ATOM      4  O   UNL     1       1.245   0.089  -0.136  1.00  0.00    -0.269 OA
ATOM      5  C   UNL     1       2.467  -0.032  -0.092  1.00  0.00     0.251 C 
ATOM      6  H   UNL     1       2.643   0.982   1.623  1.00  0.00     0.163 HD
BRANCH   5   7
ATOM      7  C   UNL     1       3.164  -0.840  -1.113  1.00  0.00     0.039 A 
ATOM      8  C   UNL     1       4.202  -1.700  -0.749  1.00  0.00     0.014 A 
ATOM      9  C   UNL     1       2.750  -0.766  -2.446  1.00  0.00     0.014 A 
ATOM     10  C   UNL     1       4.919  -2.374  -1.726  1.00  0.00     0.010 A 
ATOM     11  C   UNL     1       3.403  -1.530  -3.417  1.00  0.00     0.010 A 
ATOM     12  C   UNL     1       4.500  -2.331  -3.064  1.00  0.00    -0.014 A 
BRANCH  12  13
ATOM     13  C   UNL     1       5.133  -3.244  -4.044  1.00  0.00     0.031 A 
ATOM     14  C   UNL     1       5.905  -2.723  -5.220  1.00  0.00     0.074 A 
ATOM     15  C   UNL     1       4.988  -4.570  -3.851  1.00  0.00     0.049 A 
ATOM     16  N   UNL     1       6.491  -3.398  -6.176  1.00  0.00    -0.248 NA
ATOM     17  C   UNL     1       6.035  -1.263  -5.350  1.00  0.00     0.031 C 
ATOM     18  C   UNL     1       4.247  -5.187  -2.744  1.00  0.00     0.029 A 
ATOM     19  N   UNL     1       5.456  -5.640  -4.569  1.00  0.00    -0.354 N 
ATOM     20  C   UNL     1       7.036  -2.451  -7.033  1.00  0.00     0.074 A 
ATOM     21  C   UNL     1       6.705  -1.151  -6.491  1.00  0.00     0.031 C 
ATOM     22  C   UNL     1       4.337  -6.520  -2.840  1.00  0.00     0.029 A 
ATOM     23  C   UNL     1       5.069  -6.854  -4.053  1.00  0.00     0.049 A 
ATOM     24  H   UNL     1       6.013  -5.548  -5.375  1.00  0.00     0.167 HD
ATOM     25  C   UNL     1       7.742  -2.657  -8.170  1.00  0.00     0.031 A 
ATOM     26  C   UNL     1       5.244  -8.101  -4.525  1.00  0.00     0.031 A 
ATOM     27  C   UNL     1       8.070  -3.958  -8.694  1.00  0.00     0.049 A 
ATOM     28  C   UNL     1       5.987  -8.286  -5.814  1.00  0.00     0.074 A 
ATOM     29  C   UNL     1       8.841  -4.268  -9.802  1.00  0.00     0.029 A 
ATOM     30  N   UNL     1       7.633  -5.160  -8.162  1.00  0.00    -0.354 N 
ATOM     31  N   UNL     1       6.561  -7.383  -6.570  1.00  0.00    -0.248 NA
ATOM     32  C   UNL     1       6.099  -9.660  -6.320  1.00  0.00     0.031 C 
ATOM     33  C   UNL     1       8.811  -5.653  -9.981  1.00  0.00     0.029 A 
ATOM     34  C   UNL     1       8.073  -6.211  -8.949  1.00  0.00     0.049 A 
ATOM     35  H   UNL     1       7.091  -5.254  -7.345  1.00  0.00     0.167 HD
ATOM     36  C   UNL     1       7.109  -8.080  -7.637  1.00  0.00     0.074 A 
ATOM     37  C   UNL     1       6.828  -9.483  -7.412  1.00  0.00     0.031 C 
ATOM     38  C   UNL     1       7.777  -7.599  -8.713  1.00  0.00     0.031 A 
BRANCH  25  39
ATOM     39  C   UNL     1       8.186  -1.458  -8.960  1.00  0.00    -0.014 A 
ATOM     40  C   UNL     1       9.245  -0.645  -8.528  1.00  0.00     0.009 A 
ATOM     41  C   UNL     1       7.600  -1.202 -10.210  1.00  0.00     0.009 A 
ATOM     42  C   UNL     1       9.697   0.408  -9.328  1.00  0.00     0.001 A 
ATOM     43  C   UNL     1       8.069  -0.164 -11.017  1.00  0.00     0.001 A 
ATOM     44  C   UNL     1       9.115   0.642 -10.574  1.00  0.00     0.000 A 
ENDBRANCH  25  39
BRANCH  26  45
ATOM     45  C   UNL     1       4.646  -9.258  -3.811  1.00  0.00    -0.014 A 
ATOM     46  C   UNL     1       5.456 -10.233  -3.211  1.00  0.00     0.009 A 
ATOM     47  C   UNL     1       3.249  -9.399  -3.739  1.00  0.00     0.009 A 
ATOM     48  C   UNL     1       4.880 -11.341  -2.585  1.00  0.00     0.001 A 
ATOM     49  C   UNL     1       2.677 -10.487  -3.081  1.00  0.00     0.001 A 
ATOM     50  C   UNL     1       3.492 -11.465  -2.516  1.00  0.00     0.000 A 
ENDBRANCH  26  45
BRANCH  38  51
ATOM     51  C   UNL     1       8.255  -8.604  -9.721  1.00  0.00    -0.014 A 
ATOM     52  C   UNL     1       7.354  -9.248 -10.581  1.00  0.00     0.009 A 
ATOM     53  C   UNL     1       9.627  -8.876  -9.838  1.00  0.00     0.009 A 
ATOM     54  C   UNL     1       7.816 -10.168 -11.524  1.00  0.00     0.001 A 
ATOM     55  C   UNL     1      10.088  -9.773 -10.802  1.00  0.00     0.001 A 
ATOM     56  C   UNL     1       9.182 -10.424 -11.638  1.00  0.00     0.000 A 
ENDBRANCH  38  51
ENDBRANCH  12  13
ENDBRANCH   5   7
ENDBRANCH   2   3
ENDBRANCH   1   2
BRANCH   1  57
ATOM     57  C   UNL     1       4.521   3.113   2.001  1.00  0.00     0.118 C 
BRANCH  57  58
ATOM     58  N   UNL     1       5.000   2.732   3.323  1.00  0.00    -0.352 N 
ATOM     59  C   UNL     1       5.716   3.477   4.226  1.00  0.00     0.252 C 
ATOM     60  H   UNL     1       4.780   1.816   3.607  1.00  0.00     0.163 HD
ATOM     61  O   UNL     1       6.117   2.978   5.272  1.00  0.00    -0.269 OA
BRANCH  59  62
ATOM     62  C   UNL     1       6.072   4.863   3.889  1.00  0.00     0.058 A 
ATOM     63  C   UNL     1       7.430   5.147   3.726  1.00  0.00     0.016 A 
ATOM     64  C   UNL     1       5.115   5.857   3.680  1.00  0.00     0.054 A 
ATOM     65  C   UNL     1       7.823   6.407   3.271  1.00  0.00     0.009 A 
ATOM     66  C   UNL     1       5.515   7.102   3.188  1.00  0.00     0.030 A 
ATOM     67  Cl  UNL     1       3.431   5.619   3.990  1.00  0.00    -0.083 Cl
ATOM     68  C   UNL     1       6.872   7.395   2.959  1.00  0.00    -0.017 A 
BRANCH  68  69
ATOM     69  C   UNL     1       7.279   8.699   2.404  1.00  0.00    -0.015 A 
ATOM     70  C   UNL     1       6.701   9.897   2.859  1.00  0.00     0.009 A 
ATOM     71  C   UNL     1       8.249   8.784   1.390  1.00  0.00     0.054 A 
ATOM     72  C   UNL     1       7.077  11.132   2.324  1.00  0.00     0.004 A 
ATOM     73  C   UNL     1       8.626  10.018   0.868  1.00  0.00     0.116 A 
ATOM     74  C   UNL     1       8.046  11.195   1.325  1.00  0.00     0.046 A 
BRANCH  73  75
ATOM     75  O   UNL     1       9.580  10.028  -0.106  1.00  0.00    -0.508 OA
ATOM     76  H   UNL     1       9.859  10.840  -0.481  1.00  0.00     0.293 HD
ENDBRANCH  73  75
ENDBRANCH  68  69
ENDBRANCH  59  62
ENDBRANCH  57  58
ENDBRANCH   1  57
TORSDOF 12
