REMARK SMILES CC(C)c1cc(=O)[nH]c(SCC(=O)NCCCNC(=O)c2ccc(-c3c4nc(c(-c5ccccc5)c5ccc([nH]5)c(-c5ccccc5)c5nc(c(-c6ccccc6)c6ccc3[nH]6)C=C5)C=C4)cc2)n1
REMARK SMILES IDX 15 1 14 2 12 3 13 4 11 6 10 7 9 8 4 9 5 10 69 11 6 12 7 13
REMARK SMILES IDX 8 14 2 16 1 17 3 18 16 19 17 20 18 21 19 22 20 24 21 25
REMARK SMILES IDX 22 26 68 27 23 28 67 29 24 30 25 31 26 32 61 33 27 34 66 35
REMARK SMILES IDX 60 36 62 37 28 38 65 39 59 40 58 41 29 43 51 44 36 45 50 46
REMARK SMILES IDX 37 47 40 48 49 49 63 50 38 51 39 52 48 54 64 55 41 56 30 57
REMARK SMILES IDX 31 58 35 59 32 60 34 61 33 62 52 63 53 64 57 65 54 66 56 67
REMARK SMILES IDX 55 68 42 69 43 70 47 71 44 72 46 73 45 74
REMARK H PARENT 14 5 8 15 18 23 62 42 40 53
REMARK Flexibility Score: inf
ROOT
ATOM      1  C   UNL     1      -4.037  -3.086  -1.849  1.00  0.00     0.117 C 
ENDROOT
BRANCH   1   2
ATOM      2  N   UNL     1      -2.625  -2.876  -1.597  1.00  0.00    -0.355 N 
ATOM      3  C   UNL     1      -1.946  -2.722  -0.426  1.00  0.00     0.230 C 
ATOM      4  O   UNL     1      -0.715  -2.680  -0.506  1.00  0.00    -0.274 OA
ATOM      5  H   UNL     1      -2.064  -2.837  -2.405  1.00  0.00     0.163 HD
BRANCH   3   6
ATOM      6  C   UNL     1      -2.648  -2.749   0.919  1.00  0.00     0.178 C 
BRANCH   6   7
ATOM      7  S   UNL     1      -3.896  -1.464   1.163  1.00  0.00    -0.078 SA
BRANCH   7   8
ATOM      8  C   UNL     1      -2.968  -0.006   1.061  1.00  0.00     0.168 A 
ATOM      9  C   UNL     1      -1.085   1.279   0.922  1.00  0.00     0.051 A 
ATOM     10  C   UNL     1      -1.802   2.416   0.869  1.00  0.00     0.095 A 
ATOM     11  N   UNL     1      -1.682   0.036   1.035  1.00  0.00    -0.229 NA
ATOM     12  C   UNL     1      -3.267   2.338   0.935  1.00  0.00     0.251 A 
ATOM     13  O   UNL     1      -3.967   3.344   0.911  1.00  0.00    -0.269 OA
ATOM     14  N   UNL     1      -3.774   1.084   1.020  1.00  0.00    -0.301 N 
ATOM     15  H   UNL     1      -4.750   0.962   1.051  1.00  0.00     0.172 HD
BRANCH   9  16
ATOM     16  C   UNL     1       0.449   1.268   0.871  1.00  0.00     0.032 C 
ATOM     17  C   UNL     1       0.992   0.097   0.040  1.00  0.00     0.014 C 
ATOM     18  C   UNL     1       1.089   2.562   0.347  1.00  0.00     0.014 C 
ENDBRANCH   9  16
ENDBRANCH   7   8
ENDBRANCH   6   7
ENDBRANCH   3   6
ENDBRANCH   1   2
BRANCH   1  19
ATOM     19  C   UNL     1      -4.686  -1.870  -2.506  1.00  0.00     0.042 C 
BRANCH  19  20
ATOM     20  C   UNL     1      -4.119  -1.518  -3.881  1.00  0.00     0.118 C 
BRANCH  20  21
ATOM     21  N   UNL     1      -4.357  -2.554  -4.876  1.00  0.00    -0.352 N 
ATOM     22  C   UNL     1      -5.044  -2.512  -6.064  1.00  0.00     0.251 C 
ATOM     23  H   UNL     1      -3.959  -3.429  -4.662  1.00  0.00     0.163 HD
ATOM     24  O   UNL     1      -5.265  -3.557  -6.671  1.00  0.00    -0.269 OA
BRANCH  22  25
ATOM     25  C   UNL     1      -5.549  -1.232  -6.607  1.00  0.00     0.039 A 
ATOM     26  C   UNL     1      -6.834  -1.200  -7.159  1.00  0.00     0.014 A 
ATOM     27  C   UNL     1      -4.768  -0.073  -6.601  1.00  0.00     0.014 A 
ATOM     28  C   UNL     1      -7.365   0.006  -7.621  1.00  0.00     0.010 A 
ATOM     29  C   UNL     1      -5.324   1.143  -6.996  1.00  0.00     0.010 A 
ATOM     30  C   UNL     1      -6.633   1.198  -7.496  1.00  0.00    -0.014 A 
BRANCH  30  31
ATOM     31  C   UNL     1      -7.248   2.511  -7.827  1.00  0.00     0.031 A 
ATOM     32  C   UNL     1      -6.702   3.365  -8.937  1.00  0.00     0.074 A 
ATOM     33  C   UNL     1      -8.270   2.965  -7.073  1.00  0.00     0.049 A 
ATOM     34  N   UNL     1      -7.086   4.555  -9.326  1.00  0.00    -0.248 NA
ATOM     35  C   UNL     1      -5.566   2.821  -9.697  1.00  0.00     0.031 C 
ATOM     36  C   UNL     1      -8.872   2.251  -5.944  1.00  0.00     0.029 A 
ATOM     37  N   UNL     1      -8.981   4.137  -7.139  1.00  0.00    -0.354 N 
ATOM     38  C   UNL     1      -6.237   4.906 -10.367  1.00  0.00     0.074 A 
ATOM     39  C   UNL     1      -5.288   3.824 -10.519  1.00  0.00     0.031 C 
ATOM     40  C   UNL     1      -9.875   2.987  -5.442  1.00  0.00     0.029 A 
ATOM     41  C   UNL     1      -9.958   4.244  -6.178  1.00  0.00     0.049 A 
ATOM     42  H   UNL     1      -8.807   4.836  -7.811  1.00  0.00     0.167 HD
ATOM     43  C   UNL     1      -6.253   6.021 -11.137  1.00  0.00     0.031 A 
ATOM     44  C   UNL     1     -10.816   5.245  -5.907  1.00  0.00     0.031 A 
ATOM     45  C   UNL     1      -7.192   7.103 -10.981  1.00  0.00     0.049 A 
ATOM     46  C   UNL     1     -10.784   6.489  -6.749  1.00  0.00     0.074 A 
ATOM     47  C   UNL     1      -7.319   8.249 -11.747  1.00  0.00     0.029 A 
ATOM     48  N   UNL     1      -8.156   7.178  -9.988  1.00  0.00    -0.354 N 
ATOM     49  N   UNL     1     -10.023   6.772  -7.778  1.00  0.00    -0.248 NA
ATOM     50  C   UNL     1     -11.739   7.550  -6.396  1.00  0.00     0.031 C 
ATOM     51  C   UNL     1      -8.316   9.048 -11.178  1.00  0.00     0.029 A 
ATOM     52  C   UNL     1      -8.857   8.368 -10.099  1.00  0.00     0.049 A 
ATOM     53  H   UNL     1      -8.319   6.488  -9.305  1.00  0.00     0.167 HD
ATOM     54  C   UNL     1     -10.422   8.030  -8.209  1.00  0.00     0.074 A 
ATOM     55  C   UNL     1     -11.508   8.445  -7.346  1.00  0.00     0.031 C 
ATOM     56  C   UNL     1      -9.931   8.775  -9.229  1.00  0.00     0.031 A 
BRANCH  43  57
ATOM     57  C   UNL     1      -5.209   6.139 -12.214  1.00  0.00    -0.014 A 
ATOM     58  C   UNL     1      -5.238   5.317 -13.352  1.00  0.00     0.009 A 
ATOM     59  C   UNL     1      -4.211   7.122 -12.115  1.00  0.00     0.009 A 
ATOM     60  C   UNL     1      -4.270   5.453 -14.349  1.00  0.00     0.001 A 
ATOM     61  C   UNL     1      -3.263   7.277 -13.128  1.00  0.00     0.001 A 
ATOM     62  C   UNL     1      -3.287   6.436 -14.240  1.00  0.00     0.000 A 
ENDBRANCH  43  57
BRANCH  44  63
ATOM     63  C   UNL     1     -11.781   5.116  -4.782  1.00  0.00    -0.014 A 
ATOM     64  C   UNL     1     -13.157   5.004  -5.032  1.00  0.00     0.009 A 
ATOM     65  C   UNL     1     -11.331   5.115  -3.453  1.00  0.00     0.009 A 
ATOM     66  C   UNL     1     -14.065   4.925  -3.972  1.00  0.00     0.001 A 
ATOM     67  C   UNL     1     -12.237   5.002  -2.397  1.00  0.00     0.001 A 
ATOM     68  C   UNL     1     -13.604   4.918  -2.657  1.00  0.00     0.000 A 
ENDBRANCH  44  63
BRANCH  56  69
ATOM     69  C   UNL     1     -10.585  10.105  -9.485  1.00  0.00    -0.014 A 
ATOM     70  C   UNL     1     -10.424  11.182  -8.599  1.00  0.00     0.009 A 
ATOM     71  C   UNL     1     -11.349  10.292 -10.648  1.00  0.00     0.009 A 
ATOM     72  C   UNL     1     -11.046  12.406  -8.854  1.00  0.00     0.001 A 
ATOM     73  C   UNL     1     -11.941  11.527 -10.917  1.00  0.00     0.001 A 
ATOM     74  C   UNL     1     -11.799  12.579 -10.015  1.00  0.00     0.000 A 
ENDBRANCH  56  69
ENDBRANCH  30  31
ENDBRANCH  22  25
ENDBRANCH  20  21
ENDBRANCH  19  20
ENDBRANCH   1  19
TORSDOF 13
