REMARK SMILES O=C(NCCCNC(=O)[C@@H]1CC2(CC[NH2+]CC2)C[N@@H+]1Cc1cccc2nonc12)c1ccc(-c2c3nc(c(-c4ccccc4)c4ccc([nH]4)c(-c4ccccc4)c4nc(c(-c5ccccc5)c5ccc2[nH]5)C=C4)C=C3)cc1
REMARK SMILES IDX 5 1 4 2 3 3 1 4 2 5 30 7 31 8 77 9 32 10 76 11 33 12 34 13
REMARK SMILES IDX 35 14 70 15 36 16 75 17 69 18 71 19 37 20 74 21 68 22 67 23
REMARK SMILES IDX 38 25 60 26 45 27 59 28 46 29 49 30 58 31 72 32 47 33 48 34
REMARK SMILES IDX 57 36 73 37 50 38 39 39 40 40 44 41 41 42 43 43 42 44 61 45
REMARK SMILES IDX 62 46 66 47 63 48 65 49 64 50 51 51 52 52 56 53 53 54 55 55
REMARK SMILES IDX 54 56 6 57 7 58 8 59 9 61 10 62 11 63 19 64 12 65 18 66
REMARK SMILES IDX 13 68 17 69 14 70 16 71 15 72 20 75 21 76 22 77 29 78 23 79
REMARK SMILES IDX 25 80 28 81 24 82 26 83 27 84
REMARK H PARENT 3 6 71 24 49 35 7 60 19 67 15 73 15 74
REMARK Flexibility Score: inf
ROOT
ATOM      1  C   UNL     1       5.981  -1.640  -0.195  1.00  0.00     0.042 C 
ENDROOT
BRANCH   1   2
ATOM      2  C   UNL     1       5.065  -0.402  -0.132  1.00  0.00     0.118 C 
BRANCH   2   3
ATOM      3  N   UNL     1       3.667  -0.728   0.090  1.00  0.00    -0.352 N 
ATOM      4  O   UNL     1       1.550  -0.653   0.788  1.00  0.00    -0.269 OA
ATOM      5  C   UNL     1       2.640  -0.084   0.730  1.00  0.00     0.251 C 
ATOM      6  H   UNL     1       3.402  -1.592  -0.300  1.00  0.00     0.163 HD
BRANCH   5   7
ATOM      7  C   UNL     1       2.772   1.251   1.365  1.00  0.00     0.039 A 
ATOM      8  C   UNL     1       1.993   1.488   2.509  1.00  0.00     0.014 A 
ATOM      9  C   UNL     1       3.527   2.296   0.828  1.00  0.00     0.014 A 
ATOM     10  C   UNL     1       2.022   2.728   3.148  1.00  0.00     0.010 A 
ATOM     11  C   UNL     1       3.566   3.538   1.476  1.00  0.00     0.010 A 
ATOM     12  C   UNL     1       2.836   3.752   2.653  1.00  0.00    -0.014 A 
BRANCH  12  13
ATOM     13  C   UNL     1       2.998   4.958   3.491  1.00  0.00     0.031 A 
ATOM     14  C   UNL     1       4.419   5.330   3.778  1.00  0.00     0.074 A 
ATOM     15  C   UNL     1       2.067   5.934   3.548  1.00  0.00     0.049 A 
ATOM     16  N   UNL     1       5.161   5.996   2.939  1.00  0.00    -0.248 NA
ATOM     17  C   UNL     1       5.165   4.751   4.895  1.00  0.00     0.031 C 
ATOM     18  C   UNL     1       1.272   6.361   2.390  1.00  0.00     0.029 A 
ATOM     19  N   UNL     1       1.829   6.900   4.498  1.00  0.00    -0.354 N 
ATOM     20  C   UNL     1       6.471   5.885   3.372  1.00  0.00     0.074 A 
ATOM     21  C   UNL     1       6.423   5.111   4.593  1.00  0.00     0.031 C 
ATOM     22  C   UNL     1       0.790   7.598   2.633  1.00  0.00     0.029 A 
ATOM     23  C   UNL     1       1.097   7.979   4.009  1.00  0.00     0.049 A 
ATOM     24  H   UNL     1       2.144   6.835   5.429  1.00  0.00     0.167 HD
ATOM     25  C   UNL     1       7.524   6.433   2.707  1.00  0.00     0.031 A 
ATOM     26  C   UNL     1       1.203   9.255   4.473  1.00  0.00     0.031 A 
ATOM     27  C   UNL     1       7.191   7.207   1.549  1.00  0.00     0.049 A 
ATOM     28  C   UNL     1       2.525   9.663   3.863  1.00  0.00     0.074 A 
ATOM     29  C   UNL     1       7.181   7.062   0.179  1.00  0.00     0.029 A 
ATOM     30  N   UNL     1       6.727   8.483   1.757  1.00  0.00    -0.354 N 
ATOM     31  N   UNL     1       2.744  10.030   2.627  1.00  0.00    -0.248 NA
ATOM     32  C   UNL     1       3.728   9.286   4.608  1.00  0.00     0.031 C 
ATOM     33  C   UNL     1       6.288   8.071  -0.304  1.00  0.00     0.029 A 
ATOM     34  C   UNL     1       5.772   8.732   0.810  1.00  0.00     0.049 A 
ATOM     35  H   UNL     1       7.027   9.104   2.459  1.00  0.00     0.167 HD
ATOM     36  C   UNL     1       4.056   9.636   2.351  1.00  0.00     0.074 A 
ATOM     37  C   UNL     1       4.606   9.202   3.620  1.00  0.00     0.031 C 
ATOM     38  C   UNL     1       4.576   9.498   1.094  1.00  0.00     0.031 A 
BRANCH  25  39
ATOM     39  C   UNL     1       8.919   6.427   3.198  1.00  0.00    -0.014 A 
ATOM     40  C   UNL     1       9.770   5.329   3.039  1.00  0.00     0.009 A 
ATOM     41  C   UNL     1       9.450   7.637   3.676  1.00  0.00     0.009 A 
ATOM     42  C   UNL     1      11.133   5.454   3.334  1.00  0.00     0.001 A 
ATOM     43  C   UNL     1      10.808   7.763   3.958  1.00  0.00     0.001 A 
ATOM     44  C   UNL     1      11.651   6.672   3.780  1.00  0.00     0.000 A 
ENDBRANCH  25  39
BRANCH  26  45
ATOM     45  C   UNL     1       0.881   9.421   5.933  1.00  0.00    -0.014 A 
ATOM     46  C   UNL     1       1.718  10.013   6.891  1.00  0.00     0.009 A 
ATOM     47  C   UNL     1      -0.356   8.920   6.390  1.00  0.00     0.009 A 
ATOM     48  C   UNL     1       1.412   9.951   8.258  1.00  0.00     0.001 A 
ATOM     49  C   UNL     1      -0.681   8.889   7.750  1.00  0.00     0.001 A 
ATOM     50  C   UNL     1       0.223   9.372   8.689  1.00  0.00     0.000 A 
ENDBRANCH  26  45
BRANCH  38  51
ATOM     51  C   UNL     1       3.756   9.993  -0.054  1.00  0.00    -0.014 A 
ATOM     52  C   UNL     1       3.294   9.107  -1.042  1.00  0.00     0.009 A 
ATOM     53  C   UNL     1       3.559  11.367  -0.234  1.00  0.00     0.009 A 
ATOM     54  C   UNL     1       2.718   9.590  -2.218  1.00  0.00     0.001 A 
ATOM     55  C   UNL     1       2.964  11.849  -1.401  1.00  0.00     0.001 A 
ATOM     56  C   UNL     1       2.563  10.962  -2.401  1.00  0.00     0.000 A 
ENDBRANCH  38  51
ENDBRANCH  12  13
ENDBRANCH   5   7
ENDBRANCH   2   3
ENDBRANCH   1   2
BRANCH   1  57
ATOM     57  C   UNL     1       5.695  -2.692  -1.281  1.00  0.00     0.118 C 
BRANCH  57  58
ATOM     58  N   UNL     1       5.893  -2.237  -2.648  1.00  0.00    -0.351 N 
ATOM     59  C   UNL     1       5.841  -2.946  -3.826  1.00  0.00     0.278 C 
ATOM     60  H   UNL     1       6.095  -1.278  -2.745  1.00  0.00     0.163 HD
ATOM     61  O   UNL     1       5.906  -2.297  -4.875  1.00  0.00    -0.268 OA
BRANCH  59  62
ATOM     62  C   UNL     1       5.726  -4.487  -3.815  1.00  0.00     0.275 C 
ATOM     63  C   UNL     1       6.418  -5.135  -5.055  1.00  0.00     0.089 C 
ATOM     64  N   UNL     1       4.360  -5.002  -3.908  1.00  0.00    -0.320 N 
ATOM     65  C   UNL     1       5.298  -5.805  -5.893  1.00  0.00     0.036 C 
ATOM     66  C   UNL     1       4.268  -6.129  -4.804  1.00  0.00     0.270 C 
ATOM     67  H   UNL     1       4.081  -4.792  -2.950  1.00  0.00     0.349 HD
ATOM     68  C   UNL     1       5.725  -7.104  -6.606  1.00  0.00     0.074 C 
ATOM     69  C   UNL     1       4.709  -4.829  -6.945  1.00  0.00     0.074 C 
ATOM     70  C   UNL     1       6.535  -6.866  -7.879  1.00  0.00     0.261 C 
ATOM     71  C   UNL     1       5.567  -4.694  -8.203  1.00  0.00     0.261 C 
ATOM     72  N   UNL     1       5.827  -5.996  -8.816  1.00  0.00    -0.346 N 
ATOM     73  H   UNL     1       4.941  -6.430  -9.074  1.00  0.00     0.346 HD
ATOM     74  H   UNL     1       6.405  -5.863  -9.646  1.00  0.00     0.346 HD
BRANCH  64  75
ATOM     75  C   UNL     1       3.171  -4.433  -3.325  1.00  0.00     0.302 C 
BRANCH  75  76
ATOM     76  C   UNL     1       2.583  -3.315  -4.139  1.00  0.00     0.038 A 
ATOM     77  C   UNL     1       1.980  -3.539  -5.403  1.00  0.00     0.012 A 
ATOM     78  C   UNL     1       2.599  -1.948  -3.784  1.00  0.00     0.144 A 
ATOM     79  C   UNL     1       1.540  -2.508  -6.276  1.00  0.00     0.003 A 
ATOM     80  C   UNL     1       2.150  -0.888  -4.678  1.00  0.00     0.135 A 
ATOM     81  N   UNL     1       2.996  -1.373  -2.644  1.00  0.00    -0.049 NA
ATOM     82  C   UNL     1       1.632  -1.145  -5.957  1.00  0.00     0.034 A 
ATOM     83  N   UNL     1       2.330   0.288  -4.067  1.00  0.00    -0.050 NA
ATOM     84  O   UNL     1       2.833  -0.012  -2.818  1.00  0.00    -0.243 OA
ENDBRANCH  75  76
ENDBRANCH  64  75
ENDBRANCH  59  62
ENDBRANCH  57  58
ENDBRANCH   1  57
TORSDOF 12
