REMARK SMILES CC[C@@H](C(=O)Nc1ccc(OC(C)=O)cc1C(=O)NCCCNC(=O)c1ccc(-c2c3nc(c(-c4ccccc4)c4ccc([nH]4)c(-c4ccccc4)c4nc(c(-c5ccccc5)c5ccc2[nH]5)C=C4)C=C3)cc1)c1ccccc1
REMARK SMILES IDX 20 1 19 2 17 3 18 4 16 6 7 7 8 8 9 9 15 10 10 11 6 12 4 13
REMARK SMILES IDX 5 14 3 16 2 17 1 18 74 19 75 20 79 21 76 22 78 23 77 24
REMARK SMILES IDX 11 25 12 26 13 27 14 28 21 29 22 30 23 31 24 32 25 34 26 35
REMARK SMILES IDX 27 36 73 37 28 38 72 39 29 40 30 41 31 42 66 43 32 44 71 45
REMARK SMILES IDX 65 46 67 47 33 48 70 49 64 50 63 51 34 53 56 54 41 55 55 56
REMARK SMILES IDX 42 57 45 58 54 59 68 60 43 61 44 62 53 64 69 65 46 66 35 67
REMARK SMILES IDX 36 68 40 69 37 70 39 71 38 72 57 73 58 74 62 75 59 76 61 77
REMARK SMILES IDX 60 78 47 79 48 80 52 81 49 82 51 83 50 84
REMARK H PARENT 19 5 6 15 23 33 67 52 45 63
REMARK Flexibility Score: inf
ROOT
ATOM      1  C   UNL     1      -1.038   1.368  -2.171  1.00  0.00     0.118 C 
ENDROOT
BRANCH   1   2
ATOM      2  N   UNL     1      -1.132   0.574  -0.961  1.00  0.00    -0.352 N 
ATOM      3  C   UNL     1      -0.266  -0.281  -0.350  1.00  0.00     0.253 C 
ATOM      4  O   UNL     1      -0.645  -0.784   0.711  1.00  0.00    -0.269 OA
ATOM      5  H   UNL     1      -1.990   0.673  -0.489  1.00  0.00     0.163 HD
BRANCH   3   6
ATOM      6  C   UNL     1       1.054  -0.692  -0.892  1.00  0.00     0.067 A 
ATOM      7  C   UNL     1       1.982   0.052  -1.639  1.00  0.00     0.054 A 
ATOM      8  C   UNL     1       3.083  -0.616  -2.219  1.00  0.00     0.031 A 
ATOM      9  C   UNL     1       3.381  -1.940  -1.907  1.00  0.00     0.049 A 
ATOM     10  C   UNL     1       1.357  -2.043  -0.602  1.00  0.00     0.063 A 
ATOM     11  C   UNL     1       2.540  -2.622  -1.046  1.00  0.00     0.131 A 
BRANCH   7  12
ATOM     12  N   UNL     1       1.960   1.411  -1.955  1.00  0.00    -0.325 N 
ATOM     13  C   UNL     1       1.870   2.596  -1.305  1.00  0.00     0.231 C 
ATOM     14  O   UNL     1       1.800   3.542  -2.112  1.00  0.00    -0.274 OA
ATOM     15  H   UNL     1       2.030   1.547  -2.927  1.00  0.00     0.169 HD
BRANCH  13  16
ATOM     16  C   UNL     1       2.020   2.899   0.211  1.00  0.00     0.108 C 
BRANCH  16  17
ATOM     17  C   UNL     1       1.916   1.779   1.253  1.00  0.00     0.015 C 
ATOM     18  C   UNL     1       3.155   0.907   1.371  1.00  0.00     0.005 C 
ENDBRANCH  16  17
BRANCH  16  19
ATOM     19  C   UNL     1       1.166   4.129   0.607  1.00  0.00    -0.036 A 
ATOM     20  C   UNL     1       1.507   5.394   0.087  1.00  0.00     0.004 A 
ATOM     21  C   UNL     1       0.077   4.066   1.494  1.00  0.00     0.004 A 
ATOM     22  C   UNL     1       0.800   6.544   0.441  1.00  0.00     0.000 A 
ATOM     23  C   UNL     1      -0.606   5.226   1.879  1.00  0.00     0.000 A 
ATOM     24  C   UNL     1      -0.246   6.463   1.351  1.00  0.00     0.000 A 
ENDBRANCH  16  19
ENDBRANCH  13  16
ENDBRANCH   7  12
BRANCH  11  25
ATOM     25  O   UNL     1       2.880  -3.933  -0.690  1.00  0.00    -0.427 OA
BRANCH  25  26
ATOM     26  C   UNL     1       3.520  -4.163   0.527  1.00  0.00     0.308 C 
ATOM     27  C   UNL     1       3.120  -3.276   1.674  1.00  0.00     0.139 C 
ATOM     28  O   UNL     1       4.309  -5.094   0.663  1.00  0.00    -0.252 OA
ENDBRANCH  25  26
ENDBRANCH  11  25
ENDBRANCH   3   6
ENDBRANCH   1   2
BRANCH   1  29
ATOM     29  C   UNL     1      -2.372   1.974  -2.569  1.00  0.00     0.042 C 
BRANCH  29  30
ATOM     30  C   UNL     1      -2.896   2.947  -1.512  1.00  0.00     0.118 C 
BRANCH  30  31
ATOM     31  N   UNL     1      -2.269   4.266  -1.538  1.00  0.00    -0.352 N 
ATOM     32  C   UNL     1      -2.719   5.469  -2.046  1.00  0.00     0.251 C 
ATOM     33  H   UNL     1      -1.377   4.304  -1.124  1.00  0.00     0.163 HD
ATOM     34  O   UNL     1      -2.017   6.463  -2.036  1.00  0.00    -0.269 OA
BRANCH  32  35
ATOM     35  C   UNL     1      -4.057   5.532  -2.671  1.00  0.00     0.039 A 
ATOM     36  C   UNL     1      -4.190   6.129  -3.926  1.00  0.00     0.014 A 
ATOM     37  C   UNL     1      -5.159   4.947  -2.054  1.00  0.00     0.014 A 
ATOM     38  C   UNL     1      -5.397   6.012  -4.618  1.00  0.00     0.010 A 
ATOM     39  C   UNL     1      -6.303   4.703  -2.799  1.00  0.00     0.010 A 
ATOM     40  C   UNL     1      -6.437   5.228  -4.093  1.00  0.00    -0.014 A 
BRANCH  40  41
ATOM     41  C   UNL     1      -7.670   4.928  -4.866  1.00  0.00     0.031 A 
ATOM     42  C   UNL     1      -9.020   5.241  -4.277  1.00  0.00     0.074 A 
ATOM     43  C   UNL     1      -7.586   4.270  -6.040  1.00  0.00     0.049 A 
ATOM     44  N   UNL     1     -10.209   4.905  -4.708  1.00  0.00    -0.248 NA
ATOM     45  C   UNL     1      -9.030   5.979  -3.002  1.00  0.00     0.031 C 
ATOM     46  C   UNL     1      -6.348   3.844  -6.697  1.00  0.00     0.029 A 
ATOM     47  N   UNL     1      -8.574   3.838  -6.890  1.00  0.00    -0.354 N 
ATOM     48  C   UNL     1     -11.096   5.336  -3.729  1.00  0.00     0.074 A 
ATOM     49  C   UNL     1     -10.307   5.906  -2.661  1.00  0.00     0.031 C 
ATOM     50  C   UNL     1      -6.647   3.261  -7.870  1.00  0.00     0.029 A 
ATOM     51  C   UNL     1      -8.096   3.226  -8.024  1.00  0.00     0.049 A 
ATOM     52  H   UNL     1      -9.533   3.955  -6.705  1.00  0.00     0.167 HD
ATOM     53  C   UNL     1     -12.449   5.288  -3.728  1.00  0.00     0.031 A 
ATOM     54  C   UNL     1      -8.753   2.696  -9.073  1.00  0.00     0.031 A 
ATOM     55  C   UNL     1     -13.237   4.788  -4.819  1.00  0.00     0.049 A 
ATOM     56  C   UNL     1     -10.254   2.717  -9.084  1.00  0.00     0.074 A 
ATOM     57  C   UNL     1     -14.614   4.777  -4.958  1.00  0.00     0.029 A 
ATOM     58  N   UNL     1     -12.712   4.227  -5.973  1.00  0.00    -0.354 N 
ATOM     59  N   UNL     1     -11.079   3.173  -8.173  1.00  0.00    -0.248 NA
ATOM     60  C   UNL     1     -10.913   2.156 -10.272  1.00  0.00     0.031 C 
ATOM     61  C   UNL     1     -14.922   4.188  -6.189  1.00  0.00     0.029 A 
ATOM     62  C   UNL     1     -13.736   3.865  -6.829  1.00  0.00     0.049 A 
ATOM     63  H   UNL     1     -11.752   4.105  -6.156  1.00  0.00     0.167 HD
ATOM     64  C   UNL     1     -12.354   2.976  -8.687  1.00  0.00     0.074 A 
ATOM     65  C   UNL     1     -12.192   2.370  -9.993  1.00  0.00     0.031 C 
ATOM     66  C   UNL     1     -13.552   3.270  -8.126  1.00  0.00     0.031 A 
BRANCH  53  67
ATOM     67  C   UNL     1     -13.150   5.806  -2.502  1.00  0.00    -0.014 A 
ATOM     68  C   UNL     1     -13.149   7.174  -2.186  1.00  0.00     0.009 A 
ATOM     69  C   UNL     1     -13.808   4.911  -1.645  1.00  0.00     0.009 A 
ATOM     70  C   UNL     1     -13.742   7.628  -1.007  1.00  0.00     0.001 A 
ATOM     71  C   UNL     1     -14.429   5.373  -0.482  1.00  0.00     0.001 A 
ATOM     72  C   UNL     1     -14.383   6.728  -0.157  1.00  0.00     0.000 A 
ENDBRANCH  53  67
BRANCH  54  73
ATOM     73  C   UNL     1      -7.992   2.147 -10.224  1.00  0.00    -0.014 A 
ATOM     74  C   UNL     1      -7.921   2.869 -11.425  1.00  0.00     0.009 A 
ATOM     75  C   UNL     1      -7.329   0.914 -10.131  1.00  0.00     0.009 A 
ATOM     76  C   UNL     1      -7.218   2.358 -12.518  1.00  0.00     0.001 A 
ATOM     77  C   UNL     1      -6.608   0.416 -11.219  1.00  0.00     0.001 A 
ATOM     78  C   UNL     1      -6.559   1.135 -12.413  1.00  0.00     0.000 A 
ENDBRANCH  54  73
BRANCH  66  79
ATOM     79  C   UNL     1     -14.777   2.975  -8.939  1.00  0.00    -0.014 A 
ATOM     80  C   UNL     1     -15.250   1.662  -9.087  1.00  0.00     0.009 A 
ATOM     81  C   UNL     1     -15.492   4.031  -9.524  1.00  0.00     0.009 A 
ATOM     82  C   UNL     1     -16.405   1.411  -9.828  1.00  0.00     0.001 A 
ATOM     83  C   UNL     1     -16.659   3.779 -10.245  1.00  0.00     0.001 A 
ATOM     84  C   UNL     1     -17.111   2.469 -10.402  1.00  0.00     0.000 A 
ENDBRANCH  66  79
ENDBRANCH  40  41
ENDBRANCH  32  35
ENDBRANCH  30  31
ENDBRANCH  29  30
ENDBRANCH   1  29
TORSDOF 16
