REMARK SMILES CN(C(=O)N(CC(=O)NCCCNC(=O)c1ccc(-c2c3nc(c(-c4ccccc4)c4ccc([nH]4)c(-c4ccccc4)c4nc(c(-c5ccccc5)c5ccc2[nH]5)C=C4)C=C3)cc1)C(C)(C)C)C1CCCCCC1
REMARK SMILES IDX 7 1 8 2 9 3 6 5 5 6 3 7 4 8 2 9 1 10 68 11 69 12 70 13 71 14
REMARK SMILES IDX 74 16 73 17 72 18 64 20 65 21 66 22 67 23 10 24 11 25 12 26
REMARK SMILES IDX 13 27 14 28 15 30 16 31 17 32 63 33 18 34 62 35 19 36 20 37
REMARK SMILES IDX 21 38 56 39 22 40 61 41 55 42 57 43 23 44 60 45 54 46 53 47
REMARK SMILES IDX 24 49 46 50 31 51 45 52 32 53 35 54 44 55 58 56 33 57 34 58
REMARK SMILES IDX 43 60 59 61 36 62 25 63 26 64 30 65 27 66 29 67 28 68 47 69
REMARK SMILES IDX 48 70 52 71 49 72 51 73 50 74 37 75 38 76 42 77 39 78 41 79
REMARK SMILES IDX 40 80
REMARK H PARENT 9 4 13 29 57 48 35 59
REMARK Flexibility Score: 80.00
ROOT
ATOM      1  C   UNL     1      -1.556   1.482  -2.095  1.00  0.00     0.239 C 
ATOM      2  O   UNL     1      -1.794   2.021  -3.179  1.00  0.00    -0.273 OA
ATOM      3  N   UNL     1      -2.313   0.407  -1.742  1.00  0.00    -0.354 N 
ATOM      4  H   UNL     1      -3.095   0.231  -2.315  1.00  0.00     0.163 HD
ENDROOT
BRANCH   1   5
ATOM      5  C   UNL     1      -0.357   1.901  -1.236  1.00  0.00     0.221 C 
BRANCH   5   6
ATOM      6  N   UNL     1      -0.624   2.389   0.133  1.00  0.00    -0.311 N 
BRANCH   6   7
ATOM      7  C   UNL     1      -0.353   1.696   1.321  1.00  0.00     0.320 C 
ATOM      8  O   UNL     1      -1.025   1.976   2.314  1.00  0.00    -0.248 OA
BRANCH   7   9
ATOM      9  N   UNL     1       0.650   0.735   1.423  1.00  0.00    -0.325 N 
ATOM     10  C   UNL     1       1.702   0.506   0.437  1.00  0.00     0.149 C 
BRANCH   9  11
ATOM     11  C   UNL     1       0.836  -0.100   2.675  1.00  0.00     0.086 C 
BRANCH  11  12
ATOM     12  C   UNL     1       0.152   0.337   3.991  1.00  0.00     0.025 C 
BRANCH  12  13
ATOM     13  C   UNL     1      -1.275  -0.190   4.171  1.00  0.00     0.002 C 
BRANCH  13  14
ATOM     14  C   UNL     1      -1.323  -1.509   4.938  1.00  0.00     0.000 CG0
ATOM     15  G   UNL     1      -0.745  -2.716   4.204  1.00  0.00     0.000 G0
ENDBRANCH  13  14
ENDBRANCH  12  13
ENDBRANCH  11  12
BRANCH  11  16
ATOM     16  C   UNL     1       0.644  -1.604   2.367  1.00  0.00     0.025 C 
BRANCH  16  17
ATOM     17  C   UNL     1       0.643  -2.527   3.592  1.00  0.00     0.002 C 
BRANCH  17  18
ATOM     18  C   UNL     1      -0.745  -2.716   4.204  1.00  0.00     0.000 CG0
ATOM     19  G   UNL     1      -1.323  -1.509   4.938  1.00  0.00     0.000 G0
ENDBRANCH  17  18
ENDBRANCH  16  17
ENDBRANCH  11  16
ENDBRANCH   9  11
ENDBRANCH   7   9
ENDBRANCH   6   7
BRANCH   6  20
ATOM     20  C   UNL     1      -1.395   3.709   0.262  1.00  0.00     0.037 C 
ATOM     21  C   UNL     1      -2.833   3.509   0.802  1.00  0.00     0.034 C 
ATOM     22  C   UNL     1      -0.617   4.682   1.184  1.00  0.00     0.034 C 
ATOM     23  C   UNL     1      -1.577   4.488  -1.070  1.00  0.00     0.034 C 
ENDBRANCH   6  20
ENDBRANCH   5   6
ENDBRANCH   1   5
BRANCH   3  24
ATOM     24  C   UNL     1      -2.128  -0.513  -0.640  1.00  0.00     0.117 C 
BRANCH  24  25
ATOM     25  C   UNL     1      -3.169  -0.331   0.454  1.00  0.00     0.042 C 
BRANCH  25  26
ATOM     26  C   UNL     1      -4.596  -0.560  -0.023  1.00  0.00     0.118 C 
BRANCH  26  27
ATOM     27  N   UNL     1      -4.819  -1.944  -0.416  1.00  0.00    -0.352 N 
ATOM     28  C   UNL     1      -5.733  -2.849   0.060  1.00  0.00     0.251 C 
ATOM     29  H   UNL     1      -4.228  -2.279  -1.128  1.00  0.00     0.163 HD
ATOM     30  O   UNL     1      -5.612  -4.038  -0.215  1.00  0.00    -0.269 OA
BRANCH  28  31
ATOM     31  C   UNL     1      -6.857  -2.397   0.906  1.00  0.00     0.039 A 
ATOM     32  C   UNL     1      -7.235  -3.181   1.998  1.00  0.00     0.014 A 
ATOM     33  C   UNL     1      -7.563  -1.229   0.604  1.00  0.00     0.014 A 
ATOM     34  C   UNL     1      -8.292  -2.772   2.812  1.00  0.00     0.010 A 
ATOM     35  C   UNL     1      -8.567  -0.783   1.458  1.00  0.00     0.010 A 
ATOM     36  C   UNL     1      -8.951  -1.556   2.562  1.00  0.00    -0.014 A 
BRANCH  36  37
ATOM     37  C   UNL     1     -10.049  -1.088   3.444  1.00  0.00     0.031 A 
ATOM     38  C   UNL     1     -11.448  -0.954   2.908  1.00  0.00     0.074 A 
ATOM     39  C   UNL     1      -9.776  -0.739   4.716  1.00  0.00     0.049 A 
ATOM     40  N   UNL     1     -12.528  -0.536   3.519  1.00  0.00    -0.248 NA
ATOM     41  C   UNL     1     -11.658  -1.311   1.496  1.00  0.00     0.031 C 
ATOM     42  C   UNL     1      -8.453  -0.783   5.342  1.00  0.00     0.029 A 
ATOM     43  N   UNL     1     -10.600  -0.276   5.710  1.00  0.00    -0.354 N 
ATOM     44  C   UNL     1     -13.537  -0.567   2.565  1.00  0.00     0.074 A 
ATOM     45  C   UNL     1     -12.932  -0.995   1.323  1.00  0.00     0.031 C 
ATOM     46  C   UNL     1      -8.561  -0.394   6.623  1.00  0.00     0.029 A 
ATOM     47  C   UNL     1      -9.950  -0.038   6.896  1.00  0.00     0.049 A 
ATOM     48  H   UNL     1     -11.565  -0.128   5.585  1.00  0.00     0.167 HD
ATOM     49  C   UNL     1     -14.853  -0.283   2.712  1.00  0.00     0.031 A 
ATOM     50  C   UNL     1     -10.418   0.418   8.072  1.00  0.00     0.031 A 
ATOM     51  C   UNL     1     -15.458   0.133   3.949  1.00  0.00     0.049 A 
ATOM     52  C   UNL     1     -11.881   0.732   8.208  1.00  0.00     0.074 A 
ATOM     53  C   UNL     1     -16.792   0.389   4.214  1.00  0.00     0.029 A 
ATOM     54  N   UNL     1     -14.765   0.358   5.129  1.00  0.00    -0.354 N 
ATOM     55  N   UNL     1     -12.835   0.629   7.314  1.00  0.00    -0.248 NA
ATOM     56  C   UNL     1     -12.333   1.214   9.520  1.00  0.00     0.031 C 
ATOM     57  C   UNL     1     -16.900   0.816   5.542  1.00  0.00     0.029 A 
ATOM     58  C   UNL     1     -15.641   0.772   6.118  1.00  0.00     0.049 A 
ATOM     59  H   UNL     1     -13.795   0.240   5.246  1.00  0.00     0.167 HD
ATOM     60  C   UNL     1     -14.003   1.008   7.963  1.00  0.00     0.074 A 
ATOM     61  C   UNL     1     -13.640   1.325   9.329  1.00  0.00     0.031 C 
ATOM     62  C   UNL     1     -15.264   1.087   7.471  1.00  0.00     0.031 A 
BRANCH  49  63
ATOM     63  C   UNL     1     -15.729  -0.409   1.496  1.00  0.00    -0.014 A 
ATOM     64  C   UNL     1     -16.037  -1.665   0.949  1.00  0.00     0.009 A 
ATOM     65  C   UNL     1     -16.281   0.741   0.910  1.00  0.00     0.009 A 
ATOM     66  C   UNL     1     -16.851  -1.763  -0.182  1.00  0.00     0.001 A 
ATOM     67  C   UNL     1     -17.118   0.637  -0.203  1.00  0.00     0.001 A 
ATOM     68  C   UNL     1     -17.394  -0.614  -0.754  1.00  0.00     0.000 A 
ENDBRANCH  49  63
BRANCH  50  69
ATOM     69  C   UNL     1      -9.496   0.587   9.225  1.00  0.00    -0.014 A 
ATOM     70  C   UNL     1      -9.574  -0.275  10.330  1.00  0.00     0.009 A 
ATOM     71  C   UNL     1      -8.538   1.612   9.229  1.00  0.00     0.009 A 
ATOM     72  C   UNL     1      -8.729  -0.097  11.427  1.00  0.00     0.001 A 
ATOM     73  C   UNL     1      -7.675   1.770  10.316  1.00  0.00     0.001 A 
ATOM     74  C   UNL     1      -7.777   0.922  11.417  1.00  0.00     0.000 A 
ENDBRANCH  50  69
BRANCH  62  75
ATOM     75  C   UNL     1     -16.346   1.503   8.427  1.00  0.00    -0.014 A 
ATOM     76  C   UNL     1     -16.450   2.827   8.881  1.00  0.00     0.009 A 
ATOM     77  C   UNL     1     -17.294   0.560   8.855  1.00  0.00     0.009 A 
ATOM     78  C   UNL     1     -17.460   3.189   9.773  1.00  0.00     0.001 A 
ATOM     79  C   UNL     1     -18.321   0.932   9.724  1.00  0.00     0.001 A 
ATOM     80  C   UNL     1     -18.397   2.244  10.190  1.00  0.00     0.000 A 
ENDBRANCH  62  75
ENDBRANCH  36  37
ENDBRANCH  28  31
ENDBRANCH  26  27
ENDBRANCH  25  26
ENDBRANCH  24  25
ENDBRANCH   3  24
TORSDOF 15
