REMARK SMILES C[C@@H](OC[C@@H]1CCCCO1)c1ccc(C(=O)NCCCNC(=O)c2ccc(-c3c4nc(c(-c5ccccc5)c5ccc([nH]5)c(-c5ccccc5)c5nc(c(-c6ccccc6)c6ccc3[nH]6)C=C5)C=C4)cc2)o1
REMARK SMILES IDX 18 1 17 2 15 3 16 4 14 6 11 7 12 8 72 9 13 10 2 11 1 12 3 13
REMARK SMILES IDX 4 14 5 15 6 16 10 17 7 18 9 19 8 20 19 21 20 22 21 23 22 24
REMARK SMILES IDX 23 26 24 27 25 28 71 29 26 30 70 31 27 32 28 33 29 34 64 35
REMARK SMILES IDX 30 36 69 37 63 38 65 39 31 40 68 41 62 42 61 43 32 45 54 46
REMARK SMILES IDX 39 47 53 48 40 49 43 50 52 51 66 52 41 53 42 54 51 56 67 57
REMARK SMILES IDX 44 58 33 59 34 60 38 61 35 62 37 63 36 64 55 65 56 66 60 67
REMARK SMILES IDX 57 68 59 69 58 70 45 71 46 72 50 73 47 74 49 75 48 76
REMARK H PARENT 17 5 21 25 65 44 43 55
REMARK Flexibility Score: inf
ROOT
ATOM      1  C   UNL     1      -5.864   0.940   0.014  1.00  0.00     0.118 C 
ENDROOT
BRANCH   1   2
ATOM      2  N   UNL     1      -5.182   2.174   0.354  1.00  0.00    -0.349 N 
ATOM      3  C   UNL     1      -3.837   2.423   0.515  1.00  0.00     0.286 C 
ATOM      4  O   UNL     1      -3.518   3.613   0.611  1.00  0.00    -0.266 OA
ATOM      5  H   UNL     1      -5.770   2.951   0.492  1.00  0.00     0.163 HD
BRANCH   3   6
ATOM      6  C   UNL     1      -2.879   1.335   0.566  1.00  0.00     0.191 A 
ATOM      7  C   UNL     1      -0.846   0.478   0.331  1.00  0.00     0.133 A 
ATOM      8  C   UNL     1      -1.641  -0.535   0.822  1.00  0.00     0.049 A 
ATOM      9  O   UNL     1      -1.595   1.607   0.167  1.00  0.00    -0.453 OA
ATOM     10  C   UNL     1      -2.935   0.016   0.985  1.00  0.00     0.056 A 
BRANCH   7  11
ATOM     11  C   UNL     1       0.618   0.548   0.014  1.00  0.00     0.181 C 
ATOM     12  C   UNL     1       0.901  -0.032  -1.367  1.00  0.00     0.047 C 
BRANCH  11  13
ATOM     13  O   UNL     1       1.008   1.919   0.101  1.00  0.00    -0.368 OA
BRANCH  13  14
ATOM     14  C   UNL     1       2.403   2.150   0.265  1.00  0.00     0.193 C 
BRANCH  14  15
ATOM     15  C   UNL     1       2.825   2.554   1.696  1.00  0.00     0.144 C 
ATOM     16  C   UNL     1       2.370   1.623   2.826  1.00  0.00     0.034 C 
ATOM     17  O   UNL     1       2.518   3.923   1.995  1.00  0.00    -0.376 OA
ATOM     18  C   UNL     1       0.956   1.895   3.324  1.00  0.00     0.005 C 
ATOM     19  C   UNL     1       1.147   4.170   2.302  1.00  0.00     0.160 C 
ATOM     20  C   UNL     1       0.724   3.383   3.532  1.00  0.00     0.029 C 
ENDBRANCH  14  15
ENDBRANCH  13  14
ENDBRANCH  11  13
ENDBRANCH   7  11
ENDBRANCH   3   6
ENDBRANCH   1   2
BRANCH   1  21
ATOM     21  C   UNL     1      -6.541   0.302   1.225  1.00  0.00     0.042 C 
BRANCH  21  22
ATOM     22  C   UNL     1      -7.872   0.951   1.603  1.00  0.00     0.118 C 
BRANCH  22  23
ATOM     23  N   UNL     1      -8.906   0.696   0.611  1.00  0.00    -0.352 N 
ATOM     24  C   UNL     1     -10.131   0.090   0.725  1.00  0.00     0.251 C 
ATOM     25  H   UNL     1      -8.690   1.013  -0.296  1.00  0.00     0.163 HD
ATOM     26  O   UNL     1     -10.748  -0.202  -0.297  1.00  0.00    -0.269 OA
BRANCH  24  27
ATOM     27  C   UNL     1     -10.725  -0.224   2.045  1.00  0.00     0.039 A 
ATOM     28  C   UNL     1     -11.469  -1.403   2.175  1.00  0.00     0.014 A 
ATOM     29  C   UNL     1     -10.637   0.660   3.124  1.00  0.00     0.014 A 
ATOM     30  C   UNL     1     -12.085  -1.715   3.390  1.00  0.00     0.010 A 
ATOM     31  C   UNL     1     -11.203   0.321   4.354  1.00  0.00     0.010 A 
ATOM     32  C   UNL     1     -11.941  -0.864   4.497  1.00  0.00    -0.014 A 
BRANCH  32  33
ATOM     33  C   UNL     1     -12.566  -1.194   5.802  1.00  0.00     0.031 A 
ATOM     34  C   UNL     1     -13.680  -0.344   6.349  1.00  0.00     0.074 A 
ATOM     35  C   UNL     1     -12.099  -2.231   6.523  1.00  0.00     0.049 A 
ATOM     36  N   UNL     1     -14.307  -0.441   7.495  1.00  0.00    -0.248 NA
ATOM     37  C   UNL     1     -14.136   0.774   5.508  1.00  0.00     0.031 C 
ATOM     38  C   UNL     1     -11.005  -3.117   6.122  1.00  0.00     0.029 A 
ATOM     39  N   UNL     1     -12.483  -2.709   7.751  1.00  0.00    -0.354 N 
ATOM     40  C   UNL     1     -15.211   0.613   7.522  1.00  0.00     0.074 A 
ATOM     41  C   UNL     1     -15.030   1.357   6.294  1.00  0.00     0.031 C 
ATOM     42  C   UNL     1     -10.820  -4.043   7.077  1.00  0.00     0.029 A 
ATOM     43  C   UNL     1     -11.757  -3.797   8.168  1.00  0.00     0.049 A 
ATOM     44  H   UNL     1     -13.210  -2.310   8.281  1.00  0.00     0.167 HD
ATOM     45  C   UNL     1     -16.120   0.929   8.476  1.00  0.00     0.031 A 
ATOM     46  C   UNL     1     -11.834  -4.515   9.304  1.00  0.00     0.031 A 
ATOM     47  C   UNL     1     -16.319   0.182   9.690  1.00  0.00     0.049 A 
ATOM     48  C   UNL     1     -12.856  -4.151  10.342  1.00  0.00     0.074 A 
ATOM     49  C   UNL     1     -17.251   0.396  10.691  1.00  0.00     0.029 A 
ATOM     50  N   UNL     1     -15.575  -0.924  10.065  1.00  0.00    -0.354 N 
ATOM     51  N   UNL     1     -13.736  -3.180  10.329  1.00  0.00    -0.248 NA
ATOM     52  C   UNL     1     -12.902  -4.992  11.547  1.00  0.00     0.031 C 
ATOM     53  C   UNL     1     -17.048  -0.564  11.690  1.00  0.00     0.029 A 
ATOM     54  C   UNL     1     -16.017  -1.397  11.289  1.00  0.00     0.049 A 
ATOM     55  H   UNL     1     -14.841  -1.316   9.539  1.00  0.00     0.167 HD
ATOM     56  C   UNL     1     -14.456  -3.307  11.510  1.00  0.00     0.074 A 
ATOM     57  C   UNL     1     -13.918  -4.456  12.209  1.00  0.00     0.031 C 
ATOM     58  C   UNL     1     -15.473  -2.541  11.972  1.00  0.00     0.031 A 
BRANCH  45  59
ATOM     59  C   UNL     1     -16.967   2.148   8.244  1.00  0.00    -0.014 A 
ATOM     60  C   UNL     1     -17.997   2.145   7.290  1.00  0.00     0.009 A 
ATOM     61  C   UNL     1     -16.752   3.304   9.010  1.00  0.00     0.009 A 
ATOM     62  C   UNL     1     -18.771   3.289   7.083  1.00  0.00     0.001 A 
ATOM     63  C   UNL     1     -17.544   4.438   8.818  1.00  0.00     0.001 A 
ATOM     64  C   UNL     1     -18.546   4.432   7.848  1.00  0.00     0.000 A 
ENDBRANCH  45  59
BRANCH  46  65
ATOM     65  C   UNL     1     -10.924  -5.670   9.512  1.00  0.00    -0.014 A 
ATOM     66  C   UNL     1     -11.412  -6.981   9.412  1.00  0.00     0.009 A 
ATOM     67  C   UNL     1      -9.568  -5.467   9.808  1.00  0.00     0.009 A 
ATOM     68  C   UNL     1     -10.562  -8.069   9.626  1.00  0.00     0.001 A 
ATOM     69  C   UNL     1      -8.716  -6.556  10.000  1.00  0.00     0.001 A 
ATOM     70  C   UNL     1      -9.215  -7.856   9.916  1.00  0.00     0.000 A 
ENDBRANCH  46  65
BRANCH  58  71
ATOM     71  C   UNL     1     -16.089  -2.941  13.280  1.00  0.00    -0.014 A 
ATOM     72  C   UNL     1     -15.432  -2.701  14.496  1.00  0.00     0.009 A 
ATOM     73  C   UNL     1     -17.358  -3.539  13.296  1.00  0.00     0.009 A 
ATOM     74  C   UNL     1     -16.022  -3.081  15.703  1.00  0.00     0.001 A 
ATOM     75  C   UNL     1     -17.956  -3.897  14.505  1.00  0.00     0.001 A 
ATOM     76  C   UNL     1     -17.284  -3.675  15.707  1.00  0.00     0.000 A 
ENDBRANCH  58  71
ENDBRANCH  32  33
ENDBRANCH  24  27
ENDBRANCH  22  23
ENDBRANCH  21  22
ENDBRANCH   1  21
TORSDOF 14
