REMARK SMILES C[C@H](Nc1ccc2c(c1)Cc1ccccc1-2)[C@@H](C)C(=O)NCCCNC(=O)c1ccc(-c2c3nc(c(-c4ccccc4)c4ccc([nH]4)c(-c4ccccc4)c4nc(c(-c5ccccc5)c5ccc2[nH]5)C=C4)C=C3)cc1
REMARK SMILES IDX 22 1 21 2 19 3 20 4 17 6 18 7 2 8 1 9 3 10 4 12 5 13 9 14
REMARK SMILES IDX 6 15 8 16 7 17 10 18 16 19 11 20 15 21 12 22 14 23 13 24
REMARK SMILES IDX 23 25 24 26 25 27 26 28 27 30 28 31 29 32 75 33 30 34 74 35
REMARK SMILES IDX 31 36 32 37 33 38 68 39 34 40 73 41 67 42 69 43 35 44 72 45
REMARK SMILES IDX 66 46 65 47 36 49 58 50 43 51 57 52 44 53 47 54 56 55 70 56
REMARK SMILES IDX 45 57 46 58 55 60 71 61 48 62 37 63 38 64 42 65 39 66 41 67
REMARK SMILES IDX 40 68 59 69 60 70 64 71 61 72 63 73 62 74 49 75 50 76 54 77
REMARK SMILES IDX 51 78 53 79 52 80
REMARK H PARENT 21 5 3 11 25 29 69 48 47 59
REMARK Flexibility Score: inf
ROOT
ATOM      1  C   UNL     1      -0.627  -2.414   3.315  1.00  0.00     0.117 C 
ENDROOT
BRANCH   1   2
ATOM      2  N   UNL     1      -1.433  -1.223   3.520  1.00  0.00    -0.356 N 
ATOM      3  C   UNL     1      -1.644  -0.115   2.761  1.00  0.00     0.224 C 
ATOM      4  O   UNL     1      -2.407   0.737   3.227  1.00  0.00    -0.275 OA
ATOM      5  H   UNL     1      -1.923  -1.218   4.375  1.00  0.00     0.163 HD
BRANCH   3   6
ATOM      6  C   UNL     1      -0.996   0.101   1.394  1.00  0.00     0.097 C 
ATOM      7  C   UNL     1      -1.582  -0.885   0.379  1.00  0.00     0.020 C 
BRANCH   6   8
ATOM      8  C   UNL     1       0.548   0.142   1.464  1.00  0.00     0.088 C 
ATOM      9  C   UNL     1       1.020   1.184   2.480  1.00  0.00     0.031 C 
BRANCH   8  10
ATOM     10  N   UNL     1       1.134   0.267   0.117  1.00  0.00    -0.382 N 
ATOM     11  H   UNL     1       1.208  -0.575  -0.388  1.00  0.00     0.160 HD
BRANCH  10  12
ATOM     12  C   UNL     1       1.593   1.392  -0.539  1.00  0.00     0.035 A 
ATOM     13  C   UNL     1       2.518   2.289   0.026  1.00  0.00     0.026 A 
ATOM     14  C   UNL     1       1.129   1.653  -1.839  1.00  0.00     0.030 A 
ATOM     15  C   UNL     1       2.969   3.432  -0.648  1.00  0.00     0.011 A 
ATOM     16  C   UNL     1       1.586   2.777  -2.515  1.00  0.00    -0.034 A 
ATOM     17  C   UNL     1       2.494   3.671  -1.920  1.00  0.00    -0.014 A 
ATOM     18  C   UNL     1       1.246   3.235  -3.920  1.00  0.00     0.072 C 
ATOM     19  C   UNL     1       2.785   4.738  -2.851  1.00  0.00    -0.015 A 
ATOM     20  C   UNL     1       2.068   4.503  -4.044  1.00  0.00    -0.036 A 
ATOM     21  C   UNL     1       3.599   5.851  -2.723  1.00  0.00     0.009 A 
ATOM     22  C   UNL     1       2.164   5.365  -5.123  1.00  0.00     0.005 A 
ATOM     23  C   UNL     1       3.697   6.729  -3.806  1.00  0.00     0.001 A 
ATOM     24  C   UNL     1       2.989   6.486  -4.996  1.00  0.00     0.000 A 
ENDBRANCH  10  12
ENDBRANCH   8  10
ENDBRANCH   6   8
ENDBRANCH   3   6
ENDBRANCH   1   2
BRANCH   1  25
ATOM     25  C   UNL     1       0.653  -2.410   4.147  1.00  0.00     0.042 C 
BRANCH  25  26
ATOM     26  C   UNL     1       0.427  -2.450   5.654  1.00  0.00     0.118 C 
BRANCH  26  27
ATOM     27  N   UNL     1      -0.204  -3.686   6.094  1.00  0.00    -0.352 N 
ATOM     28  C   UNL     1       0.270  -4.695   6.891  1.00  0.00     0.251 C 
ATOM     29  H   UNL     1      -1.122  -3.819   5.764  1.00  0.00     0.163 HD
ATOM     30  O   UNL     1      -0.369  -5.749   6.969  1.00  0.00    -0.269 OA
BRANCH  28  31
ATOM     31  C   UNL     1       1.533  -4.554   7.647  1.00  0.00     0.039 A 
ATOM     32  C   UNL     1       2.384  -5.659   7.748  1.00  0.00     0.014 A 
ATOM     33  C   UNL     1       1.863  -3.364   8.301  1.00  0.00     0.014 A 
ATOM     34  C   UNL     1       3.588  -5.554   8.449  1.00  0.00     0.010 A 
ATOM     35  C   UNL     1       3.098  -3.236   8.935  1.00  0.00     0.010 A 
ATOM     36  C   UNL     1       3.970  -4.331   9.021  1.00  0.00    -0.014 A 
BRANCH  36  37
ATOM     37  C   UNL     1       5.272  -4.178   9.719  1.00  0.00     0.031 A 
ATOM     38  C   UNL     1       5.313  -3.862  11.190  1.00  0.00     0.074 A 
ATOM     39  C   UNL     1       6.419  -4.256   9.017  1.00  0.00     0.049 A 
ATOM     40  N   UNL     1       6.349  -3.619  11.953  1.00  0.00    -0.248 NA
ATOM     41  C   UNL     1       4.020  -3.785  11.888  1.00  0.00     0.031 C 
ATOM     42  C   UNL     1       6.518  -4.520   7.580  1.00  0.00     0.029 A 
ATOM     43  N   UNL     1       7.723  -4.111   9.419  1.00  0.00    -0.354 N 
ATOM     44  C   UNL     1       5.831  -3.336  13.211  1.00  0.00     0.074 A 
ATOM     45  C   UNL     1       4.390  -3.397  13.099  1.00  0.00     0.031 C 
ATOM     46  C   UNL     1       7.813  -4.543   7.226  1.00  0.00     0.029 A 
ATOM     47  C   UNL     1       8.632  -4.258   8.400  1.00  0.00     0.049 A 
ATOM     48  H   UNL     1       7.982  -3.920  10.350  1.00  0.00     0.167 HD
ATOM     49  C   UNL     1       6.494  -3.066  14.361  1.00  0.00     0.031 A 
ATOM     50  C   UNL     1       9.975  -4.167   8.407  1.00  0.00     0.031 A 
ATOM     51  C   UNL     1       7.927  -3.023  14.481  1.00  0.00     0.049 A 
ATOM     52  C   UNL     1      10.688  -3.866   9.694  1.00  0.00     0.074 A 
ATOM     53  C   UNL     1       8.692  -2.817  15.617  1.00  0.00     0.029 A 
ATOM     54  N   UNL     1       8.811  -3.191  13.427  1.00  0.00    -0.354 N 
ATOM     55  N   UNL     1      10.185  -3.659  10.887  1.00  0.00    -0.248 NA
ATOM     56  C   UNL     1      12.155  -3.796   9.636  1.00  0.00     0.031 C 
ATOM     57  C   UNL     1      10.040  -2.820  15.241  1.00  0.00     0.029 A 
ATOM     58  C   UNL     1      10.114  -3.074  13.881  1.00  0.00     0.049 A 
ATOM     59  H   UNL     1       8.551  -3.367  12.494  1.00  0.00     0.167 HD
ATOM     60  C   UNL     1      11.274  -3.459  11.726  1.00  0.00     0.074 A 
ATOM     61  C   UNL     1      12.463  -3.583  10.908  1.00  0.00     0.031 C 
ATOM     62  C   UNL     1      11.286  -3.198  13.055  1.00  0.00     0.031 A 
BRANCH  49  63
ATOM     63  C   UNL     1       5.666  -2.788  15.585  1.00  0.00    -0.014 A 
ATOM     64  C   UNL     1       4.948  -3.810  16.225  1.00  0.00     0.009 A 
ATOM     65  C   UNL     1       5.624  -1.491  16.119  1.00  0.00     0.009 A 
ATOM     66  C   UNL     1       4.172  -3.531  17.352  1.00  0.00     0.001 A 
ATOM     67  C   UNL     1       4.869  -1.220  17.262  1.00  0.00     0.001 A 
ATOM     68  C   UNL     1       4.136  -2.237  17.872  1.00  0.00     0.000 A 
ENDBRANCH  49  63
BRANCH  50  69
ATOM     69  C   UNL     1      10.738  -4.386   7.152  1.00  0.00    -0.014 A 
ATOM     70  C   UNL     1      11.482  -5.562   6.972  1.00  0.00     0.009 A 
ATOM     71  C   UNL     1      10.725  -3.426   6.128  1.00  0.00     0.009 A 
ATOM     72  C   UNL     1      12.215  -5.763   5.800  1.00  0.00     0.001 A 
ATOM     73  C   UNL     1      11.438  -3.641   4.947  1.00  0.00     0.001 A 
ATOM     74  C   UNL     1      12.189  -4.805   4.788  1.00  0.00     0.000 A 
ENDBRANCH  50  69
BRANCH  62  75
ATOM     75  C   UNL     1      12.629  -3.061  13.714  1.00  0.00    -0.014 A 
ATOM     76  C   UNL     1      13.419  -1.917  13.524  1.00  0.00     0.009 A 
ATOM     77  C   UNL     1      13.091  -4.077  14.565  1.00  0.00     0.009 A 
ATOM     78  C   UNL     1      14.661  -1.807  14.151  1.00  0.00     0.001 A 
ATOM     79  C   UNL     1      14.322  -3.952  15.211  1.00  0.00     0.001 A 
ATOM     80  C   UNL     1      15.109  -2.822  14.997  1.00  0.00     0.000 A 
ENDBRANCH  62  75
ENDBRANCH  36  37
ENDBRANCH  28  31
ENDBRANCH  26  27
ENDBRANCH  25  26
ENDBRANCH   1  25
TORSDOF 13
