REMARK SMILES O=C(NCCCNC(=O)[C@H]1C[C@H]2CCCC[C@@H]2[N@@H+]1C1CCSCC1)c1ccc(-c2c3nc(c(-c4ccccc4)c4ccc([nH]4)c(-c4ccccc4)c4nc(c(-c5ccccc5)c5ccc2[nH]5)C=C4)C=C3)cc1
REMARK SMILES IDX 4 1 3 2 1 3 2 4 25 6 26 7 72 8 27 9 71 10 28 11 29 12 30 13
REMARK SMILES IDX 65 14 31 15 70 16 64 17 66 18 32 19 69 20 63 21 62 22 33 24
REMARK SMILES IDX 55 25 40 26 54 27 41 28 44 29 53 30 67 31 42 32 43 33 52 35
REMARK SMILES IDX 68 36 45 37 34 38 35 39 39 40 36 41 38 42 37 43 56 44 57 45
REMARK SMILES IDX 61 46 58 47 60 48 59 49 46 50 47 51 51 52 48 53 50 54 49 55
REMARK SMILES IDX 5 56 6 57 7 58 8 59 9 61 10 62 11 63 18 64 12 65 17 66 13 68
REMARK SMILES IDX 16 69 14 70 15 71 19 72 20 73 24 74 21 75 23 76 22 77
REMARK H PARENT 3 5 66 23 44 34 7 60 18 67
REMARK Flexibility Score: inf
ROOT
ATOM      1  C   UNL     1       4.980  -3.381   2.044  1.00  0.00     0.118 C 
ENDROOT
BRANCH   1   2
ATOM      2  N   UNL     1       4.798  -1.936   2.180  1.00  0.00    -0.352 N 
ATOM      3  O   UNL     1       3.734   0.010   2.541  1.00  0.00    -0.269 OA
ATOM      4  C   UNL     1       3.794  -1.194   2.763  1.00  0.00     0.251 C 
ATOM      5  H   UNL     1       5.521  -1.398   1.784  1.00  0.00     0.163 HD
BRANCH   4   6
ATOM      6  C   UNL     1       2.779  -1.834   3.631  1.00  0.00     0.039 A 
ATOM      7  C   UNL     1       3.111  -2.912   4.444  1.00  0.00     0.014 A 
ATOM      8  C   UNL     1       1.473  -1.330   3.662  1.00  0.00     0.014 A 
ATOM      9  C   UNL     1       2.115  -3.627   5.090  1.00  0.00     0.010 A 
ATOM     10  C   UNL     1       0.496  -1.961   4.443  1.00  0.00     0.010 A 
ATOM     11  C   UNL     1       0.797  -3.149   5.125  1.00  0.00    -0.014 A 
BRANCH  11  12
ATOM     12  C   UNL     1      -0.209  -3.898   5.925  1.00  0.00     0.031 A 
ATOM     13  C   UNL     1      -1.447  -4.474   5.290  1.00  0.00     0.074 A 
ATOM     14  C   UNL     1       0.041  -4.122   7.232  1.00  0.00     0.049 A 
ATOM     15  N   UNL     1      -2.381  -5.215   5.835  1.00  0.00    -0.248 NA
ATOM     16  C   UNL     1      -1.677  -4.176   3.868  1.00  0.00     0.031 C 
ATOM     17  C   UNL     1       1.205  -3.615   7.968  1.00  0.00     0.029 A 
ATOM     18  N   UNL     1      -0.634  -4.869   8.163  1.00  0.00    -0.354 N 
ATOM     19  C   UNL     1      -3.321  -5.440   4.837  1.00  0.00     0.074 A 
ATOM     20  C   UNL     1      -2.859  -4.740   3.658  1.00  0.00     0.031 C 
ATOM     21  C   UNL     1       1.211  -4.138   9.200  1.00  0.00     0.029 A 
ATOM     22  C   UNL     1       0.009  -4.941   9.376  1.00  0.00     0.049 A 
ATOM     23  H   UNL     1      -1.494  -5.310   7.980  1.00  0.00     0.167 HD
ATOM     24  C   UNL     1      -4.465  -6.166   4.895  1.00  0.00     0.031 A 
ATOM     25  C   UNL     1      -0.332  -5.572  10.514  1.00  0.00     0.031 A 
ATOM     26  C   UNL     1      -4.917  -6.873   6.066  1.00  0.00     0.049 A 
ATOM     27  C   UNL     1      -1.612  -6.351  10.554  1.00  0.00     0.074 A 
ATOM     28  C   UNL     1      -6.045  -7.662   6.215  1.00  0.00     0.029 A 
ATOM     29  N   UNL     1      -4.264  -6.875   7.290  1.00  0.00    -0.354 N 
ATOM     30  N   UNL     1      -2.475  -6.572   9.592  1.00  0.00    -0.248 NA
ATOM     31  C   UNL     1      -1.965  -6.967  11.839  1.00  0.00     0.031 C 
ATOM     32  C   UNL     1      -6.104  -8.095   7.544  1.00  0.00     0.029 A 
ATOM     33  C   UNL     1      -4.979  -7.632   8.205  1.00  0.00     0.049 A 
ATOM     34  H   UNL     1      -3.418  -6.409   7.480  1.00  0.00     0.167 HD
ATOM     35  C   UNL     1      -3.461  -7.373  10.149  1.00  0.00     0.074 A 
ATOM     36  C   UNL     1      -3.077  -7.616  11.525  1.00  0.00     0.031 C 
ATOM     37  C   UNL     1      -4.585  -7.863   9.571  1.00  0.00     0.031 A 
BRANCH  24  38
ATOM     38  C   UNL     1      -5.333  -6.200   3.666  1.00  0.00    -0.014 A 
ATOM     39  C   UNL     1      -4.946  -6.894   2.508  1.00  0.00     0.009 A 
ATOM     40  C   UNL     1      -6.580  -5.555   3.682  1.00  0.00     0.009 A 
ATOM     41  C   UNL     1      -5.774  -6.909   1.381  1.00  0.00     0.001 A 
ATOM     42  C   UNL     1      -7.419  -5.597   2.566  1.00  0.00     0.001 A 
ATOM     43  C   UNL     1      -7.011  -6.265   1.413  1.00  0.00     0.000 A 
ENDBRANCH  24  38
BRANCH  25  44
ATOM     44  C   UNL     1       0.548  -5.480  11.708  1.00  0.00    -0.014 A 
ATOM     45  C   UNL     1       1.227  -6.611  12.187  1.00  0.00     0.009 A 
ATOM     46  C   UNL     1       0.717  -4.256  12.375  1.00  0.00     0.009 A 
ATOM     47  C   UNL     1       2.035  -6.522  13.323  1.00  0.00     0.001 A 
ATOM     48  C   UNL     1       1.553  -4.162  13.488  1.00  0.00     0.001 A 
ATOM     49  C   UNL     1       2.203  -5.297  13.968  1.00  0.00     0.000 A 
ENDBRANCH  25  44
BRANCH  37  50
ATOM     50  C   UNL     1      -5.450  -8.753  10.419  1.00  0.00    -0.014 A 
ATOM     51  C   UNL     1      -6.201  -8.244  11.490  1.00  0.00     0.009 A 
ATOM     52  C   UNL     1      -5.521 -10.125  10.129  1.00  0.00     0.009 A 
ATOM     53  C   UNL     1      -6.970  -9.099  12.282  1.00  0.00     0.001 A 
ATOM     54  C   UNL     1      -6.316 -10.972  10.902  1.00  0.00     0.001 A 
ATOM     55  C   UNL     1      -7.029 -10.461  11.985  1.00  0.00     0.000 A 
ENDBRANCH  37  50
ENDBRANCH  11  12
ENDBRANCH   4   6
ENDBRANCH   1   2
BRANCH   1  56
ATOM     56  C   UNL     1       4.647  -3.859   0.643  1.00  0.00     0.042 C 
BRANCH  56  57
ATOM     57  C   UNL     1       5.743  -3.509  -0.351  1.00  0.00     0.118 C 
BRANCH  57  58
ATOM     58  N   UNL     1       6.782  -4.505  -0.376  1.00  0.00    -0.351 N 
ATOM     59  C   UNL     1       7.047  -5.446  -1.330  1.00  0.00     0.278 C 
ATOM     60  H   UNL     1       7.386  -4.508   0.401  1.00  0.00     0.163 HD
ATOM     61  O   UNL     1       7.952  -6.242  -1.060  1.00  0.00    -0.268 OA
BRANCH  59  62
ATOM     62  C   UNL     1       6.259  -5.474  -2.692  1.00  0.00     0.275 C 
ATOM     63  C   UNL     1       7.061  -6.351  -3.693  1.00  0.00     0.085 C 
ATOM     64  N   UNL     1       4.937  -6.146  -2.497  1.00  0.00    -0.320 N 
ATOM     65  C   UNL     1       6.168  -7.549  -3.954  1.00  0.00     0.054 C 
ATOM     66  C   UNL     1       5.256  -7.577  -2.731  1.00  0.00     0.188 C 
ATOM     67  H   UNL     1       4.594  -5.919  -1.564  1.00  0.00     0.349 HD
ATOM     68  C   UNL     1       6.825  -8.900  -4.193  1.00  0.00     0.010 C 
ATOM     69  C   UNL     1       4.151  -8.627  -2.878  1.00  0.00     0.065 C 
ATOM     70  C   UNL     1       5.730  -9.960  -4.377  1.00  0.00     0.001 C 
ATOM     71  C   UNL     1       4.760 -10.001  -3.191  1.00  0.00     0.006 C 
BRANCH  64  72
ATOM     72  C   UNL     1       3.706  -5.649  -3.174  1.00  0.00     0.186 C 
ATOM     73  C   UNL     1       3.154  -4.291  -2.680  1.00  0.00     0.076 C 
ATOM     74  C   UNL     1       3.540  -5.711  -4.707  1.00  0.00     0.076 C 
ATOM     75  C   UNL     1       3.698  -3.022  -3.331  1.00  0.00     0.075 C 
ATOM     76  C   UNL     1       4.258  -4.621  -5.482  1.00  0.00     0.075 C 
ATOM     77  S   UNL     1       3.514  -3.007  -5.130  1.00  0.00    -0.162 SA
ENDBRANCH  64  72
ENDBRANCH  59  62
ENDBRANCH  57  58
ENDBRANCH  56  57
ENDBRANCH   1  56
TORSDOF 11
