REMARK SMILES Cc1[nH]c(=O)sc1S(=O)(=O)N[C@@H]1CCCCC[C@@H]1C(=O)NCCCNC(=O)c1ccc(-c2c3nc(c(-c4ccccc4)c4ccc([nH]4)c(-c4ccccc4)c4nc(c(-c5ccccc5)c5ccc2[nH]5)C=C4)C=C3)cc1
REMARK SMILES IDX 22 1 21 2 19 3 20 4 18 6 12 7 11 8 8 10 9 11 10 12 7 13 1 14
REMARK SMILES IDX 2 15 3 16 4 17 6 19 5 20 13 21 14 22 17 24 16 25 15 26 23 28
REMARK SMILES IDX 24 29 25 30 26 31 27 33 28 34 29 35 75 36 30 37 74 38 31 39
REMARK SMILES IDX 32 40 33 41 68 42 34 43 73 44 67 45 69 46 35 47 72 48 66 49
REMARK SMILES IDX 65 50 36 52 58 53 43 54 57 55 44 56 47 57 56 58 70 59 45 60
REMARK SMILES IDX 46 61 55 63 71 64 48 65 37 66 38 67 42 68 39 69 41 70 40 71
REMARK SMILES IDX 59 72 60 73 64 74 61 75 63 76 62 77 49 78 50 79 54 80 51 81
REMARK SMILES IDX 53 82 52 83
REMARK H PARENT 21 5 11 9 3 18 25 32 69 51 47 62
REMARK Flexibility Score: 100.00
ROOT
ATOM      1  C   UNL     1       4.654  -0.261   1.119  1.00  0.00     0.117 C 
ENDROOT
BRANCH   1   2
ATOM      2  N   UNL     1       5.660  -0.428   0.070  1.00  0.00    -0.356 N 
ATOM      3  C   UNL     1       5.505  -0.655  -1.274  1.00  0.00     0.224 C 
ATOM      4  O   UNL     1       6.500  -0.546  -1.994  1.00  0.00    -0.275 OA
ATOM      5  H   UNL     1       6.594  -0.369   0.376  1.00  0.00     0.163 HD
BRANCH   3   6
ATOM      6  C   UNL     1       4.148  -1.048  -1.871  1.00  0.00     0.096 C 
BRANCH   6   7
ATOM      7  C   UNL     1       3.099   0.118  -1.975  1.00  0.00     0.082 C 
BRANCH   7   8
ATOM      8  N   UNL     1       3.295   1.090  -0.863  1.00  0.00    -0.207 NA
ATOM      9  H   UNL     1       2.990   0.594  -0.025  1.00  0.00     0.141 HD
BRANCH   8  10
ATOM     10  S   UNL     1       2.622   2.625  -0.725  1.00  0.00     0.252 S 
ATOM     11  O   UNL     1       2.912   3.249  -1.999  1.00  0.00    -0.206 OA
ATOM     12  O   UNL     1       3.275   3.123   0.473  1.00  0.00    -0.206 OA
BRANCH  10  13
ATOM     13  C   UNL     1       0.917   2.643  -0.427  1.00  0.00     0.158 A 
ATOM     14  C   UNL     1       0.651   0.597   1.156  1.00  0.00     0.067 C 
ATOM     15  C   UNL     1       0.236   1.795   0.369  1.00  0.00     0.046 A 
ATOM     16  N   UNL     1      -1.096   2.144   0.484  1.00  0.00    -0.315 N 
ATOM     17  C   UNL     1      -1.496   3.287  -0.144  1.00  0.00     0.305 A 
ATOM     18  H   UNL     1      -1.729   1.591   0.996  1.00  0.00     0.170 HD
ATOM     19  S   UNL     1      -0.122   3.950  -0.995  1.00  0.00    -0.061 S 
ATOM     20  O   UNL     1      -2.621   3.776  -0.124  1.00  0.00    -0.257 OA
ENDBRANCH  10  13
ENDBRANCH   8  10
ENDBRANCH   7   8
BRANCH   7  21
ATOM     21  C   UNL     1       1.648  -0.364  -1.955  1.00  0.00     0.021 C 
BRANCH  21  22
ATOM     22  C   UNL     1       1.273  -1.503  -2.895  1.00  0.00     0.002 CG0
ATOM     23  G   UNL     1       1.457  -2.879  -2.261  1.00  0.00     0.000 G0
ENDBRANCH  21  22
ENDBRANCH   7  21
ENDBRANCH   6   7
BRANCH   6  24
ATOM     24  C   UNL     1       3.729  -2.385  -1.222  1.00  0.00     0.015 C 
BRANCH  24  25
ATOM     25  C   UNL     1       2.910  -3.301  -2.126  1.00  0.00     0.001 C 
BRANCH  25  26
ATOM     26  C   UNL     1       1.457  -2.879  -2.261  1.00  0.00     0.000 CG0
ATOM     27  G   UNL     1       1.273  -1.503  -2.895  1.00  0.00     0.000 G0
ENDBRANCH  25  26
ENDBRANCH  24  25
ENDBRANCH   6  24
ENDBRANCH   3   6
ENDBRANCH   1   2
BRANCH   1  28
ATOM     28  C   UNL     1       4.816  -1.116   2.363  1.00  0.00     0.042 C 
BRANCH  28  29
ATOM     29  C   UNL     1       6.008  -0.703   3.194  1.00  0.00     0.118 C 
BRANCH  29  30
ATOM     30  N   UNL     1       5.901   0.619   3.828  1.00  0.00    -0.352 N 
ATOM     31  C   UNL     1       6.844   1.213   4.662  1.00  0.00     0.251 C 
ATOM     32  H   UNL     1       5.083   1.135   3.644  1.00  0.00     0.163 HD
ATOM     33  O   UNL     1       6.580   2.167   5.378  1.00  0.00    -0.269 OA
BRANCH  31  34
ATOM     34  C   UNL     1       8.198   0.634   4.636  1.00  0.00     0.039 A 
ATOM     35  C   UNL     1       8.832   0.147   5.779  1.00  0.00     0.014 A 
ATOM     36  C   UNL     1       8.685   0.358   3.370  1.00  0.00     0.014 A 
ATOM     37  C   UNL     1       9.896  -0.742   5.616  1.00  0.00     0.010 A 
ATOM     38  C   UNL     1       9.513  -0.720   3.233  1.00  0.00     0.010 A 
ATOM     39  C   UNL     1      10.201  -1.221   4.330  1.00  0.00    -0.014 A 
BRANCH  39  40
ATOM     40  C   UNL     1      11.191  -2.272   4.098  1.00  0.00     0.031 A 
ATOM     41  C   UNL     1      11.207  -3.404   5.065  1.00  0.00     0.074 A 
ATOM     42  C   UNL     1      11.978  -2.320   2.997  1.00  0.00     0.049 A 
ATOM     43  N   UNL     1      12.115  -3.646   5.952  1.00  0.00    -0.248 NA
ATOM     44  C   UNL     1      10.060  -4.322   5.122  1.00  0.00     0.031 C 
ATOM     45  C   UNL     1      11.972  -1.466   1.797  1.00  0.00     0.029 A 
ATOM     46  N   UNL     1      12.923  -3.244   2.683  1.00  0.00    -0.354 N 
ATOM     47  C   UNL     1      11.756  -4.836   6.574  1.00  0.00     0.074 A 
ATOM     48  C   UNL     1      10.422  -5.141   6.115  1.00  0.00     0.031 C 
ATOM     49  C   UNL     1      12.662  -2.061   0.802  1.00  0.00     0.029 A 
ATOM     50  C   UNL     1      13.353  -3.200   1.365  1.00  0.00     0.049 A 
ATOM     51  H   UNL     1      13.274  -3.892   3.336  1.00  0.00     0.167 HD
ATOM     52  C   UNL     1      12.665  -5.579   7.266  1.00  0.00     0.031 A 
ATOM     53  C   UNL     1      14.251  -4.014   0.769  1.00  0.00     0.031 A 
ATOM     54  C   UNL     1      13.881  -4.847   7.510  1.00  0.00     0.049 A 
ATOM     55  C   UNL     1      15.092  -4.588   1.839  1.00  0.00     0.074 A 
ATOM     56  C   UNL     1      14.203  -3.693   8.195  1.00  0.00     0.029 A 
ATOM     57  N   UNL     1      14.935  -5.081   6.659  1.00  0.00    -0.354 N 
ATOM     58  N   UNL     1      15.899  -3.869   2.566  1.00  0.00    -0.248 NA
ATOM     59  C   UNL     1      14.699  -5.861   2.417  1.00  0.00     0.031 C 
ATOM     60  C   UNL     1      15.164  -3.036   7.369  1.00  0.00     0.029 A 
ATOM     61  C   UNL     1      15.423  -3.859   6.270  1.00  0.00     0.049 A 
ATOM     62  H   UNL     1      15.277  -5.962   6.380  1.00  0.00     0.167 HD
ATOM     63  C   UNL     1      15.758  -4.371   3.852  1.00  0.00     0.074 A 
ATOM     64  C   UNL     1      15.095  -5.663   3.678  1.00  0.00     0.031 C 
ATOM     65  C   UNL     1      15.940  -3.575   4.948  1.00  0.00     0.031 A 
BRANCH  52  66
ATOM     66  C   UNL     1      12.614  -7.078   7.397  1.00  0.00    -0.014 A 
ATOM     67  C   UNL     1      13.539  -7.720   8.242  1.00  0.00     0.009 A 
ATOM     68  C   UNL     1      11.889  -7.895   6.511  1.00  0.00     0.009 A 
ATOM     69  C   UNL     1      13.771  -9.098   8.154  1.00  0.00     0.001 A 
ATOM     70  C   UNL     1      12.092  -9.277   6.447  1.00  0.00     0.001 A 
ATOM     71  C   UNL     1      13.054  -9.874   7.249  1.00  0.00     0.000 A 
ENDBRANCH  52  66
BRANCH  53  72
ATOM     72  C   UNL     1      14.215  -4.525  -0.612  1.00  0.00    -0.014 A 
ATOM     73  C   UNL     1      15.366  -5.033  -1.226  1.00  0.00     0.009 A 
ATOM     74  C   UNL     1      12.973  -4.763  -1.233  1.00  0.00     0.009 A 
ATOM     75  C   UNL     1      15.272  -5.793  -2.400  1.00  0.00     0.001 A 
ATOM     76  C   UNL     1      12.879  -5.522  -2.401  1.00  0.00     0.001 A 
ATOM     77  C   UNL     1      14.029  -6.051  -2.977  1.00  0.00     0.000 A 
ENDBRANCH  53  72
BRANCH  65  78
ATOM     78  C   UNL     1      16.489  -2.183   4.724  1.00  0.00    -0.014 A 
ATOM     79  C   UNL     1      15.823  -1.209   3.957  1.00  0.00     0.009 A 
ATOM     80  C   UNL     1      17.639  -1.795   5.425  1.00  0.00     0.009 A 
ATOM     81  C   UNL     1      16.313   0.099   3.867  1.00  0.00     0.001 A 
ATOM     82  C   UNL     1      18.118  -0.484   5.352  1.00  0.00     0.001 A 
ATOM     83  C   UNL     1      17.460   0.461   4.568  1.00  0.00     0.000 A 
ENDBRANCH  65  78
ENDBRANCH  39  40
ENDBRANCH  31  34
ENDBRANCH  29  30
ENDBRANCH  28  29
ENDBRANCH   1  28
TORSDOF 13
