REMARK SMILES CC[C@@](C)([NH2+]CCC(=O)NC(C)C)C(=O)NCCCNC(=O)c1ccc(-c2c3nc(c(-c4ccccc4)c4ccc([nH]4)c(-c4ccccc4)c4nc(c(-c5ccccc5)c5ccc2[nH]5)C=C4)C=C3)cc1
REMARK SMILES IDX 14 1 15 2 16 3 3 5 4 6 2 7 1 8 5 9 6 12 7 13 8 14 9 15 10 16
REMARK SMILES IDX 11 18 12 19 13 20 17 21 18 22 19 23 20 24 21 25 22 27 23 28
REMARK SMILES IDX 24 29 70 30 25 31 69 32 26 33 27 34 28 35 63 36 29 37 68 38
REMARK SMILES IDX 62 39 64 40 30 41 67 42 61 43 60 44 31 46 53 47 38 48 52 49
REMARK SMILES IDX 39 50 42 51 51 52 65 53 40 54 41 55 50 57 66 58 43 59 32 60
REMARK SMILES IDX 33 61 37 62 34 63 36 64 35 65 54 66 55 67 59 68 56 69 58 70
REMARK SMILES IDX 57 71 44 72 45 73 49 74 46 75 48 76 47 77
REMARK H PARENT 16 4 5 10 5 11 10 17 20 26 64 45 42 56
REMARK Flexibility Score: inf
ROOT
ATOM      1  C   UNL     1       3.060   2.268   0.757  1.00  0.00     0.281 C 
ATOM      2  O   UNL     1       3.756   1.382   1.266  1.00  0.00    -0.268 OA
ATOM      3  N   UNL     1       3.731   3.389   0.376  1.00  0.00    -0.351 N 
ATOM      4  H   UNL     1       4.711   3.303   0.396  1.00  0.00     0.163 HD
ENDROOT
BRANCH   1   5
ATOM      5  C   UNL     1       1.515   2.108   0.566  1.00  0.00     0.172 C 
ATOM      6  C   UNL     1       1.150   2.297  -0.917  1.00  0.00     0.090 C 
BRANCH   5   7
ATOM      7  C   UNL     1       1.133   0.629   0.965  1.00  0.00     0.075 C 
ATOM      8  C   UNL     1       1.514  -0.470  -0.023  1.00  0.00     0.011 C 
ENDBRANCH   5   7
BRANCH   5   9
ATOM      9  N   UNL     1       0.788   2.863   1.619  1.00  0.00    -0.333 N 
ATOM     10  H   UNL     1       1.409   2.831   2.428  1.00  0.00     0.347 HD
ATOM     11  H   UNL     1      -0.111   2.389   1.541  1.00  0.00     0.347 HD
BRANCH   9  12
ATOM     12  C   UNL     1       0.300   4.236   1.593  1.00  0.00     0.271 C 
BRANCH  12  13
ATOM     13  C   UNL     1      -0.446   4.814   0.390  1.00  0.00     0.161 C 
BRANCH  13  14
ATOM     14  C   UNL     1      -1.950   4.941   0.535  1.00  0.00     0.225 C 
ATOM     15  O   UNL     1      -2.489   6.048   0.570  1.00  0.00    -0.275 OA
ATOM     16  N   UNL     1      -2.737   3.829   0.541  1.00  0.00    -0.354 N 
ATOM     17  H   UNL     1      -3.704   3.986   0.444  1.00  0.00     0.163 HD
BRANCH  16  18
ATOM     18  C   UNL     1      -2.330   2.441   0.674  1.00  0.00     0.075 C 
ATOM     19  C   UNL     1      -2.669   1.928   2.068  1.00  0.00     0.030 C 
ATOM     20  C   UNL     1      -2.915   1.566  -0.423  1.00  0.00     0.030 C 
ENDBRANCH  16  18
ENDBRANCH  13  14
ENDBRANCH  12  13
ENDBRANCH   9  12
ENDBRANCH   5   9
ENDBRANCH   1   5
BRANCH   3  21
ATOM     21  C   UNL     1       3.254   4.684  -0.055  1.00  0.00     0.118 C 
BRANCH  21  22
ATOM     22  C   UNL     1       3.502   5.743   1.004  1.00  0.00     0.042 C 
BRANCH  22  23
ATOM     23  C   UNL     1       4.962   6.111   1.153  1.00  0.00     0.118 C 
BRANCH  23  24
ATOM     24  N   UNL     1       5.487   6.773  -0.030  1.00  0.00    -0.352 N 
ATOM     25  C   UNL     1       5.965   8.046  -0.186  1.00  0.00     0.251 C 
ATOM     26  H   UNL     1       5.500   6.221  -0.845  1.00  0.00     0.163 HD
ATOM     27  O   UNL     1       6.159   8.484  -1.321  1.00  0.00    -0.269 OA
BRANCH  25  28
ATOM     28  C   UNL     1       6.244   8.897   0.990  1.00  0.00     0.039 A 
ATOM     29  C   UNL     1       6.039  10.275   0.892  1.00  0.00     0.014 A 
ATOM     30  C   UNL     1       6.752   8.353   2.173  1.00  0.00     0.014 A 
ATOM     31  C   UNL     1       6.327  11.096   1.982  1.00  0.00     0.010 A 
ATOM     32  C   UNL     1       6.909   9.150   3.297  1.00  0.00     0.010 A 
ATOM     33  C   UNL     1       6.755  10.537   3.197  1.00  0.00    -0.014 A 
BRANCH  33  34
ATOM     34  C   UNL     1       7.143  11.394   4.341  1.00  0.00     0.031 A 
ATOM     35  C   UNL     1       8.564  11.365   4.845  1.00  0.00     0.074 A 
ATOM     36  C   UNL     1       6.222  12.172   4.939  1.00  0.00     0.049 A 
ATOM     37  N   UNL     1       9.107  12.040   5.827  1.00  0.00    -0.248 NA
ATOM     38  C   UNL     1       9.491  10.430   4.183  1.00  0.00     0.031 C 
ATOM     39  C   UNL     1       4.804  12.241   4.580  1.00  0.00     0.029 A 
ATOM     40  N   UNL     1       6.349  13.066   5.971  1.00  0.00    -0.354 N 
ATOM     41  C   UNL     1      10.419  11.589   5.912  1.00  0.00     0.074 A 
ATOM     42  C   UNL     1      10.574  10.537   4.935  1.00  0.00     0.031 C 
ATOM     43  C   UNL     1       4.203  13.167   5.345  1.00  0.00     0.029 A 
ATOM     44  C   UNL     1       5.185  13.733   6.263  1.00  0.00     0.049 A 
ATOM     45  H   UNL     1       7.193  13.214   6.455  1.00  0.00     0.167 HD
ATOM     46  C   UNL     1      11.420  12.033   6.707  1.00  0.00     0.031 A 
ATOM     47  C   UNL     1       4.946  14.707   7.160  1.00  0.00     0.031 A 
ATOM     48  C   UNL     1      11.274  13.105   7.651  1.00  0.00     0.049 A 
ATOM     49  C   UNL     1       6.084  15.219   7.998  1.00  0.00     0.074 A 
ATOM     50  C   UNL     1      12.233  13.676   8.468  1.00  0.00     0.029 A 
ATOM     51  N   UNL     1      10.086  13.778   7.893  1.00  0.00    -0.354 N 
ATOM     52  N   UNL     1       7.336  14.829   8.020  1.00  0.00    -0.248 NA
ATOM     53  C   UNL     1       5.779  16.324   8.916  1.00  0.00     0.031 C 
ATOM     54  C   UNL     1      11.616  14.673   9.230  1.00  0.00     0.029 A 
ATOM     55  C   UNL     1      10.285  14.756   8.850  1.00  0.00     0.049 A 
ATOM     56  H   UNL     1       9.228  13.588   7.449  1.00  0.00     0.167 HD
ATOM     57  C   UNL     1       7.976  15.662   8.928  1.00  0.00     0.074 A 
ATOM     58  C   UNL     1       6.976  16.588   9.420  1.00  0.00     0.031 C 
ATOM     59  C   UNL     1       9.274  15.665   9.320  1.00  0.00     0.031 A 
BRANCH  46  60
ATOM     60  C   UNL     1      12.757  11.356   6.575  1.00  0.00    -0.014 A 
ATOM     61  C   UNL     1      13.540  11.508   5.418  1.00  0.00     0.009 A 
ATOM     62  C   UNL     1      13.245  10.559   7.621  1.00  0.00     0.009 A 
ATOM     63  C   UNL     1      14.760  10.841   5.293  1.00  0.00     0.001 A 
ATOM     64  C   UNL     1      14.480   9.918   7.508  1.00  0.00     0.001 A 
ATOM     65  C   UNL     1      15.231  10.050   6.340  1.00  0.00     0.000 A 
ENDBRANCH  46  60
BRANCH  47  66
ATOM     66  C   UNL     1       3.589  15.303   7.268  1.00  0.00    -0.014 A 
ATOM     67  C   UNL     1       3.346  16.606   6.806  1.00  0.00     0.009 A 
ATOM     68  C   UNL     1       2.531  14.575   7.832  1.00  0.00     0.009 A 
ATOM     69  C   UNL     1       2.079  17.179   6.934  1.00  0.00     0.001 A 
ATOM     70  C   UNL     1       1.258  15.140   7.933  1.00  0.00     0.001 A 
ATOM     71  C   UNL     1       1.035  16.444   7.494  1.00  0.00     0.000 A 
ENDBRANCH  47  66
BRANCH  59  72
ATOM     72  C   UNL     1       9.687  16.730  10.294  1.00  0.00    -0.014 A 
ATOM     73  C   UNL     1       9.281  16.691  11.637  1.00  0.00     0.009 A 
ATOM     74  C   UNL     1      10.514  17.779   9.861  1.00  0.00     0.009 A 
ATOM     75  C   UNL     1       9.659  17.706  12.516  1.00  0.00     0.001 A 
ATOM     76  C   UNL     1      10.915  18.776  10.750  1.00  0.00     0.001 A 
ATOM     77  C   UNL     1      10.477  18.745  12.073  1.00  0.00     0.000 A 
ENDBRANCH  59  72
ENDBRANCH  33  34
ENDBRANCH  25  28
ENDBRANCH  23  24
ENDBRANCH  22  23
ENDBRANCH  21  22
ENDBRANCH   3  21
TORSDOF 16
