REMARK SMILES COc1cccc(C(=O)N[C@H]2C=C[C@@H](C(=O)NCCCNC(=O)c3ccc(-c4c5nc(c(-c6ccccc6)c6ccc([nH]6)c(-c6ccccc6)c6nc(c(-c7ccccc7)c7ccc4[nH]7)C=C6)C=C5)cc3)C2)c1
REMARK SMILES IDX 18 1 17 2 15 3 16 4 14 6 11 7 12 8 72 9 13 10 10 11 8 12
REMARK SMILES IDX 9 13 7 15 3 16 4 17 73 18 5 19 6 20 2 21 1 22 19 23 20 24
REMARK SMILES IDX 21 25 22 26 23 28 24 29 25 30 71 31 26 32 70 33 27 34 28 35
REMARK SMILES IDX 29 36 64 37 30 38 69 39 63 40 65 41 31 42 68 43 62 44 61 45
REMARK SMILES IDX 32 47 54 48 39 49 53 50 40 51 43 52 52 53 66 54 41 55 42 56
REMARK SMILES IDX 51 58 67 59 44 60 33 61 34 62 38 63 35 64 37 65 36 66 55 67
REMARK SMILES IDX 56 68 60 69 57 70 59 71 58 72 45 73 46 74 50 75 47 76 49 77
REMARK SMILES IDX 48 78
REMARK H PARENT 17 5 10 14 21 27 65 46 43 57
REMARK Flexibility Score: inf
ROOT
ATOM      1  C   UNL     1       3.913  -0.845   4.887  1.00  0.00     0.117 C 
ENDROOT
BRANCH   1   2
ATOM      2  N   UNL     1       2.911  -1.745   4.348  1.00  0.00    -0.356 N 
ATOM      3  C   UNL     1       2.683  -2.167   3.076  1.00  0.00     0.227 C 
ATOM      4  O   UNL     1       1.800  -3.015   2.913  1.00  0.00    -0.274 OA
ATOM      5  H   UNL     1       2.290  -2.112   5.018  1.00  0.00     0.163 HD
BRANCH   3   6
ATOM      6  C   UNL     1       3.409  -1.581   1.864  1.00  0.00     0.103 C 
ATOM      7  C   UNL     1       4.366   0.633   1.330  1.00  0.00     0.106 C 
ATOM      8  C   UNL     1       5.418  -0.409   1.562  1.00  0.00    -0.006 C 
ATOM      9  C   UNL     1       3.063  -0.108   1.653  1.00  0.00     0.047 C 
ATOM     10  C   UNL     1       4.902  -1.606   1.870  1.00  0.00    -0.016 C 
BRANCH   7  11
ATOM     11  N   UNL     1       4.665   1.770   2.180  1.00  0.00    -0.346 N 
ATOM     12  C   UNL     1       3.953   2.897   2.507  1.00  0.00     0.251 C 
ATOM     13  O   UNL     1       4.497   3.744   3.213  1.00  0.00    -0.269 OA
ATOM     14  H   UNL     1       5.552   1.724   2.606  1.00  0.00     0.164 HD
BRANCH  12  15
ATOM     15  C   UNL     1       2.528   3.079   2.138  1.00  0.00     0.043 A 
ATOM     16  C   UNL     1       0.620   2.804   0.691  1.00  0.00     0.119 A 
ATOM     17  C   UNL     1      -0.218   3.344   1.665  1.00  0.00     0.046 A 
ATOM     18  C   UNL     1       1.999   2.725   0.896  1.00  0.00     0.060 A 
ATOM     19  C   UNL     1       0.316   3.769   2.878  1.00  0.00     0.005 A 
ATOM     20  C   UNL     1       1.683   3.630   3.117  1.00  0.00     0.014 A 
BRANCH  16  21
ATOM     21  O   UNL     1       0.045   2.387  -0.479  1.00  0.00    -0.497 OA
ATOM     22  C   UNL     1       0.134   0.967  -0.616  1.00  0.00     0.278 C 
ENDBRANCH  16  21
ENDBRANCH  12  15
ENDBRANCH   7  11
ENDBRANCH   3   6
ENDBRANCH   1   2
BRANCH   1  23
ATOM     23  C   UNL     1       3.318   0.401   5.533  1.00  0.00     0.042 C 
BRANCH  23  24
ATOM     24  C   UNL     1       2.408   0.131   6.727  1.00  0.00     0.118 C 
BRANCH  24  25
ATOM     25  N   UNL     1       3.058  -0.654   7.766  1.00  0.00    -0.352 N 
ATOM     26  C   UNL     1       3.413  -0.340   9.051  1.00  0.00     0.251 C 
ATOM     27  H   UNL     1       3.282  -1.574   7.498  1.00  0.00     0.163 HD
ATOM     28  O   UNL     1       4.146  -1.113   9.669  1.00  0.00    -0.269 OA
BRANCH  26  29
ATOM     29  C   UNL     1       2.946   0.900   9.710  1.00  0.00     0.039 A 
ATOM     30  C   UNL     1       3.817   1.550  10.591  1.00  0.00     0.014 A 
ATOM     31  C   UNL     1       1.648   1.386   9.537  1.00  0.00     0.014 A 
ATOM     32  C   UNL     1       3.404   2.707  11.256  1.00  0.00     0.010 A 
ATOM     33  C   UNL     1       1.261   2.582  10.142  1.00  0.00     0.010 A 
ATOM     34  C   UNL     1       2.131   3.248  11.016  1.00  0.00    -0.014 A 
BRANCH  34  35
ATOM     35  C   UNL     1       1.713   4.512  11.672  1.00  0.00     0.031 A 
ATOM     36  C   UNL     1       0.591   4.527  12.672  1.00  0.00     0.074 A 
ATOM     37  C   UNL     1       2.325   5.662  11.332  1.00  0.00     0.049 A 
ATOM     38  N   UNL     1       0.113   5.536  13.358  1.00  0.00    -0.248 NA
ATOM     39  C   UNL     1      -0.103   3.253  12.917  1.00  0.00     0.031 C 
ATOM     40  C   UNL     1       3.383   5.794  10.328  1.00  0.00     0.029 A 
ATOM     41  N   UNL     1       2.146   6.940  11.798  1.00  0.00    -0.354 N 
ATOM     42  C   UNL     1      -0.946   5.024  14.097  1.00  0.00     0.074 A 
ATOM     43  C   UNL     1      -1.068   3.625  13.745  1.00  0.00     0.031 C 
ATOM     44  C   UNL     1       3.783   7.074  10.278  1.00  0.00     0.029 A 
ATOM     45  C   UNL     1       2.996   7.855  11.228  1.00  0.00     0.049 A 
ATOM     46  H   UNL     1       1.472   7.178  12.475  1.00  0.00     0.167 HD
ATOM     47  C   UNL     1      -1.736   5.654  14.999  1.00  0.00     0.031 A 
ATOM     48  C   UNL     1       3.138   9.174  11.453  1.00  0.00     0.031 A 
ATOM     49  C   UNL     1      -1.606   7.040  15.365  1.00  0.00     0.049 A 
ATOM     50  C   UNL     1       2.288   9.839  12.495  1.00  0.00     0.074 A 
ATOM     51  C   UNL     1      -2.312   7.751  16.321  1.00  0.00     0.029 A 
ATOM     52  N   UNL     1      -0.709   7.925  14.790  1.00  0.00    -0.354 N 
ATOM     53  N   UNL     1       1.348   9.320  13.247  1.00  0.00    -0.248 NA
ATOM     54  C   UNL     1       2.534  11.268  12.732  1.00  0.00     0.031 C 
ATOM     55  C   UNL     1      -1.865   9.078  16.297  1.00  0.00     0.029 A 
ATOM     56  C   UNL     1      -0.853   9.180  15.357  1.00  0.00     0.049 A 
ATOM     57  H   UNL     1      -0.064   7.696  14.082  1.00  0.00     0.167 HD
ATOM     58  C   UNL     1       0.903  10.354  14.060  1.00  0.00     0.074 A 
ATOM     59  C   UNL     1       1.690  11.523  13.722  1.00  0.00     0.031 C 
ATOM     60  C   UNL     1      -0.071  10.335  15.002  1.00  0.00     0.031 A 
BRANCH  47  61
ATOM     61  C   UNL     1      -2.821   4.842  15.649  1.00  0.00    -0.014 A 
ATOM     62  C   UNL     1      -2.520   3.854  16.600  1.00  0.00     0.009 A 
ATOM     63  C   UNL     1      -4.165   5.084  15.325  1.00  0.00     0.009 A 
ATOM     64  C   UNL     1      -3.539   3.099  17.184  1.00  0.00     0.001 A 
ATOM     65  C   UNL     1      -5.184   4.345  15.928  1.00  0.00     0.001 A 
ATOM     66  C   UNL     1      -4.870   3.347  16.849  1.00  0.00     0.000 A 
ENDBRANCH  47  61
BRANCH  48  67
ATOM     67  C   UNL     1       4.165   9.941  10.704  1.00  0.00    -0.014 A 
ATOM     68  C   UNL     1       5.352  10.339  11.335  1.00  0.00     0.009 A 
ATOM     69  C   UNL     1       3.971  10.259   9.351  1.00  0.00     0.009 A 
ATOM     70  C   UNL     1       6.319  11.060  10.630  1.00  0.00     0.001 A 
ATOM     71  C   UNL     1       4.950  10.959   8.643  1.00  0.00     0.001 A 
ATOM     72  C   UNL     1       6.119  11.365   9.285  1.00  0.00     0.000 A 
ENDBRANCH  48  67
BRANCH  60  73
ATOM     73  C   UNL     1      -0.322  11.617  15.743  1.00  0.00    -0.014 A 
ATOM     74  C   UNL     1      -0.974  12.696  15.125  1.00  0.00     0.009 A 
ATOM     75  C   UNL     1       0.087  11.741  17.079  1.00  0.00     0.009 A 
ATOM     76  C   UNL     1      -1.176  13.889  15.822  1.00  0.00     0.001 A 
ATOM     77  C   UNL     1      -0.139  12.926  17.780  1.00  0.00     0.001 A 
ATOM     78  C   UNL     1      -0.760  14.002  17.148  1.00  0.00     0.000 A 
ENDBRANCH  60  73
ENDBRANCH  34  35
ENDBRANCH  26  29
ENDBRANCH  24  25
ENDBRANCH  23  24
ENDBRANCH   1  23
TORSDOF 13
