REMARK SMILES O=C1NC(=O)/C(=C/c2ccc(OCc3cn(-c4ccc(C(=O)NCCCNC(=O)c5ccc(-c6c7nc(c(-c8ccccc8)c8ccc([nH]8)c(-c8ccccc8)c8nc(c(-c9ccccc9)c9ccc6[nH]9)C=C8)C=C7)cc5)cc4)nn3)cc2)S1
REMARK SMILES IDX 21 1 22 2 23 3 20 5 17 6 18 7 79 8 19 9 78 10 16 11 14 12
REMARK SMILES IDX 15 13 81 14 80 15 13 16 12 17 11 18 8 19 9 20 83 21 10 22
REMARK SMILES IDX 82 23 7 24 1 25 2 26 3 27 84 28 4 29 6 31 5 32 24 33 25 34
REMARK SMILES IDX 26 35 27 36 28 37 29 39 30 40 31 41 77 42 32 43 76 44 33 45
REMARK SMILES IDX 34 46 35 47 70 48 36 49 75 50 69 51 71 52 37 53 74 54 68 55
REMARK SMILES IDX 67 56 38 58 60 59 45 60 59 61 46 62 49 63 58 64 72 65 47 66
REMARK SMILES IDX 48 67 57 69 73 70 50 71 39 72 40 73 44 74 41 75 43 76 42 77
REMARK SMILES IDX 61 78 62 79 66 80 63 81 65 82 64 83 51 84 52 85 56 86 53 87
REMARK SMILES IDX 55 88 54 89
REMARK H PARENT 23 4 3 30 27 38 71 57 49 68
REMARK Flexibility Score: inf
ROOT
ATOM      1  C   UNL     1      -7.782   8.644   0.627  1.00  0.00     0.251 C 
ATOM      2  O   UNL     1      -8.642   8.037   1.264  1.00  0.00    -0.269 OA
ATOM      3  N   UNL     1      -8.181   9.725  -0.123  1.00  0.00    -0.352 N 
ATOM      4  H   UNL     1      -9.152   9.890  -0.107  1.00  0.00     0.163 HD
ENDROOT
BRANCH   1   5
ATOM      5  C   UNL     1      -6.355   8.229   0.741  1.00  0.00     0.039 A 
ATOM      6  C   UNL     1      -3.663   7.599   1.164  1.00  0.00     0.066 A 
ATOM      7  C   UNL     1      -4.628   7.171   2.083  1.00  0.00     0.029 A 
ATOM      8  C   UNL     1      -4.039   8.264   0.003  1.00  0.00     0.029 A 
ATOM      9  C   UNL     1      -5.968   7.517   1.885  1.00  0.00     0.016 A 
ATOM     10  C   UNL     1      -5.386   8.512  -0.224  1.00  0.00     0.016 A 
BRANCH   6  11
ATOM     11  N   UNL     1      -2.303   7.338   1.390  1.00  0.00    -0.220 N 
ATOM     12  C   UNL     1      -0.127   7.351   1.404  1.00  0.00     0.120 A 
ATOM     13  C   UNL     1      -1.217   8.076   0.977  1.00  0.00     0.144 A 
ATOM     14  N   UNL     1      -0.581   6.249   2.082  1.00  0.00    -0.131 NA
ATOM     15  N   UNL     1      -1.900   6.272   2.102  1.00  0.00    -0.062 NA
BRANCH  12  16
ATOM     16  C   UNL     1       1.334   7.655   1.336  1.00  0.00     0.289 C 
BRANCH  16  17
ATOM     17  O   UNL     1       2.065   6.984   0.295  1.00  0.00    -0.487 OA
BRANCH  17  18
ATOM     18  C   UNL     1       2.191   5.624   0.357  1.00  0.00     0.119 A 
ATOM     19  C   UNL     1       2.211   2.823   0.119  1.00  0.00    -0.024 A 
ATOM     20  C   UNL     1       2.692   3.620  -0.923  1.00  0.00     0.012 A 
ATOM     21  C   UNL     1       1.819   3.432   1.313  1.00  0.00     0.012 A 
ATOM     22  C   UNL     1       2.672   5.015  -0.804  1.00  0.00     0.047 A 
ATOM     23  C   UNL     1       1.849   4.821   1.442  1.00  0.00     0.047 A 
BRANCH  19  24
ATOM     24  C   UNL     1       2.139   1.367  -0.015  1.00  0.00     0.029 C 
ATOM     25  O   UNL     1      -2.453  -0.717   0.020  1.00  0.00    -0.261 OA
ATOM     26  C   UNL     1      -1.257  -0.436  -0.003  1.00  0.00     0.290 C 
ATOM     27  N   UNL     1      -0.240  -1.326  -0.044  1.00  0.00    -0.282 N 
ATOM     28  S   UNL     1      -0.625   1.195   0.008  1.00  0.00    -0.022 SA
ATOM     29  C   UNL     1       1.036  -0.843  -0.075  1.00  0.00     0.265 C 
ATOM     30  H   UNL     1      -0.414  -2.295  -0.050  1.00  0.00     0.174 HD
ATOM     31  C   UNL     1       1.010   0.643  -0.034  1.00  0.00     0.083 C 
ATOM     32  O   UNL     1       2.039  -1.532  -0.115  1.00  0.00    -0.268 OA
ENDBRANCH  19  24
ENDBRANCH  17  18
ENDBRANCH  16  17
ENDBRANCH  12  16
ENDBRANCH   6  11
ENDBRANCH   1   5
BRANCH   3  33
ATOM     33  C   UNL     1      -7.429  10.672  -0.936  1.00  0.00     0.118 C 
BRANCH  33  34
ATOM     34  C   UNL     1      -7.330  10.211  -2.400  1.00  0.00     0.042 C 
BRANCH  34  35
ATOM     35  C   UNL     1      -8.550  10.614  -3.195  1.00  0.00     0.118 C 
BRANCH  35  36
ATOM     36  N   UNL     1      -8.612  12.064  -3.441  1.00  0.00    -0.352 N 
ATOM     37  C   UNL     1      -9.592  12.791  -4.103  1.00  0.00     0.251 C 
ATOM     38  H   UNL     1      -7.857  12.589  -3.089  1.00  0.00     0.163 HD
ATOM     39  O   UNL     1      -9.372  13.916  -4.530  1.00  0.00    -0.269 OA
BRANCH  37  40
ATOM     40  C   UNL     1     -10.917  12.173  -4.258  1.00  0.00     0.039 A 
ATOM     41  C   UNL     1     -11.717  12.283  -5.398  1.00  0.00     0.014 A 
ATOM     42  C   UNL     1     -11.297  11.353  -3.215  1.00  0.00     0.014 A 
ATOM     43  C   UNL     1     -12.891  11.533  -5.439  1.00  0.00     0.010 A 
ATOM     44  C   UNL     1     -12.114  10.316  -3.506  1.00  0.00     0.010 A 
ATOM     45  C   UNL     1     -13.080  10.557  -4.452  1.00  0.00    -0.014 A 
BRANCH  45  46
ATOM     46  C   UNL     1     -14.239   9.697  -4.336  1.00  0.00     0.031 A 
ATOM     47  C   UNL     1     -14.438   8.812  -5.498  1.00  0.00     0.074 A 
ATOM     48  C   UNL     1     -14.874   9.510  -3.154  1.00  0.00     0.049 A 
ATOM     49  N   UNL     1     -15.347   8.918  -6.403  1.00  0.00    -0.248 NA
ATOM     50  C   UNL     1     -13.408   7.800  -5.788  1.00  0.00     0.031 C 
ATOM     51  C   UNL     1     -14.553  10.034  -1.814  1.00  0.00     0.029 A 
ATOM     52  N   UNL     1     -15.904   8.675  -2.884  1.00  0.00    -0.354 N 
ATOM     53  C   UNL     1     -15.143   7.849  -7.263  1.00  0.00     0.074 A 
ATOM     54  C   UNL     1     -13.828   7.339  -6.968  1.00  0.00     0.031 C 
ATOM     55  C   UNL     1     -15.199   9.307  -0.872  1.00  0.00     0.029 A 
ATOM     56  C   UNL     1     -16.103   8.390  -1.540  1.00  0.00     0.049 A 
ATOM     57  H   UNL     1     -16.473   8.296  -3.592  1.00  0.00     0.167 HD
ATOM     58  C   UNL     1     -16.180   7.294  -7.948  1.00  0.00     0.031 A 
ATOM     59  C   UNL     1     -16.922   7.428  -1.040  1.00  0.00     0.031 A 
ATOM     60  C   UNL     1     -17.368   8.111  -7.864  1.00  0.00     0.049 A 
ATOM     61  C   UNL     1     -17.883   7.083  -2.123  1.00  0.00     0.074 A 
ATOM     62  C   UNL     1     -17.668   9.417  -8.199  1.00  0.00     0.029 A 
ATOM     63  N   UNL     1     -18.322   7.733  -6.944  1.00  0.00    -0.354 N 
ATOM     64  N   UNL     1     -18.766   7.928  -2.580  1.00  0.00    -0.248 NA
ATOM     65  C   UNL     1     -17.507   6.016  -3.042  1.00  0.00     0.031 C 
ATOM     66  C   UNL     1     -18.429   9.906  -7.094  1.00  0.00     0.029 A 
ATOM     67  C   UNL     1     -18.635   8.848  -6.206  1.00  0.00     0.049 A 
ATOM     68  H   UNL     1     -18.706   6.833  -6.836  1.00  0.00     0.167 HD
ATOM     69  C   UNL     1     -18.727   7.774  -3.960  1.00  0.00     0.074 A 
ATOM     70  C   UNL     1     -17.988   6.527  -4.181  1.00  0.00     0.031 C 
ATOM     71  C   UNL     1     -19.006   8.811  -4.807  1.00  0.00     0.031 A 
BRANCH  58  72
ATOM     72  C   UNL     1     -16.251   5.837  -8.312  1.00  0.00    -0.014 A 
ATOM     73  C   UNL     1     -17.317   5.399  -9.116  1.00  0.00     0.009 A 
ATOM     74  C   UNL     1     -15.485   4.843  -7.673  1.00  0.00     0.009 A 
ATOM     75  C   UNL     1     -17.642   4.042  -9.212  1.00  0.00     0.001 A 
ATOM     76  C   UNL     1     -15.782   3.485  -7.800  1.00  0.00     0.001 A 
ATOM     77  C   UNL     1     -16.880   3.087  -8.547  1.00  0.00     0.000 A 
ENDBRANCH  58  72
BRANCH  59  78
ATOM     78  C   UNL     1     -16.696   6.563   0.143  1.00  0.00    -0.014 A 
ATOM     79  C   UNL     1     -17.737   5.805   0.705  1.00  0.00     0.009 A 
ATOM     80  C   UNL     1     -15.384   6.270   0.564  1.00  0.00     0.009 A 
ATOM     81  C   UNL     1     -17.469   4.776   1.623  1.00  0.00     0.001 A 
ATOM     82  C   UNL     1     -15.117   5.244   1.478  1.00  0.00     0.001 A 
ATOM     83  C   UNL     1     -16.159   4.486   1.998  1.00  0.00     0.000 A 
ENDBRANCH  59  78
BRANCH  71  84
ATOM     84  C   UNL     1     -19.509  10.109  -4.215  1.00  0.00    -0.014 A 
ATOM     85  C   UNL     1     -18.765  10.886  -3.305  1.00  0.00     0.009 A 
ATOM     86  C   UNL     1     -20.692  10.657  -4.730  1.00  0.00     0.009 A 
ATOM     87  C   UNL     1     -19.207  12.155  -2.908  1.00  0.00     0.001 A 
ATOM     88  C   UNL     1     -21.124  11.930  -4.348  1.00  0.00     0.001 A 
ATOM     89  C   UNL     1     -20.385  12.677  -3.434  1.00  0.00     0.000 A 
ENDBRANCH  71  84
ENDBRANCH  45  46
ENDBRANCH  37  40
ENDBRANCH  35  36
ENDBRANCH  34  35
ENDBRANCH  33  34
ENDBRANCH   3  33
TORSDOF 15
