REMARK SMILES NS(=O)(=O)c1ccc(-n2nc(C(=O)NCCCCCCCCCCC(=O)NCCCNC(=O)c3ccc(-c4c5nc(c(-c6ccccc6)c6ccc([nH]6)c(-c6ccccc6)c6nc(c(-c7ccccc7)c7ccc4[nH]7)C=C6)C=C5)cc3)cc2-c2ccccc2)cc1
REMARK SMILES IDX 21 1 20 2 19 3 18 4 17 5 16 6 15 7 14 8 12 9 13 10 11 12
REMARK SMILES IDX 9 13 10 14 83 15 82 16 8 17 5 18 6 19 91 20 7 21 90 22 2 23
REMARK SMILES IDX 3 24 4 25 1 26 84 29 85 30 89 31 86 32 88 33 87 34 22 35
REMARK SMILES IDX 23 36 24 37 25 38 26 39 27 40 28 42 29 43 30 44 31 45 32 46
REMARK SMILES IDX 33 48 34 49 35 50 81 51 36 52 80 53 37 54 38 55 39 56 74 57
REMARK SMILES IDX 40 58 79 59 73 60 75 61 41 62 78 63 72 64 71 65 42 67 64 68
REMARK SMILES IDX 49 69 63 70 50 71 53 72 62 73 76 74 51 75 52 76 61 78 77 79
REMARK SMILES IDX 54 80 43 81 44 82 48 83 45 84 47 85 46 86 65 87 66 88 70 89
REMARK SMILES IDX 67 90 69 91 68 92 55 93 56 94 60 95 57 96 59 97 58 98
REMARK H PARENT 14 11 1 27 1 28 27 41 31 47 75 66 53 77
REMARK Flexibility Score: inf
ROOT
ATOM      1  C   UNL     1       1.423  -9.868 -12.783  1.00  0.00     0.000 C 
ENDROOT
BRANCH   1   2
ATOM      2  C   UNL     1       0.956  -9.253 -11.476  1.00  0.00     0.000 C 
BRANCH   2   3
ATOM      3  C   UNL     1       1.592  -9.917 -10.255  1.00  0.00     0.000 C 
BRANCH   3   4
ATOM      4  C   UNL     1       3.127  -9.844 -10.230  1.00  0.00     0.000 C 
BRANCH   4   5
ATOM      5  C   UNL     1       3.688  -8.417 -10.149  1.00  0.00     0.002 C 
BRANCH   5   6
ATOM      6  C   UNL     1       3.013  -7.556  -9.080  1.00  0.00     0.021 C 
BRANCH   6   7
ATOM      7  C   UNL     1       3.030  -8.239  -7.716  1.00  0.00     0.116 C 
BRANCH   7   8
ATOM      8  N   UNL     1       4.143  -7.787  -6.930  1.00  0.00    -0.351 N 
ATOM      9  C   UNL     1       4.245  -6.905  -5.886  1.00  0.00     0.271 C 
ATOM     10  O   UNL     1       5.394  -6.692  -5.488  1.00  0.00    -0.267 OA
ATOM     11  H   UNL     1       5.003  -8.191  -7.192  1.00  0.00     0.163 HD
BRANCH   9  12
ATOM     12  C   UNL     1       3.058  -6.290  -5.252  1.00  0.00     0.151 A 
ATOM     13  N   UNL     1       1.998  -5.210  -3.727  1.00  0.00    -0.232 N 
ATOM     14  N   UNL     1       3.229  -5.435  -4.223  1.00  0.00    -0.162 NA
ATOM     15  C   UNL     1       1.004  -5.762  -4.507  1.00  0.00     0.075 A 
ATOM     16  C   UNL     1       1.673  -6.407  -5.521  1.00  0.00     0.065 A 
BRANCH  13  17
ATOM     17  C   UNL     1       1.815  -4.399  -2.591  1.00  0.00     0.065 A 
ATOM     18  C   UNL     1       1.125  -2.611  -0.608  1.00  0.00     0.082 A 
ATOM     19  C   UNL     1       0.565  -3.893  -0.599  1.00  0.00     0.024 A 
ATOM     20  C   UNL     1       2.065  -2.236  -1.575  1.00  0.00     0.024 A 
ATOM     21  C   UNL     1       0.905  -4.791  -1.603  1.00  0.00     0.030 A 
ATOM     22  C   UNL     1       2.438  -3.148  -2.559  1.00  0.00     0.030 A 
BRANCH  18  23
ATOM     23  S   UNL     1       0.572  -1.480   0.628  1.00  0.00     0.238 S 
ATOM     24  O   UNL     1       1.176  -1.836   1.876  1.00  0.00    -0.207 OA
ATOM     25  O   UNL     1      -0.864  -1.308   0.464  1.00  0.00    -0.207 OA
BRANCH  23  26
ATOM     26  N   UNL     1       1.240  -0.005   0.184  1.00  0.00    -0.225 NA
ATOM     27  H   UNL     1       0.964   0.710   0.858  1.00  0.00     0.137 HD
ATOM     28  H   UNL     1       0.906   0.255  -0.744  1.00  0.00     0.137 HD
ENDBRANCH  23  26
ENDBRANCH  18  23
ENDBRANCH  13  17
BRANCH  15  29
ATOM     29  C   UNL     1      -0.436  -5.575  -4.370  1.00  0.00     0.000 A 
ATOM     30  C   UNL     1      -0.995  -4.291  -4.364  1.00  0.00     0.010 A 
ATOM     31  C   UNL     1      -1.278  -6.691  -4.293  1.00  0.00     0.010 A 
ATOM     32  C   UNL     1      -2.376  -4.127  -4.256  1.00  0.00     0.001 A 
ATOM     33  C   UNL     1      -2.659  -6.525  -4.192  1.00  0.00     0.001 A 
ATOM     34  C   UNL     1      -3.206  -5.243  -4.170  1.00  0.00     0.000 A 
ENDBRANCH  15  29
ENDBRANCH   9  12
ENDBRANCH   7   8
ENDBRANCH   6   7
ENDBRANCH   5   6
ENDBRANCH   4   5
ENDBRANCH   3   4
ENDBRANCH   2   3
ENDBRANCH   1   2
BRANCH   1  35
ATOM     35  C   UNL     1       0.983 -11.327 -12.949  1.00  0.00     0.001 C 
BRANCH  35  36
ATOM     36  C   UNL     1      -0.034 -11.525 -14.061  1.00  0.00     0.010 C 
BRANCH  36  37
ATOM     37  C   UNL     1       0.447 -11.091 -15.446  1.00  0.00     0.100 C 
BRANCH  37  38
ATOM     38  C   UNL     1       1.463 -12.034 -16.058  1.00  0.00     0.219 C 
ATOM     39  O   UNL     1       1.090 -13.004 -16.723  1.00  0.00    -0.275 OA
ATOM     40  N   UNL     1       2.807 -11.857 -15.897  1.00  0.00    -0.356 N 
ATOM     41  H   UNL     1       3.355 -12.576 -16.287  1.00  0.00     0.163 HD
BRANCH  40  42
ATOM     42  C   UNL     1       3.585 -10.799 -15.254  1.00  0.00     0.117 C 
BRANCH  42  43
ATOM     43  C   UNL     1       4.330 -11.254 -13.982  1.00  0.00     0.042 C 
BRANCH  43  44
ATOM     44  C   UNL     1       5.561 -12.086 -14.250  1.00  0.00     0.118 C 
BRANCH  44  45
ATOM     45  N   UNL     1       6.772 -11.306 -14.532  1.00  0.00    -0.352 N 
ATOM     46  C   UNL     1       8.060 -11.786 -14.761  1.00  0.00     0.251 C 
ATOM     47  H   UNL     1       6.661 -10.328 -14.564  1.00  0.00     0.163 HD
ATOM     48  O   UNL     1       9.040 -11.072 -14.590  1.00  0.00    -0.269 OA
BRANCH  46  49
ATOM     49  C   UNL     1       8.221 -13.184 -15.212  1.00  0.00     0.039 A 
ATOM     50  C   UNL     1       9.294 -14.015 -14.884  1.00  0.00     0.014 A 
ATOM     51  C   UNL     1       7.169 -13.700 -15.933  1.00  0.00     0.014 A 
ATOM     52  C   UNL     1       9.231 -15.349 -15.297  1.00  0.00     0.010 A 
ATOM     53  C   UNL     1       6.912 -15.016 -15.757  1.00  0.00     0.010 A 
ATOM     54  C   UNL     1       8.005 -15.836 -15.770  1.00  0.00    -0.014 A 
BRANCH  54  55
ATOM     55  C   UNL     1       7.738 -17.202 -16.180  1.00  0.00     0.031 A 
ATOM     56  C   UNL     1       8.042 -18.179 -15.125  1.00  0.00     0.074 A 
ATOM     57  C   UNL     1       7.058 -17.539 -17.302  1.00  0.00     0.049 A 
ATOM     58  N   UNL     1       9.109 -18.892 -15.028  1.00  0.00    -0.248 NA
ATOM     59  C   UNL     1       7.179 -18.207 -13.934  1.00  0.00     0.031 C 
ATOM     60  C   UNL     1       6.369 -16.677 -18.278  1.00  0.00     0.029 A 
ATOM     61  N   UNL     1       6.765 -18.782 -17.768  1.00  0.00    -0.354 N 
ATOM     62  C   UNL     1       8.936 -19.655 -13.885  1.00  0.00     0.074 A 
ATOM     63  C   UNL     1       7.879 -19.019 -13.139  1.00  0.00     0.031 C 
ATOM     64  C   UNL     1       5.577 -17.430 -19.080  1.00  0.00     0.029 A 
ATOM     65  C   UNL     1       5.829 -18.830 -18.796  1.00  0.00     0.049 A 
ATOM     66  H   UNL     1       7.186 -19.594 -17.402  1.00  0.00     0.167 HD
ATOM     67  C   UNL     1       9.455 -20.910 -13.810  1.00  0.00     0.031 A 
ATOM     68  C   UNL     1       5.301 -19.949 -19.356  1.00  0.00     0.031 A 
ATOM     69  C   UNL     1      10.385 -21.154 -14.891  1.00  0.00     0.049 A 
ATOM     70  C   UNL     1       6.223 -21.066 -19.041  1.00  0.00     0.074 A 
ATOM     71  C   UNL     1      11.555 -20.557 -15.322  1.00  0.00     0.029 A 
ATOM     72  N   UNL     1       9.903 -21.861 -15.970  1.00  0.00    -0.354 N 
ATOM     73  N   UNL     1       7.432 -21.148 -19.520  1.00  0.00    -0.248 NA
ATOM     74  C   UNL     1       5.983 -21.823 -17.822  1.00  0.00     0.031 C 
ATOM     75  C   UNL     1      11.459 -20.545 -16.746  1.00  0.00     0.029 A 
ATOM     76  C   UNL     1      10.289 -21.212 -17.115  1.00  0.00     0.049 A 
ATOM     77  H   UNL     1       9.373 -22.690 -15.927  1.00  0.00     0.167 HD
ATOM     78  C   UNL     1       8.207 -21.570 -18.449  1.00  0.00     0.074 A 
ATOM     79  C   UNL     1       7.247 -22.066 -17.461  1.00  0.00     0.031 C 
ATOM     80  C   UNL     1       9.520 -21.205 -18.343  1.00  0.00     0.031 A 
BRANCH  67  81
ATOM     81  C   UNL     1       8.787 -22.042 -13.071  1.00  0.00    -0.014 A 
ATOM     82  C   UNL     1       9.418 -23.298 -13.074  1.00  0.00     0.009 A 
ATOM     83  C   UNL     1       7.456 -22.006 -12.615  1.00  0.00     0.009 A 
ATOM     84  C   UNL     1       8.723 -24.462 -12.730  1.00  0.00     0.001 A 
ATOM     85  C   UNL     1       6.771 -23.160 -12.232  1.00  0.00     0.001 A 
ATOM     86  C   UNL     1       7.396 -24.394 -12.320  1.00  0.00     0.000 A 
ENDBRANCH  67  81
BRANCH  68  87
ATOM     87  C   UNL     1       3.940 -20.186 -19.890  1.00  0.00    -0.014 A 
ATOM     88  C   UNL     1       3.666 -21.301 -20.702  1.00  0.00     0.009 A 
ATOM     89  C   UNL     1       2.844 -19.485 -19.357  1.00  0.00     0.009 A 
ATOM     90  C   UNL     1       2.348 -21.724 -20.930  1.00  0.00     0.001 A 
ATOM     91  C   UNL     1       1.528 -19.909 -19.583  1.00  0.00     0.001 A 
ATOM     92  C   UNL     1       1.280 -21.038 -20.355  1.00  0.00     0.000 A 
ENDBRANCH  68  87
BRANCH  80  93
ATOM     93  C   UNL     1      10.162 -20.527 -19.533  1.00  0.00    -0.014 A 
ATOM     94  C   UNL     1       9.738 -19.287 -20.044  1.00  0.00     0.009 A 
ATOM     95  C   UNL     1      11.333 -21.092 -20.057  1.00  0.00     0.009 A 
ATOM     96  C   UNL     1      10.453 -18.648 -21.065  1.00  0.00     0.001 A 
ATOM     97  C   UNL     1      12.058 -20.446 -21.061  1.00  0.00     0.001 A 
ATOM     98  C   UNL     1      11.616 -19.227 -21.569  1.00  0.00     0.000 A 
ENDBRANCH  80  93
ENDBRANCH  54  55
ENDBRANCH  46  49
ENDBRANCH  44  45
ENDBRANCH  43  44
ENDBRANCH  42  43
ENDBRANCH  40  42
ENDBRANCH  37  38
ENDBRANCH  36  37
ENDBRANCH  35  36
ENDBRANCH   1  35
TORSDOF 25
