REMARK SMILES O=C(NCCCNC(=O)[C@@]1([NH2+]C2CC2)CC[C@@H]([N@@H+]2CC[N@@H+]3CCC[C@@H]3C2)C1)c1ccc(-c2c3nc(c(-c4ccccc4)c4ccc([nH]4)c(-c4ccccc4)c4nc(c(-c5ccccc5)c5ccc2[nH]5)C=C4)C=C3)cc1
REMARK SMILES IDX 5 1 4 2 3 3 1 4 2 5 28 7 29 8 75 9 30 10 74 11 31 12 32 13
REMARK SMILES IDX 33 14 68 15 34 16 73 17 67 18 69 19 35 20 72 21 66 22 65 23
REMARK SMILES IDX 36 25 58 26 43 27 57 28 44 29 47 30 56 31 70 32 45 33 46 34
REMARK SMILES IDX 55 36 71 37 48 38 37 39 38 40 42 41 39 42 41 43 40 44 59 45
REMARK SMILES IDX 60 46 64 47 61 48 63 49 62 50 49 51 50 52 54 53 51 54 53 55
REMARK SMILES IDX 52 56 6 57 7 58 8 59 9 61 10 62 15 63 27 64 16 65 17 66
REMARK SMILES IDX 11 67 12 70 13 71 14 72 18 73 19 74 26 75 20 77 25 78 21 79
REMARK SMILES IDX 24 80 22 81 23 83
REMARK H PARENT 3 6 69 24 47 35 7 60 11 68 11 69 18 76 21 82
REMARK Flexibility Score: inf
ROOT
ATOM      1  C   UNL     1       3.969   2.589   0.415  1.00  0.00     0.042 C 
ENDROOT
BRANCH   1   2
ATOM      2  C   UNL     1       3.942   1.179   0.989  1.00  0.00     0.118 C 
BRANCH   2   3
ATOM      3  N   UNL     1       2.604   0.620   0.951  1.00  0.00    -0.352 N 
ATOM      4  O   UNL     1       0.866  -0.453   0.009  1.00  0.00    -0.269 OA
ATOM      5  C   UNL     1       2.085  -0.310   0.086  1.00  0.00     0.251 C 
ATOM      6  H   UNL     1       1.984   0.952   1.639  1.00  0.00     0.163 HD
BRANCH   5   7
ATOM      7  C   UNL     1       2.975  -1.153  -0.748  1.00  0.00     0.039 A 
ATOM      8  C   UNL     1       4.134  -1.726  -0.215  1.00  0.00     0.014 A 
ATOM      9  C   UNL     1       2.576  -1.475  -2.050  1.00  0.00     0.014 A 
ATOM     10  C   UNL     1       4.922  -2.569  -0.996  1.00  0.00     0.010 A 
ATOM     11  C   UNL     1       3.326  -2.379  -2.809  1.00  0.00     0.010 A 
ATOM     12  C   UNL     1       4.495  -2.945  -2.280  1.00  0.00    -0.014 A 
BRANCH  12  13
ATOM     13  C   UNL     1       5.170  -4.073  -2.967  1.00  0.00     0.031 A 
ATOM     14  C   UNL     1       5.952  -3.880  -4.231  1.00  0.00     0.074 A 
ATOM     15  C   UNL     1       5.036  -5.303  -2.433  1.00  0.00     0.049 A 
ATOM     16  N   UNL     1       6.582  -4.778  -4.947  1.00  0.00    -0.248 NA
ATOM     17  C   UNL     1       6.036  -2.514  -4.769  1.00  0.00     0.031 C 
ATOM     18  C   UNL     1       4.270  -5.618  -1.222  1.00  0.00     0.029 A 
ATOM     19  N   UNL     1       5.536  -6.516  -2.831  1.00  0.00    -0.354 N 
ATOM     20  C   UNL     1       7.122  -4.093  -6.027  1.00  0.00     0.074 A 
ATOM     21  C   UNL     1       6.738  -2.704  -5.880  1.00  0.00     0.031 C 
ATOM     22  C   UNL     1       4.377  -6.928  -0.960  1.00  0.00     0.029 A 
ATOM     23  C   UNL     1       5.169  -7.555  -2.010  1.00  0.00     0.049 A 
ATOM     24  H   UNL     1       6.103  -6.632  -3.627  1.00  0.00     0.167 HD
ATOM     25  C   UNL     1       7.868  -4.583  -7.046  1.00  0.00     0.031 A 
ATOM     26  C   UNL     1       5.417  -8.873  -2.102  1.00  0.00     0.031 A 
ATOM     27  C   UNL     1       8.253  -5.964  -7.184  1.00  0.00     0.049 A 
ATOM     28  C   UNL     1       6.223  -9.385  -3.256  1.00  0.00     0.074 A 
ATOM     29  C   UNL     1       9.069  -6.538  -8.145  1.00  0.00     0.029 A 
ATOM     30  N   UNL     1       7.837  -6.989  -6.350  1.00  0.00    -0.354 N 
ATOM     31  N   UNL     1       6.784  -8.711  -4.229  1.00  0.00    -0.248 NA
ATOM     32  C   UNL     1       6.421 -10.839  -3.330  1.00  0.00     0.031 C 
ATOM     33  C   UNL     1       9.107  -7.918  -7.920  1.00  0.00     0.029 A 
ATOM     34  C   UNL     1       8.347  -8.197  -6.797  1.00  0.00     0.049 A 
ATOM     35  H   UNL     1       7.265  -6.876  -5.557  1.00  0.00     0.167 HD
ATOM     36  C   UNL     1       7.401  -9.657  -5.033  1.00  0.00     0.074 A 
ATOM     37  C   UNL     1       7.171 -10.949  -4.417  1.00  0.00     0.031 C 
ATOM     38  C   UNL     1       8.091  -9.473  -6.184  1.00  0.00     0.031 A 
BRANCH  25  39
ATOM     39  C   UNL     1       8.309  -3.627  -8.116  1.00  0.00    -0.014 A 
ATOM     40  C   UNL     1       9.378  -2.744  -7.904  1.00  0.00     0.009 A 
ATOM     41  C   UNL     1       7.705  -3.675  -9.382  1.00  0.00     0.009 A 
ATOM     42  C   UNL     1       9.823  -1.915  -8.937  1.00  0.00     0.001 A 
ATOM     43  C   UNL     1       8.162  -2.858 -10.417  1.00  0.00     0.001 A 
ATOM     44  C   UNL     1       9.219  -1.977 -10.193  1.00  0.00     0.000 A 
ENDBRANCH  25  39
BRANCH  26  45
ATOM     45  C   UNL     1       4.858  -9.803  -1.088  1.00  0.00    -0.014 A 
ATOM     46  C   UNL     1       5.694 -10.426  -0.151  1.00  0.00     0.009 A 
ATOM     47  C   UNL     1       3.478 -10.063  -1.051  1.00  0.00     0.009 A 
ATOM     48  C   UNL     1       5.160 -11.308   0.791  1.00  0.00     0.001 A 
ATOM     49  C   UNL     1       2.945 -10.923  -0.091  1.00  0.00     0.001 A 
ATOM     50  C   UNL     1       3.788 -11.552   0.824  1.00  0.00     0.000 A 
ENDBRANCH  26  45
BRANCH  38  51
ATOM     51  C   UNL     1       8.635 -10.702  -6.847  1.00  0.00    -0.014 A 
ATOM     52  C   UNL     1       7.788 -11.566  -7.559  1.00  0.00     0.009 A 
ATOM     53  C   UNL     1      10.005 -10.991  -6.775  1.00  0.00     0.009 A 
ATOM     54  C   UNL     1       8.302 -12.714  -8.164  1.00  0.00     0.001 A 
ATOM     55  C   UNL     1      10.519 -12.128  -7.401  1.00  0.00     0.001 A 
ATOM     56  C   UNL     1       9.666 -12.992  -8.087  1.00  0.00     0.000 A 
ENDBRANCH  38  51
ENDBRANCH  12  13
ENDBRANCH   5   7
ENDBRANCH   2   3
ENDBRANCH   1   2
BRANCH   1  57
ATOM     57  C   UNL     1       3.678   3.679   1.440  1.00  0.00     0.118 C 
BRANCH  57  58
ATOM     58  N   UNL     1       4.633   3.685   2.540  1.00  0.00    -0.351 N 
ATOM     59  C   UNL     1       5.725   4.416   2.885  1.00  0.00     0.281 C 
ATOM     60  H   UNL     1       4.438   2.981   3.200  1.00  0.00     0.163 HD
ATOM     61  O   UNL     1       6.340   3.967   3.865  1.00  0.00    -0.268 OA
BRANCH  59  62
ATOM     62  C   UNL     1       6.194   5.725   2.191  1.00  0.00     0.181 C 
ATOM     63  C   UNL     1       5.186   6.481   1.320  1.00  0.00     0.085 C 
ATOM     64  C   UNL     1       6.341   6.748   3.369  1.00  0.00     0.144 C 
ATOM     65  C   UNL     1       5.588   7.945   1.369  1.00  0.00     0.072 C 
ATOM     66  C   UNL     1       6.129   8.160   2.786  1.00  0.00     0.191 C 
BRANCH  62  67
ATOM     67  N   UNL     1       7.560   5.627   1.626  1.00  0.00    -0.331 N 
ATOM     68  H   UNL     1       8.171   5.493   2.432  1.00  0.00     0.347 HD
ATOM     69  H   UNL     1       7.566   6.472   1.054  1.00  0.00     0.347 HD
BRANCH  67  70
ATOM     70  C   UNL     1       8.024   4.665   0.637  1.00  0.00     0.183 C 
ATOM     71  C   UNL     1       7.633   3.223   0.590  1.00  0.00     0.071 C 
ATOM     72  C   UNL     1       7.199   4.166  -0.502  1.00  0.00     0.071 C 
ENDBRANCH  67  70
ENDBRANCH  62  67
BRANCH  66  73
ATOM     73  N   UNL     1       5.295   9.063   3.586  1.00  0.00    -0.323 N 
ATOM     74  C   UNL     1       6.024   9.657   4.725  1.00  0.00     0.324 C 
ATOM     75  C   UNL     1       3.963   8.576   3.970  1.00  0.00     0.328 C 
ATOM     76  H   UNL     1       5.082   9.807   2.922  1.00  0.00     0.348 HD
ATOM     77  C   UNL     1       5.229   9.792   6.046  1.00  0.00     0.324 C 
ATOM     78  C   UNL     1       3.160   9.653   4.738  1.00  0.00     0.240 C 
ATOM     79  N   UNL     1       3.863  10.295   5.871  1.00  0.00    -0.323 N 
ATOM     80  C   UNL     1       1.857   9.103   5.317  1.00  0.00     0.077 C 
ATOM     81  C   UNL     1       3.048  10.135   7.078  1.00  0.00     0.263 C 
ATOM     82  H   UNL     1       3.974  11.289   5.671  1.00  0.00     0.348 HD
ATOM     83  C   UNL     1       1.636   9.953   6.553  1.00  0.00     0.068 C 
ENDBRANCH  66  73
ENDBRANCH  59  62
ENDBRANCH  57  58
ENDBRANCH   1  57
TORSDOF 13
