REMARK SMILES CCCCc1nc(C[N@H+]2CC[NH2+][C@H](C(=O)NCCCNC(=O)c3ccc(-c4c5nc(c(-c6ccccc6)c6ccc([nH]6)c(-c6ccccc6)c6nc(c(-c7ccccc7)c7ccc4[nH]7)C=C6)C=C5)cc3)C2)c(Cl)[nH]1
REMARK SMILES IDX 14 1 15 2 16 3 13 5 9 6 10 7 71 8 11 10 12 11 8 14 7 15 5 16
REMARK SMILES IDX 6 17 74 18 72 19 73 21 4 22 3 23 2 24 1 25 17 26 18 27 19 28
REMARK SMILES IDX 20 29 21 30 22 32 23 33 24 34 70 35 25 36 69 37 26 38 27 39
REMARK SMILES IDX 28 40 63 41 29 42 68 43 62 44 64 45 30 46 67 47 61 48 60 49
REMARK SMILES IDX 31 51 53 52 38 53 52 54 39 55 42 56 51 57 65 58 40 59 41 60
REMARK SMILES IDX 50 62 66 63 43 64 32 65 33 66 37 67 34 68 36 69 35 70 54 71
REMARK SMILES IDX 55 72 59 73 56 74 58 75 57 76 44 77 45 78 49 79 46 80 48 81
REMARK SMILES IDX 47 82
REMARK H PARENT 16 4 9 9 12 12 12 13 74 20 20 31 64 50 42 61
REMARK Flexibility Score: inf
ROOT
ATOM      1  C   UNL     1      -0.780  -2.414  -4.302  1.00  0.00     0.284 C 
ATOM      2  O   UNL     1      -0.622  -3.364  -3.530  1.00  0.00    -0.268 OA
ATOM      3  N   UNL     1       0.260  -2.123  -5.148  1.00  0.00    -0.351 N 
ATOM      4  H   UNL     1       1.117  -2.556  -4.931  1.00  0.00     0.163 HD
ENDROOT
BRANCH   1   5
ATOM      5  C   UNL     1      -2.016  -1.495  -4.240  1.00  0.00     0.328 C 
ATOM      6  N   UNL     1      -4.366  -1.296  -3.205  1.00  0.00    -0.320 N 
ATOM      7  C   UNL     1      -4.789  -0.733  -4.495  1.00  0.00     0.324 C 
ATOM      8  C   UNL     1      -3.112  -2.080  -3.304  1.00  0.00     0.339 C 
ATOM      9  H   UNL     1      -5.093  -1.970  -2.967  1.00  0.00     0.348 HD
ATOM     10  C   UNL     1      -3.660  -0.218  -5.411  1.00  0.00     0.323 C 
ATOM     11  N   UNL     1      -2.588  -1.209  -5.584  1.00  0.00    -0.327 N 
ATOM     12  H   UNL     1      -1.864  -0.834  -6.197  1.00  0.00     0.347 HD
ATOM     13  H   UNL     1      -2.955  -2.062  -6.005  1.00  0.00     0.347 HD
BRANCH   6  14
ATOM     14  C   UNL     1      -4.406  -0.356  -2.070  1.00  0.00     0.323 C 
BRANCH  14  15
ATOM     15  C   UNL     1      -3.373   0.720  -2.122  1.00  0.00     0.132 A 
ATOM     16  C   UNL     1      -1.368   1.527  -2.143  1.00  0.00     0.107 A 
ATOM     17  N   UNL     1      -2.053   0.452  -1.806  1.00  0.00    -0.231 NA
ATOM     18  N   UNL     1      -2.216   2.547  -2.501  1.00  0.00    -0.333 N 
ATOM     19  C   UNL     1      -3.476   2.032  -2.504  1.00  0.00     0.135 A 
ATOM     20  H   UNL     1      -1.960   3.474  -2.715  1.00  0.00     0.169 HD
ATOM     21  Cl  UNL     1      -4.752   3.006  -3.037  1.00  0.00    -0.062 Cl
BRANCH  16  22
ATOM     22  C   UNL     1       0.114   1.603  -2.277  1.00  0.00     0.075 C 
BRANCH  22  23
ATOM     23  C   UNL     1       0.824   2.148  -1.043  1.00  0.00     0.008 C 
BRANCH  23  24
ATOM     24  C   UNL     1       0.565   1.379   0.256  1.00  0.00    -0.003 C 
ATOM     25  C   UNL     1       1.011  -0.075   0.211  1.00  0.00     0.004 C 
ENDBRANCH  23  24
ENDBRANCH  22  23
ENDBRANCH  16  22
ENDBRANCH  14  15
ENDBRANCH   6  14
ENDBRANCH   1   5
BRANCH   3  26
ATOM     26  C   UNL     1       0.275  -1.263  -6.321  1.00  0.00     0.118 C 
BRANCH  26  27
ATOM     27  C   UNL     1       0.655   0.192  -6.038  1.00  0.00     0.042 C 
BRANCH  27  28
ATOM     28  C   UNL     1       2.148   0.420  -6.220  1.00  0.00     0.118 C 
BRANCH  28  29
ATOM     29  N   UNL     1       2.572   0.166  -7.604  1.00  0.00    -0.352 N 
ATOM     30  C   UNL     1       3.834   0.015  -8.146  1.00  0.00     0.251 C 
ATOM     31  H   UNL     1       1.834   0.092  -8.252  1.00  0.00     0.163 HD
ATOM     32  O   UNL     1       4.011   0.066  -9.348  1.00  0.00    -0.269 OA
BRANCH  30  33
ATOM     33  C   UNL     1       4.967  -0.205  -7.235  1.00  0.00     0.039 A 
ATOM     34  C   UNL     1       6.194   0.436  -7.437  1.00  0.00     0.014 A 
ATOM     35  C   UNL     1       4.761  -1.033  -6.140  1.00  0.00     0.014 A 
ATOM     36  C   UNL     1       7.184   0.307  -6.468  1.00  0.00     0.010 A 
ATOM     37  C   UNL     1       5.651  -1.002  -5.105  1.00  0.00     0.010 A 
ATOM     38  C   UNL     1       6.891  -0.399  -5.295  1.00  0.00    -0.014 A 
BRANCH  38  39
ATOM     39  C   UNL     1       7.822  -0.451  -4.179  1.00  0.00     0.031 A 
ATOM     40  C   UNL     1       8.125   0.869  -3.567  1.00  0.00     0.074 A 
ATOM     41  C   UNL     1       8.116  -1.621  -3.570  1.00  0.00     0.049 A 
ATOM     42  N   UNL     1       9.254   1.495  -3.542  1.00  0.00    -0.248 NA
ATOM     43  C   UNL     1       6.995   1.657  -3.041  1.00  0.00     0.031 C 
ATOM     44  C   UNL     1       7.565  -2.952  -3.864  1.00  0.00     0.029 A 
ATOM     45  N   UNL     1       8.847  -1.845  -2.449  1.00  0.00    -0.354 N 
ATOM     46  C   UNL     1       9.028   2.653  -2.801  1.00  0.00     0.074 A 
ATOM     47  C   UNL     1       7.598   2.805  -2.727  1.00  0.00     0.031 C 
ATOM     48  C   UNL     1       7.770  -3.768  -2.808  1.00  0.00     0.029 A 
ATOM     49  C   UNL     1       8.612  -3.078  -1.850  1.00  0.00     0.049 A 
ATOM     50  H   UNL     1       9.490  -1.191  -2.090  1.00  0.00     0.167 HD
ATOM     51  C   UNL     1      10.018   3.220  -2.055  1.00  0.00     0.031 A 
ATOM     52  C   UNL     1       9.043  -3.484  -0.631  1.00  0.00     0.031 A 
ATOM     53  C   UNL     1      11.312   2.688  -2.415  1.00  0.00     0.049 A 
ATOM     54  C   UNL     1      10.139  -2.573  -0.229  1.00  0.00     0.074 A 
ATOM     55  C   UNL     1      12.050   2.619  -3.580  1.00  0.00     0.029 A 
ATOM     56  N   UNL     1      11.849   1.743  -1.572  1.00  0.00    -0.354 N 
ATOM     57  N   UNL     1      11.293  -2.526  -0.831  1.00  0.00    -0.248 NA
ATOM     58  C   UNL     1       9.794  -1.395   0.551  1.00  0.00     0.031 C 
ATOM     59  C   UNL     1      12.660   1.329  -3.552  1.00  0.00     0.029 A 
ATOM     60  C   UNL     1      12.332   0.718  -2.340  1.00  0.00     0.049 A 
ATOM     61  H   UNL     1      11.881   1.795  -0.590  1.00  0.00     0.167 HD
ATOM     62  C   UNL     1      11.604  -1.175  -0.888  1.00  0.00     0.074 A 
ATOM     63  C   UNL     1      10.707  -0.541   0.079  1.00  0.00     0.031 C 
ATOM     64  C   UNL     1      12.341  -0.667  -1.921  1.00  0.00     0.031 A 
BRANCH  51  65
ATOM     65  C   UNL     1       9.783   3.880  -0.709  1.00  0.00    -0.014 A 
ATOM     66  C   UNL     1      10.902   4.337   0.014  1.00  0.00     0.009 A 
ATOM     67  C   UNL     1       8.569   3.816   0.002  1.00  0.00     0.009 A 
ATOM     68  C   UNL     1      10.832   4.597   1.389  1.00  0.00     0.001 A 
ATOM     69  C   UNL     1       8.485   4.117   1.364  1.00  0.00     0.001 A 
ATOM     70  C   UNL     1       9.625   4.471   2.067  1.00  0.00     0.000 A 
ENDBRANCH  51  65
BRANCH  52  71
ATOM     71  C   UNL     1       8.425  -4.437   0.314  1.00  0.00    -0.014 A 
ATOM     72  C   UNL     1       9.178  -4.998   1.357  1.00  0.00     0.009 A 
ATOM     73  C   UNL     1       7.027  -4.595   0.357  1.00  0.00     0.009 A 
ATOM     74  C   UNL     1       8.552  -5.653   2.427  1.00  0.00     0.001 A 
ATOM     75  C   UNL     1       6.403  -5.253   1.423  1.00  0.00     0.001 A 
ATOM     76  C   UNL     1       7.165  -5.766   2.467  1.00  0.00     0.000 A 
ENDBRANCH  52  71
BRANCH  64  77
ATOM     77  C   UNL     1      13.019  -1.643  -2.853  1.00  0.00    -0.014 A 
ATOM     78  C   UNL     1      12.321  -2.585  -3.631  1.00  0.00     0.009 A 
ATOM     79  C   UNL     1      14.398  -1.501  -3.066  1.00  0.00     0.009 A 
ATOM     80  C   UNL     1      12.990  -3.378  -4.569  1.00  0.00     0.001 A 
ATOM     81  C   UNL     1      15.062  -2.277  -4.018  1.00  0.00     0.001 A 
ATOM     82  C   UNL     1      14.360  -3.220  -4.765  1.00  0.00     0.000 A 
ENDBRANCH  64  77
ENDBRANCH  38  39
ENDBRANCH  30  33
ENDBRANCH  28  29
ENDBRANCH  27  28
ENDBRANCH  26  27
ENDBRANCH   3  26
TORSDOF 15
