REMARK SMILES O=C(NCCCNC(=O)c1ccc(-c2c3nc(c(-c4ccccc4)c4ccc([nH]4)c(-c4ccccc4)c4nc(c(-c5ccccc5)c5ccc2[nH]5)C=C4)C=C3)cc1)C1=Cc2c(ccc(Cl)c2-c2ccccc2)O[C@H]1C(F)(F)F
REMARK SMILES IDX 5 1 4 2 3 3 1 4 2 5 58 7 59 8 74 9 60 10 73 11 61 12 66 13
REMARK SMILES IDX 62 14 64 15 63 16 65 17 75 18 76 19 77 20 78 21 67 22 68 23
REMARK SMILES IDX 72 24 69 25 71 26 70 27 6 28 7 29 8 30 9 32 10 33 11 34
REMARK SMILES IDX 57 35 12 36 56 37 13 38 14 39 15 40 50 41 16 42 55 43 49 44
REMARK SMILES IDX 51 45 17 46 54 47 48 48 47 49 18 51 40 52 25 53 39 54 26 55
REMARK SMILES IDX 29 56 38 57 52 58 27 59 28 60 37 62 53 63 30 64 19 65 20 66
REMARK SMILES IDX 24 67 21 68 23 69 22 70 41 71 42 72 46 73 43 74 45 75 44 76
REMARK SMILES IDX 31 77 32 78 36 79 33 80 35 81 34 82
REMARK H PARENT 3 6 7 31 51 50 29 61
REMARK Flexibility Score: inf
ROOT
ATOM      1  C   UNL     1       4.192  -3.196   0.442  1.00  0.00     0.042 C 
ENDROOT
BRANCH   1   2
ATOM      2  C   UNL     1       3.927  -1.727   0.198  1.00  0.00     0.118 C 
BRANCH   2   3
ATOM      3  N   UNL     1       2.562  -1.271   0.344  1.00  0.00    -0.352 N 
ATOM      4  O   UNL     1       0.926   0.250   0.613  1.00  0.00    -0.270 OA
ATOM      5  C   UNL     1       2.126   0.019   0.492  1.00  0.00     0.251 C 
ATOM      6  H   UNL     1       1.867  -1.968   0.336  1.00  0.00     0.163 HD
BRANCH   5   7
ATOM      7  C   UNL     1       3.089   1.147   0.508  1.00  0.00     0.067 C 
ATOM      8  C   UNL     1       3.519   1.624  -0.667  1.00  0.00     0.026 C 
ATOM      9  C   UNL     1       3.935   1.402   1.718  1.00  0.00     0.314 C 
ATOM     10  C   UNL     1       4.887   1.094  -0.936  1.00  0.00     0.027 A 
ATOM     11  O   UNL     1       5.370   1.203   1.454  1.00  0.00    -0.475 OA
ATOM     12  C   UNL     1       5.738   0.891   0.163  1.00  0.00     0.128 A 
ATOM     13  C   UNL     1       5.202   0.614  -2.236  1.00  0.00     0.011 A 
ATOM     14  C   UNL     1       6.929   0.197  -0.015  1.00  0.00     0.049 A 
ATOM     15  C   UNL     1       6.397  -0.104  -2.383  1.00  0.00     0.049 A 
ATOM     16  C   UNL     1       7.246  -0.316  -1.280  1.00  0.00     0.025 A 
ATOM     17  Cl  UNL     1       6.842  -0.822  -3.888  1.00  0.00    -0.084 Cl
BRANCH   9  18
ATOM     18  C   UNL     1       3.676   2.809   2.302  1.00  0.00     0.429 C 
ATOM     19  F   UNL     1       2.765   3.520   1.594  1.00  0.00    -0.167 F 
ATOM     20  F   UNL     1       3.213   2.728   3.572  1.00  0.00    -0.167 F 
ATOM     21  F   UNL     1       4.804   3.558   2.335  1.00  0.00    -0.167 F 
ENDBRANCH   9  18
BRANCH  13  22
ATOM     22  C   UNL     1       4.153   0.768  -3.268  1.00  0.00    -0.016 A 
ATOM     23  C   UNL     1       3.245  -0.280  -3.499  1.00  0.00     0.009 A 
ATOM     24  C   UNL     1       3.812   2.058  -3.712  1.00  0.00     0.009 A 
ATOM     25  C   UNL     1       1.974  -0.019  -4.012  1.00  0.00     0.001 A 
ATOM     26  C   UNL     1       2.536   2.318  -4.212  1.00  0.00     0.001 A 
ATOM     27  C   UNL     1       1.608   1.286  -4.330  1.00  0.00     0.000 A 
ENDBRANCH  13  22
ENDBRANCH   5   7
ENDBRANCH   2   3
ENDBRANCH   1   2
BRANCH   1  28
ATOM     28  C   UNL     1       3.841  -4.113  -0.718  1.00  0.00     0.118 C 
BRANCH  28  29
ATOM     29  N   UNL     1       4.609  -3.893  -1.943  1.00  0.00    -0.352 N 
ATOM     30  C   UNL     1       5.457  -4.692  -2.676  1.00  0.00     0.251 C 
ATOM     31  H   UNL     1       4.498  -2.990  -2.319  1.00  0.00     0.163 HD
ATOM     32  O   UNL     1       5.949  -4.246  -3.711  1.00  0.00    -0.269 OA
BRANCH  30  33
ATOM     33  C   UNL     1       5.848  -6.043  -2.221  1.00  0.00     0.039 A 
ATOM     34  C   UNL     1       7.156  -6.482  -2.457  1.00  0.00     0.014 A 
ATOM     35  C   UNL     1       4.962  -6.876  -1.548  1.00  0.00     0.014 A 
ATOM     36  C   UNL     1       7.591  -7.697  -1.922  1.00  0.00     0.010 A 
ATOM     37  C   UNL     1       5.437  -7.996  -0.880  1.00  0.00     0.010 A 
ATOM     38  C   UNL     1       6.753  -8.434  -1.072  1.00  0.00    -0.014 A 
BRANCH  38  39
ATOM     39  C   UNL     1       7.214  -9.673  -0.394  1.00  0.00     0.031 A 
ATOM     40  C   UNL     1       6.460 -10.965  -0.588  1.00  0.00     0.074 A 
ATOM     41  C   UNL     1       8.257  -9.620   0.459  1.00  0.00     0.049 A 
ATOM     42  N   UNL     1       6.657 -12.129  -0.022  1.00  0.00    -0.248 NA
ATOM     43  C   UNL     1       5.302 -10.936  -1.498  1.00  0.00     0.031 C 
ATOM     44  C   UNL     1       9.023  -8.416   0.796  1.00  0.00     0.029 A 
ATOM     45  N   UNL     1       8.856 -10.607   1.200  1.00  0.00    -0.354 N 
ATOM     46  C   UNL     1       5.629 -12.947  -0.477  1.00  0.00     0.074 A 
ATOM     47  C   UNL     1       4.772 -12.133  -1.306  1.00  0.00     0.031 C 
ATOM     48  C   UNL     1      10.019  -8.745   1.634  1.00  0.00     0.029 A 
ATOM     49  C   UNL     1       9.937 -10.170   1.929  1.00  0.00     0.049 A 
ATOM     50  H   UNL     1       8.541 -11.539   1.210  1.00  0.00     0.167 HD
ATOM     51  C   UNL     1       5.431 -14.268  -0.255  1.00  0.00     0.031 A 
ATOM     52  C   UNL     1      10.772 -10.846   2.740  1.00  0.00     0.031 A 
ATOM     53  C   UNL     1       6.313 -15.088   0.529  1.00  0.00     0.049 A 
ATOM     54  C   UNL     1      10.565 -12.323   2.926  1.00  0.00     0.074 A 
ATOM     55  C   UNL     1       6.255 -16.452   0.750  1.00  0.00     0.029 A 
ATOM     56  N   UNL     1       7.423 -14.616   1.212  1.00  0.00    -0.354 N 
ATOM     57  N   UNL     1       9.634 -13.097   2.423  1.00  0.00    -0.248 NA
ATOM     58  C   UNL     1      11.537 -13.022   3.777  1.00  0.00     0.031 C 
ATOM     59  C   UNL     1       7.306 -16.799   1.605  1.00  0.00     0.029 A 
ATOM     60  C   UNL     1       8.050 -15.659   1.870  1.00  0.00     0.049 A 
ATOM     61  H   UNL     1       7.721 -13.678   1.227  1.00  0.00     0.167 HD
ATOM     62  C   UNL     1       9.920 -14.377   2.877  1.00  0.00     0.074 A 
ATOM     63  C   UNL     1      11.128 -14.278   3.672  1.00  0.00     0.031 C 
ATOM     64  C   UNL     1       9.245 -15.533   2.661  1.00  0.00     0.031 A 
BRANCH  51  65
ATOM     65  C   UNL     1       4.218 -14.904  -0.878  1.00  0.00    -0.014 A 
ATOM     66  C   UNL     1       4.109 -15.063  -2.270  1.00  0.00     0.009 A 
ATOM     67  C   UNL     1       3.176 -15.371  -0.062  1.00  0.00     0.009 A 
ATOM     68  C   UNL     1       2.966 -15.636  -2.832  1.00  0.00     0.001 A 
ATOM     69  C   UNL     1       2.050 -15.975  -0.624  1.00  0.00     0.001 A 
ATOM     70  C   UNL     1       1.940 -16.096  -2.008  1.00  0.00     0.000 A 
ENDBRANCH  51  65
BRANCH  52  71
ATOM     71  C   UNL     1      11.902 -10.144   3.407  1.00  0.00    -0.014 A 
ATOM     72  C   UNL     1      13.226 -10.395   3.015  1.00  0.00     0.009 A 
ATOM     73  C   UNL     1      11.665  -9.227   4.442  1.00  0.00     0.009 A 
ATOM     74  C   UNL     1      14.290  -9.768   3.668  1.00  0.00     0.001 A 
ATOM     75  C   UNL     1      12.729  -8.577   5.072  1.00  0.00     0.001 A 
ATOM     76  C   UNL     1      14.041  -8.857   4.693  1.00  0.00     0.000 A 
ENDBRANCH  52  71
BRANCH  64  77
ATOM     77  C   UNL     1       9.820 -16.779   3.274  1.00  0.00    -0.014 A 
ATOM     78  C   UNL     1       9.786 -16.991   4.661  1.00  0.00     0.009 A 
ATOM     79  C   UNL     1      10.388 -17.760   2.447  1.00  0.00     0.009 A 
ATOM     80  C   UNL     1      10.353 -18.142   5.211  1.00  0.00     0.001 A 
ATOM     81  C   UNL     1      10.923 -18.924   2.998  1.00  0.00     0.001 A 
ATOM     82  C   UNL     1      10.918 -19.108   4.380  1.00  0.00     0.000 A 
ENDBRANCH  64  77
ENDBRANCH  38  39
ENDBRANCH  30  33
ENDBRANCH  28  29
ENDBRANCH   1  28
TORSDOF 12
