REMARK SMILES CC1(C)CCN(c2ncccc2C(=O)NCCCNC(=O)c2ccc(-c3c4nc(c(-c5ccccc5)c5ccc([nH]5)c(-c5ccccc5)c5nc(c(-c6ccccc6)c6ccc3[nH]6)C=C5)C=C4)cc2)C1
REMARK SMILES IDX 17 1 16 2 15 3 13 4 14 5 12 7 7 8 8 9 9 10 11 11 10 12 6 13
REMARK SMILES IDX 1 14 2 15 3 16 4 17 70 18 5 19 18 20 19 21 20 22 21 24 22 25
REMARK SMILES IDX 23 26 69 27 24 28 68 29 25 30 26 31 27 32 62 33 28 34 67 35
REMARK SMILES IDX 61 36 63 37 29 38 66 39 60 40 59 41 30 43 52 44 37 45 51 46
REMARK SMILES IDX 38 47 41 48 50 49 64 50 39 51 40 52 49 54 65 55 42 56 31 57
REMARK SMILES IDX 32 58 36 59 33 60 35 61 34 62 53 63 54 64 58 65 55 66 57 67
REMARK SMILES IDX 56 68 43 69 44 70 48 71 45 72 47 73 46 74
REMARK H PARENT 15 6 19 23 63 42 41 53
REMARK Flexibility Score: inf
ROOT
ATOM      1  C   UNL     1       4.157   5.782   2.611  1.00  0.00     0.042 C 
ENDROOT
BRANCH   1   2
ATOM      2  C   UNL     1       4.581   4.314   2.684  1.00  0.00     0.118 C 
BRANCH   2   3
ATOM      3  N   UNL     1       3.418   3.454   2.758  1.00  0.00    -0.352 N 
ATOM      4  C   UNL     1       2.669   2.722   1.871  1.00  0.00     0.255 C 
ATOM      5  O   UNL     1       1.679   2.215   2.396  1.00  0.00    -0.269 OA
ATOM      6  H   UNL     1       3.078   3.374   3.678  1.00  0.00     0.163 HD
BRANCH   4   7
ATOM      7  C   UNL     1       3.021   2.513   0.425  1.00  0.00     0.082 A 
ATOM      8  C   UNL     1       2.561   1.377  -0.281  1.00  0.00     0.141 A 
ATOM      9  N   UNL     1       3.041   1.072  -1.520  1.00  0.00    -0.238 NA
ATOM     10  C   UNL     1       3.906   1.912  -2.116  1.00  0.00     0.113 A 
ATOM     11  C   UNL     1       3.855   3.400  -0.271  1.00  0.00     0.019 A 
ATOM     12  C   UNL     1       4.316   3.096  -1.549  1.00  0.00     0.021 A 
BRANCH   8  13
ATOM     13  N   UNL     1       1.549   0.556   0.169  1.00  0.00    -0.355 N 
ATOM     14  C   UNL     1      -1.079  -0.187  -1.630  1.00  0.00     0.013 C 
ATOM     15  C   UNL     1      -0.727  -0.117  -0.135  1.00  0.00    -0.016 C 
ATOM     16  C   UNL     1      -2.018  -0.059   0.686  1.00  0.00     0.013 C 
ATOM     17  C   UNL     1       0.156  -1.304   0.286  1.00  0.00     0.030 C 
ATOM     18  C   UNL     1       0.183   1.098   0.157  1.00  0.00     0.124 C 
ATOM     19  C   UNL     1       1.558  -0.866  -0.129  1.00  0.00     0.119 C 
ENDBRANCH   8  13
ENDBRANCH   4   7
ENDBRANCH   2   3
ENDBRANCH   1   2
BRANCH   1  20
ATOM     20  C   UNL     1       3.406   6.264   3.856  1.00  0.00     0.118 C 
BRANCH  20  21
ATOM     21  N   UNL     1       4.241   6.235   5.048  1.00  0.00    -0.352 N 
ATOM     22  C   UNL     1       4.656   7.255   5.864  1.00  0.00     0.251 C 
ATOM     23  H   UNL     1       4.557   5.340   5.311  1.00  0.00     0.163 HD
ATOM     24  O   UNL     1       5.549   7.055   6.681  1.00  0.00    -0.269 OA
BRANCH  22  25
ATOM     25  C   UNL     1       4.041   8.596   5.767  1.00  0.00     0.039 A 
ATOM     26  C   UNL     1       4.866   9.722   5.852  1.00  0.00     0.014 A 
ATOM     27  C   UNL     1       2.657   8.749   5.653  1.00  0.00     0.014 A 
ATOM     28  C   UNL     1       4.309  11.000   5.770  1.00  0.00     0.010 A 
ATOM     29  C   UNL     1       2.109  10.021   5.508  1.00  0.00     0.010 A 
ATOM     30  C   UNL     1       2.928  11.159   5.569  1.00  0.00    -0.014 A 
BRANCH  30  31
ATOM     31  C   UNL     1       2.324  12.506   5.420  1.00  0.00     0.031 A 
ATOM     32  C   UNL     1       1.354  13.022   6.446  1.00  0.00     0.074 A 
ATOM     33  C   UNL     1       2.597  13.237   4.322  1.00  0.00     0.049 A 
ATOM     34  N   UNL     1       0.672  14.140   6.448  1.00  0.00    -0.248 NA
ATOM     35  C   UNL     1       1.099  12.159   7.610  1.00  0.00     0.031 C 
ATOM     36  C   UNL     1       3.493  12.833   3.236  1.00  0.00     0.029 A 
ATOM     37  N   UNL     1       2.140  14.471   3.935  1.00  0.00    -0.354 N 
ATOM     38  C   UNL     1      -0.107  14.104   7.598  1.00  0.00     0.074 A 
ATOM     39  C   UNL     1       0.155  12.838   8.246  1.00  0.00     0.031 C 
ATOM     40  C   UNL     1       3.536  13.811   2.316  1.00  0.00     0.029 A 
ATOM     41  C   UNL     1       2.644  14.890   2.728  1.00  0.00     0.049 A 
ATOM     42  H   UNL     1       1.510  15.005   4.471  1.00  0.00     0.167 HD
ATOM     43  C   UNL     1      -0.954  15.046   8.078  1.00  0.00     0.031 A 
ATOM     44  C   UNL     1       2.409  16.014   2.026  1.00  0.00     0.031 A 
ATOM     45  C   UNL     1      -1.205  16.311   7.440  1.00  0.00     0.049 A 
ATOM     46  C   UNL     1       1.464  17.042   2.578  1.00  0.00     0.074 A 
ATOM     47  C   UNL     1      -2.001  17.355   7.878  1.00  0.00     0.029 A 
ATOM     48  N   UNL     1      -0.663  16.702   6.226  1.00  0.00    -0.354 N 
ATOM     49  N   UNL     1       0.781  17.019   3.697  1.00  0.00    -0.248 NA
ATOM     50  C   UNL     1       1.265  18.256   1.774  1.00  0.00     0.031 C 
ATOM     51  C   UNL     1      -1.975  18.361   6.907  1.00  0.00     0.029 A 
ATOM     52  C   UNL     1      -1.123  17.964   5.889  1.00  0.00     0.049 A 
ATOM     53  H   UNL     1      -0.043  16.163   5.684  1.00  0.00     0.167 HD
ATOM     54  C   UNL     1       0.093  18.224   3.744  1.00  0.00     0.074 A 
ATOM     55  C   UNL     1       0.451  18.960   2.549  1.00  0.00     0.031 C 
ATOM     56  C   UNL     1      -0.758  18.681   4.695  1.00  0.00     0.031 A 
BRANCH  43  57
ATOM     57  C   UNL     1      -1.681  14.734   9.357  1.00  0.00    -0.014 A 
ATOM     58  C   UNL     1      -1.004  14.693  10.587  1.00  0.00     0.009 A 
ATOM     59  C   UNL     1      -3.065  14.506   9.336  1.00  0.00     0.009 A 
ATOM     60  C   UNL     1      -1.693  14.391  11.764  1.00  0.00     0.001 A 
ATOM     61  C   UNL     1      -3.756  14.233  10.518  1.00  0.00     0.001 A 
ATOM     62  C   UNL     1      -3.068  14.165  11.729  1.00  0.00     0.000 A 
ENDBRANCH  43  57
BRANCH  44  63
ATOM     63  C   UNL     1       3.098  16.235   0.729  1.00  0.00    -0.014 A 
ATOM     64  C   UNL     1       4.124  17.186   0.624  1.00  0.00     0.009 A 
ATOM     65  C   UNL     1       2.740  15.492  -0.407  1.00  0.00     0.009 A 
ATOM     66  C   UNL     1       4.762  17.406  -0.599  1.00  0.00     0.001 A 
ATOM     67  C   UNL     1       3.398  15.696  -1.622  1.00  0.00     0.001 A 
ATOM     68  C   UNL     1       4.402  16.658  -1.719  1.00  0.00     0.000 A 
ENDBRANCH  44  63
BRANCH  56  69
ATOM     69  C   UNL     1      -1.335  20.053   4.495  1.00  0.00    -0.014 A 
ATOM     70  C   UNL     1      -2.332  20.291   3.537  1.00  0.00     0.009 A 
ATOM     71  C   UNL     1      -0.900  21.113   5.305  1.00  0.00     0.009 A 
ATOM     72  C   UNL     1      -2.860  21.574   3.373  1.00  0.00     0.001 A 
ATOM     73  C   UNL     1      -1.448  22.388   5.157  1.00  0.00     0.001 A 
ATOM     74  C   UNL     1      -2.421  22.619   4.186  1.00  0.00     0.000 A 
ENDBRANCH  56  69
ENDBRANCH  30  31
ENDBRANCH  22  25
ENDBRANCH  20  21
ENDBRANCH   1  20
TORSDOF 11
