REMARK SMILES Cc1nnc(SCC(=O)Nc2cccc(C(=O)NCCCNC(=O)c3ccc(-c4c5nc(c(-c6ccccc6)c6ccc([nH]6)c(-c6ccccc6)c6nc(c(-c7ccccc7)c7ccc4[nH]7)C=C6)C=C5)cc3)c2)n1-c1ccccc1
REMARK SMILES IDX 16 1 17 2 18 3 15 5 11 6 12 7 73 8 13 9 14 10 10 11 8 12
REMARK SMILES IDX 9 13 7 15 6 16 5 17 1 18 2 19 3 20 74 21 4 22 75 23 76 24
REMARK SMILES IDX 80 25 77 26 79 27 78 28 19 29 20 30 21 31 22 32 23 33 24 35
REMARK SMILES IDX 25 36 26 37 72 38 27 39 71 40 28 41 29 42 30 43 65 44 31 45
REMARK SMILES IDX 70 46 64 47 66 48 32 49 69 50 63 51 62 52 33 54 55 55 40 56
REMARK SMILES IDX 54 57 41 58 44 59 53 60 67 61 42 62 43 63 52 65 68 66 45 67
REMARK SMILES IDX 34 68 35 69 39 70 36 71 38 72 37 73 56 74 57 75 61 76 58 77
REMARK SMILES IDX 60 78 59 79 46 80 47 81 51 82 48 83 50 84 49 85
REMARK H PARENT 18 4 10 14 22 34 66 53 44 64
REMARK Flexibility Score: inf
ROOT
ATOM      1  C   UNL     1      -0.234  -5.748   6.555  1.00  0.00     0.251 C 
ATOM      2  O   UNL     1      -0.038  -6.758   7.234  1.00  0.00    -0.269 OA
ATOM      3  N   UNL     1      -0.738  -5.955   5.300  1.00  0.00    -0.352 N 
ATOM      4  H   UNL     1      -0.893  -6.906   5.098  1.00  0.00     0.163 HD
ENDROOT
BRANCH   1   5
ATOM      5  C   UNL     1       0.081  -4.412   7.148  1.00  0.00     0.041 A 
ATOM      6  C   UNL     1       0.447  -2.016   7.121  1.00  0.00     0.041 A 
ATOM      7  C   UNL     1       0.833  -2.040   8.461  1.00  0.00     0.026 A 
ATOM      8  C   UNL     1       0.109  -3.195   6.462  1.00  0.00     0.040 A 
ATOM      9  C   UNL     1       0.791  -3.232   9.169  1.00  0.00     0.003 A 
ATOM     10  C   UNL     1       0.411  -4.405   8.517  1.00  0.00     0.014 A 
BRANCH   6  11
ATOM     11  N   UNL     1       0.475  -0.778   6.484  1.00  0.00    -0.325 N 
ATOM     12  C   UNL     1      -0.435  -0.161   5.685  1.00  0.00     0.234 C 
ATOM     13  O   UNL     1      -0.195   1.038   5.511  1.00  0.00    -0.274 OA
ATOM     14  H   UNL     1       1.296  -0.259   6.641  1.00  0.00     0.169 HD
BRANCH  12  15
ATOM     15  C   UNL     1      -1.764  -0.757   5.287  1.00  0.00     0.178 C 
BRANCH  15  16
ATOM     16  S   UNL     1      -2.099  -1.424   3.660  1.00  0.00    -0.076 SA
BRANCH  16  17
ATOM     17  C   UNL     1      -0.817  -1.230   2.517  1.00  0.00     0.196 A 
ATOM     18  C   UNL     1       0.995   0.317  -0.234  1.00  0.00     0.090 C 
ATOM     19  C   UNL     1       0.327  -0.534   0.771  1.00  0.00     0.135 A 
ATOM     20  N   UNL     1       0.463  -1.839   0.853  1.00  0.00    -0.134 NA
ATOM     21  N   UNL     1      -0.513  -0.104   1.780  1.00  0.00    -0.274 N 
ATOM     22  N   UNL     1      -0.289  -2.262   1.906  1.00  0.00    -0.123 NA
BRANCH  21  23
ATOM     23  C   UNL     1      -1.096   1.151   1.944  1.00  0.00     0.049 A 
ATOM     24  C   UNL     1      -0.610   1.944   2.974  1.00  0.00     0.027 A 
ATOM     25  C   UNL     1      -2.345   1.377   1.367  1.00  0.00     0.027 A 
ATOM     26  C   UNL     1      -1.446   2.899   3.539  1.00  0.00     0.002 A 
ATOM     27  C   UNL     1      -3.156   2.368   1.910  1.00  0.00     0.002 A 
ATOM     28  C   UNL     1      -2.724   3.096   3.021  1.00  0.00     0.000 A 
ENDBRANCH  21  23
ENDBRANCH  16  17
ENDBRANCH  15  16
ENDBRANCH  12  15
ENDBRANCH   6  11
ENDBRANCH   1   5
BRANCH   3  29
ATOM     29  C   UNL     1      -1.092  -5.075   4.204  1.00  0.00     0.118 C 
BRANCH  29  30
ATOM     30  C   UNL     1       0.133  -4.735   3.356  1.00  0.00     0.042 C 
BRANCH  30  31
ATOM     31  C   UNL     1       0.005  -5.154   1.896  1.00  0.00     0.118 C 
BRANCH  31  32
ATOM     32  N   UNL     1      -1.225  -4.730   1.195  1.00  0.00    -0.352 N 
ATOM     33  C   UNL     1      -1.754  -5.190  -0.012  1.00  0.00     0.251 C 
ATOM     34  H   UNL     1      -1.744  -4.023   1.643  1.00  0.00     0.163 HD
ATOM     35  O   UNL     1      -2.555  -4.550  -0.663  1.00  0.00    -0.269 OA
BRANCH  33  36
ATOM     36  C   UNL     1      -1.297  -6.512  -0.482  1.00  0.00     0.039 A 
ATOM     37  C   UNL     1      -0.864  -6.760  -1.789  1.00  0.00     0.014 A 
ATOM     38  C   UNL     1      -1.111  -7.443   0.519  1.00  0.00     0.014 A 
ATOM     39  C   UNL     1      -0.124  -7.919  -2.026  1.00  0.00     0.010 A 
ATOM     40  C   UNL     1      -0.086  -8.320   0.355  1.00  0.00     0.010 A 
ATOM     41  C   UNL     1       0.299  -8.676  -0.923  1.00  0.00    -0.014 A 
BRANCH  41  42
ATOM     42  C   UNL     1       1.243  -9.781  -0.999  1.00  0.00     0.031 A 
ATOM     43  C   UNL     1       2.501  -9.438  -1.699  1.00  0.00     0.074 A 
ATOM     44  C   UNL     1       1.094 -10.912  -0.265  1.00  0.00     0.049 A 
ATOM     45  N   UNL     1       2.827  -9.759  -2.905  1.00  0.00    -0.248 NA
ATOM     46  C   UNL     1       3.419  -8.473  -1.070  1.00  0.00     0.031 C 
ATOM     47  C   UNL     1       0.066 -11.221   0.747  1.00  0.00     0.029 A 
ATOM     48  N   UNL     1       1.905 -12.000  -0.183  1.00  0.00    -0.354 N 
ATOM     49  C   UNL     1       4.112  -9.263  -3.087  1.00  0.00     0.074 A 
ATOM     50  C   UNL     1       4.316  -8.292  -2.044  1.00  0.00     0.031 C 
ATOM     51  C   UNL     1       0.450 -12.281   1.492  1.00  0.00     0.029 A 
ATOM     52  C   UNL     1       1.634 -12.852   0.887  1.00  0.00     0.049 A 
ATOM     53  H   UNL     1       2.627 -12.173  -0.829  1.00  0.00     0.167 HD
ATOM     54  C   UNL     1       5.006  -9.941  -3.860  1.00  0.00     0.031 A 
ATOM     55  C   UNL     1       2.330 -13.960   1.238  1.00  0.00     0.031 A 
ATOM     56  C   UNL     1       4.346 -10.999  -4.592  1.00  0.00     0.049 A 
ATOM     57  C   UNL     1       3.088 -14.376   0.041  1.00  0.00     0.074 A 
ATOM     58  C   UNL     1       3.385 -11.080  -5.576  1.00  0.00     0.029 A 
ATOM     59  N   UNL     1       4.380 -12.220  -3.963  1.00  0.00    -0.354 N 
ATOM     60  N   UNL     1       2.522 -14.803  -1.051  1.00  0.00    -0.248 NA
ATOM     61  C   UNL     1       4.462 -13.925  -0.101  1.00  0.00     0.031 C 
ATOM     62  C   UNL     1       2.631 -12.255  -5.272  1.00  0.00     0.029 A 
ATOM     63  C   UNL     1       3.207 -12.890  -4.169  1.00  0.00     0.049 A 
ATOM     64  H   UNL     1       5.141 -12.563  -3.440  1.00  0.00     0.167 HD
ATOM     65  C   UNL     1       3.282 -14.253  -2.071  1.00  0.00     0.074 A 
ATOM     66  C   UNL     1       4.539 -13.867  -1.433  1.00  0.00     0.031 C 
ATOM     67  C   UNL     1       2.699 -13.893  -3.253  1.00  0.00     0.031 A 
BRANCH  54  68
ATOM     68  C   UNL     1       6.489 -10.031  -3.559  1.00  0.00    -0.014 A 
ATOM     69  C   UNL     1       7.291 -10.815  -4.411  1.00  0.00     0.009 A 
ATOM     70  C   UNL     1       7.069  -9.643  -2.337  1.00  0.00     0.009 A 
ATOM     71  C   UNL     1       8.564 -11.252  -4.024  1.00  0.00     0.001 A 
ATOM     72  C   UNL     1       8.354 -10.047  -1.961  1.00  0.00     0.001 A 
ATOM     73  C   UNL     1       9.091 -10.875  -2.794  1.00  0.00     0.000 A 
ENDBRANCH  54  68
BRANCH  55  74
ATOM     74  C   UNL     1       2.599 -14.545   2.570  1.00  0.00    -0.014 A 
ATOM     75  C   UNL     1       3.051 -15.871   2.691  1.00  0.00     0.009 A 
ATOM     76  C   UNL     1       2.723 -13.707   3.692  1.00  0.00     0.009 A 
ATOM     77  C   UNL     1       3.660 -16.322   3.871  1.00  0.00     0.001 A 
ATOM     78  C   UNL     1       3.333 -14.158   4.870  1.00  0.00     0.001 A 
ATOM     79  C   UNL     1       3.819 -15.459   4.953  1.00  0.00     0.000 A 
ENDBRANCH  55  74
BRANCH  67  80
ATOM     80  C   UNL     1       1.327 -14.448  -3.552  1.00  0.00    -0.014 A 
ATOM     81  C   UNL     1       0.172 -14.137  -2.814  1.00  0.00     0.009 A 
ATOM     82  C   UNL     1       1.188 -15.229  -4.708  1.00  0.00     0.009 A 
ATOM     83  C   UNL     1      -1.082 -14.614  -3.217  1.00  0.00     0.001 A 
ATOM     84  C   UNL     1      -0.063 -15.687  -5.122  1.00  0.00     0.001 A 
ATOM     85  C   UNL     1      -1.198 -15.384  -4.374  1.00  0.00     0.000 A 
ENDBRANCH  67  80
ENDBRANCH  41  42
ENDBRANCH  33  36
ENDBRANCH  31  32
ENDBRANCH  30  31
ENDBRANCH  29  30
ENDBRANCH   3  29
TORSDOF 15
