REMARK SMILES [NH3+][C@H](CCc1c[nH]nc1C(F)(F)F)C(=O)NCCCNC(=O)c1ccc(-c2c3nc(c(-c4ccccc4)c4ccc([nH]4)c(-c4ccccc4)c4nc(c(-c5ccccc5)c5ccc2[nH]5)C=C4)C=C3)cc1
REMARK SMILES IDX 17 1 16 2 14 3 15 4 2 6 1 7 3 11 4 12 5 13 6 14 9 15 7 16
REMARK SMILES IDX 8 17 10 19 11 20 12 21 13 22 18 23 19 24 20 25 21 26 22 28
REMARK SMILES IDX 23 29 24 30 70 31 25 32 69 33 26 34 27 35 28 36 63 37 29 38
REMARK SMILES IDX 68 39 62 40 64 41 30 42 67 43 61 44 60 45 31 47 53 48 38 49
REMARK SMILES IDX 52 50 39 51 42 52 51 53 65 54 40 55 41 56 50 58 66 59 43 60
REMARK SMILES IDX 32 61 33 62 37 63 34 64 36 65 35 66 54 67 55 68 59 69 56 70
REMARK SMILES IDX 58 71 57 72 44 73 45 74 49 75 46 76 48 77 47 78
REMARK H PARENT 16 5 1 8 1 9 1 10 7 18 20 27 64 46 42 57
REMARK Flexibility Score: inf
ROOT
ATOM      1  C   UNL     1      -1.822   1.943  -0.052  1.00  0.00     0.118 C 
ENDROOT
BRANCH   1   2
ATOM      2  N   UNL     1      -1.881   0.772   0.795  1.00  0.00    -0.351 N 
ATOM      3  C   UNL     1      -0.902   0.088   1.444  1.00  0.00     0.278 C 
ATOM      4  O   UNL     1      -1.278  -0.867   2.136  1.00  0.00    -0.268 OA
ATOM      5  H   UNL     1      -2.786   0.408   0.925  1.00  0.00     0.163 HD
BRANCH   3   6
ATOM      6  C   UNL     1       0.605   0.459   1.414  1.00  0.00     0.271 C 
BRANCH   6   7
ATOM      7  N   UNL     1       0.863   1.750   2.073  1.00  0.00    -0.347 N 
ATOM      8  H   UNL     1       0.256   1.843   2.888  1.00  0.00     0.345 HD
ATOM      9  H   UNL     1       0.673   2.509   1.419  1.00  0.00     0.345 HD
ATOM     10  H   UNL     1       1.838   1.792   2.369  1.00  0.00     0.345 HD
ENDBRANCH   6   7
BRANCH   6  11
ATOM     11  C   UNL     1       1.458   0.189   0.164  1.00  0.00     0.080 C 
BRANCH  11  12
ATOM     12  C   UNL     1       1.275   0.851  -1.198  1.00  0.00     0.046 C 
BRANCH  12  13
ATOM     13  C   UNL     1       1.388   2.330  -1.428  1.00  0.00     0.003 A 
ATOM     14  C   UNL     1       1.422   3.400  -0.559  1.00  0.00     0.109 A 
ATOM     15  C   UNL     1       1.400   2.963  -2.730  1.00  0.00     0.169 A 
ATOM     16  N   UNL     1       1.389   4.538  -1.308  1.00  0.00    -0.285 N 
ATOM     17  N   UNL     1       1.408   4.307  -2.622  1.00  0.00    -0.171 NA
ATOM     18  H   UNL     1       1.353   5.441  -0.917  1.00  0.00     0.189 HD
BRANCH  15  19
ATOM     19  C   UNL     1       1.377   2.292  -4.086  1.00  0.00     0.435 C 
ATOM     20  F   UNL     1       0.469   2.848  -4.934  1.00  0.00    -0.164 F 
ATOM     21  F   UNL     1       2.586   2.347  -4.705  1.00  0.00    -0.164 F 
ATOM     22  F   UNL     1       1.050   0.972  -4.006  1.00  0.00    -0.164 F 
ENDBRANCH  15  19
ENDBRANCH  12  13
ENDBRANCH  11  12
ENDBRANCH   6  11
ENDBRANCH   3   6
ENDBRANCH   1   2
BRANCH   1  23
ATOM     23  C   UNL     1      -2.005   1.567  -1.520  1.00  0.00     0.042 C 
BRANCH  23  24
ATOM     24  C   UNL     1      -3.421   1.736  -2.040  1.00  0.00     0.118 C 
BRANCH  24  25
ATOM     25  N   UNL     1      -3.756   3.129  -2.307  1.00  0.00    -0.352 N 
ATOM     26  C   UNL     1      -4.108   3.749  -3.484  1.00  0.00     0.251 C 
ATOM     27  H   UNL     1      -3.724   3.720  -1.521  1.00  0.00     0.163 HD
ATOM     28  O   UNL     1      -4.197   4.975  -3.519  1.00  0.00    -0.269 OA
BRANCH  26  29
ATOM     29  C   UNL     1      -4.359   2.961  -4.713  1.00  0.00     0.039 A 
ATOM     30  C   UNL     1      -3.920   3.454  -5.947  1.00  0.00     0.014 A 
ATOM     31  C   UNL     1      -5.031   1.739  -4.661  1.00  0.00     0.014 A 
ATOM     32  C   UNL     1      -4.078   2.684  -7.105  1.00  0.00     0.010 A 
ATOM     33  C   UNL     1      -5.088   0.929  -5.789  1.00  0.00     0.010 A 
ATOM     34  C   UNL     1      -4.620   1.392  -7.028  1.00  0.00    -0.014 A 
BRANCH  34  35
ATOM     35  C   UNL     1      -4.731   0.499  -8.212  1.00  0.00     0.031 A 
ATOM     36  C   UNL     1      -6.081  -0.030  -8.623  1.00  0.00     0.074 A 
ATOM     37  C   UNL     1      -3.622   0.073  -8.849  1.00  0.00     0.049 A 
ATOM     38  N   UNL     1      -6.378  -0.952  -9.503  1.00  0.00    -0.248 NA
ATOM     39  C   UNL     1      -7.250   0.526  -7.921  1.00  0.00     0.031 C 
ATOM     40  C   UNL     1      -2.250   0.480  -8.537  1.00  0.00     0.029 A 
ATOM     41  N   UNL     1      -3.474  -0.817  -9.884  1.00  0.00    -0.354 N 
ATOM     42  C   UNL     1      -7.757  -1.113  -9.429  1.00  0.00     0.074 A 
ATOM     43  C   UNL     1      -8.231  -0.232  -8.386  1.00  0.00     0.031 C 
ATOM     44  C   UNL     1      -1.405  -0.140  -9.375  1.00  0.00     0.029 A 
ATOM     45  C   UNL     1      -2.165  -1.030 -10.246  1.00  0.00     0.049 A 
ATOM     46  H   UNL     1      -4.234  -1.262 -10.325  1.00  0.00     0.167 HD
ATOM     47  C   UNL     1      -8.560  -1.909 -10.174  1.00  0.00     0.031 A 
ATOM     48  C   UNL     1      -1.634  -1.862 -11.163  1.00  0.00     0.031 A 
ATOM     49  C   UNL     1      -8.092  -2.762 -11.232  1.00  0.00     0.049 A 
ATOM     50  C   UNL     1      -2.545  -2.743 -11.974  1.00  0.00     0.074 A 
ATOM     51  C   UNL     1      -8.832  -3.559 -12.087  1.00  0.00     0.029 A 
ATOM     52  N   UNL     1      -6.761  -2.923 -11.583  1.00  0.00    -0.354 N 
ATOM     53  N   UNL     1      -3.851  -2.846 -11.926  1.00  0.00    -0.248 NA
ATOM     54  C   UNL     1      -1.909  -3.616 -12.970  1.00  0.00     0.031 C 
ATOM     55  C   UNL     1      -7.945  -4.242 -12.924  1.00  0.00     0.029 A 
ATOM     56  C   UNL     1      -6.657  -3.822 -12.630  1.00  0.00     0.049 A 
ATOM     57  H   UNL     1      -6.003  -2.467 -11.152  1.00  0.00     0.167 HD
ATOM     58  C   UNL     1      -4.195  -3.765 -12.909  1.00  0.00     0.074 A 
ATOM     59  C   UNL     1      -2.962  -4.186 -13.541  1.00  0.00     0.031 C 
ATOM     60  C   UNL     1      -5.424  -4.216 -13.259  1.00  0.00     0.031 A 
BRANCH  47  61
ATOM     61  C   UNL     1     -10.033  -1.895  -9.864  1.00  0.00    -0.014 A 
ATOM     62  C   UNL     1     -10.825  -0.767 -10.130  1.00  0.00     0.009 A 
ATOM     63  C   UNL     1     -10.643  -3.040  -9.327  1.00  0.00     0.009 A 
ATOM     64  C   UNL     1     -12.188  -0.770  -9.824  1.00  0.00     0.001 A 
ATOM     65  C   UNL     1     -12.012  -3.052  -9.054  1.00  0.00     0.001 A 
ATOM     66  C   UNL     1     -12.780  -1.914  -9.291  1.00  0.00     0.000 A 
ENDBRANCH  47  61
BRANCH  48  67
ATOM     67  C   UNL     1      -0.162  -1.897 -11.376  1.00  0.00    -0.014 A 
ATOM     68  C   UNL     1       0.397  -1.391 -12.560  1.00  0.00     0.009 A 
ATOM     69  C   UNL     1       0.692  -2.439 -10.403  1.00  0.00     0.009 A 
ATOM     70  C   UNL     1       1.775  -1.452 -12.777  1.00  0.00     0.001 A 
ATOM     71  C   UNL     1       2.073  -2.471 -10.609  1.00  0.00     0.001 A 
ATOM     72  C   UNL     1       2.612  -1.988 -11.800  1.00  0.00     0.000 A 
ENDBRANCH  48  67
BRANCH  60  73
ATOM     73  C   UNL     1      -5.511  -5.170 -14.416  1.00  0.00    -0.014 A 
ATOM     74  C   UNL     1      -5.107  -6.508 -14.296  1.00  0.00     0.009 A 
ATOM     75  C   UNL     1      -6.077  -4.735 -15.626  1.00  0.00     0.009 A 
ATOM     76  C   UNL     1      -5.249  -7.386 -15.373  1.00  0.00     0.001 A 
ATOM     77  C   UNL     1      -6.245  -5.621 -16.690  1.00  0.00     0.001 A 
ATOM     78  C   UNL     1      -5.824  -6.944 -16.565  1.00  0.00     0.000 A 
ENDBRANCH  60  73
ENDBRANCH  34  35
ENDBRANCH  26  29
ENDBRANCH  24  25
ENDBRANCH  23  24
ENDBRANCH   1  23
TORSDOF 15
