REMARK SMILES CCc1ccc(C[NH+]2CCC(Oc3ccccc3OC)(C(=O)NCCCNC(=O)c3ccc(-c4c5nc(c(-c6ccccc6)c6ccc([nH]6)c(-c6ccccc6)c6nc(c(-c7ccccc7)c7ccc4[nH]7)C=C6)C=C5)cc3)CC2)nc1
REMARK SMILES IDX 24 1 23 2 21 3 22 4 11 6 8 7 9 8 79 9 10 11 78 12 7 13 6 14
REMARK SMILES IDX 3 15 4 16 81 17 5 18 80 19 2 20 1 21 12 22 13 23 14 24 18 25
REMARK SMILES IDX 15 26 17 27 16 28 19 29 20 30 25 31 26 32 27 33 28 34 29 36
REMARK SMILES IDX 30 37 31 38 77 39 32 40 76 41 33 42 34 43 35 44 70 45 36 46
REMARK SMILES IDX 75 47 69 48 71 49 37 50 74 51 68 52 67 53 38 55 60 56 45 57
REMARK SMILES IDX 59 58 46 59 49 60 58 61 72 62 47 63 48 64 57 66 73 67 50 68
REMARK SMILES IDX 39 69 40 70 44 71 41 72 43 73 42 74 61 75 62 76 66 77 63 78
REMARK SMILES IDX 65 79 64 80 51 81 52 82 56 83 53 84 55 85 54 86
REMARK H PARENT 23 5 8 10 27 35 71 54 49 65
REMARK Flexibility Score: inf
ROOT
ATOM      1  C   UNL     1       7.808   0.154  -2.518  1.00  0.00     0.118 C 
ENDROOT
BRANCH   1   2
ATOM      2  N   UNL     1       6.468  -0.402  -2.543  1.00  0.00    -0.353 N 
ATOM      3  C   UNL     1       5.676  -0.823  -3.577  1.00  0.00     0.264 C 
ATOM      4  O   UNL     1       4.729  -1.538  -3.229  1.00  0.00    -0.270 OA
ATOM      5  H   UNL     1       6.053  -0.494  -1.655  1.00  0.00     0.163 HD
BRANCH   3   6
ATOM      6  C   UNL     1       5.910  -0.409  -5.073  1.00  0.00     0.197 C 
ATOM      7  N   UNL     1       3.340   0.697  -6.020  1.00  0.00    -0.330 N 
ATOM      8  C   UNL     1       4.170   1.438  -5.067  1.00  0.00     0.267 C 
ATOM      9  C   UNL     1       3.476  -0.755  -5.833  1.00  0.00     0.267 C 
ATOM     10  H   UNL     1       3.686   0.921  -6.953  1.00  0.00     0.348 HD
ATOM     11  C   UNL     1       5.638   1.088  -5.259  1.00  0.00     0.120 C 
ATOM     12  C   UNL     1       4.940  -1.206  -5.978  1.00  0.00     0.120 C 
BRANCH   7  13
ATOM     13  C   UNL     1       1.918   1.126  -5.981  1.00  0.00     0.319 C 
BRANCH  13  14
ATOM     14  C   UNL     1       1.278   1.201  -4.602  1.00  0.00     0.095 A 
ATOM     15  C   UNL     1       0.547   1.223  -1.938  1.00  0.00    -0.030 A 
ATOM     16  C   UNL     1       0.866   2.422  -2.578  1.00  0.00     0.007 A 
ATOM     17  C   UNL     1       0.535   0.075  -2.724  1.00  0.00     0.115 A 
ATOM     18  C   UNL     1       1.238   2.415  -3.919  1.00  0.00     0.030 A 
ATOM     19  N   UNL     1       0.886   0.039  -4.028  1.00  0.00    -0.255 NA
BRANCH  15  20
ATOM     20  C   UNL     1       0.210   1.203  -0.472  1.00  0.00     0.034 C 
ATOM     21  C   UNL     1       0.850   0.051   0.297  1.00  0.00     0.009 C 
ENDBRANCH  15  20
ENDBRANCH  13  14
ENDBRANCH   7  13
BRANCH   6  22
ATOM     22  O   UNL     1       7.308  -0.712  -5.280  1.00  0.00    -0.473 OA
BRANCH  22  23
ATOM     23  C   UNL     1       7.786  -0.903  -6.539  1.00  0.00     0.162 A 
ATOM     24  C   UNL     1       7.963  -2.230  -6.944  1.00  0.00     0.050 A 
ATOM     25  C   UNL     1       8.260   0.133  -7.351  1.00  0.00     0.160 A 
ATOM     26  C   UNL     1       8.545  -2.520  -8.179  1.00  0.00     0.004 A 
ATOM     27  C   UNL     1       8.816  -0.159  -8.598  1.00  0.00     0.050 A 
ATOM     28  C   UNL     1       8.966  -1.483  -9.009  1.00  0.00     0.004 A 
BRANCH  25  29
ATOM     29  O   UNL     1       8.171   1.462  -7.035  1.00  0.00    -0.493 OA
ATOM     30  C   UNL     1       9.054   1.823  -5.979  1.00  0.00     0.278 C 
ENDBRANCH  25  29
ENDBRANCH  22  23
ENDBRANCH   6  22
ENDBRANCH   3   6
ENDBRANCH   1   2
BRANCH   1  31
ATOM     31  C   UNL     1       7.842   1.629  -2.135  1.00  0.00     0.042 C 
BRANCH  31  32
ATOM     32  C   UNL     1       7.544   1.895  -0.665  1.00  0.00     0.118 C 
BRANCH  32  33
ATOM     33  N   UNL     1       8.608   1.428   0.211  1.00  0.00    -0.352 N 
ATOM     34  C   UNL     1       9.408   2.109   1.094  1.00  0.00     0.251 C 
ATOM     35  H   UNL     1       8.783   0.460   0.163  1.00  0.00     0.163 HD
ATOM     36  O   UNL     1      10.374   1.534   1.590  1.00  0.00    -0.269 OA
BRANCH  34  37
ATOM     37  C   UNL     1       9.142   3.522   1.450  1.00  0.00     0.039 A 
ATOM     38  C   UNL     1      10.235   4.372   1.656  1.00  0.00     0.014 A 
ATOM     39  C   UNL     1       7.846   4.006   1.644  1.00  0.00     0.014 A 
ATOM     40  C   UNL     1      10.027   5.710   2.001  1.00  0.00     0.010 A 
ATOM     41  C   UNL     1       7.636   5.359   1.915  1.00  0.00     0.010 A 
ATOM     42  C   UNL     1       8.724   6.222   2.105  1.00  0.00    -0.014 A 
BRANCH  42  43
ATOM     43  C   UNL     1       8.493   7.657   2.408  1.00  0.00     0.031 A 
ATOM     44  C   UNL     1       7.834   8.075   3.693  1.00  0.00     0.074 A 
ATOM     45  C   UNL     1       8.836   8.589   1.498  1.00  0.00     0.049 A 
ATOM     46  N   UNL     1       7.545   9.280   4.119  1.00  0.00    -0.248 NA
ATOM     47  C   UNL     1       7.423   7.000   4.610  1.00  0.00     0.031 C 
ATOM     48  C   UNL     1       9.438   8.317   0.191  1.00  0.00     0.029 A 
ATOM     49  N   UNL     1       8.727   9.957   1.536  1.00  0.00    -0.354 N 
ATOM     50  C   UNL     1       6.905   9.107   5.340  1.00  0.00     0.074 A 
ATOM     51  C   UNL     1       6.809   7.681   5.567  1.00  0.00     0.031 C 
ATOM     52  C   UNL     1       9.673   9.481  -0.435  1.00  0.00     0.029 A 
ATOM     53  C   UNL     1       9.213  10.577   0.412  1.00  0.00     0.049 A 
ATOM     54  H   UNL     1       8.338  10.446   2.296  1.00  0.00     0.167 HD
ATOM     55  C   UNL     1       6.453  10.048   6.203  1.00  0.00     0.031 A 
ATOM     56  C   UNL     1       9.287  11.884   0.096  1.00  0.00     0.031 A 
ATOM     57  C   UNL     1       6.561  11.466   5.989  1.00  0.00     0.049 A 
ATOM     58  C   UNL     1       8.800  12.909   1.078  1.00  0.00     0.074 A 
ATOM     59  C   UNL     1       6.191  12.498   6.836  1.00  0.00     0.029 A 
ATOM     60  N   UNL     1       7.076  12.054   4.845  1.00  0.00    -0.354 N 
ATOM     61  N   UNL     1       8.263  12.730   2.260  1.00  0.00    -0.248 NA
ATOM     62  C   UNL     1       8.944  14.319   0.686  1.00  0.00     0.031 C 
ATOM     63  C   UNL     1       6.445  13.711   6.185  1.00  0.00     0.029 A 
ATOM     64  C   UNL     1       7.016  13.434   4.954  1.00  0.00     0.049 A 
ATOM     65  H   UNL     1       7.433  11.564   4.069  1.00  0.00     0.167 HD
ATOM     66  C   UNL     1       8.026  14.002   2.764  1.00  0.00     0.074 A 
ATOM     67  C   UNL     1       8.490  14.943   1.765  1.00  0.00     0.031 C 
ATOM     68  C   UNL     1       7.474  14.357   3.949  1.00  0.00     0.031 A 
BRANCH  55  69
ATOM     69  C   UNL     1       5.790   9.564   7.462  1.00  0.00    -0.014 A 
ATOM     70  C   UNL     1       6.533   8.964   8.492  1.00  0.00     0.009 A 
ATOM     71  C   UNL     1       4.407   9.732   7.632  1.00  0.00     0.009 A 
ATOM     72  C   UNL     1       5.898   8.506   9.648  1.00  0.00     0.001 A 
ATOM     73  C   UNL     1       3.779   9.297   8.801  1.00  0.00     0.001 A 
ATOM     74  C   UNL     1       4.523   8.675   9.803  1.00  0.00     0.000 A 
ENDBRANCH  55  69
BRANCH  56  75
ATOM     75  C   UNL     1       9.883  12.294  -1.200  1.00  0.00    -0.014 A 
ATOM     76  C   UNL     1      11.165  12.864  -1.242  1.00  0.00     0.009 A 
ATOM     77  C   UNL     1       9.183  12.102  -2.400  1.00  0.00     0.009 A 
ATOM     78  C   UNL     1      11.726  13.250  -2.460  1.00  0.00     0.001 A 
ATOM     79  C   UNL     1       9.757  12.468  -3.619  1.00  0.00     0.001 A 
ATOM     80  C   UNL     1      11.025  13.047  -3.648  1.00  0.00     0.000 A 
ENDBRANCH  56  75
BRANCH  68  81
ATOM     81  C   UNL     1       7.366  15.827   4.238  1.00  0.00    -0.014 A 
ATOM     82  C   UNL     1       6.409  16.626   3.593  1.00  0.00     0.009 A 
ATOM     83  C   UNL     1       8.216  16.413   5.189  1.00  0.00     0.009 A 
ATOM     84  C   UNL     1       6.330  17.992   3.871  1.00  0.00     0.001 A 
ATOM     85  C   UNL     1       8.117  17.774   5.482  1.00  0.00     0.001 A 
ATOM     86  C   UNL     1       7.181  18.564   4.817  1.00  0.00     0.000 A 
ENDBRANCH  68  81
ENDBRANCH  42  43
ENDBRANCH  34  37
ENDBRANCH  32  33
ENDBRANCH  31  32
ENDBRANCH   1  31
TORSDOF 16
