REMARK SMILES Cc1c(CC(=O)N[C@@H](CCO)C(=O)NCCCNC(=O)c2ccc(-c3c4nc(c(-c5ccccc5)c5ccc([nH]5)c(-c5ccccc5)c5nc(c(-c6ccccc6)c6ccc3[nH]6)C=C5)C=C4)cc2)cc(-c2ccc(S(C)(=O)=O)cc2)n1-c1ccc(F)cc1
REMARK SMILES IDX 12 1 13 2 14 3 8 5 7 6 5 7 6 8 4 10 3 11 1 12 2 13 81 14
REMARK SMILES IDX 69 15 70 16 82 17 83 18 88 19 84 20 87 21 85 22 86 23 71 24
REMARK SMILES IDX 72 25 80 26 73 27 79 28 74 29 75 30 76 31 77 32 78 33 9 34
REMARK SMILES IDX 10 35 11 36 15 38 16 39 17 40 18 41 19 42 20 44 21 45 22 46
REMARK SMILES IDX 68 47 23 48 67 49 24 50 25 51 26 52 61 53 27 54 66 55 60 56
REMARK SMILES IDX 62 57 28 58 65 59 59 60 58 61 29 63 51 64 36 65 50 66 37 67
REMARK SMILES IDX 40 68 49 69 63 70 38 71 39 72 48 74 64 75 41 76 30 77 31 78
REMARK SMILES IDX 35 79 32 80 34 81 33 82 52 83 53 84 57 85 54 86 56 87 55 88
REMARK SMILES IDX 42 89 43 90 47 91 44 92 46 93 45 94
REMARK H PARENT 14 4 7 9 11 37 18 43 62 62 40 73
REMARK Flexibility Score: inf
ROOT
ATOM      1  C   UNL     1      -3.278  -4.167   1.895  1.00  0.00     0.242 C 
ATOM      2  O   UNL     1      -3.301  -4.655   3.032  1.00  0.00    -0.273 OA
ATOM      3  N   UNL     1      -4.146  -4.710   1.005  1.00  0.00    -0.354 N 
ATOM      4  H   UNL     1      -4.600  -5.510   1.355  1.00  0.00     0.163 HD
ENDROOT
BRANCH   1   5
ATOM      5  C   UNL     1      -2.411  -2.926   1.624  1.00  0.00     0.173 C 
BRANCH   5   6
ATOM      6  N   UNL     1      -1.624  -3.022   0.400  1.00  0.00    -0.344 N 
ATOM      7  C   UNL     1      -0.259  -3.077   0.293  1.00  0.00     0.225 C 
ATOM      8  O   UNL     1       0.216  -3.390  -0.802  1.00  0.00    -0.275 OA
ATOM      9  H   UNL     1      -2.131  -3.051  -0.444  1.00  0.00     0.164 HD
BRANCH   7  10
ATOM     10  C   UNL     1       0.643  -2.781   1.493  1.00  0.00     0.137 C 
BRANCH  10  11
ATOM     11  C   UNL     1       0.443  -1.400   2.054  1.00  0.00    -0.017 A 
ATOM     12  C   UNL     1       1.077   0.034  -0.004  1.00  0.00     0.065 C 
ATOM     13  C   UNL     1       0.561  -0.189   1.383  1.00  0.00     0.024 A 
ATOM     14  N   UNL     1       0.207   0.832   2.260  1.00  0.00    -0.314 N 
ATOM     15  C   UNL     1       0.106  -1.090   3.401  1.00  0.00     0.033 A 
ATOM     16  C   UNL     1      -0.088   0.276   3.508  1.00  0.00     0.053 A 
BRANCH  14  17
ATOM     17  C   UNL     1       0.132   2.215   1.946  1.00  0.00     0.046 A 
ATOM     18  C   UNL     1       0.797   3.145   2.756  1.00  0.00     0.029 A 
ATOM     19  C   UNL     1      -0.683   2.641   0.888  1.00  0.00     0.029 A 
ATOM     20  C   UNL     1       0.650   4.506   2.502  1.00  0.00     0.041 A 
ATOM     21  C   UNL     1      -0.830   4.007   0.647  1.00  0.00     0.041 A 
ATOM     22  C   UNL     1      -0.164   4.924   1.454  1.00  0.00     0.123 A 
ATOM     23  F   UNL     1      -0.318   6.235   1.226  1.00  0.00    -0.207 F 
ENDBRANCH  14  17
BRANCH  16  24
ATOM     24  C   UNL     1      -0.588   1.030   4.668  1.00  0.00    -0.001 A 
ATOM     25  C   UNL     1      -1.707   1.872   4.556  1.00  0.00     0.011 A 
ATOM     26  C   UNL     1       0.073   0.943   5.900  1.00  0.00     0.011 A 
ATOM     27  C   UNL     1      -2.107   2.678   5.624  1.00  0.00     0.021 A 
ATOM     28  C   UNL     1      -0.324   1.741   6.977  1.00  0.00     0.021 A 
ATOM     29  C   UNL     1      -1.392   2.627   6.822  1.00  0.00     0.067 A 
BRANCH  29  30
ATOM     30  S   UNL     1      -1.876   3.698   8.157  1.00  0.00     0.175 S 
ATOM     31  C   UNL     1      -1.502   5.327   7.558  1.00  0.00     0.163 C 
ATOM     32  O   UNL     1      -3.300   3.578   8.309  1.00  0.00    -0.224 OA
ATOM     33  O   UNL     1      -0.972   3.434   9.276  1.00  0.00    -0.224 OA
ENDBRANCH  29  30
ENDBRANCH  16  24
ENDBRANCH  10  11
ENDBRANCH   7  10
ENDBRANCH   5   6
BRANCH   5  34
ATOM     34  C   UNL     1      -3.100  -1.565   1.834  1.00  0.00     0.063 C 
BRANCH  34  35
ATOM     35  C   UNL     1      -4.340  -1.231   1.020  1.00  0.00     0.158 C 
BRANCH  35  36
ATOM     36  O   UNL     1      -5.504  -1.924   1.438  1.00  0.00    -0.396 OA
ATOM     37  H   UNL     1      -5.369  -2.878   1.328  1.00  0.00     0.210 HD
ENDBRANCH  35  36
ENDBRANCH  34  35
ENDBRANCH   5  34
ENDBRANCH   1   5
BRANCH   3  38
ATOM     38  C   UNL     1      -4.557  -4.377  -0.351  1.00  0.00     0.117 C 
BRANCH  38  39
ATOM     39  C   UNL     1      -4.102  -5.386  -1.413  1.00  0.00     0.042 C 
BRANCH  39  40
ATOM     40  C   UNL     1      -4.356  -6.872  -1.111  1.00  0.00     0.118 C 
BRANCH  40  41
ATOM     41  N   UNL     1      -5.519  -7.436  -1.766  1.00  0.00    -0.352 N 
ATOM     42  C   UNL     1      -5.685  -8.735  -2.219  1.00  0.00     0.251 C 
ATOM     43  H   UNL     1      -6.280  -6.826  -1.905  1.00  0.00     0.163 HD
ATOM     44  O   UNL     1      -6.776  -9.060  -2.681  1.00  0.00    -0.269 OA
BRANCH  42  45
ATOM     45  C   UNL     1      -4.527  -9.702  -2.258  1.00  0.00     0.039 A 
ATOM     46  C   UNL     1      -3.779  -9.754  -3.418  1.00  0.00     0.014 A 
ATOM     47  C   UNL     1      -4.224 -10.663  -1.275  1.00  0.00     0.014 A 
ATOM     48  C   UNL     1      -2.721 -10.698  -3.554  1.00  0.00     0.010 A 
ATOM     49  C   UNL     1      -3.202 -11.695  -1.468  1.00  0.00     0.010 A 
ATOM     50  C   UNL     1      -2.406 -11.766  -2.630  1.00  0.00    -0.014 A 
BRANCH  50  51
ATOM     51  C   UNL     1      -1.649 -13.065  -3.279  1.00  0.00     0.031 A 
ATOM     52  C   UNL     1      -2.397 -13.224  -4.557  1.00  0.00     0.074 A 
ATOM     53  C   UNL     1      -0.755 -14.119  -3.056  1.00  0.00     0.049 A 
ATOM     54  N   UNL     1      -3.679 -13.424  -4.472  1.00  0.00    -0.248 NA
ATOM     55  C   UNL     1      -1.931 -12.743  -5.857  1.00  0.00     0.031 C 
ATOM     56  C   UNL     1      -0.057 -14.485  -1.811  1.00  0.00     0.029 A 
ATOM     57  N   UNL     1      -0.236 -15.150  -3.919  1.00  0.00    -0.354 N 
ATOM     58  C   UNL     1      -4.184 -13.319  -5.741  1.00  0.00     0.074 A 
ATOM     59  C   UNL     1      -3.104 -12.698  -6.504  1.00  0.00     0.031 C 
ATOM     60  C   UNL     1       0.860 -15.481  -2.011  1.00  0.00     0.029 A 
ATOM     61  C   UNL     1       0.855 -15.946  -3.399  1.00  0.00     0.049 A 
ATOM     62  H   UNL     1      -0.606 -15.305  -4.818  1.00  0.00     0.167 HD
ATOM     63  C   UNL     1      -5.011 -14.339  -6.109  1.00  0.00     0.031 A 
ATOM     64  C   UNL     1       1.644 -16.939  -3.990  1.00  0.00     0.031 A 
ATOM     65  C   UNL     1      -4.279 -15.339  -6.844  1.00  0.00     0.049 A 
ATOM     66  C   UNL     1       0.841 -17.500  -5.080  1.00  0.00     0.074 A 
ATOM     67  C   UNL     1      -3.363 -15.244  -7.874  1.00  0.00     0.029 A 
ATOM     68  N   UNL     1      -4.040 -16.538  -6.207  1.00  0.00    -0.354 N 
ATOM     69  N   UNL     1      -0.074 -18.390  -4.844  1.00  0.00    -0.248 NA
ATOM     70  C   UNL     1       1.086 -17.207  -6.485  1.00  0.00     0.031 C 
ATOM     71  C   UNL     1      -2.303 -16.084  -7.475  1.00  0.00     0.029 A 
ATOM     72  C   UNL     1      -2.770 -16.978  -6.523  1.00  0.00     0.049 A 
ATOM     73  H   UNL     1      -4.675 -17.007  -5.618  1.00  0.00     0.167 HD
ATOM     74  C   UNL     1      -0.862 -18.291  -5.946  1.00  0.00     0.074 A 
ATOM     75  C   UNL     1       0.017 -17.818  -7.000  1.00  0.00     0.031 C 
ATOM     76  C   UNL     1      -2.173 -18.020  -5.723  1.00  0.00     0.031 A 
BRANCH  63  77
ATOM     77  C   UNL     1      -6.079 -14.641  -5.081  1.00  0.00    -0.014 A 
ATOM     78  C   UNL     1      -7.411 -14.339  -5.377  1.00  0.00     0.009 A 
ATOM     79  C   UNL     1      -5.770 -15.046  -3.762  1.00  0.00     0.009 A 
ATOM     80  C   UNL     1      -8.384 -14.366  -4.369  1.00  0.00     0.001 A 
ATOM     81  C   UNL     1      -6.727 -15.022  -2.749  1.00  0.00     0.001 A 
ATOM     82  C   UNL     1      -8.036 -14.674  -3.052  1.00  0.00     0.000 A 
ENDBRANCH  63  77
BRANCH  64  83
ATOM     83  C   UNL     1       2.915 -17.832  -3.854  1.00  0.00    -0.014 A 
ATOM     84  C   UNL     1       2.909 -19.168  -4.394  1.00  0.00     0.009 A 
ATOM     85  C   UNL     1       4.197 -17.313  -3.639  1.00  0.00     0.009 A 
ATOM     86  C   UNL     1       4.064 -19.867  -4.806  1.00  0.00     0.001 A 
ATOM     87  C   UNL     1       5.369 -18.034  -4.019  1.00  0.00     0.001 A 
ATOM     88  C   UNL     1       5.303 -19.286  -4.636  1.00  0.00     0.000 A 
ENDBRANCH  64  83
BRANCH  76  89
ATOM     89  C   UNL     1      -2.837 -18.676  -4.521  1.00  0.00    -0.014 A 
ATOM     90  C   UNL     1      -2.293 -18.747  -3.218  1.00  0.00     0.009 A 
ATOM     91  C   UNL     1      -4.071 -19.307  -4.724  1.00  0.00     0.009 A 
ATOM     92  C   UNL     1      -2.920 -19.465  -2.192  1.00  0.00     0.001 A 
ATOM     93  C   UNL     1      -4.728 -19.979  -3.687  1.00  0.00     0.001 A 
ATOM     94  C   UNL     1      -4.144 -20.075  -2.427  1.00  0.00     0.000 A 
ENDBRANCH  76  89
ENDBRANCH  50  51
ENDBRANCH  42  45
ENDBRANCH  40  41
ENDBRANCH  39  40
ENDBRANCH  38  39
ENDBRANCH   3  38
TORSDOF 19
