REMARK SMILES O=C(NCCCNC(=O)[C@@H](Cc1ccccc1)/N=C1\C(=O)c2ccccc2C(=O)[C@H]1Cl)c1ccc(-c2c3nc(c(-c4ccccc4)c4ccc([nH]4)c(-c4ccccc4)c4nc(c(-c5ccccc5)c5ccc2[nH]5)C=C4)C=C3)cc1
REMARK SMILES IDX 5 1 4 2 3 3 1 4 2 5 32 7 33 8 79 9 34 10 78 11 35 12 36 13
REMARK SMILES IDX 37 14 72 15 38 16 77 17 71 18 73 19 39 20 76 21 70 22 69 23
REMARK SMILES IDX 40 25 62 26 47 27 61 28 48 29 51 30 60 31 74 32 49 33 50 34
REMARK SMILES IDX 59 36 75 37 52 38 41 39 42 40 46 41 43 42 45 43 44 44 63 45
REMARK SMILES IDX 64 46 68 47 65 48 67 49 66 50 53 51 54 52 58 53 55 54 57 55
REMARK SMILES IDX 56 56 6 57 7 58 8 59 9 61 10 62 11 63 12 64 13 65 17 66
REMARK SMILES IDX 14 67 16 68 15 69 18 70 19 71 20 72 30 73 21 74 22 75 28 76
REMARK SMILES IDX 31 77 23 78 27 79 29 80 24 81 26 82 25 83
REMARK H PARENT 3 6 73 24 51 35 7 60
REMARK Flexibility Score: inf
ROOT
ATOM      1  C   UNL     1       4.876  -1.100  -2.236  1.00  0.00     0.042 C 
ENDROOT
BRANCH   1   2
ATOM      2  C   UNL     1       4.278   0.301  -2.275  1.00  0.00     0.118 C 
BRANCH   2   3
ATOM      3  N   UNL     1       2.935   0.395  -1.717  1.00  0.00    -0.352 N 
ATOM      4  O   UNL     1       1.192   0.627  -0.357  1.00  0.00    -0.269 OA
ATOM      5  C   UNL     1       2.407   0.781  -0.508  1.00  0.00     0.251 C 
ATOM      6  H   UNL     1       2.241   0.116  -2.358  1.00  0.00     0.163 HD
BRANCH   5   7
ATOM      7  C   UNL     1       3.192   1.332   0.634  1.00  0.00     0.039 A 
ATOM      8  C   UNL     1       4.418   1.972   0.496  1.00  0.00     0.014 A 
ATOM      9  C   UNL     1       2.617   1.287   1.919  1.00  0.00     0.014 A 
ATOM     10  C   UNL     1       5.120   2.422   1.613  1.00  0.00     0.010 A 
ATOM     11  C   UNL     1       3.266   1.852   3.031  1.00  0.00     0.010 A 
ATOM     12  C   UNL     1       4.539   2.412   2.890  1.00  0.00    -0.014 A 
BRANCH  12  13
ATOM     13  C   UNL     1       5.253   3.112   3.992  1.00  0.00     0.031 A 
ATOM     14  C   UNL     1       5.764   2.382   5.201  1.00  0.00     0.074 A 
ATOM     15  C   UNL     1       5.513   4.428   3.845  1.00  0.00     0.049 A 
ATOM     16  N   UNL     1       6.554   2.823   6.150  1.00  0.00    -0.248 NA
ATOM     17  C   UNL     1       5.330   0.989   5.382  1.00  0.00     0.031 C 
ATOM     18  C   UNL     1       5.039   5.259   2.733  1.00  0.00     0.029 A 
ATOM     19  N   UNL     1       6.284   5.285   4.589  1.00  0.00    -0.354 N 
ATOM     20  C   UNL     1       6.698   1.772   7.047  1.00  0.00     0.074 A 
ATOM     21  C   UNL     1       5.894   0.679   6.542  1.00  0.00     0.031 C 
ATOM     22  C   UNL     1       5.612   6.468   2.810  1.00  0.00     0.029 A 
ATOM     23  C   UNL     1       6.438   6.523   4.010  1.00  0.00     0.049 A 
ATOM     24  H   UNL     1       6.687   5.038   5.453  1.00  0.00     0.167 HD
ATOM     25  C   UNL     1       7.434   1.723   8.184  1.00  0.00     0.031 A 
ATOM     26  C   UNL     1       7.171   7.586   4.388  1.00  0.00     0.031 A 
ATOM     27  C   UNL     1       8.235   2.812   8.684  1.00  0.00     0.049 A 
ATOM     28  C   UNL     1       7.988   7.497   5.642  1.00  0.00     0.074 A 
ATOM     29  C   UNL     1       9.043   2.842   9.809  1.00  0.00     0.029 A 
ATOM     30  N   UNL     1       8.325   4.064   8.095  1.00  0.00    -0.354 N 
ATOM     31  N   UNL     1       8.154   6.476   6.446  1.00  0.00    -0.248 NA
ATOM     32  C   UNL     1       8.719   8.708   6.038  1.00  0.00     0.031 C 
ATOM     33  C   UNL     1       9.584   4.128   9.926  1.00  0.00     0.029 A 
ATOM     34  C   UNL     1       9.157   4.881   8.845  1.00  0.00     0.049 A 
ATOM     35  H   UNL     1       7.867   4.332   7.267  1.00  0.00     0.167 HD
ATOM     36  C   UNL     1       9.019   6.916   7.438  1.00  0.00     0.074 A 
ATOM     37  C   UNL     1       9.363   8.287   7.117  1.00  0.00     0.031 C 
ATOM     38  C   UNL     1       9.483   6.245   8.519  1.00  0.00     0.031 A 
BRANCH  25  39
ATOM     39  C   UNL     1       7.386   0.452   8.988  1.00  0.00    -0.014 A 
ATOM     40  C   UNL     1       8.025  -0.717   8.547  1.00  0.00     0.009 A 
ATOM     41  C   UNL     1       6.728   0.439  10.228  1.00  0.00     0.009 A 
ATOM     42  C   UNL     1       7.978  -1.883   9.317  1.00  0.00     0.001 A 
ATOM     43  C   UNL     1       6.704  -0.720  11.007  1.00  0.00     0.001 A 
ATOM     44  C   UNL     1       7.321  -1.882  10.547  1.00  0.00     0.000 A 
ENDBRANCH  25  39
BRANCH  26  45
ATOM     45  C   UNL     1       7.173   8.820   3.560  1.00  0.00    -0.014 A 
ATOM     46  C   UNL     1       8.321   9.204   2.851  1.00  0.00     0.009 A 
ATOM     47  C   UNL     1       6.019   9.614   3.464  1.00  0.00     0.009 A 
ATOM     48  C   UNL     1       8.319  10.369   2.079  1.00  0.00     0.001 A 
ATOM     49  C   UNL     1       6.010  10.760   2.667  1.00  0.00     0.001 A 
ATOM     50  C   UNL     1       7.162  11.141   1.982  1.00  0.00     0.000 A 
ENDBRANCH  26  45
BRANCH  38  51
ATOM     51  C   UNL     1      10.435   6.983   9.416  1.00  0.00    -0.014 A 
ATOM     52  C   UNL     1       9.991   8.017  10.256  1.00  0.00     0.009 A 
ATOM     53  C   UNL     1      11.793   6.631   9.427  1.00  0.00     0.009 A 
ATOM     54  C   UNL     1      10.898   8.712  11.059  1.00  0.00     0.001 A 
ATOM     55  C   UNL     1      12.693   7.309  10.252  1.00  0.00     0.001 A 
ATOM     56  C   UNL     1      12.246   8.355  11.058  1.00  0.00     0.000 A 
ENDBRANCH  38  51
ENDBRANCH  12  13
ENDBRANCH   5   7
ENDBRANCH   2   3
ENDBRANCH   1   2
BRANCH   1  57
ATOM     57  C   UNL     1       4.223  -2.084  -3.216  1.00  0.00     0.117 C 
BRANCH  57  58
ATOM     58  N   UNL     1       5.198  -2.929  -3.895  1.00  0.00    -0.354 N 
ATOM     59  C   UNL     1       5.844  -4.098  -3.739  1.00  0.00     0.245 C 
ATOM     60  H   UNL     1       5.471  -2.508  -4.742  1.00  0.00     0.163 HD
ATOM     61  O   UNL     1       6.654  -4.287  -4.672  1.00  0.00    -0.273 OA
BRANCH  59  62
ATOM     62  C   UNL     1       5.815  -5.158  -2.615  1.00  0.00     0.199 C 
BRANCH  62  63
ATOM     63  C   UNL     1       6.949  -5.137  -1.562  1.00  0.00     0.073 C 
BRANCH  63  64
ATOM     64  C   UNL     1       6.715  -4.498  -0.219  1.00  0.00    -0.045 A 
ATOM     65  C   UNL     1       7.040  -3.151  -0.012  1.00  0.00     0.004 A 
ATOM     66  C   UNL     1       6.144  -5.231   0.834  1.00  0.00     0.004 A 
ATOM     67  C   UNL     1       6.727  -2.527   1.197  1.00  0.00     0.000 A 
ATOM     68  C   UNL     1       5.824  -4.602   2.039  1.00  0.00     0.000 A 
ATOM     69  C   UNL     1       6.103  -3.248   2.214  1.00  0.00     0.000 A 
ENDBRANCH  63  64
ENDBRANCH  62  63
BRANCH  62  70
ATOM     70  N   UNL     1       4.593  -5.935  -2.301  1.00  0.00    -0.270 NA
ATOM     71  C   UNL     1       3.648  -5.675  -1.472  1.00  0.00     0.109 C 
ATOM     72  C   UNL     1       3.460  -4.389  -0.746  1.00  0.00     0.209 C 
ATOM     73  C   UNL     1       2.620  -6.729  -1.155  1.00  0.00     0.205 C 
ATOM     74  O   UNL     1       4.237  -3.471  -0.942  1.00  0.00    -0.287 OA
ATOM     75  C   UNL     1       2.393  -4.208   0.224  1.00  0.00     0.035 A 
ATOM     76  C   UNL     1       2.096  -6.661   0.265  1.00  0.00     0.187 C 
ATOM     77  Cl  UNL     1       1.243  -6.519  -2.268  1.00  0.00    -0.107 Cl
ATOM     78  C   UNL     1       2.055  -2.913   0.630  1.00  0.00     0.013 A 
ATOM     79  C   UNL     1       1.798  -5.317   0.806  1.00  0.00     0.031 A 
ATOM     80  O   UNL     1       1.868  -7.655   0.948  1.00  0.00    -0.292 OA
ATOM     81  C   UNL     1       1.143  -2.732   1.662  1.00  0.00     0.001 A 
ATOM     82  C   UNL     1       0.921  -5.138   1.878  1.00  0.00     0.012 A 
ATOM     83  C   UNL     1       0.599  -3.844   2.304  1.00  0.00     0.001 A 
ENDBRANCH  62  70
ENDBRANCH  59  62
ENDBRANCH  57  58
ENDBRANCH   1  57
TORSDOF 13
