REMARK SMILES C/C(=N\Nc1nc(-c2ccc(Cl)cc2)cs1)c1nnn(-c2ccc(C(=O)NCCCNC(=O)c3ccc(-c4c5nc(c(-c6ccccc6)c6ccc([nH]6)c(-c6ccccc6)c6nc(c(-c7ccccc7)c7ccc4[nH]7)C=C6)C=C5)cc3)cc2)c1C
REMARK SMILES IDX 25 1 26 2 27 3 24 5 21 6 22 7 83 8 23 9 82 10 20 11 17 12
REMARK SMILES IDX 18 13 84 14 19 15 85 16 2 17 1 18 3 19 4 20 5 22 6 23 16 24
REMARK SMILES IDX 7 25 15 26 8 27 9 28 14 29 10 30 13 31 11 32 12 33 28 34
REMARK SMILES IDX 29 35 30 36 31 37 32 38 33 40 34 41 35 42 81 43 36 44 80 45
REMARK SMILES IDX 37 46 38 47 39 48 74 49 40 50 79 51 73 52 75 53 41 54 78 55
REMARK SMILES IDX 72 56 71 57 42 59 64 60 49 61 63 62 50 63 53 64 62 65 76 66
REMARK SMILES IDX 51 67 52 68 61 70 77 71 54 72 43 73 44 74 48 75 45 76 47 77
REMARK SMILES IDX 46 78 65 79 66 80 70 81 67 82 69 83 68 84 55 85 56 86 60 87
REMARK SMILES IDX 57 88 59 89 58 90
REMARK H PARENT 27 4 4 21 31 39 75 58 53 69
REMARK Flexibility Score: inf
ROOT
ATOM      1  C   UNL     1       6.599   6.012  -4.586  1.00  0.00     0.251 C 
ATOM      2  O   UNL     1       6.597   7.241  -4.643  1.00  0.00    -0.269 OA
ATOM      3  N   UNL     1       7.813   5.365  -4.652  1.00  0.00    -0.352 N 
ATOM      4  H   UNL     1       8.572   5.960  -4.851  1.00  0.00     0.163 HD
ENDROOT
BRANCH   1   5
ATOM      5  C   UNL     1       5.308   5.292  -4.396  1.00  0.00     0.039 A 
ATOM      6  C   UNL     1       2.965   3.933  -3.740  1.00  0.00     0.067 A 
ATOM      7  C   UNL     1       3.061   5.290  -3.436  1.00  0.00     0.029 A 
ATOM      8  C   UNL     1       3.955   3.290  -4.479  1.00  0.00     0.029 A 
ATOM      9  C   UNL     1       4.250   5.961  -3.751  1.00  0.00     0.016 A 
ATOM     10  C   UNL     1       5.103   3.984  -4.830  1.00  0.00     0.016 A 
BRANCH   6  11
ATOM     11  N   UNL     1       1.963   3.139  -3.163  1.00  0.00    -0.217 N 
ATOM     12  C   UNL     1       0.887   1.579  -2.102  1.00  0.00     0.132 A 
ATOM     13  N   UNL     1      -0.014   2.361  -2.777  1.00  0.00    -0.128 NA
ATOM     14  C   UNL     1       2.167   2.062  -2.325  1.00  0.00     0.071 A 
ATOM     15  N   UNL     1       0.650   3.366  -3.342  1.00  0.00    -0.061 NA
ATOM     16  C   UNL     1       3.490   1.692  -1.752  1.00  0.00     0.069 C 
BRANCH  12  17
ATOM     17  C   UNL     1       0.524   0.482  -1.214  1.00  0.00     0.087 C 
ATOM     18  C   UNL     1       1.147   0.537   0.160  1.00  0.00     0.071 C 
ATOM     19  N   UNL     1      -0.238  -0.444  -1.726  1.00  0.00    -0.176 NA
BRANCH  19  20
ATOM     20  N   UNL     1      -0.558  -1.622  -1.087  1.00  0.00    -0.252 N 
ATOM     21  H   UNL     1      -0.909  -2.327  -1.678  1.00  0.00     0.193 HD
BRANCH  20  22
ATOM     22  C   UNL     1      -0.470  -1.973   0.221  1.00  0.00     0.203 A 
ATOM     23  N   UNL     1      -0.701  -1.188   1.246  1.00  0.00    -0.219 NA
ATOM     24  S   UNL     1       0.102  -3.543   0.669  1.00  0.00    -0.103 S 
ATOM     25  C   UNL     1      -0.093  -1.684   2.379  1.00  0.00     0.084 A 
ATOM     26  C   UNL     1       0.406  -2.963   2.261  1.00  0.00     0.097 A 
BRANCH  25  27
ATOM     27  C   UNL     1       0.080  -0.815   3.528  1.00  0.00     0.001 A 
ATOM     28  C   UNL     1      -1.028  -0.135   4.048  1.00  0.00     0.012 A 
ATOM     29  C   UNL     1       1.360  -0.530   4.025  1.00  0.00     0.012 A 
ATOM     30  C   UNL     1      -0.865   0.800   5.073  1.00  0.00     0.021 A 
ATOM     31  C   UNL     1       1.524   0.415   5.042  1.00  0.00     0.021 A 
ATOM     32  C   UNL     1       0.410   1.073   5.564  1.00  0.00     0.041 A 
ATOM     33  Cl  UNL     1       0.616   2.244   6.807  1.00  0.00    -0.084 Cl
ENDBRANCH  25  27
ENDBRANCH  20  22
ENDBRANCH  19  20
ENDBRANCH  12  17
ENDBRANCH   6  11
ENDBRANCH   1   5
BRANCH   3  34
ATOM     34  C   UNL     1       8.190   3.966  -4.481  1.00  0.00     0.118 C 
BRANCH  34  35
ATOM     35  C   UNL     1       8.311   3.221  -5.820  1.00  0.00     0.042 C 
BRANCH  35  36
ATOM     36  C   UNL     1       9.618   3.498  -6.536  1.00  0.00     0.118 C 
BRANCH  36  37
ATOM     37  N   UNL     1      10.758   2.848  -5.898  1.00  0.00    -0.352 N 
ATOM     38  C   UNL     1      12.091   2.921  -6.256  1.00  0.00     0.251 C 
ATOM     39  H   UNL     1      10.552   2.289  -5.114  1.00  0.00     0.163 HD
ATOM     40  O   UNL     1      12.882   2.071  -5.883  1.00  0.00    -0.269 OA
BRANCH  38  41
ATOM     41  C   UNL     1      12.535   4.035  -7.115  1.00  0.00     0.039 A 
ATOM     42  C   UNL     1      13.465   3.823  -8.135  1.00  0.00     0.014 A 
ATOM     43  C   UNL     1      11.985   5.298  -6.910  1.00  0.00     0.014 A 
ATOM     44  C   UNL     1      13.762   4.873  -9.000  1.00  0.00     0.010 A 
ATOM     45  C   UNL     1      12.155   6.281  -7.853  1.00  0.00     0.010 A 
ATOM     46  C   UNL     1      13.078   6.094  -8.873  1.00  0.00    -0.014 A 
BRANCH  46  47
ATOM     47  C   UNL     1      13.258   7.147  -9.866  1.00  0.00     0.031 A 
ATOM     48  C   UNL     1      13.075   6.718 -11.277  1.00  0.00     0.074 A 
ATOM     49  C   UNL     1      13.409   8.454  -9.569  1.00  0.00     0.049 A 
ATOM     50  N   UNL     1      13.993   6.588 -12.175  1.00  0.00    -0.248 NA
ATOM     51  C   UNL     1      11.743   6.270 -11.713  1.00  0.00     0.031 C 
ATOM     52  C   UNL     1      13.307   9.122  -8.266  1.00  0.00     0.029 A 
ATOM     53  N   UNL     1      13.595   9.496 -10.424  1.00  0.00    -0.354 N 
ATOM     54  C   UNL     1      13.343   6.215 -13.346  1.00  0.00     0.074 A 
ATOM     55  C   UNL     1      11.990   5.888 -12.969  1.00  0.00     0.031 C 
ATOM     56  C   UNL     1      13.198  10.457  -8.449  1.00  0.00     0.029 A 
ATOM     57  C   UNL     1      13.413  10.748  -9.854  1.00  0.00     0.049 A 
ATOM     58  H   UNL     1      13.839   9.372 -11.370  1.00  0.00     0.167 HD
ATOM     59  C   UNL     1      13.915   6.416 -14.566  1.00  0.00     0.031 A 
ATOM     60  C   UNL     1      13.430  11.940 -10.496  1.00  0.00     0.031 A 
ATOM     61  C   UNL     1      15.312   6.750 -14.450  1.00  0.00     0.049 A 
ATOM     62  C   UNL     1      14.163  11.745 -11.766  1.00  0.00     0.074 A 
ATOM     63  C   UNL     1      16.428   6.118 -13.941  1.00  0.00     0.029 A 
ATOM     64  N   UNL     1      15.639   8.082 -14.543  1.00  0.00    -0.354 N 
ATOM     65  N   UNL     1      15.438  11.493 -11.824  1.00  0.00    -0.248 NA
ATOM     66  C   UNL     1      13.404  11.405 -12.958  1.00  0.00     0.031 C 
ATOM     67  C   UNL     1      17.178   7.154 -13.309  1.00  0.00     0.029 A 
ATOM     68  C   UNL     1      16.516   8.364 -13.528  1.00  0.00     0.049 A 
ATOM     69  H   UNL     1      15.304   8.718 -15.216  1.00  0.00     0.167 HD
ATOM     70  C   UNL     1      15.566  10.564 -12.846  1.00  0.00     0.074 A 
ATOM     71  C   UNL     1      14.306  10.642 -13.584  1.00  0.00     0.031 C 
ATOM     72  C   UNL     1      16.560   9.628 -12.824  1.00  0.00     0.031 A 
BRANCH  59  73
ATOM     73  C   UNL     1      13.142   6.710 -15.826  1.00  0.00    -0.014 A 
ATOM     74  C   UNL     1      13.850   6.845 -17.035  1.00  0.00     0.009 A 
ATOM     75  C   UNL     1      11.803   7.141 -15.825  1.00  0.00     0.009 A 
ATOM     76  C   UNL     1      13.270   7.450 -18.157  1.00  0.00     0.001 A 
ATOM     77  C   UNL     1      11.208   7.709 -16.956  1.00  0.00     0.001 A 
ATOM     78  C   UNL     1      11.952   7.890 -18.113  1.00  0.00     0.000 A 
ENDBRANCH  59  73
BRANCH  60  79
ATOM     79  C   UNL     1      12.678  13.175 -10.203  1.00  0.00    -0.014 A 
ATOM     80  C   UNL     1      13.075  14.402 -10.758  1.00  0.00     0.009 A 
ATOM     81  C   UNL     1      11.401  13.100  -9.618  1.00  0.00     0.009 A 
ATOM     82  C   UNL     1      12.204  15.499 -10.774  1.00  0.00     0.001 A 
ATOM     83  C   UNL     1      10.532  14.196  -9.633  1.00  0.00     0.001 A 
ATOM     84  C   UNL     1      10.927  15.390 -10.229  1.00  0.00     0.000 A 
ENDBRANCH  60  79
BRANCH  72  85
ATOM     85  C   UNL     1      17.664   9.792 -11.806  1.00  0.00    -0.014 A 
ATOM     86  C   UNL     1      17.439   9.806 -10.417  1.00  0.00     0.009 A 
ATOM     87  C   UNL     1      18.990   9.787 -12.262  1.00  0.00     0.009 A 
ATOM     88  C   UNL     1      18.510   9.848  -9.517  1.00  0.00     0.001 A 
ATOM     89  C   UNL     1      20.059   9.804 -11.364  1.00  0.00     0.001 A 
ATOM     90  C   UNL     1      19.820   9.841  -9.992  1.00  0.00     0.000 A 
ENDBRANCH  72  85
ENDBRANCH  46  47
ENDBRANCH  38  41
ENDBRANCH  36  37
ENDBRANCH  35  36
ENDBRANCH  34  35
ENDBRANCH   3  34
TORSDOF 15
