REMARK SMILES Nc1c(N2CCCC2)ncnc1N1CCC(C(=O)NCCCNC(=O)c2ccc(-c3c4nc(c(-c5ccccc5)c5ccc([nH]5)c(-c5ccccc5)c5nc(c(-c6ccccc6)c6ccc3[nH]6)C=C5)C=C4)cc2)CC1
REMARK SMILES IDX 21 1 20 2 19 3 17 4 18 5 16 7 13 8 14 9 75 10 15 11 74 12
REMARK SMILES IDX 12 13 2 14 3 15 9 16 11 17 10 18 1 19 4 22 5 23 8 24 6 25
REMARK SMILES IDX 7 26 22 27 23 28 24 29 25 31 26 32 27 33 73 34 28 35 72 36
REMARK SMILES IDX 29 37 30 38 31 39 66 40 32 41 71 42 65 43 67 44 33 45 70 46
REMARK SMILES IDX 64 47 63 48 34 50 56 51 41 52 55 53 42 54 45 55 54 56 68 57
REMARK SMILES IDX 43 58 44 59 53 61 69 62 46 63 35 64 36 65 40 66 37 67 39 68
REMARK SMILES IDX 38 69 57 70 58 71 62 72 59 73 61 74 60 75 47 76 48 77 52 78
REMARK SMILES IDX 49 79 51 80 50 81
REMARK H PARENT 19 6 1 20 1 21 23 30 67 49 45 60
REMARK Flexibility Score: inf
ROOT
ATOM      1  C   UNL     1       0.775   7.117   1.548  1.00  0.00     0.042 C 
ENDROOT
BRANCH   1   2
ATOM      2  C   UNL     1       0.756   6.519   0.147  1.00  0.00     0.117 C 
BRANCH   2   3
ATOM      3  N   UNL     1       1.896   6.952  -0.653  1.00  0.00    -0.356 N 
ATOM      4  C   UNL     1       2.973   6.269  -1.129  1.00  0.00     0.223 C 
ATOM      5  O   UNL     1       3.821   6.901  -1.762  1.00  0.00    -0.275 OA
ATOM      6  H   UNL     1       1.884   7.907  -0.891  1.00  0.00     0.163 HD
BRANCH   4   7
ATOM      7  C   UNL     1       3.130   4.773  -0.911  1.00  0.00     0.082 C 
ATOM      8  N   UNL     1       1.919   2.513   0.260  1.00  0.00    -0.355 N 
ATOM      9  C   UNL     1       3.115   2.989   0.917  1.00  0.00     0.119 C 
ATOM     10  C   UNL     1       1.852   2.575  -1.188  1.00  0.00     0.119 C 
ATOM     11  C   UNL     1       3.325   4.453   0.579  1.00  0.00     0.035 C 
ATOM     12  C   UNL     1       2.010   4.016  -1.643  1.00  0.00     0.035 C 
BRANCH   8  13
ATOM     13  C   UNL     1       0.943   1.878   1.005  1.00  0.00     0.157 A 
ATOM     14  C   UNL     1       0.532   0.573   0.699  1.00  0.00     0.118 A 
ATOM     15  C   UNL     1      -0.544   0.059   1.443  1.00  0.00     0.157 A 
ATOM     16  N   UNL     1      -1.153   0.774   2.404  1.00  0.00    -0.217 NA
ATOM     17  N   UNL     1       0.394   2.572   2.019  1.00  0.00    -0.217 NA
ATOM     18  C   UNL     1      -0.635   1.986   2.650  1.00  0.00     0.226 A 
BRANCH  14  19
ATOM     19  N   UNL     1       1.084  -0.154  -0.373  1.00  0.00    -0.393 N 
ATOM     20  H   UNL     1       0.772  -1.069  -0.560  1.00  0.00     0.156 HD
ATOM     21  H   UNL     1       1.782   0.253  -0.936  1.00  0.00     0.156 HD
ENDBRANCH  14  19
BRANCH  15  22
ATOM     22  N   UNL     1      -0.991  -1.218   1.175  1.00  0.00    -0.355 N 
ATOM     23  C   UNL     1      -0.197  -2.382   1.510  1.00  0.00     0.118 C 
ATOM     24  C   UNL     1      -2.404  -1.542   1.142  1.00  0.00     0.118 C 
ATOM     25  C   UNL     1      -0.947  -3.458   0.737  1.00  0.00     0.023 C 
ATOM     26  C   UNL     1      -2.413  -3.066   0.933  1.00  0.00     0.023 C 
ENDBRANCH  15  22
ENDBRANCH   8  13
ENDBRANCH   4   7
ENDBRANCH   2   3
ENDBRANCH   1   2
BRANCH   1  27
ATOM     27  C   UNL     1       0.698   8.636   1.562  1.00  0.00     0.118 C 
BRANCH  27  28
ATOM     28  N   UNL     1      -0.592   9.134   1.108  1.00  0.00    -0.352 N 
ATOM     29  C   UNL     1      -1.619   9.701   1.821  1.00  0.00     0.251 C 
ATOM     30  H   UNL     1      -0.753   9.053   0.140  1.00  0.00     0.163 HD
ATOM     31  O   UNL     1      -2.712   9.878   1.290  1.00  0.00    -0.269 OA
BRANCH  29  32
ATOM     32  C   UNL     1      -1.423  10.075   3.237  1.00  0.00     0.039 A 
ATOM     33  C   UNL     1      -2.422   9.767   4.163  1.00  0.00     0.014 A 
ATOM     34  C   UNL     1      -0.265  10.739   3.651  1.00  0.00     0.014 A 
ATOM     35  C   UNL     1      -2.226  10.060   5.514  1.00  0.00     0.010 A 
ATOM     36  C   UNL     1      -0.031  10.947   5.006  1.00  0.00     0.010 A 
ATOM     37  C   UNL     1      -1.014  10.619   5.950  1.00  0.00    -0.014 A 
BRANCH  37  38
ATOM     38  C   UNL     1      -0.767  10.884   7.389  1.00  0.00     0.031 A 
ATOM     39  C   UNL     1      -0.586  12.294   7.877  1.00  0.00     0.074 A 
ATOM     40  C   UNL     1      -0.671   9.853   8.251  1.00  0.00     0.049 A 
ATOM     41  N   UNL     1      -0.357  12.721   9.093  1.00  0.00    -0.248 NA
ATOM     42  C   UNL     1      -0.649  13.363   6.867  1.00  0.00     0.031 C 
ATOM     43  C   UNL     1      -0.791   8.437   7.896  1.00  0.00     0.029 A 
ATOM     44  N   UNL     1      -0.460   9.838   9.607  1.00  0.00    -0.354 N 
ATOM     45  C   UNL     1      -0.243  14.101   8.991  1.00  0.00     0.074 A 
ATOM     46  C   UNL     1      -0.366  14.436   7.590  1.00  0.00     0.031 C 
ATOM     47  C   UNL     1      -0.702   7.696   9.012  1.00  0.00     0.029 A 
ATOM     48  C   UNL     1      -0.480   8.578  10.153  1.00  0.00     0.049 A 
ATOM     49  H   UNL     1      -0.307  10.654  10.137  1.00  0.00     0.167 HD
ATOM     50  C   UNL     1      -0.083  15.014   9.978  1.00  0.00     0.031 A 
ATOM     51  C   UNL     1      -0.346   8.178  11.432  1.00  0.00     0.031 A 
ATOM     52  C   UNL     1       0.025  14.684  11.372  1.00  0.00     0.049 A 
ATOM     53  C   UNL     1      -0.136   9.207  12.507  1.00  0.00     0.074 A 
ATOM     54  C   UNL     1       0.141  15.542  12.452  1.00  0.00     0.029 A 
ATOM     55  N   UNL     1       0.030  13.395  11.878  1.00  0.00    -0.354 N 
ATOM     56  N   UNL     1      -0.090  10.512  12.400  1.00  0.00    -0.248 NA
ATOM     57  C   UNL     1       0.036   8.707  13.879  1.00  0.00     0.031 C 
ATOM     58  C   UNL     1       0.262  14.768  13.609  1.00  0.00     0.029 A 
ATOM     59  C   UNL     1       0.173  13.431  13.254  1.00  0.00     0.049 A 
ATOM     60  H   UNL     1      -0.055  12.575  11.339  1.00  0.00     0.167 HD
ATOM     61  C   UNL     1       0.099  10.991  13.689  1.00  0.00     0.074 A 
ATOM     62  C   UNL     1       0.145   9.838  14.564  1.00  0.00     0.031 C 
ATOM     63  C   UNL     1       0.223  12.273  14.108  1.00  0.00     0.031 A 
BRANCH  50  64
ATOM     64  C   UNL     1      -0.026  16.460   9.578  1.00  0.00    -0.014 A 
ATOM     65  C   UNL     1      -1.175  17.129   9.125  1.00  0.00     0.009 A 
ATOM     66  C   UNL     1       1.176  17.174   9.689  1.00  0.00     0.009 A 
ATOM     67  C   UNL     1      -1.113  18.474   8.760  1.00  0.00     0.001 A 
ATOM     68  C   UNL     1       1.229  18.528   9.349  1.00  0.00     0.001 A 
ATOM     69  C   UNL     1       0.087  19.174   8.877  1.00  0.00     0.000 A 
ENDBRANCH  50  64
BRANCH  51  70
ATOM     70  C   UNL     1      -0.449   6.734  11.766  1.00  0.00    -0.014 A 
ATOM     71  C   UNL     1      -1.592   6.241  12.412  1.00  0.00     0.009 A 
ATOM     72  C   UNL     1       0.574   5.840  11.415  1.00  0.00     0.009 A 
ATOM     73  C   UNL     1      -1.704   4.881  12.711  1.00  0.00     0.001 A 
ATOM     74  C   UNL     1       0.449   4.477  11.695  1.00  0.00     0.001 A 
ATOM     75  C   UNL     1      -0.687   4.000  12.347  1.00  0.00     0.000 A 
ENDBRANCH  51  70
BRANCH  63  76
ATOM     76  C   UNL     1       0.414  12.509  15.578  1.00  0.00    -0.014 A 
ATOM     77  C   UNL     1       1.651  12.266  16.192  1.00  0.00     0.009 A 
ATOM     78  C   UNL     1      -0.627  13.068  16.336  1.00  0.00     0.009 A 
ATOM     79  C   UNL     1       1.839  12.569  17.542  1.00  0.00     0.001 A 
ATOM     80  C   UNL     1      -0.429  13.392  17.679  1.00  0.00     0.001 A 
ATOM     81  C   UNL     1       0.803  13.139  18.281  1.00  0.00     0.000 A 
ENDBRANCH  63  76
ENDBRANCH  37  38
ENDBRANCH  29  32
ENDBRANCH  27  28
ENDBRANCH   1  27
TORSDOF 13
