REMARK SMILES CC(C)[C@H](NC(=O)[C@H](C)NC(=O)C[NH3+])C(=O)NCCCNC(=O)c1ccc(-c2c3nc(c(-c4ccccc4)c4ccc([nH]4)c(-c4ccccc4)c4nc(c(-c5ccccc5)c5ccc2[nH]5)C=C4)C=C3)cc1
REMARK SMILES IDX 15 1 16 2 17 3 4 5 2 6 1 7 3 8 5 9 6 10 7 12 8 13 9 14 10 15
REMARK SMILES IDX 11 16 12 18 13 19 14 20 18 24 19 25 20 26 21 27 22 28 23 30
REMARK SMILES IDX 24 31 25 32 71 33 26 34 70 35 27 36 28 37 29 38 64 39 30 40
REMARK SMILES IDX 69 41 63 42 65 43 31 44 68 45 62 46 61 47 32 49 54 50 39 51
REMARK SMILES IDX 53 52 40 53 43 54 52 55 66 56 41 57 42 58 51 60 67 61 44 62
REMARK SMILES IDX 33 63 34 64 38 65 35 66 37 67 36 68 55 69 56 70 60 71 57 72
REMARK SMILES IDX 59 73 58 74 45 75 46 76 50 77 47 78 49 79 48 80
REMARK H PARENT 17 4 5 11 10 17 14 21 14 22 14 23 21 29 65 48 43 59
REMARK Flexibility Score: inf
ROOT
ATOM      1  C   UNL     1      -2.988  -3.629   0.254  1.00  0.00     0.242 C 
ATOM      2  O   UNL     1      -2.688  -2.836   1.153  1.00  0.00    -0.273 OA
ATOM      3  N   UNL     1      -4.295  -3.631  -0.127  1.00  0.00    -0.354 N 
ATOM      4  H   UNL     1      -4.959  -3.497   0.587  1.00  0.00     0.163 HD
ENDROOT
BRANCH   1   5
ATOM      5  C   UNL     1      -1.933  -4.627  -0.319  1.00  0.00     0.173 C 
BRANCH   5   6
ATOM      6  C   UNL     1      -0.551  -4.088  -0.757  1.00  0.00     0.015 C 
ATOM      7  C   UNL     1      -0.277  -2.618  -0.453  1.00  0.00     0.010 C 
ATOM      8  C   UNL     1       0.586  -4.960  -0.204  1.00  0.00     0.010 C 
ENDBRANCH   5   6
BRANCH   5   9
ATOM      9  N   UNL     1      -2.391  -5.802  -1.086  1.00  0.00    -0.342 N 
ATOM     10  C   UNL     1      -2.546  -6.227  -2.358  1.00  0.00     0.242 C 
ATOM     11  H   UNL     1      -2.679  -6.509  -0.465  1.00  0.00     0.164 HD
ATOM     12  O   UNL     1      -2.984  -7.390  -2.416  1.00  0.00    -0.273 OA
BRANCH  10  13
ATOM     13  C   UNL     1      -2.466  -5.387  -3.671  1.00  0.00     0.168 C 
ATOM     14  C   UNL     1      -2.300  -6.378  -4.838  1.00  0.00     0.041 C 
BRANCH  13  15
ATOM     15  N   UNL     1      -1.432  -4.372  -3.822  1.00  0.00    -0.340 N 
ATOM     16  C   UNL     1      -1.466  -3.025  -4.008  1.00  0.00     0.275 C 
ATOM     17  H   UNL     1      -0.518  -4.736  -3.781  1.00  0.00     0.164 HD
ATOM     18  O   UNL     1      -0.387  -2.475  -4.254  1.00  0.00    -0.268 OA
BRANCH  16  19
ATOM     19  C   UNL     1      -2.717  -2.168  -3.809  1.00  0.00     0.360 C 
BRANCH  19  20
ATOM     20  N   UNL     1      -3.905  -2.653  -4.525  1.00  0.00    -0.350 N 
ATOM     21  H   UNL     1      -3.728  -2.635  -5.529  1.00  0.00     0.344 HD
ATOM     22  H   UNL     1      -4.701  -2.054  -4.308  1.00  0.00     0.344 HD
ATOM     23  H   UNL     1      -4.110  -3.609  -4.233  1.00  0.00     0.344 HD
ENDBRANCH  19  20
ENDBRANCH  16  19
ENDBRANCH  13  15
ENDBRANCH  10  13
ENDBRANCH   5   9
ENDBRANCH   1   5
BRANCH   3  24
ATOM     24  C   UNL     1      -4.815  -3.807  -1.458  1.00  0.00     0.117 C 
BRANCH  24  25
ATOM     25  C   UNL     1      -5.688  -5.032  -1.643  1.00  0.00     0.042 C 
BRANCH  25  26
ATOM     26  C   UNL     1      -6.760  -4.824  -2.703  1.00  0.00     0.118 C 
BRANCH  26  27
ATOM     27  N   UNL     1      -6.311  -4.368  -4.011  1.00  0.00    -0.352 N 
ATOM     28  C   UNL     1      -6.961  -4.472  -5.229  1.00  0.00     0.251 C 
ATOM     29  H   UNL     1      -5.431  -3.928  -4.032  1.00  0.00     0.163 HD
ATOM     30  O   UNL     1      -6.459  -4.001  -6.241  1.00  0.00    -0.269 OA
BRANCH  28  31
ATOM     31  C   UNL     1      -8.239  -5.225  -5.320  1.00  0.00     0.039 A 
ATOM     32  C   UNL     1      -8.424  -6.113  -6.383  1.00  0.00     0.014 A 
ATOM     33  C   UNL     1      -9.215  -5.123  -4.330  1.00  0.00     0.014 A 
ATOM     34  C   UNL     1      -9.522  -6.980  -6.383  1.00  0.00     0.010 A 
ATOM     35  C   UNL     1     -10.233  -6.066  -4.265  1.00  0.00     0.010 A 
ATOM     36  C   UNL     1     -10.397  -7.011  -5.286  1.00  0.00    -0.014 A 
BRANCH  36  37
ATOM     37  C   UNL     1     -11.480  -8.022  -5.161  1.00  0.00     0.031 A 
ATOM     38  C   UNL     1     -12.910  -7.580  -4.993  1.00  0.00     0.074 A 
ATOM     39  C   UNL     1     -11.170  -9.333  -5.084  1.00  0.00     0.049 A 
ATOM     40  N   UNL     1     -13.973  -8.297  -4.729  1.00  0.00    -0.248 NA
ATOM     41  C   UNL     1     -13.172  -6.134  -5.089  1.00  0.00     0.031 C 
ATOM     42  C   UNL     1      -9.821  -9.898  -5.167  1.00  0.00     0.029 A 
ATOM     43  N   UNL     1     -11.975 -10.431  -4.904  1.00  0.00    -0.354 N 
ATOM     44  C   UNL     1     -15.015  -7.389  -4.592  1.00  0.00     0.074 A 
ATOM     45  C   UNL     1     -14.449  -6.067  -4.744  1.00  0.00     0.031 C 
ATOM     46  C   UNL     1      -9.896 -11.236  -5.078  1.00  0.00     0.029 A 
ATOM     47  C   UNL     1     -11.289 -11.621  -4.882  1.00  0.00     0.049 A 
ATOM     48  H   UNL     1     -12.952 -10.370  -4.799  1.00  0.00     0.167 HD
ATOM     49  C   UNL     1     -16.331  -7.629  -4.385  1.00  0.00     0.031 A 
ATOM     50  C   UNL     1     -11.729 -12.883  -4.718  1.00  0.00     0.031 A 
ATOM     51  C   UNL     1     -16.904  -8.943  -4.273  1.00  0.00     0.049 A 
ATOM     52  C   UNL     1     -13.198 -13.127  -4.512  1.00  0.00     0.074 A 
ATOM     53  C   UNL     1     -18.235  -9.295  -4.136  1.00  0.00     0.029 A 
ATOM     54  N   UNL     1     -16.176 -10.123  -4.295  1.00  0.00    -0.354 N 
ATOM     55  N   UNL     1     -14.179 -12.259  -4.449  1.00  0.00    -0.248 NA
ATOM     56  C   UNL     1     -13.620 -14.527  -4.364  1.00  0.00     0.031 C 
ATOM     57  C   UNL     1     -18.310 -10.688  -4.037  1.00  0.00     0.029 A 
ATOM     58  C   UNL     1     -17.030 -11.204  -4.161  1.00  0.00     0.049 A 
ATOM     59  H   UNL     1     -15.198 -10.182  -4.392  1.00  0.00     0.167 HD
ATOM     60  C   UNL     1     -15.336 -13.009  -4.284  1.00  0.00     0.074 A 
ATOM     61  C   UNL     1     -14.937 -14.401  -4.271  1.00  0.00     0.031 C 
ATOM     62  C   UNL     1     -16.616 -12.582  -4.156  1.00  0.00     0.031 A 
BRANCH  49  63
ATOM     63  C   UNL     1     -17.241  -6.438  -4.274  1.00  0.00    -0.014 A 
ATOM     64  C   UNL     1     -17.520  -5.630  -5.388  1.00  0.00     0.009 A 
ATOM     65  C   UNL     1     -17.844  -6.129  -3.045  1.00  0.00     0.009 A 
ATOM     66  C   UNL     1     -18.348  -4.512  -5.263  1.00  0.00     0.001 A 
ATOM     67  C   UNL     1     -18.697  -5.030  -2.930  1.00  0.00     0.001 A 
ATOM     68  C   UNL     1     -18.939  -4.216  -4.036  1.00  0.00     0.000 A 
ENDBRANCH  49  63
BRANCH  50  69
ATOM     69  C   UNL     1     -10.774 -14.020  -4.770  1.00  0.00    -0.014 A 
ATOM     70  C   UNL     1     -10.773 -14.891  -5.872  1.00  0.00     0.009 A 
ATOM     71  C   UNL     1      -9.867 -14.248  -3.725  1.00  0.00     0.009 A 
ATOM     72  C   UNL     1      -9.901 -15.981  -5.912  1.00  0.00     0.001 A 
ATOM     73  C   UNL     1      -8.977 -15.323  -3.781  1.00  0.00     0.001 A 
ATOM     74  C   UNL     1      -9.001 -16.194  -4.869  1.00  0.00     0.000 A 
ENDBRANCH  50  69
BRANCH  62  75
ATOM     75  C   UNL     1     -17.681 -13.633  -4.031  1.00  0.00    -0.014 A 
ATOM     76  C   UNL     1     -17.843 -14.370  -2.848  1.00  0.00     0.009 A 
ATOM     77  C   UNL     1     -18.562 -13.856  -5.101  1.00  0.00     0.009 A 
ATOM     78  C   UNL     1     -18.850 -15.332  -2.751  1.00  0.00     0.001 A 
ATOM     79  C   UNL     1     -19.584 -14.799  -4.990  1.00  0.00     0.001 A 
ATOM     80  C   UNL     1     -19.722 -15.542  -3.819  1.00  0.00     0.000 A 
ENDBRANCH  62  75
ENDBRANCH  36  37
ENDBRANCH  28  31
ENDBRANCH  26  27
ENDBRANCH  25  26
ENDBRANCH  24  25
ENDBRANCH   3  24
TORSDOF 16
