REMARK SMILES COc1ccc(-c2nc(NCC(=O)NCCCNC(=O)c3ccc(-c4c5nc(c(-c6ccccc6)c6ccc([nH]6)c(-c6ccccc6)c6nc(c(-c7ccccc7)c7ccc4[nH]7)C=C6)C=C5)cc3)sc2-c2ccc(OC)cc2)cc1
REMARK SMILES IDX 15 1 14 2 12 3 13 4 11 6 10 7 9 9 7 10 8 11 70 12 69 13 6 14
REMARK SMILES IDX 3 15 4 16 80 17 5 18 79 19 2 20 1 21 71 22 72 23 78 24 73 25
REMARK SMILES IDX 77 26 74 27 75 28 76 29 16 30 17 31 18 32 19 33 20 35 21 36
REMARK SMILES IDX 22 37 68 38 23 39 67 40 24 41 25 42 26 43 61 44 27 45 66 46
REMARK SMILES IDX 60 47 62 48 28 49 65 50 59 51 58 52 29 54 51 55 36 56 50 57
REMARK SMILES IDX 37 58 40 59 49 60 63 61 38 62 39 63 48 65 64 66 41 67 30 68
REMARK SMILES IDX 31 69 35 70 32 71 34 72 33 73 52 74 53 75 57 76 54 77 56 78
REMARK SMILES IDX 55 79 42 80 43 81 47 82 44 83 46 84 45 85
REMARK H PARENT 14 5 10 8 18 34 62 53 40 64
REMARK Flexibility Score: inf
ROOT
ATOM      1  C   UNL     1       5.454   5.236   8.300  1.00  0.00     0.117 C 
ENDROOT
BRANCH   1   2
ATOM      2  N   UNL     1       6.224   6.462   8.212  1.00  0.00    -0.355 N 
ATOM      3  C   UNL     1       5.883   7.645   7.616  1.00  0.00     0.239 C 
ATOM      4  O   UNL     1       6.719   8.551   7.603  1.00  0.00    -0.273 OA
ATOM      5  H   UNL     1       7.110   6.439   8.640  1.00  0.00     0.163 HD
BRANCH   3   6
ATOM      6  C   UNL     1       4.481   7.835   7.026  1.00  0.00     0.215 C 
BRANCH   6   7
ATOM      7  N   UNL     1       4.282   7.009   5.847  1.00  0.00    -0.352 N 
ATOM      8  H   UNL     1       4.959   7.073   5.134  1.00  0.00     0.163 HD
BRANCH   7   9
ATOM      9  C   UNL     1       3.251   6.163   5.642  1.00  0.00     0.184 A 
ATOM     10  C   UNL     1       2.079   4.588   4.610  1.00  0.00     0.091 A 
ATOM     11  N   UNL     1       3.179   5.429   4.555  1.00  0.00    -0.220 NA
ATOM     12  C   UNL     1       1.373   4.612   5.803  1.00  0.00     0.064 A 
ATOM     13  S   UNL     1       1.958   5.905   6.756  1.00  0.00    -0.096 S 
BRANCH  10  14
ATOM     14  C   UNL     1       1.714   3.739   3.486  1.00  0.00     0.002 A 
ATOM     15  C   UNL     1       0.944   2.058   1.372  1.00  0.00     0.118 A 
ATOM     16  C   UNL     1       0.036   2.965   1.915  1.00  0.00     0.047 A 
ATOM     17  C   UNL     1       2.250   2.011   1.866  1.00  0.00     0.047 A 
ATOM     18  C   UNL     1       0.414   3.796   2.968  1.00  0.00     0.014 A 
ATOM     19  C   UNL     1       2.637   2.857   2.917  1.00  0.00     0.014 A 
BRANCH  15  20
ATOM     20  O   UNL     1       0.451   1.317   0.334  1.00  0.00    -0.497 OA
ATOM     21  C   UNL     1       1.057   0.049   0.133  1.00  0.00     0.278 C 
ENDBRANCH  15  20
ENDBRANCH  10  14
BRANCH  12  22
ATOM     22  C   UNL     1       0.307   3.744   6.305  1.00  0.00    -0.006 A 
ATOM     23  C   UNL     1      -0.918   4.258   6.738  1.00  0.00     0.013 A 
ATOM     24  C   UNL     1       0.507   2.356   6.339  1.00  0.00     0.013 A 
ATOM     25  C   UNL     1      -1.926   3.395   7.179  1.00  0.00     0.047 A 
ATOM     26  C   UNL     1      -0.503   1.494   6.779  1.00  0.00     0.047 A 
ATOM     27  C   UNL     1      -1.729   2.012   7.192  1.00  0.00     0.118 A 
BRANCH  27  28
ATOM     28  O   UNL     1      -2.800   1.283   7.627  1.00  0.00    -0.497 OA
ATOM     29  C   UNL     1      -2.699  -0.132   7.514  1.00  0.00     0.278 C 
ENDBRANCH  27  28
ENDBRANCH  12  22
ENDBRANCH   7   9
ENDBRANCH   6   7
ENDBRANCH   3   6
ENDBRANCH   1   2
BRANCH   1  30
ATOM     30  C   UNL     1       5.939   4.185   7.305  1.00  0.00     0.042 C 
BRANCH  30  31
ATOM     31  C   UNL     1       7.296   3.591   7.673  1.00  0.00     0.118 C 
BRANCH  31  32
ATOM     32  N   UNL     1       7.256   2.842   8.925  1.00  0.00    -0.352 N 
ATOM     33  C   UNL     1       7.525   1.521   9.178  1.00  0.00     0.251 C 
ATOM     34  H   UNL     1       6.993   3.369   9.714  1.00  0.00     0.163 HD
ATOM     35  O   UNL     1       7.235   1.037  10.271  1.00  0.00    -0.269 OA
BRANCH  33  36
ATOM     36  C   UNL     1       8.140   0.671   8.141  1.00  0.00     0.039 A 
ATOM     37  C   UNL     1       7.631  -0.614   7.931  1.00  0.00     0.014 A 
ATOM     38  C   UNL     1       9.219   1.131   7.381  1.00  0.00     0.014 A 
ATOM     39  C   UNL     1       8.141  -1.401   6.897  1.00  0.00     0.010 A 
ATOM     40  C   UNL     1       9.681   0.374   6.309  1.00  0.00     0.010 A 
ATOM     41  C   UNL     1       9.133  -0.890   6.044  1.00  0.00    -0.014 A 
BRANCH  41  42
ATOM     42  C   UNL     1       9.566  -1.630   4.833  1.00  0.00     0.031 A 
ATOM     43  C   UNL     1      10.984  -2.104   4.691  1.00  0.00     0.074 A 
ATOM     44  C   UNL     1       8.695  -1.791   3.817  1.00  0.00     0.049 A 
ATOM     45  N   UNL     1      11.565  -2.664   3.660  1.00  0.00    -0.248 NA
ATOM     46  C   UNL     1      11.869  -1.904   5.848  1.00  0.00     0.031 C 
ATOM     47  C   UNL     1       7.299  -1.347   3.815  1.00  0.00     0.029 A 
ATOM     48  N   UNL     1       8.865  -2.355   2.577  1.00  0.00    -0.354 N 
ATOM     49  C   UNL     1      12.885  -2.871   4.039  1.00  0.00     0.074 A 
ATOM     50  C   UNL     1      13.029  -2.340   5.377  1.00  0.00     0.031 C 
ATOM     51  C   UNL     1       6.736  -1.669   2.639  1.00  0.00     0.029 A 
ATOM     52  C   UNL     1       7.743  -2.291   1.787  1.00  0.00     0.049 A 
ATOM     53  H   UNL     1       9.710  -2.765   2.282  1.00  0.00     0.167 HD
ATOM     54  C   UNL     1      13.884  -3.461   3.339  1.00  0.00     0.031 A 
ATOM     55  C   UNL     1       7.551  -2.666   0.509  1.00  0.00     0.031 A 
ATOM     56  C   UNL     1      13.742  -3.981   2.004  1.00  0.00     0.049 A 
ATOM     57  C   UNL     1       8.692  -3.261  -0.266  1.00  0.00     0.074 A 
ATOM     58  C   UNL     1      14.683  -4.644   1.234  1.00  0.00     0.029 A 
ATOM     59  N   UNL     1      12.593  -3.884   1.236  1.00  0.00    -0.354 N 
ATOM     60  N   UNL     1       9.915  -3.513   0.130  1.00  0.00    -0.248 NA
ATOM     61  C   UNL     1       8.423  -3.621  -1.666  1.00  0.00     0.031 C 
ATOM     62  C   UNL     1      14.124  -4.889  -0.024  1.00  0.00     0.029 A 
ATOM     63  C   UNL     1      12.814  -4.438  -0.015  1.00  0.00     0.049 A 
ATOM     64  H   UNL     1      11.745  -3.482   1.534  1.00  0.00     0.167 HD
ATOM     65  C   UNL     1      10.556  -4.078  -0.965  1.00  0.00     0.074 A 
ATOM     66  C   UNL     1       9.582  -4.150  -2.033  1.00  0.00     0.031 C 
ATOM     67  C   UNL     1      11.840  -4.497  -1.073  1.00  0.00     0.031 A 
BRANCH  54  68
ATOM     68  C   UNL     1      15.233  -3.558   3.998  1.00  0.00    -0.014 A 
ATOM     69  C   UNL     1      15.451  -4.415   5.088  1.00  0.00     0.009 A 
ATOM     70  C   UNL     1      16.312  -2.818   3.490  1.00  0.00     0.009 A 
ATOM     71  C   UNL     1      16.715  -4.501   5.678  1.00  0.00     0.001 A 
ATOM     72  C   UNL     1      17.581  -2.929   4.062  1.00  0.00     0.001 A 
ATOM     73  C   UNL     1      17.779  -3.763   5.161  1.00  0.00     0.000 A 
ENDBRANCH  54  68
BRANCH  55  74
ATOM     74  C   UNL     1       6.230  -2.462  -0.138  1.00  0.00    -0.014 A 
ATOM     75  C   UNL     1       5.413  -3.557  -0.452  1.00  0.00     0.009 A 
ATOM     76  C   UNL     1       5.798  -1.170  -0.473  1.00  0.00     0.009 A 
ATOM     77  C   UNL     1       4.200  -3.365  -1.118  1.00  0.00     0.001 A 
ATOM     78  C   UNL     1       4.577  -0.980  -1.121  1.00  0.00     0.001 A 
ATOM     79  C   UNL     1       3.784  -2.078  -1.451  1.00  0.00     0.000 A 
ENDBRANCH  55  74
BRANCH  67  80
ATOM     80  C   UNL     1      12.262  -5.094  -2.386  1.00  0.00    -0.014 A 
ATOM     81  C   UNL     1      12.447  -4.293  -3.523  1.00  0.00     0.009 A 
ATOM     82  C   UNL     1      12.533  -6.469  -2.470  1.00  0.00     0.009 A 
ATOM     83  C   UNL     1      12.872  -4.862  -4.725  1.00  0.00     0.001 A 
ATOM     84  C   UNL     1      12.987  -7.029  -3.664  1.00  0.00     0.001 A 
ATOM     85  C   UNL     1      13.150  -6.227  -4.793  1.00  0.00     0.000 A 
ENDBRANCH  67  80
ENDBRANCH  41  42
ENDBRANCH  33  36
ENDBRANCH  31  32
ENDBRANCH  30  31
ENDBRANCH   1  30
TORSDOF 16
