REMARK SMILES Cc1ccc(S(=O)(=O)Nc2ccc(C(=O)CCC(=O)NCCCNC(=O)c3ccc(-c4c5nc(c(-c6ccccc6)c6ccc([nH]6)c(-c6ccccc6)c6nc(c(-c7ccccc7)c7ccc4[nH]7)C=C6)C=C5)cc3)cc2)c(C)c1
REMARK SMILES IDX 18 1 19 2 20 3 17 5 16 6 14 7 15 8 13 9 10 10 11 11 76 12
REMARK SMILES IDX 12 13 75 14 9 15 6 17 7 18 8 19 5 20 1 21 2 22 3 23 79 24
REMARK SMILES IDX 4 25 77 26 78 27 21 28 22 29 23 30 24 31 25 32 26 34 27 35
REMARK SMILES IDX 28 36 74 37 29 38 73 39 30 40 31 41 32 42 67 43 33 44 72 45
REMARK SMILES IDX 66 46 68 47 34 48 71 49 65 50 64 51 35 53 57 54 42 55 56 56
REMARK SMILES IDX 43 57 46 58 55 59 69 60 44 61 45 62 54 64 70 65 47 66 36 67
REMARK SMILES IDX 37 68 41 69 38 70 40 71 39 72 58 73 59 74 63 75 60 76 62 77
REMARK SMILES IDX 61 78 48 79 49 80 53 81 50 82 52 83 51 84
REMARK H PARENT 20 4 9 16 24 33 68 52 46 63
REMARK Flexibility Score: inf
ROOT
ATOM      1  C   UNL     1       3.862  -3.160   1.154  1.00  0.00     0.220 C 
ATOM      2  O   UNL     1       4.152  -2.603   2.213  1.00  0.00    -0.275 OA
ATOM      3  N   UNL     1       3.088  -2.468   0.252  1.00  0.00    -0.356 N 
ATOM      4  H   UNL     1       3.090  -1.488   0.342  1.00  0.00     0.163 HD
ENDROOT
BRANCH   1   5
ATOM      5  C   UNL     1       4.336  -4.597   0.858  1.00  0.00     0.108 C 
BRANCH   5   6
ATOM      6  C   UNL     1       3.584  -5.724   1.626  1.00  0.00     0.091 C 
BRANCH   6   7
ATOM      7  C   UNL     1       2.770  -6.739   0.766  1.00  0.00     0.163 C 
ATOM      8  O   UNL     1       3.249  -7.784   0.339  1.00  0.00    -0.294 OA
BRANCH   7   9
ATOM      9  C   UNL     1       1.407  -6.322   0.256  1.00  0.00     0.018 A 
ATOM     10  C   UNL     1      -0.381  -3.373  -0.906  1.00  0.00     0.049 A 
ATOM     11  C   UNL     1       0.644  -4.365  -2.076  1.00  0.00     0.027 A 
ATOM     12  C   UNL     1      -0.496  -3.887   0.809  1.00  0.00     0.027 A 
ATOM     13  C   UNL     1       1.482  -5.860  -1.502  1.00  0.00     0.014 A 
ATOM     14  C   UNL     1       0.393  -5.364   1.377  1.00  0.00     0.014 A 
BRANCH  10  15
ATOM     15  N   UNL     1      -1.461  -2.627  -1.504  1.00  0.00    -0.280 N 
ATOM     16  H   UNL     1      -1.778  -2.897  -2.397  1.00  0.00     0.180 HD
BRANCH  15  17
ATOM     17  S   UNL     1      -2.212  -1.311  -0.752  1.00  0.00     0.262 S 
ATOM     18  O   UNL     1      -2.441  -1.656   0.634  1.00  0.00    -0.201 OA
ATOM     19  O   UNL     1      -3.308  -0.933  -1.617  1.00  0.00    -0.201 OA
BRANCH  17  20
ATOM     20  C   UNL     1      -1.010  -0.013  -0.820  1.00  0.00     0.090 A 
ATOM     21  C   UNL     1       2.534   2.168   0.128  1.00  0.00     0.044 C 
ATOM     22  C   UNL     1       1.262   1.492  -0.281  1.00  0.00    -0.051 A 
ATOM     23  C   UNL     1       1.300   0.507  -1.266  1.00  0.00     0.005 A 
ATOM     24  C   UNL     1       0.030   1.846   0.286  1.00  0.00     0.008 A 
ATOM     25  C   UNL     1       0.157  -0.225  -1.555  1.00  0.00     0.023 A 
ATOM     26  C   UNL     1      -1.129   1.101   0.021  1.00  0.00    -0.030 A 
ATOM     27  C   UNL     1      -2.460   1.595   0.515  1.00  0.00     0.046 C 
ENDBRANCH  17  20
ENDBRANCH  15  17
ENDBRANCH  10  15
ENDBRANCH   7   9
ENDBRANCH   6   7
ENDBRANCH   5   6
ENDBRANCH   1   5
BRANCH   3  28
ATOM     28  C   UNL     1       2.259  -3.020  -0.831  1.00  0.00     0.117 C 
BRANCH  28  29
ATOM     29  C   UNL     1       1.343  -4.226  -0.163  1.00  0.00     0.042 C 
BRANCH  29  30
ATOM     30  C   UNL     1      -0.395  -5.453  -0.643  1.00  0.00     0.118 C 
BRANCH  30  31
ATOM     31  N   UNL     1      -1.452  -5.303  -1.919  1.00  0.00    -0.352 N 
ATOM     32  C   UNL     1      -2.568  -5.868  -2.411  1.00  0.00     0.251 C 
ATOM     33  H   UNL     1      -1.168  -4.562  -2.501  1.00  0.00     0.163 HD
ATOM     34  O   UNL     1      -2.964  -5.466  -3.504  1.00  0.00    -0.269 OA
BRANCH  32  35
ATOM     35  C   UNL     1      -3.314  -6.876  -1.701  1.00  0.00     0.039 A 
ATOM     36  C   UNL     1      -3.940  -7.848  -2.488  1.00  0.00     0.014 A 
ATOM     37  C   UNL     1      -3.516  -6.778  -0.328  1.00  0.00     0.014 A 
ATOM     38  C   UNL     1      -4.784  -8.748  -1.881  1.00  0.00     0.010 A 
ATOM     39  C   UNL     1      -4.290  -7.729   0.293  1.00  0.00     0.010 A 
ATOM     40  C   UNL     1      -4.937  -8.689  -0.492  1.00  0.00    -0.014 A 
BRANCH  40  41
ATOM     41  C   UNL     1      -5.814  -9.640   0.175  1.00  0.00     0.031 A 
ATOM     42  C   UNL     1      -7.099  -9.144   0.743  1.00  0.00     0.074 A 
ATOM     43  C   UNL     1      -5.359 -10.896   0.283  1.00  0.00     0.049 A 
ATOM     44  N   UNL     1      -7.997  -9.799   1.419  1.00  0.00    -0.248 NA
ATOM     45  C   UNL     1      -7.396  -7.709   0.569  1.00  0.00     0.031 C 
ATOM     46  C   UNL     1      -4.069 -11.373  -0.234  1.00  0.00     0.029 A 
ATOM     47  N   UNL     1      -5.920 -11.995   0.851  1.00  0.00    -0.354 N 
ATOM     48  C   UNL     1      -8.953  -8.856   1.770  1.00  0.00     0.074 A 
ATOM     49  C   UNL     1      -8.498  -7.573   1.289  1.00  0.00     0.031 C 
ATOM     50  C   UNL     1      -3.961 -12.687   0.006  1.00  0.00     0.029 A 
ATOM     51  C   UNL     1      -5.150 -13.122   0.722  1.00  0.00     0.049 A 
ATOM     52  H   UNL     1      -6.792 -11.983   1.309  1.00  0.00     0.167 HD
ATOM     53  C   UNL     1     -10.115  -9.072   2.424  1.00  0.00     0.031 A 
ATOM     54  C   UNL     1      -5.410 -14.370   1.137  1.00  0.00     0.031 A 
ATOM     55  C   UNL     1     -10.504 -10.383   2.867  1.00  0.00     0.049 A 
ATOM     56  C   UNL     1      -6.730 -14.589   1.814  1.00  0.00     0.074 A 
ATOM     57  C   UNL     1     -11.660 -10.781   3.507  1.00  0.00     0.029 A 
ATOM     58  N   UNL     1      -9.722 -11.523   2.693  1.00  0.00    -0.354 N 
ATOM     59  N   UNL     1      -7.660 -13.707   2.108  1.00  0.00    -0.248 NA
ATOM     60  C   UNL     1      -7.053 -15.965   2.191  1.00  0.00     0.031 C 
ATOM     61  C   UNL     1     -11.559 -12.156   3.752  1.00  0.00     0.029 A 
ATOM     62  C   UNL     1     -10.367 -12.626   3.214  1.00  0.00     0.049 A 
ATOM     63  H   UNL     1      -8.838 -11.539   2.260  1.00  0.00     0.167 HD
ATOM     64  C   UNL     1      -8.696 -14.422   2.682  1.00  0.00     0.074 A 
ATOM     65  C   UNL     1      -8.280 -15.816   2.673  1.00  0.00     0.031 C 
ATOM     66  C   UNL     1      -9.883 -13.985   3.174  1.00  0.00     0.031 A 
BRANCH  53  67
ATOM     67  C   UNL     1     -10.993  -7.881   2.690  1.00  0.00    -0.014 A 
ATOM     68  C   UNL     1     -11.598  -7.167   1.640  1.00  0.00     0.009 A 
ATOM     69  C   UNL     1     -11.200  -7.442   4.006  1.00  0.00     0.009 A 
ATOM     70  C   UNL     1     -12.347  -6.016   1.899  1.00  0.00     0.001 A 
ATOM     71  C   UNL     1     -11.977  -6.309   4.265  1.00  0.00     0.001 A 
ATOM     72  C   UNL     1     -12.539  -5.590   3.211  1.00  0.00     0.000 A 
ENDBRANCH  53  67
BRANCH  54  73
ATOM     73  C   UNL     1      -4.447 -15.461   0.853  1.00  0.00    -0.014 A 
ATOM     74  C   UNL     1      -4.750 -16.446  -0.100  1.00  0.00     0.009 A 
ATOM     75  C   UNL     1      -3.189 -15.488   1.475  1.00  0.00     0.009 A 
ATOM     76  C   UNL     1      -3.825 -17.449  -0.402  1.00  0.00     0.001 A 
ATOM     77  C   UNL     1      -2.255 -16.475   1.150  1.00  0.00     0.001 A 
ATOM     78  C   UNL     1      -2.578 -17.460   0.220  1.00  0.00     0.000 A 
ENDBRANCH  54  73
BRANCH  66  79
ATOM     79  C   UNL     1     -10.801 -15.044   3.702  1.00  0.00    -0.014 A 
ATOM     80  C   UNL     1     -10.533 -15.697   4.914  1.00  0.00     0.009 A 
ATOM     81  C   UNL     1     -11.965 -15.362   2.986  1.00  0.00     0.009 A 
ATOM     82  C   UNL     1     -11.398 -16.685   5.379  1.00  0.00     0.001 A 
ATOM     83  C   UNL     1     -12.845 -16.326   3.473  1.00  0.00     0.001 A 
ATOM     84  C   UNL     1     -12.554 -16.994   4.662  1.00  0.00     0.000 A 
ENDBRANCH  66  79
ENDBRANCH  40  41
ENDBRANCH  32  35
ENDBRANCH  30  31
ENDBRANCH  29  30
ENDBRANCH  28  29
ENDBRANCH   3  28
TORSDOF 16
