REMARK SMILES O=C(N[C@]1(C(=O)NCCCNC(=O)c2ccc(-c3c4nc(c(-c5ccccc5)c5ccc([nH]5)c(-c5ccccc5)c5nc(c(-c6ccccc6)c6ccc3[nH]6)C=C5)C=C4)cc2)CC[C@H](c2ccccc2)CC1)OCC1c2ccccc2-c2ccccc21
REMARK SMILES IDX 8 1 7 2 5 3 6 4 4 6 62 7 72 8 63 9 71 10 64 11 3 12 1 13
REMARK SMILES IDX 2 14 73 16 74 17 75 18 76 19 87 20 77 21 81 22 82 23 86 24
REMARK SMILES IDX 78 25 80 26 83 27 85 28 79 29 84 30 65 31 66 32 70 33 67 34
REMARK SMILES IDX 69 35 68 36 9 37 10 38 11 39 12 40 13 42 14 43 15 44 61 45
REMARK SMILES IDX 16 46 60 47 17 48 18 49 19 50 54 51 20 52 59 53 53 54 55 55
REMARK SMILES IDX 21 56 58 57 52 58 51 59 22 61 44 62 29 63 43 64 30 65 33 66
REMARK SMILES IDX 42 67 56 68 31 69 32 70 41 72 57 73 34 74 23 75 24 76 28 77
REMARK SMILES IDX 25 78 27 79 26 80 45 81 46 82 50 83 47 84 49 85 48 86 35 87
REMARK SMILES IDX 36 88 40 89 37 90 39 91 38 92
REMARK H PARENT 7 5 3 15 11 41 55 60 33 71
REMARK Flexibility Score: inf
ROOT
ATOM      1  C   UNL     1       7.075   0.003   3.637  1.00  0.00     0.117 C 
ENDROOT
BRANCH   1   2
ATOM      2  N   UNL     1       5.643   0.231   3.886  1.00  0.00    -0.354 N 
ATOM      3  C   UNL     1       4.502   0.199   3.124  1.00  0.00     0.245 C 
ATOM      4  O   UNL     1       3.442   0.280   3.763  1.00  0.00    -0.272 OA
ATOM      5  H   UNL     1       5.458   0.462   4.825  1.00  0.00     0.163 HD
BRANCH   3   6
ATOM      6  C   UNL     1       4.453  -0.011   1.551  1.00  0.00     0.122 C 
ATOM      7  C   UNL     1       4.233  -1.524   1.252  1.00  0.00     0.039 C 
ATOM      8  C   UNL     1       5.672   0.591   0.896  1.00  0.00     0.039 C 
ATOM      9  C   UNL     1       5.419  -2.311   0.697  1.00  0.00     0.011 C 
ATOM     10  C   UNL     1       6.580  -0.294   0.070  1.00  0.00     0.011 C 
ATOM     11  C   UNL     1       6.097  -1.632  -0.495  1.00  0.00     0.019 C 
BRANCH   6  12
ATOM     12  N   UNL     1       3.201   0.693   1.108  1.00  0.00    -0.307 N 
ATOM     13  O   UNL     1       1.825   1.140  -0.642  1.00  0.00    -0.225 OA
ATOM     14  C   UNL     1       2.914   1.268  -0.107  1.00  0.00     0.408 C 
ATOM     15  H   UNL     1       2.486   0.750   1.783  1.00  0.00     0.168 HD
BRANCH  14  16
ATOM     16  O   UNL     1       3.889   2.101  -0.579  1.00  0.00    -0.449 OA
BRANCH  16  17
ATOM     17  C   UNL     1       4.484   1.742  -1.849  1.00  0.00     0.248 C 
BRANCH  17  18
ATOM     18  C   UNL     1       5.754   2.583  -2.307  1.00  0.00     0.088 C 
ATOM     19  C   UNL     1       7.293   2.428  -1.979  1.00  0.00    -0.029 A 
ATOM     20  C   UNL     1       5.551   4.069  -1.998  1.00  0.00    -0.029 A 
ATOM     21  C   UNL     1       8.240   1.399  -2.098  1.00  0.00     0.005 A 
ATOM     22  C   UNL     1       7.823   3.691  -1.651  1.00  0.00    -0.014 A 
ATOM     23  C   UNL     1       6.789   4.687  -1.753  1.00  0.00    -0.014 A 
ATOM     24  C   UNL     1       4.378   4.805  -1.951  1.00  0.00     0.005 A 
ATOM     25  C   UNL     1       9.567   1.552  -1.661  1.00  0.00     0.000 A 
ATOM     26  C   UNL     1       9.159   3.875  -1.273  1.00  0.00     0.009 A 
ATOM     27  C   UNL     1       6.892   6.061  -1.649  1.00  0.00     0.009 A 
ATOM     28  C   UNL     1       4.472   6.184  -1.761  1.00  0.00     0.000 A 
ATOM     29  C   UNL     1      10.023   2.787  -1.234  1.00  0.00     0.001 A 
ATOM     30  C   UNL     1       5.721   6.812  -1.664  1.00  0.00     0.001 A 
ENDBRANCH  17  18
ENDBRANCH  16  17
ENDBRANCH  14  16
ENDBRANCH   6  12
BRANCH  11  31
ATOM     31  C   UNL     1       5.449  -1.764  -1.895  1.00  0.00    -0.045 A 
ATOM     32  C   UNL     1       4.598  -2.826  -2.213  1.00  0.00     0.004 A 
ATOM     33  C   UNL     1       5.817  -0.974  -3.002  1.00  0.00     0.004 A 
ATOM     34  C   UNL     1       4.172  -3.074  -3.534  1.00  0.00     0.000 A 
ATOM     35  C   UNL     1       5.401  -1.196  -4.322  1.00  0.00     0.000 A 
ATOM     36  C   UNL     1       4.581  -2.268  -4.592  1.00  0.00     0.000 A 
ENDBRANCH  11  31
ENDBRANCH   3   6
ENDBRANCH   1   2
BRANCH   1  37
ATOM     37  C   UNL     1       7.843   1.244   3.147  1.00  0.00     0.042 C 
BRANCH  37  38
ATOM     38  C   UNL     1       9.052   1.690   3.943  1.00  0.00     0.118 C 
BRANCH  38  39
ATOM     39  N   UNL     1      10.148   0.741   3.935  1.00  0.00    -0.352 N 
ATOM     40  C   UNL     1      11.496   0.933   3.736  1.00  0.00     0.251 C 
ATOM     41  H   UNL     1       9.885  -0.193   4.098  1.00  0.00     0.163 HD
ATOM     42  O   UNL     1      12.225  -0.057   3.698  1.00  0.00    -0.269 OA
BRANCH  40  43
ATOM     43  C   UNL     1      12.094   2.283   3.540  1.00  0.00     0.039 A 
ATOM     44  C   UNL     1      13.260   2.384   2.767  1.00  0.00     0.014 A 
ATOM     45  C   UNL     1      11.580   3.439   4.130  1.00  0.00     0.014 A 
ATOM     46  C   UNL     1      13.872   3.626   2.560  1.00  0.00     0.010 A 
ATOM     47  C   UNL     1      12.127   4.689   3.840  1.00  0.00     0.010 A 
ATOM     48  C   UNL     1      13.295   4.796   3.073  1.00  0.00    -0.014 A 
BRANCH  48  49
ATOM     49  C   UNL     1      13.915   6.131   2.867  1.00  0.00     0.031 A 
ATOM     50  C   UNL     1      14.385   6.936   4.052  1.00  0.00     0.074 A 
ATOM     51  C   UNL     1      14.001   6.650   1.627  1.00  0.00     0.049 A 
ATOM     52  N   UNL     1      14.874   8.151   4.088  1.00  0.00    -0.248 NA
ATOM     53  C   UNL     1      14.261   6.303   5.375  1.00  0.00     0.031 C 
ATOM     54  C   UNL     1      13.552   5.993   0.398  1.00  0.00     0.029 A 
ATOM     55  N   UNL     1      14.492   7.858   1.196  1.00  0.00    -0.354 N 
ATOM     56  C   UNL     1      15.083   8.435   5.432  1.00  0.00     0.074 A 
ATOM     57  C   UNL     1      14.623   7.288   6.183  1.00  0.00     0.031 C 
ATOM     58  C   UNL     1      13.815   6.792  -0.649  1.00  0.00     0.029 A 
ATOM     59  C   UNL     1      14.409   8.033  -0.164  1.00  0.00     0.049 A 
ATOM     60  H   UNL     1      14.867   8.535   1.805  1.00  0.00     0.167 HD
ATOM     61  C   UNL     1      15.629   9.540   5.995  1.00  0.00     0.031 A 
ATOM     62  C   UNL     1      14.766   9.078  -0.934  1.00  0.00     0.031 A 
ATOM     63  C   UNL     1      16.110  10.671   5.248  1.00  0.00     0.049 A 
ATOM     64  C   UNL     1      15.371  10.294  -0.289  1.00  0.00     0.074 A 
ATOM     65  C   UNL     1      16.735  11.813   5.717  1.00  0.00     0.029 A 
ATOM     66  N   UNL     1      16.020  10.800   3.870  1.00  0.00    -0.354 N 
ATOM     67  N   UNL     1      15.617  10.521   0.979  1.00  0.00    -0.248 NA
ATOM     68  C   UNL     1      15.757  11.394  -1.184  1.00  0.00     0.031 C 
ATOM     69  C   UNL     1      16.980  12.655   4.628  1.00  0.00     0.029 A 
ATOM     70  C   UNL     1      16.559  12.012   3.474  1.00  0.00     0.049 A 
ATOM     71  H   UNL     1      15.631  10.130   3.264  1.00  0.00     0.167 HD
ATOM     72  C   UNL     1      16.209  11.776   1.031  1.00  0.00     0.074 A 
ATOM     73  C   UNL     1      16.301  12.254  -0.334  1.00  0.00     0.031 C 
ATOM     74  C   UNL     1      16.640  12.471   2.112  1.00  0.00     0.031 A 
BRANCH  61  75
ATOM     75  C   UNL     1      15.725   9.578   7.496  1.00  0.00    -0.014 A 
ATOM     76  C   UNL     1      16.609   8.738   8.193  1.00  0.00     0.009 A 
ATOM     77  C   UNL     1      14.937  10.483   8.224  1.00  0.00     0.009 A 
ATOM     78  C   UNL     1      16.668   8.772   9.588  1.00  0.00     0.001 A 
ATOM     79  C   UNL     1      15.021  10.537   9.617  1.00  0.00     0.001 A 
ATOM     80  C   UNL     1      15.877   9.674  10.299  1.00  0.00     0.000 A 
ENDBRANCH  61  75
BRANCH  62  81
ATOM     81  C   UNL     1      14.580   9.013  -2.407  1.00  0.00    -0.014 A 
ATOM     82  C   UNL     1      15.689   8.900  -3.260  1.00  0.00     0.009 A 
ATOM     83  C   UNL     1      13.295   9.059  -2.970  1.00  0.00     0.009 A 
ATOM     84  C   UNL     1      15.517   8.857  -4.645  1.00  0.00     0.001 A 
ATOM     85  C   UNL     1      13.124   8.986  -4.354  1.00  0.00     0.001 A 
ATOM     86  C   UNL     1      14.235   8.894  -5.191  1.00  0.00     0.000 A 
ENDBRANCH  62  81
BRANCH  74  87
ATOM     87  C   UNL     1      17.280  13.807   1.859  1.00  0.00    -0.014 A 
ATOM     88  C   UNL     1      16.517  14.919   1.471  1.00  0.00     0.009 A 
ATOM     89  C   UNL     1      18.661  13.963   2.054  1.00  0.00     0.009 A 
ATOM     90  C   UNL     1      17.132  16.154   1.252  1.00  0.00     0.001 A 
ATOM     91  C   UNL     1      19.268  15.204   1.862  1.00  0.00     0.001 A 
ATOM     92  C   UNL     1      18.505  16.296   1.452  1.00  0.00     0.000 A 
ENDBRANCH  74  87
ENDBRANCH  48  49
ENDBRANCH  40  43
ENDBRANCH  38  39
ENDBRANCH  37  38
ENDBRANCH   1  37
TORSDOF 15
