REMARK SMILES Cc1nsc(NC(=O)C2([NH3+])CCCCC2)c1C(=O)NCCCNC(=O)c1ccc(-c2c3nc(c(-c4ccccc4)c4ccc([nH]4)c(-c4ccccc4)c4nc(c(-c5ccccc5)c5ccc2[nH]5)C=C4)C=C3)cc1
REMARK SMILES IDX 20 1 19 2 17 3 18 4 16 6 1 7 2 8 3 9 4 10 5 11 6 12 7 13
REMARK SMILES IDX 8 15 9 16 11 17 15 18 12 19 14 20 13 21 10 22 21 26 22 27
REMARK SMILES IDX 23 28 24 29 25 31 26 32 27 33 73 34 28 35 72 36 29 37 30 38
REMARK SMILES IDX 31 39 66 40 32 41 71 42 65 43 67 44 33 45 70 46 64 47 63 48
REMARK SMILES IDX 34 50 56 51 41 52 55 53 42 54 45 55 54 56 68 57 43 58 44 59
REMARK SMILES IDX 53 61 69 62 46 63 35 64 36 65 40 66 37 67 39 68 38 69 57 70
REMARK SMILES IDX 58 71 62 72 59 73 61 74 60 75 47 76 48 77 52 78 49 79 51 80
REMARK SMILES IDX 50 81
REMARK H PARENT 19 5 6 14 10 23 10 24 10 25 23 30 67 49 45 60
REMARK Flexibility Score: inf
ROOT
ATOM      1  C   UNL     1       2.642   0.062  -1.146  1.00  0.00     0.118 C 
ENDROOT
BRANCH   1   2
ATOM      2  N   UNL     1       2.463   1.476  -1.372  1.00  0.00    -0.352 N 
ATOM      3  C   UNL     1       1.778   2.467  -0.730  1.00  0.00     0.256 C 
ATOM      4  O   UNL     1       1.937   3.583  -1.242  1.00  0.00    -0.269 OA
ATOM      5  H   UNL     1       2.942   1.798  -2.170  1.00  0.00     0.163 HD
BRANCH   3   6
ATOM      6  C   UNL     1       0.982   2.322   0.500  1.00  0.00     0.097 A 
ATOM      7  C   UNL     1       0.205  -0.235   0.830  1.00  0.00     0.069 C 
ATOM      8  C   UNL     1       0.386   1.189   1.210  1.00  0.00     0.066 A 
ATOM      9  N   UNL     1      -0.150   1.463   2.399  1.00  0.00    -0.195 NA
ATOM     10  S   UNL     1      -0.099   3.063   2.655  1.00  0.00    -0.017 S 
ATOM     11  C   UNL     1       0.553   3.491   1.160  1.00  0.00     0.129 A 
BRANCH  11  12
ATOM     12  N   UNL     1       0.684   4.803   0.724  1.00  0.00    -0.310 N 
ATOM     13  C   UNL     1       0.109   6.012   1.018  1.00  0.00     0.286 C 
ATOM     14  H   UNL     1       1.369   4.886   0.021  1.00  0.00     0.171 HD
ATOM     15  O   UNL     1       0.553   6.971   0.366  1.00  0.00    -0.267 OA
BRANCH  13  16
ATOM     16  C   UNL     1      -1.014   6.252   2.083  1.00  0.00     0.174 C 
ATOM     17  C   UNL     1      -0.405   6.229   3.502  1.00  0.00     0.079 C 
ATOM     18  C   UNL     1      -1.758   7.597   1.847  1.00  0.00     0.079 C 
ATOM     19  C   UNL     1       0.382   7.493   3.846  1.00  0.00     0.007 C 
ATOM     20  C   UNL     1      -1.012   8.855   2.289  1.00  0.00     0.007 C 
ATOM     21  C   UNL     1      -0.483   8.731   3.709  1.00  0.00     0.001 C 
BRANCH  16  22
ATOM     22  N   UNL     1      -2.097   5.255   1.878  1.00  0.00    -0.345 N 
ATOM     23  H   UNL     1      -1.724   4.315   2.009  1.00  0.00     0.345 HD
ATOM     24  H   UNL     1      -2.468   5.345   0.932  1.00  0.00     0.345 HD
ATOM     25  H   UNL     1      -2.844   5.421   2.553  1.00  0.00     0.345 HD
ENDBRANCH  16  22
ENDBRANCH  13  16
ENDBRANCH  11  12
ENDBRANCH   3   6
ENDBRANCH   1   2
BRANCH   1  26
ATOM     26  C   UNL     1       1.674  -0.760  -2.007  1.00  0.00     0.042 C 
BRANCH  26  27
ATOM     27  C   UNL     1       2.340  -1.307  -3.255  1.00  0.00     0.118 C 
BRANCH  27  28
ATOM     28  N   UNL     1       3.333  -2.331  -2.921  1.00  0.00    -0.352 N 
ATOM     29  C   UNL     1       4.337  -2.859  -3.713  1.00  0.00     0.251 C 
ATOM     30  H   UNL     1       3.278  -2.692  -2.007  1.00  0.00     0.163 HD
ATOM     31  O   UNL     1       4.894  -3.895  -3.425  1.00  0.00    -0.269 OA
BRANCH  29  32
ATOM     32  C   UNL     1       4.686  -2.119  -4.935  1.00  0.00     0.039 A 
ATOM     33  C   UNL     1       4.713  -2.762  -6.172  1.00  0.00     0.014 A 
ATOM     34  C   UNL     1       4.827  -0.740  -4.829  1.00  0.00     0.014 A 
ATOM     35  C   UNL     1       4.762  -1.979  -7.320  1.00  0.00     0.010 A 
ATOM     36  C   UNL     1       4.693   0.027  -5.958  1.00  0.00     0.010 A 
ATOM     37  C   UNL     1       4.700  -0.578  -7.211  1.00  0.00    -0.014 A 
BRANCH  37  38
ATOM     38  C   UNL     1       4.559   0.249  -8.404  1.00  0.00     0.031 A 
ATOM     39  C   UNL     1       3.552  -0.210  -9.399  1.00  0.00     0.074 A 
ATOM     40  C   UNL     1       5.184   1.430  -8.590  1.00  0.00     0.049 A 
ATOM     41  N   UNL     1       3.794  -0.804 -10.520  1.00  0.00    -0.248 NA
ATOM     42  C   UNL     1       2.123  -0.100  -9.078  1.00  0.00     0.031 C 
ATOM     43  C   UNL     1       5.989   2.222  -7.652  1.00  0.00     0.029 A 
ATOM     44  N   UNL     1       5.153   2.222  -9.695  1.00  0.00    -0.354 N 
ATOM     45  C   UNL     1       2.564  -0.985 -11.143  1.00  0.00     0.074 A 
ATOM     46  C   UNL     1       1.565  -0.668 -10.152  1.00  0.00     0.031 C 
ATOM     47  C   UNL     1       6.170   3.467  -8.144  1.00  0.00     0.029 A 
ATOM     48  C   UNL     1       5.686   3.486  -9.509  1.00  0.00     0.049 A 
ATOM     49  H   UNL     1       4.783   1.920 -10.556  1.00  0.00     0.167 HD
ATOM     50  C   UNL     1       2.476  -1.175 -12.490  1.00  0.00     0.031 A 
ATOM     51  C   UNL     1       5.750   4.479 -10.424  1.00  0.00     0.031 A 
ATOM     52  C   UNL     1       3.765  -1.448 -13.074  1.00  0.00     0.049 A 
ATOM     53  C   UNL     1       5.677   3.849 -11.760  1.00  0.00     0.074 A 
ATOM     54  C   UNL     1       4.724  -2.428 -12.916  1.00  0.00     0.029 A 
ATOM     55  N   UNL     1       4.403  -0.395 -13.689  1.00  0.00    -0.354 N 
ATOM     56  N   UNL     1       6.614   3.080 -12.236  1.00  0.00    -0.248 NA
ATOM     57  C   UNL     1       4.377   3.714 -12.394  1.00  0.00     0.031 C 
ATOM     58  C   UNL     1       5.970  -1.733 -12.984  1.00  0.00     0.029 A 
ATOM     59  C   UNL     1       5.701  -0.388 -13.248  1.00  0.00     0.049 A 
ATOM     60  H   UNL     1       4.001   0.236 -14.329  1.00  0.00     0.167 HD
ATOM     61  C   UNL     1       5.937   2.069 -12.903  1.00  0.00     0.074 A 
ATOM     62  C   UNL     1       4.575   2.575 -13.065  1.00  0.00     0.031 C 
ATOM     63  C   UNL     1       6.470   0.815 -13.014  1.00  0.00     0.031 A 
BRANCH  50  64
ATOM     64  C   UNL     1       1.314  -0.726 -13.339  1.00  0.00    -0.014 A 
ATOM     65  C   UNL     1       1.321  -1.039 -14.712  1.00  0.00     0.009 A 
ATOM     66  C   UNL     1       0.371   0.226 -12.912  1.00  0.00     0.009 A 
ATOM     67  C   UNL     1       0.484  -0.375 -15.617  1.00  0.00     0.001 A 
ATOM     68  C   UNL     1      -0.494   0.862 -13.807  1.00  0.00     0.001 A 
ATOM     69  C   UNL     1      -0.417   0.583 -15.165  1.00  0.00     0.000 A 
ENDBRANCH  50  64
BRANCH  51  70
ATOM     70  C   UNL     1       5.613   5.930 -10.210  1.00  0.00    -0.014 A 
ATOM     71  C   UNL     1       6.036   6.841 -11.189  1.00  0.00     0.009 A 
ATOM     72  C   UNL     1       4.800   6.410  -9.167  1.00  0.00     0.009 A 
ATOM     73  C   UNL     1       5.613   8.175 -11.155  1.00  0.00     0.001 A 
ATOM     74  C   UNL     1       4.378   7.743  -9.133  1.00  0.00     0.001 A 
ATOM     75  C   UNL     1       4.771   8.620 -10.138  1.00  0.00     0.000 A 
ENDBRANCH  51  70
BRANCH  63  76
ATOM     76  C   UNL     1       7.915   0.623 -12.615  1.00  0.00    -0.014 A 
ATOM     77  C   UNL     1       8.399   0.875 -11.319  1.00  0.00     0.009 A 
ATOM     78  C   UNL     1       8.786   0.033 -13.543  1.00  0.00     0.009 A 
ATOM     79  C   UNL     1       9.722   0.576 -10.975  1.00  0.00     0.001 A 
ATOM     80  C   UNL     1      10.101  -0.286 -13.194  1.00  0.00     0.001 A 
ATOM     81  C   UNL     1      10.571  -0.008 -11.912  1.00  0.00     0.000 A 
ENDBRANCH  63  76
ENDBRANCH  37  38
ENDBRANCH  29  32
ENDBRANCH  27  28
ENDBRANCH  26  27
ENDBRANCH   1  26
TORSDOF 13
