REMARK SMILES CC(C)CSc1cc2c(cc1Cl)C=C(C(=O)NCCCNC(=O)c1ccc(-c3c4nc(c(-c5ccccc5)c5ccc([nH]5)c(-c5ccccc5)c5nc(c(-c6ccccc6)c6ccc3[nH]6)C=C5)C=C4)cc1)[C@H](C(F)(F)F)O2
REMARK SMILES IDX 18 1 17 2 15 3 16 4 14 6 6 7 7 8 11 9 8 10 10 11 12 12 9 13
REMARK SMILES IDX 77 14 13 15 72 16 5 17 4 18 2 19 1 20 3 21 73 22 74 23 75 24
REMARK SMILES IDX 76 25 19 26 20 27 21 28 22 29 23 31 24 32 25 33 71 34 26 35
REMARK SMILES IDX 70 36 27 37 28 38 29 39 64 40 30 41 69 42 63 43 65 44 31 45
REMARK SMILES IDX 68 46 62 47 61 48 32 50 54 51 39 52 53 53 40 54 43 55 52 56
REMARK SMILES IDX 66 57 41 58 42 59 51 61 67 62 44 63 33 64 34 65 38 66 35 67
REMARK SMILES IDX 37 68 36 69 55 70 56 71 60 72 57 73 59 74 58 75 45 76 46 77
REMARK SMILES IDX 50 78 47 79 49 80 48 81
REMARK H PARENT 17 5 21 30 65 49 43 60
REMARK Flexibility Score: inf
ROOT
ATOM      1  C   UNL     1       3.237  -4.736   6.436  1.00  0.00     0.118 C 
ENDROOT
BRANCH   1   2
ATOM      2  N   UNL     1       2.213  -5.543   5.789  1.00  0.00    -0.352 N 
ATOM      3  C   UNL     1       1.199  -5.349   4.914  1.00  0.00     0.251 C 
ATOM      4  O   UNL     1       0.625  -6.375   4.538  1.00  0.00    -0.270 OA
ATOM      5  H   UNL     1       2.275  -6.487   6.062  1.00  0.00     0.163 HD
BRANCH   3   6
ATOM      6  C   UNL     1       0.744  -4.024   4.403  1.00  0.00     0.067 C 
ATOM      7  C   UNL     1      -1.464  -0.354   1.730  1.00  0.00     0.030 A 
ATOM      8  C   UNL     1      -0.553  -0.391   2.792  1.00  0.00     0.063 A 
ATOM      9  C   UNL     1      -1.986  -1.566   1.249  1.00  0.00     0.055 A 
ATOM     10  C   UNL     1      -0.111  -1.607   3.304  1.00  0.00     0.129 A 
ATOM     11  C   UNL     1      -1.542  -2.789   1.774  1.00  0.00     0.033 A 
ATOM     12  Cl  UNL     1      -3.192  -1.632   0.011  1.00  0.00    -0.083 Cl
ATOM     13  C   UNL     1      -0.585  -2.812   2.793  1.00  0.00     0.019 A 
ATOM     14  O   UNL     1       0.851  -1.536   4.268  1.00  0.00    -0.475 OA
ATOM     15  C   UNL     1      -0.042  -4.062   3.310  1.00  0.00     0.025 C 
ATOM     16  C   UNL     1       1.019  -2.717   5.095  1.00  0.00     0.314 C 
BRANCH   7  17
ATOM     17  S   UNL     1      -1.842   1.273   1.096  1.00  0.00    -0.124 SA
BRANCH  17  18
ATOM     18  C   UNL     1      -1.073   1.210  -0.566  1.00  0.00     0.078 C 
BRANCH  18  19
ATOM     19  C   UNL     1       0.463   1.344  -0.618  1.00  0.00    -0.007 C 
ATOM     20  C   UNL     1       1.211   0.087  -0.168  1.00  0.00     0.008 C 
ATOM     21  C   UNL     1       0.881   1.664  -2.059  1.00  0.00     0.008 C 
ENDBRANCH  18  19
ENDBRANCH  17  18
ENDBRANCH   7  17
BRANCH  16  22
ATOM     22  C   UNL     1       0.243  -2.542   6.409  1.00  0.00     0.429 C 
ATOM     23  F   UNL     1      -0.070  -3.722   6.991  1.00  0.00    -0.167 F 
ATOM     24  F   UNL     1       0.997  -1.854   7.305  1.00  0.00    -0.167 F 
ATOM     25  F   UNL     1      -0.913  -1.863   6.248  1.00  0.00    -0.167 F 
ENDBRANCH  16  22
ENDBRANCH   3   6
ENDBRANCH   1   2
BRANCH   1  26
ATOM     26  C   UNL     1       2.921  -4.487   7.907  1.00  0.00     0.042 C 
BRANCH  26  27
ATOM     27  C   UNL     1       3.145  -5.721   8.772  1.00  0.00     0.118 C 
BRANCH  27  28
ATOM     28  N   UNL     1       4.563  -5.994   8.980  1.00  0.00    -0.352 N 
ATOM     29  C   UNL     1       5.337  -5.864  10.110  1.00  0.00     0.251 C 
ATOM     30  H   UNL     1       5.042  -6.324   8.185  1.00  0.00     0.163 HD
ATOM     31  O   UNL     1       6.558  -5.911  10.020  1.00  0.00    -0.269 OA
BRANCH  29  32
ATOM     32  C   UNL     1       4.700  -5.642  11.427  1.00  0.00     0.039 A 
ATOM     33  C   UNL     1       3.531  -6.319  11.771  1.00  0.00     0.014 A 
ATOM     34  C   UNL     1       5.281  -4.751  12.334  1.00  0.00     0.014 A 
ATOM     35  C   UNL     1       2.835  -5.952  12.914  1.00  0.00     0.010 A 
ATOM     36  C   UNL     1       4.639  -4.474  13.546  1.00  0.00     0.010 A 
ATOM     37  C   UNL     1       3.381  -5.031  13.823  1.00  0.00    -0.014 A 
BRANCH  37  38
ATOM     38  C   UNL     1       2.619  -4.689  15.054  1.00  0.00     0.031 A 
ATOM     39  C   UNL     1       2.158  -3.280  15.316  1.00  0.00     0.074 A 
ATOM     40  C   UNL     1       2.281  -5.676  15.908  1.00  0.00     0.049 A 
ATOM     41  N   UNL     1       1.441  -2.824  16.314  1.00  0.00    -0.248 NA
ATOM     42  C   UNL     1       2.548  -2.247  14.343  1.00  0.00     0.031 C 
ATOM     43  C   UNL     1       2.654  -7.085  15.754  1.00  0.00     0.029 A 
ATOM     44  N   UNL     1       1.520  -5.660  17.050  1.00  0.00    -0.354 N 
ATOM     45  C   UNL     1       1.313  -1.457  16.098  1.00  0.00     0.074 A 
ATOM     46  C   UNL     1       2.054  -1.147  14.896  1.00  0.00     0.031 C 
ATOM     47  C   UNL     1       2.060  -7.805  16.714  1.00  0.00     0.029 A 
ATOM     48  C   UNL     1       1.337  -6.905  17.605  1.00  0.00     0.049 A 
ATOM     49  H   UNL     1       1.142  -4.837  17.435  1.00  0.00     0.167 HD
ATOM     50  C   UNL     1       0.627  -0.547  16.829  1.00  0.00     0.031 A 
ATOM     51  C   UNL     1       0.675  -7.289  18.713  1.00  0.00     0.031 A 
ATOM     52  C   UNL     1      -0.123  -0.865  18.017  1.00  0.00     0.049 A 
ATOM     53  C   UNL     1      -0.033  -6.250  19.535  1.00  0.00     0.074 A 
ATOM     54  C   UNL     1      -0.873  -0.012  18.809  1.00  0.00     0.029 A 
ATOM     55  N   UNL     1      -0.221  -2.127  18.584  1.00  0.00    -0.354 N 
ATOM     56  N   UNL     1      -0.160  -4.966  19.304  1.00  0.00    -0.248 NA
ATOM     57  C   UNL     1      -0.689  -6.710  20.766  1.00  0.00     0.031 C 
ATOM     58  C   UNL     1      -1.358  -0.740  19.896  1.00  0.00     0.029 A 
ATOM     59  C   UNL     1      -0.989  -2.066  19.735  1.00  0.00     0.049 A 
ATOM     60  H   UNL     1       0.192  -2.944  18.221  1.00  0.00     0.167 HD
ATOM     61  C   UNL     1      -0.924  -4.466  20.349  1.00  0.00     0.074 A 
ATOM     62  C   UNL     1      -1.253  -5.590  21.201  1.00  0.00     0.031 C 
ATOM     63  C   UNL     1      -1.311  -3.188  20.581  1.00  0.00     0.031 A 
BRANCH  50  64
ATOM     64  C   UNL     1       0.649   0.893  16.387  1.00  0.00    -0.014 A 
ATOM     65  C   UNL     1       1.256   1.862  17.204  1.00  0.00     0.009 A 
ATOM     66  C   UNL     1      -0.027   1.313  15.231  1.00  0.00     0.009 A 
ATOM     67  C   UNL     1       1.165   3.219  16.889  1.00  0.00     0.001 A 
ATOM     68  C   UNL     1      -0.088   2.669  14.900  1.00  0.00     0.001 A 
ATOM     69  C   UNL     1       0.496   3.621  15.735  1.00  0.00     0.000 A 
ENDBRANCH  50  64
BRANCH  51  70
ATOM     70  C   UNL     1       0.657  -8.729  19.089  1.00  0.00    -0.014 A 
ATOM     71  C   UNL     1       1.847  -9.391  19.440  1.00  0.00     0.009 A 
ATOM     72  C   UNL     1      -0.533  -9.468  19.033  1.00  0.00     0.009 A 
ATOM     73  C   UNL     1       1.853 -10.765  19.685  1.00  0.00     0.001 A 
ATOM     74  C   UNL     1      -0.531 -10.836  19.318  1.00  0.00     0.001 A 
ATOM     75  C   UNL     1       0.663 -11.486  19.629  1.00  0.00     0.000 A 
ENDBRANCH  51  70
BRANCH  63  76
ATOM     76  C   UNL     1      -2.150  -2.914  21.800  1.00  0.00    -0.014 A 
ATOM     77  C   UNL     1      -3.472  -2.462  21.649  1.00  0.00     0.009 A 
ATOM     78  C   UNL     1      -1.604  -2.993  23.090  1.00  0.00     0.009 A 
ATOM     79  C   UNL     1      -4.221  -2.071  22.760  1.00  0.00     0.001 A 
ATOM     80  C   UNL     1      -2.369  -2.637  24.203  1.00  0.00     0.001 A 
ATOM     81  C   UNL     1      -3.670  -2.164  24.036  1.00  0.00     0.000 A 
ENDBRANCH  63  76
ENDBRANCH  37  38
ENDBRANCH  29  32
ENDBRANCH  27  28
ENDBRANCH  26  27
ENDBRANCH   1  26
TORSDOF 14
