REMARK SMILES C[C@H](CNC(=O)Cn1cccc1C(=O)NCCCNC(=O)c1ccc(-c2c3nc(c(-c4ccccc4)c4ccc([nH]4)c(-c4ccccc4)c4nc(c(-c5ccccc5)c5ccc2[nH]5)C=C4)C=C3)cc1)[NH+](C)C
REMARK SMILES IDX 13 1 14 2 15 3 12 5 8 6 9 7 10 8 11 9 7 10 5 11 4 12 6 14
REMARK SMILES IDX 3 15 2 16 1 17 70 18 71 19 72 20 16 22 17 23 18 24 19 25
REMARK SMILES IDX 20 26 21 28 22 29 23 30 69 31 24 32 68 33 25 34 26 35 27 36
REMARK SMILES IDX 62 37 28 38 67 39 61 40 63 41 29 42 66 43 60 44 59 45 30 47
REMARK SMILES IDX 52 48 37 49 51 50 38 51 41 52 50 53 64 54 39 55 40 56 49 58
REMARK SMILES IDX 65 59 42 60 31 61 32 62 36 63 33 64 35 65 34 66 53 67 54 68
REMARK SMILES IDX 58 69 55 70 57 71 56 72 43 73 44 74 48 75 45 76 47 77 46 78
REMARK H PARENT 15 4 4 13 70 21 19 27 63 46 41 57
REMARK Flexibility Score: inf
ROOT
ATOM      1  C   UNL     1       4.210   1.126   0.414  1.00  0.00     0.267 C 
ATOM      2  O   UNL     1       4.634   2.286   0.323  1.00  0.00    -0.268 OA
ATOM      3  N   UNL     1       3.773   0.853   1.678  1.00  0.00    -0.351 N 
ATOM      4  H   UNL     1       3.934   1.618   2.277  1.00  0.00     0.163 HD
ENDROOT
BRANCH   1   5
ATOM      5  C   UNL     1       4.189   0.263  -0.771  1.00  0.00     0.107 A 
ATOM      6  N   UNL     1       3.894  -1.070  -1.044  1.00  0.00    -0.334 N 
ATOM      7  C   UNL     1       4.175  -1.353  -2.370  1.00  0.00     0.087 A 
ATOM      8  C   UNL     1       4.524  -0.197  -3.008  1.00  0.00     0.020 A 
ATOM      9  C   UNL     1       4.516   0.804  -2.025  1.00  0.00     0.033 A 
BRANCH   6  10
ATOM     10  C   UNL     1       3.545  -2.165  -0.160  1.00  0.00     0.222 C 
BRANCH  10  11
ATOM     11  C   UNL     1       2.089  -2.607  -0.082  1.00  0.00     0.240 C 
ATOM     12  N   UNL     1       1.001  -1.792  -0.105  1.00  0.00    -0.349 N 
ATOM     13  H   UNL     1       0.147  -2.275  -0.027  1.00  0.00     0.163 HD
ATOM     14  O   UNL     1       1.848  -3.806   0.119  1.00  0.00    -0.273 OA
BRANCH  12  15
ATOM     15  C   UNL     1       0.845  -0.347  -0.221  1.00  0.00     0.180 C 
BRANCH  15  16
ATOM     16  C   UNL     1       0.219   0.174  -1.541  1.00  0.00     0.199 C 
ATOM     17  C   UNL     1       0.760  -0.538  -2.791  1.00  0.00     0.077 C 
BRANCH  16  18
ATOM     18  N   UNL     1      -1.256   0.300  -1.474  1.00  0.00    -0.336 N 
ATOM     19  C   UNL     1      -1.796   1.002  -2.639  1.00  0.00     0.332 C 
ATOM     20  C   UNL     1      -1.960  -0.956  -1.243  1.00  0.00     0.332 C 
ATOM     21  H   UNL     1      -1.430   0.866  -0.643  1.00  0.00     0.347 HD
ENDBRANCH  16  18
ENDBRANCH  15  16
ENDBRANCH  12  15
ENDBRANCH  10  11
ENDBRANCH   6  10
ENDBRANCH   1   5
BRANCH   3  22
ATOM     22  C   UNL     1       3.144  -0.234   2.391  1.00  0.00     0.118 C 
BRANCH  22  23
ATOM     23  C   UNL     1       4.161  -1.131   3.096  1.00  0.00     0.042 C 
BRANCH  23  24
ATOM     24  C   UNL     1       4.144  -0.915   4.596  1.00  0.00     0.118 C 
BRANCH  24  25
ATOM     25  N   UNL     1       2.895  -1.408   5.163  1.00  0.00    -0.352 N 
ATOM     26  C   UNL     1       2.414  -1.256   6.439  1.00  0.00     0.251 C 
ATOM     27  H   UNL     1       2.319  -1.917   4.548  1.00  0.00     0.163 HD
ATOM     28  O   UNL     1       1.523  -1.973   6.859  1.00  0.00    -0.269 OA
BRANCH  26  29
ATOM     29  C   UNL     1       3.016  -0.233   7.306  1.00  0.00     0.039 A 
ATOM     30  C   UNL     1       3.389  -0.598   8.601  1.00  0.00     0.014 A 
ATOM     31  C   UNL     1       3.204   1.071   6.833  1.00  0.00     0.014 A 
ATOM     32  C   UNL     1       4.025   0.337   9.403  1.00  0.00     0.010 A 
ATOM     33  C   UNL     1       3.887   1.989   7.609  1.00  0.00     0.010 A 
ATOM     34  C   UNL     1       4.298   1.615   8.890  1.00  0.00    -0.014 A 
BRANCH  34  35
ATOM     35  C   UNL     1       5.130   2.527   9.693  1.00  0.00     0.031 A 
ATOM     36  C   UNL     1       6.603   2.085   9.687  1.00  0.00     0.074 A 
ATOM     37  C   UNL     1       4.458   3.526  10.341  1.00  0.00     0.049 A 
ATOM     38  N   UNL     1       7.492   2.167  10.625  1.00  0.00    -0.248 NA
ATOM     39  C   UNL     1       7.152   1.372   8.498  1.00  0.00     0.031 C 
ATOM     40  C   UNL     1       3.017   3.832  10.158  1.00  0.00     0.029 A 
ATOM     41  N   UNL     1       4.812   4.474  11.275  1.00  0.00    -0.354 N 
ATOM     42  C   UNL     1       8.712   1.653  10.127  1.00  0.00     0.074 A 
ATOM     43  C   UNL     1       8.418   1.101   8.839  1.00  0.00     0.031 C 
ATOM     44  C   UNL     1       2.615   4.807  10.999  1.00  0.00     0.029 A 
ATOM     45  C   UNL     1       3.733   5.220  11.820  1.00  0.00     0.049 A 
ATOM     46  H   UNL     1       5.746   4.624  11.547  1.00  0.00     0.167 HD
ATOM     47  C   UNL     1       9.904   1.822  10.775  1.00  0.00     0.031 A 
ATOM     48  C   UNL     1       3.723   6.052  12.905  1.00  0.00     0.031 A 
ATOM     49  C   UNL     1       9.691   2.510  12.002  1.00  0.00     0.049 A 
ATOM     50  C   UNL     1       5.113   6.107  13.375  1.00  0.00     0.074 A 
ATOM     51  C   UNL     1       9.125   2.127  13.190  1.00  0.00     0.029 A 
ATOM     52  N   UNL     1       9.724   3.881  11.936  1.00  0.00    -0.354 N 
ATOM     53  N   UNL     1       6.077   6.742  12.784  1.00  0.00    -0.248 NA
ATOM     54  C   UNL     1       5.489   5.303  14.545  1.00  0.00     0.031 C 
ATOM     55  C   UNL     1       8.356   3.256  13.545  1.00  0.00     0.029 A 
ATOM     56  C   UNL     1       8.694   4.334  12.719  1.00  0.00     0.049 A 
ATOM     57  H   UNL     1      10.362   4.431  11.426  1.00  0.00     0.167 HD
ATOM     58  C   UNL     1       7.186   6.094  13.268  1.00  0.00     0.074 A 
ATOM     59  C   UNL     1       6.803   5.503  14.532  1.00  0.00     0.031 C 
ATOM     60  C   UNL     1       8.117   5.617  12.402  1.00  0.00     0.031 A 
BRANCH  47  61
ATOM     61  C   UNL     1      11.335   1.655  10.343  1.00  0.00    -0.014 A 
ATOM     62  C   UNL     1      12.327   1.687  11.359  1.00  0.00     0.009 A 
ATOM     63  C   UNL     1      11.768   1.816   9.025  1.00  0.00     0.009 A 
ATOM     64  C   UNL     1      13.660   2.000  11.085  1.00  0.00     0.001 A 
ATOM     65  C   UNL     1      13.117   2.094   8.746  1.00  0.00     0.001 A 
ATOM     66  C   UNL     1      14.050   2.225   9.775  1.00  0.00     0.000 A 
ENDBRANCH  47  61
BRANCH  48  67
ATOM     67  C   UNL     1       2.704   6.752  13.769  1.00  0.00    -0.014 A 
ATOM     68  C   UNL     1       1.351   6.932  13.473  1.00  0.00     0.009 A 
ATOM     69  C   UNL     1       3.119   7.242  15.039  1.00  0.00     0.009 A 
ATOM     70  C   UNL     1       0.462   7.472  14.429  1.00  0.00     0.001 A 
ATOM     71  C   UNL     1       2.239   7.735  16.006  1.00  0.00     0.001 A 
ATOM     72  C   UNL     1       0.897   7.837  15.704  1.00  0.00     0.000 A 
ENDBRANCH  48  67
BRANCH  60  73
ATOM     73  C   UNL     1       8.128   6.277  11.029  1.00  0.00    -0.014 A 
ATOM     74  C   UNL     1       8.329   7.663  10.926  1.00  0.00     0.009 A 
ATOM     75  C   UNL     1       7.824   5.589   9.840  1.00  0.00     0.009 A 
ATOM     76  C   UNL     1       8.207   8.334   9.701  1.00  0.00     0.001 A 
ATOM     77  C   UNL     1       7.702   6.255   8.610  1.00  0.00     0.001 A 
ATOM     78  C   UNL     1       7.890   7.631   8.543  1.00  0.00     0.000 A 
ENDBRANCH  60  73
ENDBRANCH  34  35
ENDBRANCH  26  29
ENDBRANCH  24  25
ENDBRANCH  23  24
ENDBRANCH  22  23
ENDBRANCH   3  22
TORSDOF 15
