REMARK SMILES CCC[N@H+](CC(=O)NCCCNC(=O)c1ccc(-c2c3nc(c(-c4ccccc4)c4ccc([nH]4)c(-c4ccccc4)c4nc(c(-c5ccccc5)c5ccc2[nH]5)C=C4)C=C3)cc1)[C@H]1CCOC2(CCCCC2)C1
REMARK SMILES IDX 9 1 8 2 6 3 7 4 5 6 4 7 3 9 2 10 1 11 63 12 64 13 73 14
REMARK SMILES IDX 65 15 67 16 66 17 68 18 72 19 69 20 71 21 70 22 10 23 11 24
REMARK SMILES IDX 12 25 13 26 14 28 15 29 16 30 62 31 17 32 61 33 18 34 19 35
REMARK SMILES IDX 20 36 55 37 21 38 60 39 54 40 56 41 22 42 59 43 53 44 52 45
REMARK SMILES IDX 23 47 45 48 30 49 44 50 31 51 34 52 43 53 57 54 32 55 33 56
REMARK SMILES IDX 42 58 58 59 35 60 24 61 25 62 29 63 26 64 28 65 27 66 46 67
REMARK SMILES IDX 47 68 51 69 48 70 50 71 49 72 36 73 37 74 41 75 38 76 40 77
REMARK SMILES IDX 39 78
REMARK H PARENT 8 5 4 8 12 27 56 46 34 57
REMARK Flexibility Score: inf
ROOT
ATOM      1  C   UNL     1      -1.456   5.898   2.117  1.00  0.00     0.118 C 
ENDROOT
BRANCH   1   2
ATOM      2  N   UNL     1      -2.285   4.880   1.487  1.00  0.00    -0.351 N 
ATOM      3  C   UNL     1      -2.128   3.524   1.371  1.00  0.00     0.275 C 
ATOM      4  O   UNL     1      -3.006   2.904   0.765  1.00  0.00    -0.269 OA
ATOM      5  H   UNL     1      -3.106   5.228   1.069  1.00  0.00     0.163 HD
BRANCH   3   6
ATOM      6  C   UNL     1      -0.911   2.812   1.982  1.00  0.00     0.363 C 
BRANCH   6   7
ATOM      7  N   UNL     1       0.158   2.484   0.981  1.00  0.00    -0.325 N 
ATOM      8  H   UNL     1      -0.191   1.909   0.214  1.00  0.00     0.348 HD
BRANCH   7   9
ATOM      9  C   UNL     1       0.624   3.728   0.341  1.00  0.00     0.262 C 
BRANCH   9  10
ATOM     10  C   UNL     1       1.709   3.726  -0.742  1.00  0.00     0.058 C 
ATOM     11  C   UNL     1       1.243   3.124  -2.057  1.00  0.00     0.010 C 
ENDBRANCH   9  10
ENDBRANCH   7   9
BRANCH   7  12
ATOM     12  C   UNL     1       1.210   1.661   1.645  1.00  0.00     0.189 C 
ATOM     13  C   UNL     1       1.880   0.700   0.654  1.00  0.00     0.093 C 
ATOM     14  C   UNL     1       2.240   2.458   2.464  1.00  0.00     0.100 C 
ATOM     15  C   UNL     1       3.012  -0.074   1.307  1.00  0.00     0.167 C 
ATOM     16  C   UNL     1       3.397   1.600   3.006  1.00  0.00     0.074 C 
ATOM     17  O   UNL     1       3.940   0.798   1.946  1.00  0.00    -0.375 OA
ATOM     18  C   UNL     1       2.980   0.734   4.214  1.00  0.00     0.036 C 
ATOM     19  C   UNL     1       4.526   2.558   3.458  1.00  0.00     0.036 C 
ATOM     20  C   UNL     1       4.170  -0.034   4.797  1.00  0.00     0.003 C 
ATOM     21  C   UNL     1       5.720   1.820   4.061  1.00  0.00     0.003 C 
ATOM     22  C   UNL     1       5.298   0.909   5.207  1.00  0.00     0.000 C 
ENDBRANCH   7  12
ENDBRANCH   6   7
ENDBRANCH   3   6
ENDBRANCH   1   2
BRANCH   1  23
ATOM     23  C   UNL     1      -0.730   6.796   1.111  1.00  0.00     0.042 C 
BRANCH  23  24
ATOM     24  C   UNL     1      -1.652   7.621   0.220  1.00  0.00     0.118 C 
BRANCH  24  25
ATOM     25  N   UNL     1      -1.885   8.943   0.773  1.00  0.00    -0.352 N 
ATOM     26  C   UNL     1      -1.354  10.158   0.409  1.00  0.00     0.251 C 
ATOM     27  H   UNL     1      -2.521   8.975   1.524  1.00  0.00     0.163 HD
ATOM     28  O   UNL     1      -1.469  11.113   1.172  1.00  0.00    -0.269 OA
BRANCH  26  29
ATOM     29  C   UNL     1      -0.640  10.337  -0.879  1.00  0.00     0.039 A 
ATOM     30  C   UNL     1       0.484  11.172  -0.913  1.00  0.00     0.014 A 
ATOM     31  C   UNL     1      -1.108   9.770  -2.068  1.00  0.00     0.014 A 
ATOM     32  C   UNL     1       1.155  11.404  -2.119  1.00  0.00     0.010 A 
ATOM     33  C   UNL     1      -0.399   9.946  -3.258  1.00  0.00     0.010 A 
ATOM     34  C   UNL     1       0.730  10.778  -3.301  1.00  0.00    -0.014 A 
BRANCH  34  35
ATOM     35  C   UNL     1       1.429  11.007  -4.594  1.00  0.00     0.031 A 
ATOM     36  C   UNL     1       0.718  11.699  -5.727  1.00  0.00     0.074 A 
ATOM     37  C   UNL     1       2.682  10.547  -4.777  1.00  0.00     0.049 A 
ATOM     38  N   UNL     1       1.127  11.912  -6.954  1.00  0.00    -0.248 NA
ATOM     39  C   UNL     1      -0.638  12.200  -5.452  1.00  0.00     0.031 C 
ATOM     40  C   UNL     1       3.482   9.841  -3.776  1.00  0.00     0.029 A 
ATOM     41  N   UNL     1       3.498  10.598  -5.880  1.00  0.00    -0.354 N 
ATOM     42  C   UNL     1       0.072  12.543  -7.601  1.00  0.00     0.074 A 
ATOM     43  C   UNL     1      -1.007  12.650  -6.643  1.00  0.00     0.031 C 
ATOM     44  C   UNL     1       4.680   9.540  -4.304  1.00  0.00     0.029 A 
ATOM     45  C   UNL     1       4.718   9.996  -5.691  1.00  0.00     0.049 A 
ATOM     46  H   UNL     1       3.234  11.026  -6.727  1.00  0.00     0.167 HD
ATOM     47  C   UNL     1       0.008  13.006  -8.872  1.00  0.00     0.031 A 
ATOM     48  C   UNL     1       5.749   9.819  -6.538  1.00  0.00     0.031 A 
ATOM     49  C   UNL     1       1.083  12.928  -9.824  1.00  0.00     0.049 A 
ATOM     50  C   UNL     1       5.650  10.331  -7.948  1.00  0.00     0.074 A 
ATOM     51  C   UNL     1       1.129  13.426 -11.115  1.00  0.00     0.029 A 
ATOM     52  N   UNL     1       2.302  12.314  -9.587  1.00  0.00    -0.354 N 
ATOM     53  N   UNL     1       4.663  10.969  -8.526  1.00  0.00    -0.248 NA
ATOM     54  C   UNL     1       6.813  10.101  -8.819  1.00  0.00     0.031 C 
ATOM     55  C   UNL     1       2.364  13.078 -11.674  1.00  0.00     0.029 A 
ATOM     56  C   UNL     1       3.100  12.402 -10.716  1.00  0.00     0.049 A 
ATOM     57  H   UNL     1       2.562  11.880  -8.743  1.00  0.00     0.167 HD
ATOM     58  C   UNL     1       5.091  11.235  -9.820  1.00  0.00     0.074 A 
ATOM     59  C   UNL     1       6.433  10.701  -9.938  1.00  0.00     0.031 C 
ATOM     60  C   UNL     1       4.431  11.866 -10.821  1.00  0.00     0.031 A 
BRANCH  47  61
ATOM     61  C   UNL     1      -1.283  13.637  -9.313  1.00  0.00    -0.014 A 
ATOM     62  C   UNL     1      -1.665  14.907  -8.854  1.00  0.00     0.009 A 
ATOM     63  C   UNL     1      -2.110  12.966 -10.227  1.00  0.00     0.009 A 
ATOM     64  C   UNL     1      -2.868  15.478  -9.275  1.00  0.00     0.001 A 
ATOM     65  C   UNL     1      -3.300  13.551 -10.666  1.00  0.00     0.001 A 
ATOM     66  C   UNL     1      -3.682  14.801 -10.182  1.00  0.00     0.000 A 
ENDBRANCH  47  61
BRANCH  48  67
ATOM     67  C   UNL     1       6.977   9.124  -6.076  1.00  0.00    -0.014 A 
ATOM     68  C   UNL     1       8.156   9.848  -5.841  1.00  0.00     0.009 A 
ATOM     69  C   UNL     1       6.978   7.736  -5.869  1.00  0.00     0.009 A 
ATOM     70  C   UNL     1       9.317   9.193  -5.428  1.00  0.00     0.001 A 
ATOM     71  C   UNL     1       8.135   7.087  -5.433  1.00  0.00     0.001 A 
ATOM     72  C   UNL     1       9.305   7.814  -5.220  1.00  0.00     0.000 A 
ENDBRANCH  48  67
BRANCH  60  73
ATOM     73  C   UNL     1       5.158  12.039 -12.122  1.00  0.00    -0.014 A 
ATOM     74  C   UNL     1       5.327  10.963 -13.007  1.00  0.00     0.009 A 
ATOM     75  C   UNL     1       5.641  13.305 -12.487  1.00  0.00     0.009 A 
ATOM     76  C   UNL     1       5.988  11.147 -14.222  1.00  0.00     0.001 A 
ATOM     77  C   UNL     1       6.282  13.491 -13.713  1.00  0.00     0.001 A 
ATOM     78  C   UNL     1       6.461  12.411 -14.576  1.00  0.00     0.000 A 
ENDBRANCH  60  73
ENDBRANCH  34  35
ENDBRANCH  26  29
ENDBRANCH  24  25
ENDBRANCH  23  24
ENDBRANCH   1  23
TORSDOF 14
