REMARK SMILES C[C@H](C(=O)NCCCNC(=O)c1ccc(-c2c3nc(c(-c4ccccc4)c4ccc([nH]4)c(-c4ccccc4)c4nc(c(-c5ccccc5)c5ccc2[nH]5)C=C4)C=C3)cc1)[C@@H](C)[NH2+]C[C@@H]1CCCC[C@@H]1CO
REMARK SMILES IDX 3 1 4 2 5 3 2 5 1 6 60 7 61 8 62 9 63 12 64 13 65 14 69 15
REMARK SMILES IDX 66 16 68 17 67 18 70 19 71 20 6 22 7 23 8 24 9 25 10 26
REMARK SMILES IDX 11 28 12 29 13 30 59 31 14 32 58 33 15 34 16 35 17 36 52 37
REMARK SMILES IDX 18 38 57 39 51 40 53 41 19 42 56 43 50 44 49 45 20 47 42 48
REMARK SMILES IDX 27 49 41 50 28 51 31 52 40 53 54 54 29 55 30 56 39 58 55 59
REMARK SMILES IDX 32 60 21 61 22 62 26 63 23 64 25 65 24 66 43 67 44 68 48 69
REMARK SMILES IDX 45 70 47 71 46 72 33 73 34 74 38 75 35 76 37 77 36 78
REMARK H PARENT 5 4 62 10 62 11 71 21 9 27 53 46 31 57
REMARK Flexibility Score: inf
ROOT
ATOM      1  C   UNL     1       0.806  -0.934  -0.131  1.00  0.00     0.228 C 
ATOM      2  O   UNL     1       1.351  -2.025  -0.317  1.00  0.00    -0.275 OA
ATOM      3  N   UNL     1       0.647  -0.548   1.172  1.00  0.00    -0.356 N 
ATOM      4  H   UNL     1       1.068  -1.151   1.826  1.00  0.00     0.163 HD
ENDROOT
BRANCH   1   5
ATOM      5  C   UNL     1       0.363  -0.043  -1.304  1.00  0.00     0.133 C 
ATOM      6  C   UNL     1       1.335  -0.278  -2.484  1.00  0.00     0.024 C 
BRANCH   5   7
ATOM      7  C   UNL     1      -1.100  -0.222  -1.827  1.00  0.00     0.191 C 
ATOM      8  C   UNL     1      -2.085  -0.833  -0.834  1.00  0.00     0.076 C 
BRANCH   7   9
ATOM      9  N   UNL     1      -1.501   1.070  -2.471  1.00  0.00    -0.343 N 
ATOM     10  H   UNL     1      -1.188   1.032  -3.441  1.00  0.00     0.346 HD
ATOM     11  H   UNL     1      -1.068   1.785  -1.887  1.00  0.00     0.346 HD
BRANCH   9  12
ATOM     12  C   UNL     1      -2.923   1.433  -2.488  1.00  0.00     0.264 C 
BRANCH  12  13
ATOM     13  C   UNL     1      -3.380   2.535  -1.481  1.00  0.00     0.049 C 
ATOM     14  C   UNL     1      -3.845   3.834  -2.176  1.00  0.00     0.010 C 
ATOM     15  C   UNL     1      -2.427   2.863  -0.304  1.00  0.00     0.023 C 
ATOM     16  C   UNL     1      -4.420   4.867  -1.196  1.00  0.00     0.001 C 
ATOM     17  C   UNL     1      -3.186   3.746   0.705  1.00  0.00     0.006 C 
ATOM     18  C   UNL     1      -3.597   5.071   0.073  1.00  0.00     0.000 C 
BRANCH  15  19
ATOM     19  C   UNL     1      -1.054   3.505  -0.624  1.00  0.00     0.160 C 
BRANCH  19  20
ATOM     20  O   UNL     1      -0.836   3.780  -1.994  1.00  0.00    -0.396 OA
ATOM     21  H   UNL     1      -0.845   2.950  -2.495  1.00  0.00     0.210 HD
ENDBRANCH  19  20
ENDBRANCH  15  19
ENDBRANCH  12  13
ENDBRANCH   9  12
ENDBRANCH   7   9
ENDBRANCH   5   7
ENDBRANCH   1   5
BRANCH   3  22
ATOM     22  C   UNL     1      -0.033   0.593   1.765  1.00  0.00     0.117 C 
BRANCH  22  23
ATOM     23  C   UNL     1      -1.375   0.199   2.378  1.00  0.00     0.042 C 
BRANCH  23  24
ATOM     24  C   UNL     1      -1.321  -0.191   3.847  1.00  0.00     0.118 C 
BRANCH  24  25
ATOM     25  N   UNL     1      -1.406   0.956   4.740  1.00  0.00    -0.352 N 
ATOM     26  C   UNL     1      -2.350   1.321   5.669  1.00  0.00     0.251 C 
ATOM     27  H   UNL     1      -0.651   1.583   4.664  1.00  0.00     0.163 HD
ATOM     28  O   UNL     1      -2.246   2.435   6.193  1.00  0.00    -0.269 OA
BRANCH  26  29
ATOM     29  C   UNL     1      -3.497   0.454   6.049  1.00  0.00     0.039 A 
ATOM     30  C   UNL     1      -4.683   1.069   6.476  1.00  0.00     0.014 A 
ATOM     31  C   UNL     1      -3.429  -0.941   6.060  1.00  0.00     0.014 A 
ATOM     32  C   UNL     1      -5.789   0.298   6.853  1.00  0.00     0.010 A 
ATOM     33  C   UNL     1      -4.567  -1.707   6.324  1.00  0.00     0.010 A 
ATOM     34  C   UNL     1      -5.756  -1.101   6.747  1.00  0.00    -0.014 A 
BRANCH  34  35
ATOM     35  C   UNL     1      -6.940  -1.930   7.107  1.00  0.00     0.031 A 
ATOM     36  C   UNL     1      -6.860  -2.948   8.217  1.00  0.00     0.074 A 
ATOM     37  C   UNL     1      -8.089  -1.793   6.414  1.00  0.00     0.049 A 
ATOM     38  N   UNL     1      -7.789  -3.756   8.667  1.00  0.00    -0.248 NA
ATOM     39  C   UNL     1      -5.561  -3.101   8.893  1.00  0.00     0.031 C 
ATOM     40  C   UNL     1      -8.293  -0.893   5.277  1.00  0.00     0.029 A 
ATOM     41  N   UNL     1      -9.307  -2.409   6.570  1.00  0.00    -0.354 N 
ATOM     42  C   UNL     1      -7.182  -4.519   9.658  1.00  0.00     0.074 A 
ATOM     43  C   UNL     1      -5.793  -4.122   9.704  1.00  0.00     0.031 C 
ATOM     44  C   UNL     1      -9.569  -0.981   4.869  1.00  0.00     0.029 A 
ATOM     45  C   UNL     1     -10.265  -1.966   5.689  1.00  0.00     0.049 A 
ATOM     46  H   UNL     1      -9.478  -3.102   7.247  1.00  0.00     0.167 HD
ATOM     47  C   UNL     1      -7.731  -5.448  10.479  1.00  0.00     0.031 A 
ATOM     48  C   UNL     1     -11.562  -2.305   5.561  1.00  0.00     0.031 A 
ATOM     49  C   UNL     1      -9.116  -5.834  10.456  1.00  0.00     0.049 A 
ATOM     50  C   UNL     1     -12.156  -3.316   6.500  1.00  0.00     0.074 A 
ATOM     51  C   UNL     1      -9.779  -6.724  11.283  1.00  0.00     0.029 A 
ATOM     52  N   UNL     1     -10.054  -5.346   9.560  1.00  0.00    -0.354 N 
ATOM     53  N   UNL     1     -11.580  -3.977   7.474  1.00  0.00    -0.248 NA
ATOM     54  C   UNL     1     -13.585  -3.615   6.329  1.00  0.00     0.031 C 
ATOM     55  C   UNL     1     -11.111  -6.805  10.861  1.00  0.00     0.029 A 
ATOM     56  C   UNL     1     -11.287  -5.929   9.803  1.00  0.00     0.049 A 
ATOM     57  H   UNL     1      -9.871  -4.684   8.855  1.00  0.00     0.167 HD
ATOM     58  C   UNL     1     -12.578  -4.757   8.043  1.00  0.00     0.074 A 
ATOM     59  C   UNL     1     -13.800  -4.466   7.322  1.00  0.00     0.031 C 
ATOM     60  C   UNL     1     -12.490  -5.639   9.068  1.00  0.00     0.031 A 
BRANCH  47  61
ATOM     61  C   UNL     1      -6.822  -6.107  11.481  1.00  0.00    -0.014 A 
ATOM     62  C   UNL     1      -6.313  -5.394  12.579  1.00  0.00     0.009 A 
ATOM     63  C   UNL     1      -6.490  -7.464  11.343  1.00  0.00     0.009 A 
ATOM     64  C   UNL     1      -5.460  -6.014  13.494  1.00  0.00     0.001 A 
ATOM     65  C   UNL     1      -5.661  -8.090  12.276  1.00  0.00     0.001 A 
ATOM     66  C   UNL     1      -5.138  -7.362  13.344  1.00  0.00     0.000 A 
ENDBRANCH  47  61
BRANCH  48  67
ATOM     67  C   UNL     1     -12.399  -1.657   4.517  1.00  0.00    -0.014 A 
ATOM     68  C   UNL     1     -13.387  -0.726   4.873  1.00  0.00     0.009 A 
ATOM     69  C   UNL     1     -12.215  -1.966   3.160  1.00  0.00     0.009 A 
ATOM     70  C   UNL     1     -14.190  -0.136   3.894  1.00  0.00     0.001 A 
ATOM     71  C   UNL     1     -13.001  -1.353   2.182  1.00  0.00     0.001 A 
ATOM     72  C   UNL     1     -13.993  -0.446   2.550  1.00  0.00     0.000 A 
ENDBRANCH  48  67
BRANCH  60  73
ATOM     73  C   UNL     1     -13.755  -6.340   9.473  1.00  0.00    -0.014 A 
ATOM     74  C   UNL     1     -14.322  -7.338   8.665  1.00  0.00     0.009 A 
ATOM     75  C   UNL     1     -14.379  -6.009  10.686  1.00  0.00     0.009 A 
ATOM     76  C   UNL     1     -15.512  -7.961   9.045  1.00  0.00     0.001 A 
ATOM     77  C   UNL     1     -15.553  -6.654  11.077  1.00  0.00     0.001 A 
ATOM     78  C   UNL     1     -16.125  -7.621  10.251  1.00  0.00     0.000 A 
ENDBRANCH  60  73
ENDBRANCH  34  35
ENDBRANCH  26  29
ENDBRANCH  24  25
ENDBRANCH  23  24
ENDBRANCH  22  23
ENDBRANCH   3  22
TORSDOF 16
