REMARK SMILES O=C(COc1ccccc1[C@@H]1C2=C(CCCC2=O)Nc2nc(SCc3ccccn3)nn21)NCCCNC(=O)c1ccc(-c2c3nc(c(-c4ccccc4)c4ccc([nH]4)c(-c4ccccc4)c4nc(c(-c5ccccc5)c5ccc2[nH]5)C=C4)C=C3)cc1
REMARK SMILES IDX 1 1 2 2 33 3 3 5 4 6 5 7 6 8 10 9 7 10 9 11 8 12 11 13 12 14
REMARK SMILES IDX 32 15 13 16 17 17 20 18 31 19 14 20 19 21 16 22 18 23 21 24
REMARK SMILES IDX 22 25 15 26 23 28 24 29 25 30 26 31 30 32 27 33 29 34 28 35
REMARK SMILES IDX 34 36 35 37 36 38 37 39 38 40 39 42 40 43 41 44 87 45 42 46
REMARK SMILES IDX 86 47 43 48 44 49 45 50 80 51 46 52 85 53 79 54 81 55 47 56
REMARK SMILES IDX 84 57 78 58 77 59 48 61 70 62 55 63 69 64 56 65 59 66 68 67
REMARK SMILES IDX 82 68 57 69 58 70 67 72 83 73 60 74 49 75 50 76 54 77 51 78
REMARK SMILES IDX 53 79 52 80 71 81 72 82 76 83 73 84 75 85 74 86 61 87 62 88
REMARK SMILES IDX 66 89 63 90 65 91 64 92
REMARK H PARENT 33 4 19 27 37 41 81 60 59 71
REMARK Flexibility Score: inf
ROOT
ATOM      1  O   UNL     1       0.343  -0.386  -0.867  1.00  0.00    -0.271 OA
ATOM      2  C   UNL     1       1.568  -0.359  -0.538  1.00  0.00     0.257 C 
ATOM      3  N   UNL     1       2.159  -1.038  -1.719  1.00  0.00    -0.353 N 
ATOM      4  H   UNL     1       3.136  -0.985  -1.828  1.00  0.00     0.163 HD
ENDROOT
BRANCH   2   5
ATOM      5  C   UNL     1       2.458   0.365   1.337  1.00  0.00     0.329 C 
BRANCH   5   6
ATOM      6  O   UNL     1       3.441  -0.147   2.389  1.00  0.00    -0.483 OA
BRANCH   6   7
ATOM      7  C   UNL     1       2.996  -1.219   3.111  1.00  0.00     0.125 A 
ATOM      8  C   UNL     1       3.649  -1.615   4.268  1.00  0.00     0.047 A 
ATOM      9  C   UNL     1       2.018  -2.009   2.538  1.00  0.00     0.024 A 
ATOM     10  C   UNL     1       3.298  -2.833   4.853  1.00  0.00     0.004 A 
ATOM     11  C   UNL     1       1.650  -3.217   3.118  1.00  0.00     0.010 A 
ATOM     12  C   UNL     1       2.300  -3.630   4.281  1.00  0.00     0.001 A 
BRANCH   9  13
ATOM     13  C   UNL     1       1.654  -1.567   1.166  1.00  0.00     0.181 C 
ATOM     14  C   UNL     1       3.352  -1.119   0.263  1.00  0.00     0.044 C 
ATOM     15  N   UNL     1       0.439  -0.159   1.223  1.00  0.00    -0.218 N 
ATOM     16  C   UNL     1       3.607   0.318  -0.394  1.00  0.00     0.027 C 
ATOM     17  C   UNL     1       4.368  -2.179   0.192  1.00  0.00     0.163 C 
ATOM     18  C   UNL     1       0.832   1.381   0.445  1.00  0.00     0.227 A 
ATOM     19  N   UNL     1      -0.516   0.139   2.116  1.00  0.00    -0.141 NA
ATOM     20  C   UNL     1       4.931   0.641  -1.000  1.00  0.00     0.055 C 
ATOM     21  N   UNL     1       2.303   1.542  -0.411  1.00  0.00    -0.328 N 
ATOM     22  C   UNL     1       5.663  -1.831  -0.492  1.00  0.00     0.081 C 
ATOM     23  O   UNL     1       4.088  -3.322   0.531  1.00  0.00    -0.294 OA
ATOM     24  N   UNL     1      -0.118   2.174   0.869  1.00  0.00    -0.185 NA
ATOM     25  C   UNL     1      -0.845   1.416   1.822  1.00  0.00     0.210 A 
ATOM     26  C   UNL     1       6.012  -0.334  -0.488  1.00  0.00     0.014 C 
ATOM     27  H   UNL     1       2.441   2.357  -0.945  1.00  0.00     0.169 HD
BRANCH  25  28
ATOM     28  S   UNL     1      -2.158   2.123   2.755  1.00  0.00    -0.078 SA
BRANCH  28  29
ATOM     29  C   UNL     1      -1.982   3.879   2.378  1.00  0.00     0.134 C 
BRANCH  29  30
ATOM     30  C   UNL     1      -0.742   4.590   2.889  1.00  0.00     0.051 A 
ATOM     31  C   UNL     1      -0.699   5.983   2.816  1.00  0.00     0.025 A 
ATOM     32  N   UNL     1       0.321   3.871   3.329  1.00  0.00    -0.260 NA
ATOM     33  C   UNL     1       0.471   6.647   3.175  1.00  0.00     0.003 A 
ATOM     34  C   UNL     1       1.446   4.536   3.660  1.00  0.00     0.111 A 
ATOM     35  C   UNL     1       1.571   5.910   3.594  1.00  0.00     0.020 A 
ENDBRANCH  29  30
ENDBRANCH  28  29
ENDBRANCH  25  28
ENDBRANCH   9  13
ENDBRANCH   6   7
ENDBRANCH   5   6
ENDBRANCH   2   5
BRANCH   3  36
ATOM     36  C   UNL     1       1.404  -1.786  -2.740  1.00  0.00     0.117 C 
BRANCH  36  37
ATOM     37  C   UNL     1       1.737  -1.382  -4.181  1.00  0.00     0.042 C 
BRANCH  37  38
ATOM     38  C   UNL     1       3.212  -1.433  -4.573  1.00  0.00     0.118 C 
BRANCH  38  39
ATOM     39  N   UNL     1       3.807  -2.768  -4.601  1.00  0.00    -0.352 N 
ATOM     40  C   UNL     1       5.084  -3.119  -5.019  1.00  0.00     0.251 C 
ATOM     41  H   UNL     1       3.235  -3.504  -4.287  1.00  0.00     0.163 HD
ATOM     42  O   UNL     1       5.326  -4.267  -5.376  1.00  0.00    -0.269 OA
BRANCH  40  43
ATOM     43  C   UNL     1       6.178  -2.121  -4.984  1.00  0.00     0.039 A 
ATOM     44  C   UNL     1       7.210  -2.092  -5.923  1.00  0.00     0.014 A 
ATOM     45  C   UNL     1       6.200  -1.218  -3.930  1.00  0.00     0.014 A 
ATOM     46  C   UNL     1       8.207  -1.113  -5.813  1.00  0.00     0.010 A 
ATOM     47  C   UNL     1       7.144  -0.223  -3.841  1.00  0.00     0.010 A 
ATOM     48  C   UNL     1       8.167  -0.176  -4.764  1.00  0.00    -0.014 A 
BRANCH  48  49
ATOM     49  C   UNL     1       8.985   1.033  -4.772  1.00  0.00     0.031 A 
ATOM     50  C   UNL     1       8.697   1.876  -5.957  1.00  0.00     0.074 A 
ATOM     51  C   UNL     1       9.689   1.534  -3.731  1.00  0.00     0.049 A 
ATOM     52  N   UNL     1       9.437   2.010  -7.004  1.00  0.00    -0.248 NA
ATOM     53  C   UNL     1       7.363   2.494  -6.083  1.00  0.00     0.031 C 
ATOM     54  C   UNL     1       9.739   1.030  -2.353  1.00  0.00     0.029 A 
ATOM     55  N   UNL     1      10.442   2.675  -3.659  1.00  0.00    -0.354 N 
ATOM     56  C   UNL     1       8.784   2.943  -7.800  1.00  0.00     0.074 A 
ATOM     57  C   UNL     1       7.434   3.024  -7.306  1.00  0.00     0.031 C 
ATOM     58  C   UNL     1      10.305   1.960  -1.546  1.00  0.00     0.029 A 
ATOM     59  C   UNL     1      10.811   3.046  -2.368  1.00  0.00     0.049 A 
ATOM     60  H   UNL     1      10.703   3.191  -4.456  1.00  0.00     0.167 HD
ATOM     61  C   UNL     1       9.509   3.817  -8.549  1.00  0.00     0.031 A 
ATOM     62  C   UNL     1      11.501   4.155  -1.998  1.00  0.00     0.031 A 
ATOM     63  C   UNL     1      10.900   3.437  -8.577  1.00  0.00     0.049 A 
ATOM     64  C   UNL     1      12.249   4.632  -3.179  1.00  0.00     0.074 A 
ATOM     65  C   UNL     1      11.678   2.473  -9.177  1.00  0.00     0.029 A 
ATOM     66  N   UNL     1      11.606   3.928  -7.511  1.00  0.00    -0.354 N 
ATOM     67  N   UNL     1      13.232   3.965  -3.712  1.00  0.00    -0.248 NA
ATOM     68  C   UNL     1      11.711   5.717  -3.989  1.00  0.00     0.031 C 
ATOM     69  C   UNL     1      12.819   2.300  -8.334  1.00  0.00     0.029 A 
ATOM     70  C   UNL     1      12.733   3.193  -7.268  1.00  0.00     0.049 A 
ATOM     71  H   UNL     1      11.335   4.714  -6.984  1.00  0.00     0.167 HD
ATOM     72  C   UNL     1      13.126   4.237  -5.059  1.00  0.00     0.074 A 
ATOM     73  C   UNL     1      12.319   5.448  -5.148  1.00  0.00     0.031 C 
ATOM     74  C   UNL     1      13.401   3.278  -5.988  1.00  0.00     0.031 A 
BRANCH  61  75
ATOM     75  C   UNL     1       9.124   5.268  -8.758  1.00  0.00    -0.014 A 
ATOM     76  C   UNL     1       9.984   6.072  -9.531  1.00  0.00     0.009 A 
ATOM     77  C   UNL     1       8.155   5.942  -7.991  1.00  0.00     0.009 A 
ATOM     78  C   UNL     1       9.919   7.470  -9.484  1.00  0.00     0.001 A 
ATOM     79  C   UNL     1       8.066   7.337  -7.967  1.00  0.00     0.001 A 
ATOM     80  C   UNL     1       8.965   8.102  -8.695  1.00  0.00     0.000 A 
ENDBRANCH  61  75
BRANCH  62  81
ATOM     81  C   UNL     1      11.499   4.942  -0.746  1.00  0.00    -0.014 A 
ATOM     82  C   UNL     1      12.601   5.741  -0.393  1.00  0.00     0.009 A 
ATOM     83  C   UNL     1      10.290   5.155  -0.063  1.00  0.00     0.009 A 
ATOM     84  C   UNL     1      12.482   6.753   0.569  1.00  0.00     0.001 A 
ATOM     85  C   UNL     1      10.171   6.169   0.896  1.00  0.00     0.001 A 
ATOM     86  C   UNL     1      11.261   6.980   1.199  1.00  0.00     0.000 A 
ENDBRANCH  62  81
BRANCH  74  87
ATOM     87  C   UNL     1      14.322   2.164  -5.587  1.00  0.00    -0.014 A 
ATOM     88  C   UNL     1      14.029   1.218  -4.591  1.00  0.00     0.009 A 
ATOM     89  C   UNL     1      15.526   2.041  -6.296  1.00  0.00     0.009 A 
ATOM     90  C   UNL     1      14.934   0.190  -4.302  1.00  0.00     0.001 A 
ATOM     91  C   UNL     1      16.417   1.005  -6.021  1.00  0.00     0.001 A 
ATOM     92  C   UNL     1      16.124   0.083  -5.020  1.00  0.00     0.000 A 
ENDBRANCH  74  87
ENDBRANCH  48  49
ENDBRANCH  40  43
ENDBRANCH  38  39
ENDBRANCH  37  38
ENDBRANCH  36  37
ENDBRANCH   3  36
TORSDOF 16
