REMARK SMILES C[C@@H](Oc1ccc(I)cc1)C(=O)NCc1ccc(C(=O)NCCCNC(=O)c2ccc(-c3c4nc(c(-c5ccccc5)c5ccc([nH]5)c(-c5ccccc5)c5nc(c(-c6ccccc6)c6ccc3[nH]6)C=C5)C=C4)cc2)cc1
REMARK SMILES IDX 19 1 20 2 21 3 18 5 15 6 16 7 77 8 17 9 76 10 14 11 13 12
REMARK SMILES IDX 11 13 12 14 2 16 1 17 3 18 4 19 5 20 10 21 6 22 9 23 7 24
REMARK SMILES IDX 8 25 22 26 23 27 24 28 25 29 26 30 27 32 28 33 29 34 75 35
REMARK SMILES IDX 30 36 74 37 31 38 32 39 33 40 68 41 34 42 73 43 67 44 69 45
REMARK SMILES IDX 35 46 72 47 66 48 65 49 36 51 58 52 43 53 57 54 44 55 47 56
REMARK SMILES IDX 56 57 70 58 45 59 46 60 55 62 71 63 48 64 37 65 38 66 42 67
REMARK SMILES IDX 39 68 41 69 40 70 59 71 60 72 64 73 61 74 63 75 62 76 49 77
REMARK SMILES IDX 50 78 54 79 51 80 53 81 52 82
REMARK H PARENT 21 4 13 15 25 31 69 50 47 61
REMARK Flexibility Score: inf
ROOT
ATOM      1  C   UNL     1      -1.629  -4.706   3.602  1.00  0.00     0.251 C 
ATOM      2  O   UNL     1      -1.423  -4.102   4.654  1.00  0.00    -0.269 OA
ATOM      3  N   UNL     1      -1.982  -6.030   3.676  1.00  0.00    -0.352 N 
ATOM      4  H   UNL     1      -1.966  -6.401   4.588  1.00  0.00     0.163 HD
ENDROOT
BRANCH   1   5
ATOM      5  C   UNL     1      -1.536  -3.970   2.314  1.00  0.00     0.039 A 
ATOM      6  C   UNL     1      -1.436  -2.445  -0.065  1.00  0.00    -0.029 A 
ATOM      7  C   UNL     1      -1.877  -1.868   1.132  1.00  0.00     0.006 A 
ATOM      8  C   UNL     1      -1.013  -3.784  -0.043  1.00  0.00     0.006 A 
ATOM      9  C   UNL     1      -1.921  -2.623   2.310  1.00  0.00     0.014 A 
ATOM     10  C   UNL     1      -1.042  -4.531   1.137  1.00  0.00     0.014 A 
BRANCH   6  11
ATOM     11  C   UNL     1      -1.406  -1.719  -1.388  1.00  0.00     0.151 C 
BRANCH  11  12
ATOM     12  N   UNL     1      -1.749  -0.313  -1.331  1.00  0.00    -0.349 N 
ATOM     13  C   UNL     1      -0.950   0.793  -1.357  1.00  0.00     0.261 C 
ATOM     14  O   UNL     1      -1.508   1.894  -1.398  1.00  0.00    -0.271 OA
ATOM     15  H   UNL     1      -2.713  -0.125  -1.265  1.00  0.00     0.163 HD
BRANCH  13  16
ATOM     16  C   UNL     1       0.583   0.692  -1.233  1.00  0.00     0.258 C 
ATOM     17  C   UNL     1       0.918   0.395   0.227  1.00  0.00     0.064 C 
BRANCH  16  18
ATOM     18  O   UNL     1       1.076  -0.289  -2.147  1.00  0.00    -0.481 OA
BRANCH  18  19
ATOM     19  C   UNL     1       2.409  -0.216  -2.422  1.00  0.00     0.120 A 
ATOM     20  C   UNL     1       3.353  -0.725  -1.532  1.00  0.00     0.047 A 
ATOM     21  C   UNL     1       2.798   0.201  -3.694  1.00  0.00     0.047 A 
ATOM     22  C   UNL     1       4.701  -0.771  -1.893  1.00  0.00     0.018 A 
ATOM     23  C   UNL     1       4.145   0.144  -4.064  1.00  0.00     0.018 A 
ATOM     24  C   UNL     1       5.091  -0.339  -3.159  1.00  0.00     0.013 A 
ATOM     25  I   UNL     1       7.090  -0.460  -3.715  1.00  0.00    -0.044 I 
ENDBRANCH  18  19
ENDBRANCH  16  18
ENDBRANCH  13  16
ENDBRANCH  11  12
ENDBRANCH   6  11
ENDBRANCH   1   5
BRANCH   3  26
ATOM     26  C   UNL     1      -2.374  -6.983   2.653  1.00  0.00     0.118 C 
BRANCH  26  27
ATOM     27  C   UNL     1      -1.243  -7.963   2.346  1.00  0.00     0.042 C 
BRANCH  27  28
ATOM     28  C   UNL     1      -1.016  -8.997   3.446  1.00  0.00     0.118 C 
BRANCH  28  29
ATOM     29  N   UNL     1      -2.090  -9.977   3.505  1.00  0.00    -0.352 N 
ATOM     30  C   UNL     1      -2.041 -11.345   3.413  1.00  0.00     0.251 C 
ATOM     31  H   UNL     1      -2.990  -9.600   3.631  1.00  0.00     0.163 HD
ATOM     32  O   UNL     1      -3.081 -11.979   3.271  1.00  0.00    -0.269 OA
BRANCH  30  33
ATOM     33  C   UNL     1      -0.748 -12.063   3.471  1.00  0.00     0.039 A 
ATOM     34  C   UNL     1      -0.551 -13.159   2.624  1.00  0.00     0.014 A 
ATOM     35  C   UNL     1       0.244 -11.704   4.387  1.00  0.00     0.014 A 
ATOM     36  C   UNL     1       0.654 -13.863   2.663  1.00  0.00     0.010 A 
ATOM     37  C   UNL     1       1.471 -12.365   4.380  1.00  0.00     0.010 A 
ATOM     38  C   UNL     1       1.685 -13.456   3.525  1.00  0.00    -0.014 A 
BRANCH  38  39
ATOM     39  C   UNL     1       2.989 -14.163   3.550  1.00  0.00     0.031 A 
ATOM     40  C   UNL     1       3.424 -14.911   4.779  1.00  0.00     0.074 A 
ATOM     41  C   UNL     1       3.812 -14.077   2.488  1.00  0.00     0.049 A 
ATOM     42  N   UNL     1       4.551 -15.538   5.009  1.00  0.00    -0.248 NA
ATOM     43  C   UNL     1       2.480 -14.936   5.908  1.00  0.00     0.031 C 
ATOM     44  C   UNL     1       3.525 -13.348   1.251  1.00  0.00     0.029 A 
ATOM     45  N   UNL     1       5.065 -14.598   2.286  1.00  0.00    -0.354 N 
ATOM     46  C   UNL     1       4.460 -16.010   6.312  1.00  0.00     0.074 A 
ATOM     47  C   UNL     1       3.188 -15.562   6.836  1.00  0.00     0.031 C 
ATOM     48  C   UNL     1       4.563 -13.485   0.412  1.00  0.00     0.029 A 
ATOM     49  C   UNL     1       5.601 -14.278   1.063  1.00  0.00     0.049 A 
ATOM     50  H   UNL     1       5.535 -15.148   2.954  1.00  0.00     0.167 HD
ATOM     51  C   UNL     1       5.348 -16.762   7.007  1.00  0.00     0.031 A 
ATOM     52  C   UNL     1       6.796 -14.584   0.526  1.00  0.00     0.031 A 
ATOM     53  C   UNL     1       6.609 -17.216   6.483  1.00  0.00     0.049 A 
ATOM     54  C   UNL     1       7.765 -15.420   1.312  1.00  0.00     0.074 A 
ATOM     55  C   UNL     1       7.549 -18.035   7.084  1.00  0.00     0.029 A 
ATOM     56  N   UNL     1       7.108 -16.884   5.233  1.00  0.00    -0.354 N 
ATOM     57  N   UNL     1       7.636 -15.918   2.517  1.00  0.00    -0.248 NA
ATOM     58  C   UNL     1       9.039 -15.746   0.656  1.00  0.00     0.031 C 
ATOM     59  C   UNL     1       8.639 -18.160   6.215  1.00  0.00     0.029 A 
ATOM     60  C   UNL     1       8.354 -17.460   5.053  1.00  0.00     0.049 A 
ATOM     61  H   UNL     1       6.645 -16.321   4.571  1.00  0.00     0.167 HD
ATOM     62  C   UNL     1       8.801 -16.633   2.759  1.00  0.00     0.074 A 
ATOM     63  C   UNL     1       9.618 -16.516   1.568  1.00  0.00     0.031 C 
ATOM     64  C   UNL     1       9.160 -17.326   3.867  1.00  0.00     0.031 A 
BRANCH  51  65
ATOM     65  C   UNL     1       4.983 -17.125   8.420  1.00  0.00    -0.014 A 
ATOM     66  C   UNL     1       3.947 -18.031   8.697  1.00  0.00     0.009 A 
ATOM     67  C   UNL     1       5.691 -16.558   9.491  1.00  0.00     0.009 A 
ATOM     68  C   UNL     1       3.597 -18.326  10.016  1.00  0.00     0.001 A 
ATOM     69  C   UNL     1       5.359 -16.877  10.809  1.00  0.00     0.001 A 
ATOM     70  C   UNL     1       4.305 -17.751  11.071  1.00  0.00     0.000 A 
ENDBRANCH  51  65
BRANCH  52  71
ATOM     71  C   UNL     1       7.129 -14.109  -0.841  1.00  0.00    -0.014 A 
ATOM     72  C   UNL     1       7.136 -15.003  -1.921  1.00  0.00     0.009 A 
ATOM     73  C   UNL     1       7.412 -12.754  -1.077  1.00  0.00     0.009 A 
ATOM     74  C   UNL     1       7.435 -14.553  -3.209  1.00  0.00     0.001 A 
ATOM     75  C   UNL     1       7.686 -12.303  -2.369  1.00  0.00     0.001 A 
ATOM     76  C   UNL     1       7.703 -13.204  -3.433  1.00  0.00     0.000 A 
ENDBRANCH  52  71
BRANCH  64  77
ATOM     77  C   UNL     1      10.486 -18.031   3.833  1.00  0.00    -0.014 A 
ATOM     78  C   UNL     1      11.691 -17.319   3.929  1.00  0.00     0.009 A 
ATOM     79  C   UNL     1      10.527 -19.431   3.743  1.00  0.00     0.009 A 
ATOM     80  C   UNL     1      12.913 -17.994   3.906  1.00  0.00     0.001 A 
ATOM     81  C   UNL     1      11.748 -20.105   3.746  1.00  0.00     0.001 A 
ATOM     82  C   UNL     1      12.940 -19.386   3.819  1.00  0.00     0.000 A 
ENDBRANCH  64  77
ENDBRANCH  38  39
ENDBRANCH  30  33
ENDBRANCH  28  29
ENDBRANCH  27  28
ENDBRANCH  26  27
ENDBRANCH   3  26
TORSDOF 15
