REMARK SMILES CC(C)[NH2+][C@@H](CSc1cccc(F)c1)C(=O)NCCCNC(=O)c1ccc(-c2c3nc(c(-c4ccccc4)c4ccc([nH]4)c(-c4ccccc4)c4nc(c(-c5ccccc5)c5ccc2[nH]5)C=C4)C=C3)cc1
REMARK SMILES IDX 18 1 17 2 15 3 16 4 5 6 4 7 2 10 1 11 3 12 6 13 7 14 8 15
REMARK SMILES IDX 9 16 14 17 10 18 12 19 11 20 13 21 19 22 20 23 21 24 22 25
REMARK SMILES IDX 23 27 24 28 25 29 71 30 26 31 70 32 27 33 28 34 29 35 64 36
REMARK SMILES IDX 30 37 69 38 63 39 65 40 31 41 68 42 62 43 61 44 32 46 54 47
REMARK SMILES IDX 39 48 53 49 40 50 43 51 52 52 66 53 41 54 42 55 51 57 67 58
REMARK SMILES IDX 44 59 33 60 34 61 38 62 35 63 37 64 36 65 55 66 56 67 60 68
REMARK SMILES IDX 57 69 59 70 58 71 45 72 46 73 50 74 47 75 49 76 48 77
REMARK H PARENT 17 5 4 8 4 9 21 26 65 45 43 56
REMARK Flexibility Score: inf
ROOT
ATOM      1  C   UNL     1      -3.856  -2.680   0.036  1.00  0.00     0.118 C 
ENDROOT
BRANCH   1   2
ATOM      2  N   UNL     1      -3.690  -2.047  -1.258  1.00  0.00    -0.351 N 
ATOM      3  C   UNL     1      -2.627  -1.881  -2.090  1.00  0.00     0.279 C 
ATOM      4  O   UNL     1      -2.900  -1.366  -3.184  1.00  0.00    -0.268 OA
ATOM      5  H   UNL     1      -4.523  -1.656  -1.608  1.00  0.00     0.163 HD
BRANCH   3   6
ATOM      6  C   UNL     1      -1.145  -2.249  -1.756  1.00  0.00     0.283 C 
BRANCH   6   7
ATOM      7  N   UNL     1      -0.449  -1.060  -1.250  1.00  0.00    -0.333 N 
ATOM      8  H   UNL     1      -0.997  -0.245  -1.524  1.00  0.00     0.347 HD
ATOM      9  H   UNL     1      -0.369  -1.215  -0.244  1.00  0.00     0.347 HD
BRANCH   7  10
ATOM     10  C   UNL     1       0.926  -0.836  -1.701  1.00  0.00     0.176 C 
ATOM     11  C   UNL     1       1.389   0.445  -0.992  1.00  0.00     0.075 C 
ATOM     12  C   UNL     1       1.890  -1.968  -1.350  1.00  0.00     0.075 C 
ENDBRANCH   7  10
ENDBRANCH   6   7
BRANCH   6  13
ATOM     13  C   UNL     1      -0.971  -3.608  -1.049  1.00  0.00     0.150 C 
BRANCH  13  14
ATOM     14  S   UNL     1      -0.393  -4.027   0.675  1.00  0.00    -0.119 SA
BRANCH  14  15
ATOM     15  C   UNL     1      -0.359  -2.692   1.855  1.00  0.00     0.010 A 
ATOM     16  C   UNL     1      -1.029  -1.470   1.831  1.00  0.00     0.015 A 
ATOM     17  C   UNL     1       0.415  -2.960   2.996  1.00  0.00     0.054 A 
ATOM     18  C   UNL     1      -0.859  -0.504   2.835  1.00  0.00     0.004 A 
ATOM     19  C   UNL     1       0.554  -2.020   4.015  1.00  0.00     0.124 A 
ATOM     20  C   UNL     1      -0.059  -0.781   3.934  1.00  0.00     0.039 A 
ATOM     21  F   UNL     1       1.291  -2.321   5.092  1.00  0.00    -0.207 F 
ENDBRANCH  14  15
ENDBRANCH  13  14
ENDBRANCH   6  13
ENDBRANCH   3   6
ENDBRANCH   1   2
BRANCH   1  22
ATOM     22  C   UNL     1      -4.233  -1.685   1.124  1.00  0.00     0.042 C 
BRANCH  22  23
ATOM     23  C   UNL     1      -5.702  -1.714   1.490  1.00  0.00     0.118 C 
BRANCH  23  24
ATOM     24  N   UNL     1      -6.049  -2.919   2.235  1.00  0.00    -0.352 N 
ATOM     25  C   UNL     1      -6.396  -3.118   3.549  1.00  0.00     0.251 C 
ATOM     26  H   UNL     1      -6.031  -3.743   1.696  1.00  0.00     0.163 HD
ATOM     27  O   UNL     1      -6.429  -4.268   3.979  1.00  0.00    -0.269 OA
BRANCH  25  28
ATOM     28  C   UNL     1      -6.716  -1.991   4.460  1.00  0.00     0.039 A 
ATOM     29  C   UNL     1      -6.485  -2.149   5.832  1.00  0.00     0.014 A 
ATOM     30  C   UNL     1      -7.295  -0.806   4.005  1.00  0.00     0.014 A 
ATOM     31  C   UNL     1      -6.790  -1.113   6.720  1.00  0.00     0.010 A 
ATOM     32  C   UNL     1      -7.467   0.272   4.867  1.00  0.00     0.010 A 
ATOM     33  C   UNL     1      -7.253   0.123   6.241  1.00  0.00    -0.014 A 
BRANCH  33  34
ATOM     34  C   UNL     1      -7.559   1.247   7.165  1.00  0.00     0.031 A 
ATOM     35  C   UNL     1      -8.948   1.834   7.223  1.00  0.00     0.074 A 
ATOM     36  C   UNL     1      -6.577   1.771   7.924  1.00  0.00     0.049 A 
ATOM     37  N   UNL     1      -9.399   2.816   7.964  1.00  0.00    -0.248 NA
ATOM     38  C   UNL     1      -9.954   1.272   6.305  1.00  0.00     0.031 C 
ATOM     39  C   UNL     1      -5.175   1.344   7.915  1.00  0.00     0.029 A 
ATOM     40  N   UNL     1      -6.611   2.773   8.861  1.00  0.00    -0.354 N 
ATOM     41  C   UNL     1     -10.723   3.002   7.581  1.00  0.00     0.074 A 
ATOM     42  C   UNL     1     -10.984   2.080   6.500  1.00  0.00     0.031 C 
ATOM     43  C   UNL     1      -4.498   2.039   8.843  1.00  0.00     0.029 A 
ATOM     44  C   UNL     1      -5.405   2.983   9.485  1.00  0.00     0.049 A 
ATOM     45  H   UNL     1      -7.422   3.292   9.066  1.00  0.00     0.167 HD
ATOM     46  C   UNL     1     -11.652   3.840   8.100  1.00  0.00     0.031 A 
ATOM     47  C   UNL     1      -5.071   3.830  10.476  1.00  0.00     0.031 A 
ATOM     48  C   UNL     1     -11.405   4.735   9.198  1.00  0.00     0.049 A 
ATOM     49  C   UNL     1      -6.128   4.718  11.067  1.00  0.00     0.074 A 
ATOM     50  C   UNL     1     -12.293   5.579   9.842  1.00  0.00     0.029 A 
ATOM     51  N   UNL     1     -10.176   4.896   9.819  1.00  0.00    -0.354 N 
ATOM     52  N   UNL     1      -7.394   4.826  10.743  1.00  0.00    -0.248 NA
ATOM     53  C   UNL     1      -5.712   5.584  12.178  1.00  0.00     0.031 C 
ATOM     54  C   UNL     1     -11.591   6.281  10.828  1.00  0.00     0.029 A 
ATOM     55  C   UNL     1     -10.279   5.835  10.832  1.00  0.00     0.049 A 
ATOM     56  H   UNL     1      -9.353   4.414   9.576  1.00  0.00     0.167 HD
ATOM     57  C   UNL     1      -7.932   5.752  11.627  1.00  0.00     0.074 A 
ATOM     58  C   UNL     1      -6.860   6.156  12.514  1.00  0.00     0.031 C 
ATOM     59  C   UNL     1      -9.200   6.228  11.699  1.00  0.00     0.031 A 
BRANCH  46  60
ATOM     60  C   UNL     1     -13.025   3.818   7.485  1.00  0.00    -0.014 A 
ATOM     61  C   UNL     1     -13.873   2.707   7.635  1.00  0.00     0.009 A 
ATOM     62  C   UNL     1     -13.488   4.929   6.763  1.00  0.00     0.009 A 
ATOM     63  C   UNL     1     -15.136   2.693   7.038  1.00  0.00     0.001 A 
ATOM     64  C   UNL     1     -14.763   4.925   6.195  1.00  0.00     0.001 A 
ATOM     65  C   UNL     1     -15.582   3.804   6.323  1.00  0.00     0.000 A 
ENDBRANCH  46  60
BRANCH  47  66
ATOM     66  C   UNL     1      -3.683   3.841  11.008  1.00  0.00    -0.014 A 
ATOM     67  C   UNL     1      -3.409   3.327  12.285  1.00  0.00     0.009 A 
ATOM     68  C   UNL     1      -2.628   4.365  10.247  1.00  0.00     0.009 A 
ATOM     69  C   UNL     1      -2.111   3.364  12.800  1.00  0.00     0.001 A 
ATOM     70  C   UNL     1      -1.326   4.374  10.752  1.00  0.00     0.001 A 
ATOM     71  C   UNL     1      -1.070   3.883  12.032  1.00  0.00     0.000 A 
ENDBRANCH  47  66
BRANCH  59  72
ATOM     72  C   UNL     1      -9.494   7.212  12.796  1.00  0.00    -0.014 A 
ATOM     73  C   UNL     1      -8.986   8.520  12.759  1.00  0.00     0.009 A 
ATOM     74  C   UNL     1     -10.300   6.824  13.877  1.00  0.00     0.009 A 
ATOM     75  C   UNL     1      -9.238   9.403  13.810  1.00  0.00     0.001 A 
ATOM     76  C   UNL     1     -10.577   7.719  14.910  1.00  0.00     0.001 A 
ATOM     77  C   UNL     1     -10.034   9.003  14.883  1.00  0.00     0.000 A 
ENDBRANCH  59  72
ENDBRANCH  33  34
ENDBRANCH  25  28
ENDBRANCH  23  24
ENDBRANCH  22  23
ENDBRANCH   1  22
TORSDOF 15
