REMARK SMILES CCC(CC)C[N@H+]1[C@@H]2CC[C@H]1C[C@H](CC(=O)NCCCNC(=O)c1ccc(-c3c4nc(c(-c5ccccc5)c5ccc([nH]5)c(-c5ccccc5)c5nc(c(-c6ccccc6)c6ccc3[nH]6)C=C5)C=C4)cc1)C2
REMARK SMILES IDX 18 1 17 2 15 3 16 4 14 6 13 7 7 8 8 9 11 10 9 12 72 13 10 14
REMARK SMILES IDX 12 15 6 16 3 17 2 18 1 19 4 20 5 21 19 22 20 23 21 24 22 25
REMARK SMILES IDX 23 27 24 28 25 29 71 30 26 31 70 32 27 33 28 34 29 35 64 36
REMARK SMILES IDX 30 37 69 38 63 39 65 40 31 41 68 42 62 43 61 44 32 46 54 47
REMARK SMILES IDX 39 48 53 49 40 50 43 51 52 52 66 53 41 54 42 55 51 57 67 58
REMARK SMILES IDX 44 59 33 60 34 61 38 62 35 63 37 64 36 65 55 66 56 67 60 68
REMARK SMILES IDX 57 69 59 70 58 71 45 72 46 73 50 74 47 75 49 76 48 77
REMARK H PARENT 17 5 7 11 21 26 65 45 43 56
REMARK Flexibility Score: inf
ROOT
ATOM      1  C   UNL     1       4.838   1.899  -3.675  1.00  0.00     0.117 C 
ENDROOT
BRANCH   1   2
ATOM      2  N   UNL     1       5.753   1.763  -2.548  1.00  0.00    -0.356 N 
ATOM      3  C   UNL     1       5.555   1.534  -1.221  1.00  0.00     0.220 C 
ATOM      4  O   UNL     1       6.552   1.464  -0.499  1.00  0.00    -0.275 OA
ATOM      5  H   UNL     1       6.701   1.854  -2.796  1.00  0.00     0.163 HD
BRANCH   3   6
ATOM      6  C   UNL     1       4.169   1.369  -0.635  1.00  0.00     0.104 C 
BRANCH   6   7
ATOM      7  C   UNL     1       3.595   2.670  -0.029  1.00  0.00     0.010 C 
ATOM      8  N   UNL     1       0.922   3.938  -0.355  1.00  0.00    -0.330 N 
ATOM      9  C   UNL     1       1.304   3.437   0.960  1.00  0.00     0.184 C 
ATOM     10  C   UNL     1       2.113   4.650  -0.814  1.00  0.00     0.184 C 
ATOM     11  H   UNL     1       0.087   4.510  -0.224  1.00  0.00     0.348 HD
ATOM     12  C   UNL     1       1.843   4.736   1.580  1.00  0.00     0.071 C 
ATOM     13  C   UNL     1       2.418   2.367   0.930  1.00  0.00     0.069 C 
ATOM     14  C   UNL     1       2.464   5.496   0.410  1.00  0.00     0.071 C 
ATOM     15  C   UNL     1       3.226   3.660  -1.144  1.00  0.00     0.069 C 
BRANCH   8  16
ATOM     16  C   UNL     1       0.185   3.152  -1.349  1.00  0.00     0.266 C 
BRANCH  16  17
ATOM     17  C   UNL     1       0.361   1.614  -1.463  1.00  0.00     0.044 C 
BRANCH  17  18
ATOM     18  C   UNL     1      -0.447   0.858  -0.386  1.00  0.00     0.006 C 
ATOM     19  C   UNL     1      -0.035  -0.602  -0.251  1.00  0.00     0.004 C 
ENDBRANCH  17  18
BRANCH  17  20
ATOM     20  C   UNL     1       0.068   1.101  -2.895  1.00  0.00     0.006 C 
ATOM     21  C   UNL     1      -1.394   1.095  -3.313  1.00  0.00     0.004 C 
ENDBRANCH  17  20
ENDBRANCH  16  17
ENDBRANCH   8  16
ENDBRANCH   6   7
ENDBRANCH   3   6
ENDBRANCH   1   2
BRANCH   1  22
ATOM     22  C   UNL     1       4.726   3.335  -4.198  1.00  0.00     0.042 C 
BRANCH  22  23
ATOM     23  C   UNL     1       6.051   3.991  -4.574  1.00  0.00     0.118 C 
BRANCH  23  24
ATOM     24  N   UNL     1       6.250   4.004  -6.011  1.00  0.00    -0.352 N 
ATOM     25  C   UNL     1       6.385   5.066  -6.867  1.00  0.00     0.251 C 
ATOM     26  H   UNL     1       6.293   3.116  -6.435  1.00  0.00     0.163 HD
ATOM     27  O   UNL     1       6.294   4.867  -8.080  1.00  0.00    -0.269 OA
BRANCH  25  28
ATOM     28  C   UNL     1       6.642   6.444  -6.375  1.00  0.00     0.039 A 
ATOM     29  C   UNL     1       6.097   7.517  -7.092  1.00  0.00     0.014 A 
ATOM     30  C   UNL     1       7.491   6.704  -5.295  1.00  0.00     0.014 A 
ATOM     31  C   UNL     1       6.401   8.834  -6.733  1.00  0.00     0.010 A 
ATOM     32  C   UNL     1       7.739   8.020  -4.893  1.00  0.00     0.010 A 
ATOM     33  C   UNL     1       7.229   9.098  -5.631  1.00  0.00    -0.014 A 
BRANCH  33  34
ATOM     34  C   UNL     1       7.643  10.489  -5.302  1.00  0.00     0.031 A 
ATOM     35  C   UNL     1       9.086  10.897  -5.452  1.00  0.00     0.074 A 
ATOM     36  C   UNL     1       6.741  11.384  -4.854  1.00  0.00     0.049 A 
ATOM     37  N   UNL     1       9.654  12.048  -5.186  1.00  0.00    -0.248 NA
ATOM     38  C   UNL     1      10.019   9.871  -5.945  1.00  0.00     0.031 C 
ATOM     39  C   UNL     1       5.317  11.122  -4.642  1.00  0.00     0.029 A 
ATOM     40  N   UNL     1       6.896  12.701  -4.498  1.00  0.00    -0.354 N 
ATOM     41  C   UNL     1      11.007  11.873  -5.452  1.00  0.00     0.074 A 
ATOM     42  C   UNL     1      11.183  10.497  -5.861  1.00  0.00     0.031 C 
ATOM     43  C   UNL     1       4.724  12.250  -4.216  1.00  0.00     0.029 A 
ATOM     44  C   UNL     1       5.728  13.304  -4.098  1.00  0.00     0.049 A 
ATOM     45  H   UNL     1       7.761  13.169  -4.526  1.00  0.00     0.167 HD
ATOM     46  C   UNL     1      12.014  12.776  -5.384  1.00  0.00     0.031 A 
ATOM     47  C   UNL     1       5.491  14.563  -3.685  1.00  0.00     0.031 A 
ATOM     48  C   UNL     1      11.846  14.155  -5.012  1.00  0.00     0.049 A 
ATOM     49  C   UNL     1       6.621  15.553  -3.630  1.00  0.00     0.074 A 
ATOM     50  C   UNL     1      12.798  15.159  -4.966  1.00  0.00     0.029 A 
ATOM     51  N   UNL     1      10.643  14.725  -4.630  1.00  0.00    -0.354 N 
ATOM     52  N   UNL     1       7.885  15.382  -3.932  1.00  0.00    -0.248 NA
ATOM     53  C   UNL     1       6.287  16.916  -3.189  1.00  0.00     0.031 C 
ATOM     54  C   UNL     1      12.176  16.331  -4.523  1.00  0.00     0.029 A 
ATOM     55  C   UNL     1      10.830  16.064  -4.335  1.00  0.00     0.049 A 
ATOM     56  H   UNL     1       9.783  14.248  -4.575  1.00  0.00     0.167 HD
ATOM     57  C   UNL     1       8.490  16.618  -3.744  1.00  0.00     0.074 A 
ATOM     58  C   UNL     1       7.453  17.533  -3.314  1.00  0.00     0.031 C 
ATOM     59  C   UNL     1       9.789  16.964  -3.914  1.00  0.00     0.031 A 
BRANCH  46  60
ATOM     60  C   UNL     1      13.397  12.293  -5.719  1.00  0.00    -0.014 A 
ATOM     61  C   UNL     1      13.762  11.994  -7.041  1.00  0.00     0.009 A 
ATOM     62  C   UNL     1      14.355  12.157  -4.702  1.00  0.00     0.009 A 
ATOM     63  C   UNL     1      15.047  11.532  -7.333  1.00  0.00     0.001 A 
ATOM     64  C   UNL     1      15.647  11.720  -5.000  1.00  0.00     0.001 A 
ATOM     65  C   UNL     1      15.989  11.399  -6.313  1.00  0.00     0.000 A 
ENDBRANCH  46  60
BRANCH  47  66
ATOM     66  C   UNL     1       4.113  14.975  -3.313  1.00  0.00    -0.014 A 
ATOM     67  C   UNL     1       3.372  15.818  -4.156  1.00  0.00     0.009 A 
ATOM     68  C   UNL     1       3.536  14.536  -2.112  1.00  0.00     0.009 A 
ATOM     69  C   UNL     1       2.089  16.231  -3.792  1.00  0.00     0.001 A 
ATOM     70  C   UNL     1       2.243  14.932  -1.762  1.00  0.00     0.001 A 
ATOM     71  C   UNL     1       1.524  15.785  -2.598  1.00  0.00     0.000 A 
ENDBRANCH  47  66
BRANCH  59  72
ATOM     72  C   UNL     1      10.156  18.399  -3.672  1.00  0.00    -0.014 A 
ATOM     73  C   UNL     1      10.249  18.916  -2.371  1.00  0.00     0.009 A 
ATOM     74  C   UNL     1      10.453  19.233  -4.761  1.00  0.00     0.009 A 
ATOM     75  C   UNL     1      10.606  20.250  -2.167  1.00  0.00     0.001 A 
ATOM     76  C   UNL     1      10.831  20.560  -4.553  1.00  0.00     0.001 A 
ATOM     77  C   UNL     1      10.900  21.070  -3.258  1.00  0.00     0.000 A 
ENDBRANCH  59  72
ENDBRANCH  33  34
ENDBRANCH  25  28
ENDBRANCH  23  24
ENDBRANCH  22  23
ENDBRANCH   1  22
TORSDOF 15
