REMARK SMILES COc1ccc(-c2ccc(CCC(=O)NCCCNC(=O)c3ccc(-c4c5nc(c(-c6ccccc6)c6ccc([nH]6)c(-c6ccccc6)c6nc(c(-c7ccccc7)c7ccc4[nH]7)C=C6)C=C5)cc3)n2-c2ccc(C(C)=O)cc2)cc1
REMARK SMILES IDX 16 1 15 2 13 3 14 4 12 6 11 7 10 8 7 9 8 10 70 11 9 12 6 13
REMARK SMILES IDX 3 14 4 15 81 16 5 17 80 18 2 19 1 20 71 21 72 22 79 23 73 24
REMARK SMILES IDX 78 25 74 26 75 27 76 28 77 29 17 30 18 31 19 32 20 33 21 35
REMARK SMILES IDX 22 36 23 37 69 38 24 39 68 40 25 41 26 42 27 43 62 44 28 45
REMARK SMILES IDX 67 46 61 47 63 48 29 49 66 50 60 51 59 52 30 54 52 55 37 56
REMARK SMILES IDX 51 57 38 58 41 59 50 60 64 61 39 62 40 63 49 65 65 66 42 67
REMARK SMILES IDX 31 68 32 69 36 70 33 71 35 72 34 73 53 74 54 75 58 76 55 77
REMARK SMILES IDX 57 78 56 79 43 80 44 81 48 82 45 83 47 84 46 85
REMARK H PARENT 15 5 19 34 63 53 41 64
REMARK Flexibility Score: inf
ROOT
ATOM      1  C   UNL     1       4.968  -1.502  -7.902  1.00  0.00     0.117 C 
ENDROOT
BRANCH   1   2
ATOM      2  N   UNL     1       4.778  -2.010  -9.252  1.00  0.00    -0.356 N 
ATOM      3  C   UNL     1       3.685  -1.931 -10.064  1.00  0.00     0.220 C 
ATOM      4  O   UNL     1       3.692  -2.580 -11.111  1.00  0.00    -0.275 OA
ATOM      5  H   UNL     1       5.553  -2.479  -9.637  1.00  0.00     0.163 HD
BRANCH   3   6
ATOM      6  C   UNL     1       2.523  -1.023  -9.708  1.00  0.00     0.106 C 
BRANCH   6   7
ATOM      7  C   UNL     1       1.188  -1.772  -9.629  1.00  0.00     0.064 C 
BRANCH   7   8
ATOM      8  C   UNL     1       0.958  -2.402  -8.278  1.00  0.00     0.024 A 
ATOM      9  C   UNL     1       0.863  -2.498  -6.021  1.00  0.00     0.053 A 
ATOM     10  C   UNL     1       1.040  -3.787  -6.508  1.00  0.00     0.029 A 
ATOM     11  N   UNL     1       0.586  -1.696  -7.131  1.00  0.00    -0.314 N 
ATOM     12  C   UNL     1       1.097  -3.728  -7.917  1.00  0.00     0.024 A 
BRANCH   9  13
ATOM     13  C   UNL     1       0.747  -2.103  -4.616  1.00  0.00    -0.001 A 
ATOM     14  C   UNL     1       0.544  -1.439  -1.893  1.00  0.00     0.118 A 
ATOM     15  C   UNL     1      -0.550  -1.972  -2.575  1.00  0.00     0.047 A 
ATOM     16  C   UNL     1       1.753  -1.264  -2.563  1.00  0.00     0.047 A 
ATOM     17  C   UNL     1      -0.454  -2.295  -3.931  1.00  0.00     0.014 A 
ATOM     18  C   UNL     1       1.851  -1.595  -3.920  1.00  0.00     0.014 A 
BRANCH  14  19
ATOM     19  O   UNL     1       0.347  -1.180  -0.565  1.00  0.00    -0.497 OA
ATOM     20  C   UNL     1       1.028  -0.029  -0.074  1.00  0.00     0.278 C 
ENDBRANCH  14  19
ENDBRANCH   9  13
BRANCH  11  21
ATOM     21  C   UNL     1      -0.164  -0.491  -7.117  1.00  0.00     0.046 A 
ATOM     22  C   UNL     1      -1.316  -0.440  -7.911  1.00  0.00     0.027 A 
ATOM     23  C   UNL     1       0.138   0.561  -6.255  1.00  0.00     0.027 A 
ATOM     24  C   UNL     1      -2.183   0.650  -7.827  1.00  0.00     0.014 A 
ATOM     25  C   UNL     1      -0.726   1.660  -6.187  1.00  0.00     0.014 A 
ATOM     26  C   UNL     1      -1.905   1.704  -6.953  1.00  0.00     0.017 A 
BRANCH  26  27
ATOM     27  C   UNL     1      -2.817   2.875  -6.779  1.00  0.00     0.159 C 
ATOM     28  C   UNL     1      -4.201   2.881  -7.384  1.00  0.00     0.093 C 
ATOM     29  O   UNL     1      -2.436   3.837  -6.111  1.00  0.00    -0.295 OA
ENDBRANCH  26  27
ENDBRANCH  11  21
ENDBRANCH   7   8
ENDBRANCH   6   7
ENDBRANCH   3   6
ENDBRANCH   1   2
BRANCH   1  30
ATOM     30  C   UNL     1       4.389  -2.460  -6.869  1.00  0.00     0.042 C 
BRANCH  30  31
ATOM     31  C   UNL     1       5.195  -3.737  -6.710  1.00  0.00     0.118 C 
BRANCH  31  32
ATOM     32  N   UNL     1       5.954  -3.769  -5.473  1.00  0.00    -0.352 N 
ATOM     33  C   UNL     1       6.519  -4.840  -4.834  1.00  0.00     0.251 C 
ATOM     34  H   UNL     1       6.080  -2.898  -5.031  1.00  0.00     0.163 HD
ATOM     35  O   UNL     1       6.972  -4.678  -3.693  1.00  0.00    -0.269 OA
BRANCH  33  36
ATOM     36  C   UNL     1       6.580  -6.184  -5.458  1.00  0.00     0.039 A 
ATOM     37  C   UNL     1       6.593  -7.305  -4.617  1.00  0.00     0.014 A 
ATOM     38  C   UNL     1       6.694  -6.365  -6.842  1.00  0.00     0.014 A 
ATOM     39  C   UNL     1       6.698  -8.584  -5.159  1.00  0.00     0.010 A 
ATOM     40  C   UNL     1       6.728  -7.636  -7.393  1.00  0.00     0.010 A 
ATOM     41  C   UNL     1       6.765  -8.745  -6.549  1.00  0.00    -0.014 A 
BRANCH  41  42
ATOM     42  C   UNL     1       6.943 -10.094  -7.122  1.00  0.00     0.031 A 
ATOM     43  C   UNL     1       5.694 -10.946  -7.089  1.00  0.00     0.074 A 
ATOM     44  C   UNL     1       8.196 -10.408  -7.553  1.00  0.00     0.049 A 
ATOM     45  N   UNL     1       5.582 -12.219  -6.877  1.00  0.00    -0.248 NA
ATOM     46  C   UNL     1       4.377 -10.281  -7.219  1.00  0.00     0.031 C 
ATOM     47  C   UNL     1       9.325  -9.456  -7.549  1.00  0.00     0.029 A 
ATOM     48  N   UNL     1       8.784 -11.545  -8.064  1.00  0.00    -0.354 N 
ATOM     49  C   UNL     1       4.213 -12.537  -6.931  1.00  0.00     0.074 A 
ATOM     50  C   UNL     1       3.514 -11.288  -7.059  1.00  0.00     0.031 C 
ATOM     51  C   UNL     1      10.449 -10.050  -7.984  1.00  0.00     0.029 A 
ATOM     52  C   UNL     1      10.173 -11.439  -8.288  1.00  0.00     0.049 A 
ATOM     53  H   UNL     1       8.275 -12.365  -8.258  1.00  0.00     0.167 HD
ATOM     54  C   UNL     1       3.742 -13.817  -6.969  1.00  0.00     0.031 A 
ATOM     55  C   UNL     1      11.080 -12.402  -8.618  1.00  0.00     0.031 A 
ATOM     56  C   UNL     1       4.812 -14.761  -6.925  1.00  0.00     0.049 A 
ATOM     57  C   UNL     1      10.355 -13.684  -8.696  1.00  0.00     0.074 A 
ATOM     58  C   UNL     1       5.676 -15.193  -5.951  1.00  0.00     0.029 A 
ATOM     59  N   UNL     1       5.282 -15.203  -8.139  1.00  0.00    -0.354 N 
ATOM     60  N   UNL     1       9.546 -14.040  -9.646  1.00  0.00    -0.248 NA
ATOM     61  C   UNL     1      10.456 -14.618  -7.566  1.00  0.00     0.031 C 
ATOM     62  C   UNL     1       6.868 -15.513  -6.651  1.00  0.00     0.029 A 
ATOM     63  C   UNL     1       6.646 -15.326  -8.017  1.00  0.00     0.049 A 
ATOM     64  H   UNL     1       4.745 -15.394  -8.941  1.00  0.00     0.167 HD
ATOM     65  C   UNL     1       8.792 -15.030  -9.055  1.00  0.00     0.074 A 
ATOM     66  C   UNL     1       9.561 -15.528  -7.939  1.00  0.00     0.031 C 
ATOM     67  C   UNL     1       7.442 -15.027  -9.187  1.00  0.00     0.031 A 
BRANCH  54  68
ATOM     68  C   UNL     1       2.365 -14.337  -7.278  1.00  0.00    -0.014 A 
ATOM     69  C   UNL     1       2.084 -15.687  -6.958  1.00  0.00     0.009 A 
ATOM     70  C   UNL     1       1.437 -13.670  -8.085  1.00  0.00     0.009 A 
ATOM     71  C   UNL     1       0.975 -16.358  -7.479  1.00  0.00     0.001 A 
ATOM     72  C   UNL     1       0.302 -14.331  -8.579  1.00  0.00     0.001 A 
ATOM     73  C   UNL     1       0.087 -15.679  -8.300  1.00  0.00     0.000 A 
ENDBRANCH  54  68
BRANCH  55  74
ATOM     74  C   UNL     1      12.579 -12.432  -8.732  1.00  0.00    -0.014 A 
ATOM     75  C   UNL     1      13.399 -11.305  -8.857  1.00  0.00     0.009 A 
ATOM     76  C   UNL     1      13.252 -13.677  -8.709  1.00  0.00     0.009 A 
ATOM     77  C   UNL     1      14.802 -11.409  -8.840  1.00  0.00     0.001 A 
ATOM     78  C   UNL     1      14.645 -13.790  -8.680  1.00  0.00     0.001 A 
ATOM     79  C   UNL     1      15.424 -12.648  -8.726  1.00  0.00     0.000 A 
ENDBRANCH  55  74
BRANCH  67  80
ATOM     80  C   UNL     1       6.935 -14.238 -10.380  1.00  0.00    -0.014 A 
ATOM     81  C   UNL     1       7.232 -14.653 -11.685  1.00  0.00     0.009 A 
ATOM     82  C   UNL     1       6.262 -13.014 -10.226  1.00  0.00     0.009 A 
ATOM     83  C   UNL     1       6.884 -13.864 -12.789  1.00  0.00     0.001 A 
ATOM     84  C   UNL     1       5.904 -12.226 -11.325  1.00  0.00     0.001 A 
ATOM     85  C   UNL     1       6.223 -12.651 -12.609  1.00  0.00     0.000 A 
ENDBRANCH  67  80
ENDBRANCH  41  42
ENDBRANCH  33  36
ENDBRANCH  31  32
ENDBRANCH  30  31
ENDBRANCH   1  30
TORSDOF 16
