REMARK SMILES O=C(C[C@H](C(=O)Nc1ccc([N+](=O)[O-])cc1)[C@H]1CCCO1)NCCCNC(=O)c1ccc(-c2c3nc(c(-c4ccccc4)c4ccc([nH]4)c(-c4ccccc4)c4nc(c(-c5ccccc5)c5ccc2[nH]5)C=C4)C=C3)cc1
REMARK SMILES IDX 23 1 22 2 1 3 2 4 3 6 4 7 5 8 6 9 7 10 8 12 9 13 16 14 10 15
REMARK SMILES IDX 15 16 11 17 12 18 13 19 14 20 17 21 18 22 21 23 19 24 20 25
REMARK SMILES IDX 24 26 25 27 26 28 27 29 28 31 29 32 30 33 76 34 31 35 75 36
REMARK SMILES IDX 32 37 33 38 34 39 69 40 35 41 74 42 68 43 70 44 36 45 73 46
REMARK SMILES IDX 67 47 66 48 37 50 59 51 44 52 58 53 45 54 48 55 57 56 71 57
REMARK SMILES IDX 46 58 47 59 56 61 72 62 49 63 38 64 39 65 43 66 40 67 42 68
REMARK SMILES IDX 41 69 60 70 61 71 65 72 62 73 64 74 63 75 50 76 51 77 55 78
REMARK SMILES IDX 52 79 54 80 53 81
REMARK H PARENT 22 5 7 11 26 30 70 49 48 60
REMARK Flexibility Score: inf
ROOT
ATOM      1  C   UNL     1       6.287  -4.986   0.493  1.00  0.00     0.117 C 
ENDROOT
BRANCH   1   2
ATOM      2  N   UNL     1       6.774  -3.804  -0.194  1.00  0.00    -0.356 N 
ATOM      3  O   UNL     1       6.814  -4.815  -2.256  1.00  0.00    -0.275 OA
ATOM      4  C   UNL     1       6.871  -3.797  -1.572  1.00  0.00     0.220 C 
ATOM      5  H   UNL     1       7.034  -3.006   0.322  1.00  0.00     0.163 HD
BRANCH   4   6
ATOM      6  C   UNL     1       7.079  -2.431  -2.189  1.00  0.00     0.116 C 
BRANCH   6   7
ATOM      7  C   UNL     1       5.845  -1.512  -2.307  1.00  0.00     0.117 C 
BRANCH   7   8
ATOM      8  C   UNL     1       5.711  -0.582  -1.086  1.00  0.00     0.230 C 
ATOM      9  O   UNL     1       6.619   0.247  -0.901  1.00  0.00    -0.274 OA
ATOM     10  N   UNL     1       4.694  -0.505  -0.191  1.00  0.00    -0.326 N 
ATOM     11  H   UNL     1       4.688   0.351   0.294  1.00  0.00     0.169 HD
BRANCH  10  12
ATOM     12  C   UNL     1       3.650  -1.348   0.209  1.00  0.00     0.041 A 
ATOM     13  C   UNL     1       2.623  -0.821   0.999  1.00  0.00     0.033 A 
ATOM     14  C   UNL     1       3.630  -2.704  -0.057  1.00  0.00     0.033 A 
ATOM     15  C   UNL     1       1.565  -1.634   1.439  1.00  0.00     0.088 A 
ATOM     16  C   UNL     1       2.588  -3.534   0.355  1.00  0.00     0.088 A 
ATOM     17  C   UNL     1       1.547  -2.991   1.100  1.00  0.00     0.269 A 
BRANCH  17  18
ATOM     18  N   UNL     1       0.442  -3.856   1.522  1.00  0.00     0.062 N 
ATOM     19  O   UNL     1      -0.543  -3.319   2.046  1.00  0.00    -0.258 OA
ATOM     20  O   UNL     1       0.550  -5.073   1.305  1.00  0.00    -0.258 OA
ENDBRANCH  17  18
ENDBRANCH  10  12
ENDBRANCH   7   8
BRANCH   7  21
ATOM     21  C   UNL     1       4.575  -2.029  -3.016  1.00  0.00     0.131 C 
ATOM     22  C   UNL     1       4.631  -1.991  -4.548  1.00  0.00     0.035 C 
ATOM     23  O   UNL     1       4.284  -3.392  -2.683  1.00  0.00    -0.377 OA
ATOM     24  C   UNL     1       4.755  -3.438  -4.959  1.00  0.00     0.031 C 
ATOM     25  C   UNL     1       4.005  -4.143  -3.863  1.00  0.00     0.160 C 
ENDBRANCH   7  21
ENDBRANCH   6   7
ENDBRANCH   4   6
ENDBRANCH   1   2
BRANCH   1  26
ATOM     26  C   UNL     1       6.646  -5.101   1.966  1.00  0.00     0.042 C 
BRANCH  26  27
ATOM     27  C   UNL     1       6.559  -3.848   2.825  1.00  0.00     0.118 C 
BRANCH  27  28
ATOM     28  N   UNL     1       5.221  -3.335   3.083  1.00  0.00    -0.352 N 
ATOM     29  C   UNL     1       4.644  -2.944   4.275  1.00  0.00     0.251 C 
ATOM     30  H   UNL     1       4.643  -3.255   2.290  1.00  0.00     0.163 HD
ATOM     31  O   UNL     1       3.489  -2.523   4.290  1.00  0.00    -0.269 OA
BRANCH  29  32
ATOM     32  C   UNL     1       5.390  -3.102   5.547  1.00  0.00     0.039 A 
ATOM     33  C   UNL     1       4.760  -3.723   6.628  1.00  0.00     0.014 A 
ATOM     34  C   UNL     1       6.732  -2.733   5.645  1.00  0.00     0.014 A 
ATOM     35  C   UNL     1       5.512  -4.102   7.746  1.00  0.00     0.010 A 
ATOM     36  C   UNL     1       7.500  -3.211   6.703  1.00  0.00     0.010 A 
ATOM     37  C   UNL     1       6.905  -3.922   7.757  1.00  0.00    -0.014 A 
BRANCH  37  38
ATOM     38  C   UNL     1       7.765  -4.501   8.827  1.00  0.00     0.031 A 
ATOM     39  C   UNL     1       8.667  -3.614   9.644  1.00  0.00     0.074 A 
ATOM     40  C   UNL     1       7.821  -5.839   8.995  1.00  0.00     0.049 A 
ATOM     41  N   UNL     1       9.570  -3.946  10.533  1.00  0.00    -0.248 NA
ATOM     42  C   UNL     1       8.568  -2.165   9.403  1.00  0.00     0.031 C 
ATOM     43  C   UNL     1       7.055  -6.829   8.233  1.00  0.00     0.029 A 
ATOM     44  N   UNL     1       8.568  -6.601   9.861  1.00  0.00    -0.354 N 
ATOM     45  C   UNL     1      10.168  -2.755  10.926  1.00  0.00     0.074 A 
ATOM     46  C   UNL     1       9.561  -1.700  10.145  1.00  0.00     0.031 C 
ATOM     47  C   UNL     1       7.343  -8.058   8.689  1.00  0.00     0.029 A 
ATOM     48  C   UNL     1       8.345  -7.952   9.743  1.00  0.00     0.049 A 
ATOM     49  H   UNL     1       9.204  -6.215  10.506  1.00  0.00     0.167 HD
ATOM     50  C   UNL     1      11.120  -2.550  11.867  1.00  0.00     0.031 A 
ATOM     51  C   UNL     1       8.887  -8.993  10.403  1.00  0.00     0.031 A 
ATOM     52  C   UNL     1      11.701  -3.588  12.675  1.00  0.00     0.049 A 
ATOM     53  C   UNL     1       9.920  -8.739  11.465  1.00  0.00     0.074 A 
ATOM     54  C   UNL     1      12.617  -3.467  13.706  1.00  0.00     0.029 A 
ATOM     55  N   UNL     1      11.416  -4.938  12.548  1.00  0.00    -0.354 N 
ATOM     56  N   UNL     1      10.424  -7.598  11.869  1.00  0.00    -0.248 NA
ATOM     57  C   UNL     1      10.451  -9.916  12.168  1.00  0.00     0.031 C 
ATOM     58  C   UNL     1      12.914  -4.749  14.180  1.00  0.00     0.029 A 
ATOM     59  C   UNL     1      12.148  -5.663  13.473  1.00  0.00     0.049 A 
ATOM     60  H   UNL     1      10.787  -5.324  11.897  1.00  0.00     0.167 HD
ATOM     61  C   UNL     1      11.309  -7.918  12.890  1.00  0.00     0.074 A 
ATOM     62  C   UNL     1      11.263  -9.356  13.053  1.00  0.00     0.031 C 
ATOM     63  C   UNL     1      12.090  -7.092  13.627  1.00  0.00     0.031 A 
BRANCH  50  64
ATOM     64  C   UNL     1      11.588  -1.137  12.076  1.00  0.00    -0.014 A 
ATOM     65  C   UNL     1      10.754  -0.176  12.671  1.00  0.00     0.009 A 
ATOM     66  C   UNL     1      12.886  -0.766  11.693  1.00  0.00     0.009 A 
ATOM     67  C   UNL     1      11.196   1.137  12.839  1.00  0.00     0.001 A 
ATOM     68  C   UNL     1      13.336   0.541  11.889  1.00  0.00     0.001 A 
ATOM     69  C   UNL     1      12.487   1.494  12.451  1.00  0.00     0.000 A 
ENDBRANCH  50  64
BRANCH  51  70
ATOM     70  C   UNL     1       8.445 -10.380  10.104  1.00  0.00    -0.014 A 
ATOM     71  C   UNL     1       7.644 -11.080  11.020  1.00  0.00     0.009 A 
ATOM     72  C   UNL     1       8.826 -11.015   8.912  1.00  0.00     0.009 A 
ATOM     73  C   UNL     1       7.256 -12.397  10.761  1.00  0.00     0.001 A 
ATOM     74  C   UNL     1       8.414 -12.323   8.644  1.00  0.00     0.001 A 
ATOM     75  C   UNL     1       7.638 -13.016   9.572  1.00  0.00     0.000 A 
ENDBRANCH  51  70
BRANCH  63  76
ATOM     76  C   UNL     1      12.930  -7.719  14.703  1.00  0.00    -0.014 A 
ATOM     77  C   UNL     1      14.080  -8.459  14.390  1.00  0.00     0.009 A 
ATOM     78  C   UNL     1      12.585  -7.531  16.050  1.00  0.00     0.009 A 
ATOM     79  C   UNL     1      14.853  -9.023  15.406  1.00  0.00     0.001 A 
ATOM     80  C   UNL     1      13.373  -8.075  17.065  1.00  0.00     0.001 A 
ATOM     81  C   UNL     1      14.502  -8.827  16.742  1.00  0.00     0.000 A 
ENDBRANCH  63  76
ENDBRANCH  37  38
ENDBRANCH  29  32
ENDBRANCH  27  28
ENDBRANCH  26  27
ENDBRANCH   1  26
TORSDOF 15
