REMARK SMILES COC[C@H](C)CC(=O)N[C@@H](C(=O)NCCCNC(=O)c1ccc(-c2c3nc(c(-c4ccccc4)c4ccc([nH]4)c(-c4ccccc4)c4nc(c(-c5ccccc5)c5ccc2[nH]5)C=C4)C=C3)cc1)C(C)C
REMARK SMILES IDX 11 1 12 2 13 3 10 5 9 6 7 7 8 8 6 10 4 11 5 12 3 13 2 14
REMARK SMILES IDX 1 15 68 16 69 17 70 18 14 19 15 20 16 21 17 22 18 23 19 25
REMARK SMILES IDX 20 26 21 27 67 28 22 29 66 30 23 31 24 32 25 33 60 34 26 35
REMARK SMILES IDX 65 36 59 37 61 38 27 39 64 40 58 41 57 42 28 44 50 45 35 46
REMARK SMILES IDX 49 47 36 48 39 49 48 50 62 51 37 52 38 53 47 55 63 56 40 57
REMARK SMILES IDX 29 58 30 59 34 60 31 61 33 62 32 63 51 64 52 65 56 66 53 67
REMARK SMILES IDX 55 68 54 69 41 70 42 71 46 72 43 73 45 74 44 75
REMARK H PARENT 13 4 9 9 17 24 61 43 39 54
REMARK Flexibility Score: inf
ROOT
ATOM      1  C   UNL     1       0.780   4.757   1.284  1.00  0.00     0.242 C 
ATOM      2  O   UNL     1       1.108   5.709   0.568  1.00  0.00    -0.273 OA
ATOM      3  N   UNL     1      -0.470   4.254   1.042  1.00  0.00    -0.354 N 
ATOM      4  H   UNL     1      -1.025   4.816   0.453  1.00  0.00     0.163 HD
ENDROOT
BRANCH   1   5
ATOM      5  C   UNL     1       1.795   4.085   2.272  1.00  0.00     0.173 C 
BRANCH   5   6
ATOM      6  N   UNL     1       1.145   3.729   3.529  1.00  0.00    -0.344 N 
ATOM      7  C   UNL     1       0.960   2.494   4.079  1.00  0.00     0.221 C 
ATOM      8  O   UNL     1       0.157   2.397   5.010  1.00  0.00    -0.275 OA
ATOM      9  H   UNL     1       0.792   4.485   4.052  1.00  0.00     0.164 HD
BRANCH   7  10
ATOM     10  C   UNL     1       1.708   1.265   3.561  1.00  0.00     0.105 C 
BRANCH  10  11
ATOM     11  C   UNL     1       1.047   0.460   2.402  1.00  0.00     0.021 C 
ATOM     12  C   UNL     1       1.482   0.958   1.018  1.00  0.00     0.010 C 
BRANCH  11  13
ATOM     13  C   UNL     1       1.320  -1.063   2.561  1.00  0.00     0.163 C 
BRANCH  13  14
ATOM     14  O   UNL     1       2.064  -1.627   1.480  1.00  0.00    -0.384 OA
ATOM     15  C   UNL     1       1.264  -2.073   0.388  1.00  0.00     0.194 C 
ENDBRANCH  13  14
ENDBRANCH  11  13
ENDBRANCH  10  11
ENDBRANCH   7  10
ENDBRANCH   5   6
BRANCH   5  16
ATOM     16  C   UNL     1       3.082   4.936   2.444  1.00  0.00     0.015 C 
ATOM     17  C   UNL     1       3.868   4.599   3.714  1.00  0.00     0.010 C 
ATOM     18  C   UNL     1       4.008   4.710   1.232  1.00  0.00     0.010 C 
ENDBRANCH   5  16
ENDBRANCH   1   5
BRANCH   3  19
ATOM     19  C   UNL     1      -1.125   3.042   1.497  1.00  0.00     0.117 C 
BRANCH  19  20
ATOM     20  C   UNL     1      -2.590   3.223   1.837  1.00  0.00     0.042 C 
BRANCH  20  21
ATOM     21  C   UNL     1      -3.476   3.218   0.605  1.00  0.00     0.118 C 
BRANCH  21  22
ATOM     22  N   UNL     1      -3.610   1.896  -0.004  1.00  0.00    -0.352 N 
ATOM     23  C   UNL     1      -4.712   1.079  -0.151  1.00  0.00     0.251 C 
ATOM     24  H   UNL     1      -2.775   1.527  -0.371  1.00  0.00     0.163 HD
ATOM     25  O   UNL     1      -4.574  -0.059  -0.571  1.00  0.00    -0.269 OA
BRANCH  23  26
ATOM     26  C   UNL     1      -6.054   1.568   0.241  1.00  0.00     0.039 A 
ATOM     27  C   UNL     1      -6.923   0.710   0.920  1.00  0.00     0.014 A 
ATOM     28  C   UNL     1      -6.444   2.879  -0.029  1.00  0.00     0.014 A 
ATOM     29  C   UNL     1      -8.129   1.204   1.424  1.00  0.00     0.010 A 
ATOM     30  C   UNL     1      -7.575   3.401   0.584  1.00  0.00     0.010 A 
ATOM     31  C   UNL     1      -8.435   2.571   1.316  1.00  0.00    -0.014 A 
BRANCH  31  32
ATOM     32  C   UNL     1      -9.643   3.159   1.951  1.00  0.00     0.031 A 
ATOM     33  C   UNL     1     -10.659   3.888   1.109  1.00  0.00     0.074 A 
ATOM     34  C   UNL     1      -9.787   3.115   3.292  1.00  0.00     0.049 A 
ATOM     35  N   UNL     1     -11.720   4.556   1.488  1.00  0.00    -0.248 NA
ATOM     36  C   UNL     1     -10.433   3.902  -0.347  1.00  0.00     0.031 C 
ATOM     37  C   UNL     1      -8.849   2.495   4.232  1.00  0.00     0.029 A 
ATOM     38  N   UNL     1     -10.780   3.612   4.099  1.00  0.00    -0.354 N 
ATOM     39  C   UNL     1     -12.265   5.087   0.325  1.00  0.00     0.074 A 
ATOM     40  C   UNL     1     -11.388   4.719  -0.763  1.00  0.00     0.031 C 
ATOM     41  C   UNL     1      -9.332   2.612   5.479  1.00  0.00     0.029 A 
ATOM     42  C   UNL     1     -10.586   3.355   5.436  1.00  0.00     0.049 A 
ATOM     43  H   UNL     1     -11.559   4.105   3.754  1.00  0.00     0.167 HD
ATOM     44  C   UNL     1     -13.410   5.791   0.168  1.00  0.00     0.031 A 
ATOM     45  C   UNL     1     -11.332   3.684   6.507  1.00  0.00     0.031 A 
ATOM     46  C   UNL     1     -14.304   6.128   1.241  1.00  0.00     0.049 A 
ATOM     47  C   UNL     1     -12.605   4.457   6.303  1.00  0.00     0.074 A 
ATOM     48  C   UNL     1     -15.520   6.786   1.176  1.00  0.00     0.029 A 
ATOM     49  N   UNL     1     -14.083   5.822   2.574  1.00  0.00    -0.354 N 
ATOM     50  N   UNL     1     -13.138   4.894   5.187  1.00  0.00    -0.248 NA
ATOM     51  C   UNL     1     -13.386   4.773   7.507  1.00  0.00     0.031 C 
ATOM     52  C   UNL     1     -16.017   6.913   2.477  1.00  0.00     0.029 A 
ATOM     53  C   UNL     1     -15.134   6.289   3.344  1.00  0.00     0.049 A 
ATOM     54  H   UNL     1     -13.296   5.343   2.922  1.00  0.00     0.167 HD
ATOM     55  C   UNL     1     -14.329   5.508   5.552  1.00  0.00     0.074 A 
ATOM     56  C   UNL     1     -14.450   5.369   6.989  1.00  0.00     0.031 C 
ATOM     57  C   UNL     1     -15.241   6.133   4.770  1.00  0.00     0.031 A 
BRANCH  44  58
ATOM     58  C   UNL     1     -13.769   6.229  -1.225  1.00  0.00    -0.014 A 
ATOM     59  C   UNL     1     -14.177   5.298  -2.194  1.00  0.00     0.009 A 
ATOM     60  C   UNL     1     -13.740   7.591  -1.562  1.00  0.00     0.009 A 
ATOM     61  C   UNL     1     -14.516   5.718  -3.481  1.00  0.00     0.001 A 
ATOM     62  C   UNL     1     -14.108   8.011  -2.841  1.00  0.00     0.001 A 
ATOM     63  C   UNL     1     -14.488   7.075  -3.802  1.00  0.00     0.000 A 
ENDBRANCH  44  58
BRANCH  45  64
ATOM     64  C   UNL     1     -10.914   3.273   7.874  1.00  0.00    -0.014 A 
ATOM     65  C   UNL     1     -11.645   2.304   8.579  1.00  0.00     0.009 A 
ATOM     66  C   UNL     1      -9.804   3.867   8.494  1.00  0.00     0.009 A 
ATOM     67  C   UNL     1     -11.298   1.968   9.890  1.00  0.00     0.001 A 
ATOM     68  C   UNL     1      -9.440   3.506   9.793  1.00  0.00     0.001 A 
ATOM     69  C   UNL     1     -10.195   2.567  10.495  1.00  0.00     0.000 A 
ENDBRANCH  45  64
BRANCH  57  70
ATOM     70  C   UNL     1     -16.467   6.676   5.446  1.00  0.00    -0.014 A 
ATOM     71  C   UNL     1     -16.405   7.817   6.261  1.00  0.00     0.009 A 
ATOM     72  C   UNL     1     -17.707   6.055   5.234  1.00  0.00     0.009 A 
ATOM     73  C   UNL     1     -17.558   8.303   6.879  1.00  0.00     0.001 A 
ATOM     74  C   UNL     1     -18.863   6.561   5.829  1.00  0.00     0.001 A 
ATOM     75  C   UNL     1     -18.786   7.678   6.659  1.00  0.00     0.000 A 
ENDBRANCH  57  70
ENDBRANCH  31  32
ENDBRANCH  23  26
ENDBRANCH  21  22
ENDBRANCH  20  21
ENDBRANCH  19  20
ENDBRANCH   3  19
TORSDOF 16
