REMARK SMILES O=C(NCCCNC(=O)c1ccc(C[N@H+]2CC[N@H+]3CCCC[C@@H]3C2)c(F)c1)c1ccc(-c2c3nc(c(-c4ccccc4)c4ccc([nH]4)c(-c4ccccc4)c4nc(c(-c5ccccc5)c5ccc2[nH]5)C=C4)C=C3)cc1
REMARK SMILES IDX 5 1 4 2 3 3 1 4 2 5 28 7 29 8 75 9 30 10 74 11 31 12 32 13
REMARK SMILES IDX 33 14 68 15 34 16 73 17 67 18 69 19 35 20 72 21 66 22 65 23
REMARK SMILES IDX 36 25 58 26 43 27 57 28 44 29 47 30 56 31 70 32 45 33 46 34
REMARK SMILES IDX 55 36 71 37 48 38 37 39 38 40 42 41 39 42 41 43 40 44 59 45
REMARK SMILES IDX 60 46 64 47 61 48 63 49 62 50 49 51 50 52 54 53 51 54 53 55
REMARK SMILES IDX 52 56 6 57 7 58 8 59 9 61 10 62 11 63 27 64 12 65 25 66
REMARK SMILES IDX 13 67 26 68 14 69 15 70 16 71 24 72 17 74 23 75 18 76 22 77
REMARK SMILES IDX 19 78 21 80 20 81
REMARK H PARENT 3 6 69 24 47 35 7 60 15 73 18 79
REMARK Flexibility Score: inf
ROOT
ATOM      1  C   UNL     1       4.975   1.034   2.303  1.00  0.00     0.042 C 
ENDROOT
BRANCH   1   2
ATOM      2  C   UNL     1       4.493  -0.223   1.592  1.00  0.00     0.118 C 
BRANCH   2   3
ATOM      3  N   UNL     1       3.067  -0.193   1.286  1.00  0.00    -0.352 N 
ATOM      4  O   UNL     1       1.169   0.021   0.110  1.00  0.00    -0.269 OA
ATOM      5  C   UNL     1       2.386  -0.158   0.093  1.00  0.00     0.251 C 
ATOM      6  H   UNL     1       2.486  -0.200   2.081  1.00  0.00     0.163 HD
BRANCH   5   7
ATOM      7  C   UNL     1       3.079  -0.310  -1.208  1.00  0.00     0.039 A 
ATOM      8  C   UNL     1       4.161  -1.175  -1.363  1.00  0.00     0.014 A 
ATOM      9  C   UNL     1       2.592   0.384  -2.324  1.00  0.00     0.014 A 
ATOM     10  C   UNL     1       4.856  -1.216  -2.567  1.00  0.00     0.010 A 
ATOM     11  C   UNL     1       3.223   0.255  -3.567  1.00  0.00     0.010 A 
ATOM     12  C   UNL     1       4.382  -0.523  -3.692  1.00  0.00    -0.014 A 
BRANCH  12  13
ATOM     13  C   UNL     1       5.074  -0.699  -4.995  1.00  0.00     0.031 A 
ATOM     14  C   UNL     1       5.740   0.455  -5.691  1.00  0.00     0.074 A 
ATOM     15  C   UNL     1       5.133  -1.934  -5.533  1.00  0.00     0.049 A 
ATOM     16  N   UNL     1       6.418   0.458  -6.813  1.00  0.00    -0.248 NA
ATOM     17  C   UNL     1       5.629   1.777  -5.056  1.00  0.00     0.031 C 
ATOM     18  C   UNL     1       4.526  -3.136  -4.953  1.00  0.00     0.029 A 
ATOM     19  N   UNL     1       5.751  -2.392  -6.668  1.00  0.00    -0.354 N 
ATOM     20  C   UNL     1       6.802   1.776  -7.024  1.00  0.00     0.074 A 
ATOM     21  C   UNL     1       6.256   2.552  -5.930  1.00  0.00     0.031 C 
ATOM     22  C   UNL     1       4.853  -4.199  -5.701  1.00  0.00     0.029 A 
ATOM     23  C   UNL     1       5.624  -3.748  -6.852  1.00  0.00     0.049 A 
ATOM     24  H   UNL     1       6.238  -1.806  -7.292  1.00  0.00     0.167 HD
ATOM     25  C   UNL     1       7.546   2.292  -8.033  1.00  0.00     0.031 A 
ATOM     26  C   UNL     1       6.061  -4.543  -7.845  1.00  0.00     0.031 A 
ATOM     27  C   UNL     1       8.079   1.518  -9.125  1.00  0.00     0.049 A 
ATOM     28  C   UNL     1       6.832  -3.935  -8.979  1.00  0.00     0.074 A 
ATOM     29  C   UNL     1       8.861   1.947 -10.184  1.00  0.00     0.029 A 
ATOM     30  N   UNL     1       7.877   0.158  -9.305  1.00  0.00    -0.354 N 
ATOM     31  N   UNL     1       7.211  -2.692  -9.145  1.00  0.00    -0.248 NA
ATOM     32  C   UNL     1       7.234  -4.841 -10.062  1.00  0.00     0.031 C 
ATOM     33  C   UNL     1       9.083   0.859 -11.035  1.00  0.00     0.029 A 
ATOM     34  C   UNL     1       8.495  -0.262 -10.472  1.00  0.00     0.049 A 
ATOM     35  H   UNL     1       7.370  -0.423  -8.693  1.00  0.00     0.167 HD
ATOM     36  C   UNL     1       7.913  -2.668 -10.341  1.00  0.00     0.074 A 
ATOM     37  C   UNL     1       7.926  -4.027 -10.846  1.00  0.00     0.031 C 
ATOM     38  C   UNL     1       8.493  -1.615 -10.966  1.00  0.00     0.031 A 
BRANCH  25  39
ATOM     39  C   UNL     1       7.805   3.775  -8.021  1.00  0.00    -0.014 A 
ATOM     40  C   UNL     1       8.667   4.360  -7.080  1.00  0.00     0.009 A 
ATOM     41  C   UNL     1       7.215   4.593  -8.998  1.00  0.00     0.009 A 
ATOM     42  C   UNL     1       8.905   5.737  -7.098  1.00  0.00     0.001 A 
ATOM     43  C   UNL     1       7.478   5.964  -9.031  1.00  0.00     0.001 A 
ATOM     44  C   UNL     1       8.315   6.536  -8.076  1.00  0.00     0.000 A 
ENDBRANCH  25  39
BRANCH  26  45
ATOM     45  C   UNL     1       5.757  -5.998  -7.817  1.00  0.00    -0.014 A 
ATOM     46  C   UNL     1       6.779  -6.941  -7.633  1.00  0.00     0.009 A 
ATOM     47  C   UNL     1       4.436  -6.450  -7.965  1.00  0.00     0.009 A 
ATOM     48  C   UNL     1       6.487  -8.306  -7.620  1.00  0.00     0.001 A 
ATOM     49  C   UNL     1       4.142  -7.814  -7.917  1.00  0.00     0.001 A 
ATOM     50  C   UNL     1       5.169  -8.741  -7.755  1.00  0.00     0.000 A 
ENDBRANCH  26  45
BRANCH  38  51
ATOM     51  C   UNL     1       9.220  -1.900 -12.251  1.00  0.00    -0.014 A 
ATOM     52  C   UNL     1       8.524  -2.220 -13.428  1.00  0.00     0.009 A 
ATOM     53  C   UNL     1      10.620  -1.819 -12.289  1.00  0.00     0.009 A 
ATOM     54  C   UNL     1       9.221  -2.488 -14.608  1.00  0.00     0.001 A 
ATOM     55  C   UNL     1      11.312  -2.057 -13.477  1.00  0.00     0.001 A 
ATOM     56  C   UNL     1      10.613  -2.401 -14.632  1.00  0.00     0.000 A 
ENDBRANCH  38  51
ENDBRANCH  12  13
ENDBRANCH   5   7
ENDBRANCH   2   3
ENDBRANCH   1   2
BRANCH   1  57
ATOM     57  C   UNL     1       4.406   1.226   3.706  1.00  0.00     0.118 C 
BRANCH  57  58
ATOM     58  N   UNL     1       5.020   0.321   4.665  1.00  0.00    -0.352 N 
ATOM     59  C   UNL     1       5.909   0.605   5.670  1.00  0.00     0.251 C 
ATOM     60  H   UNL     1       4.762  -0.625   4.582  1.00  0.00     0.163 HD
ATOM     61  O   UNL     1       6.490  -0.304   6.265  1.00  0.00    -0.269 OA
BRANCH  59  62
ATOM     62  C   UNL     1       6.191   2.005   6.035  1.00  0.00     0.042 A 
ATOM     63  C   UNL     1       5.177   2.824   6.543  1.00  0.00     0.014 A 
ATOM     64  C   UNL     1       7.487   2.494   5.892  1.00  0.00     0.053 A 
ATOM     65  C   UNL     1       5.448   4.166   6.826  1.00  0.00     0.013 A 
ATOM     66  C   UNL     1       7.735   3.839   6.150  1.00  0.00     0.132 A 
ATOM     67  C   UNL     1       6.718   4.708   6.561  1.00  0.00     0.042 A 
ATOM     68  F   UNL     1       8.974   4.311   5.947  1.00  0.00    -0.206 F 
BRANCH  67  69
ATOM     69  C   UNL     1       6.973   6.194   6.677  1.00  0.00     0.302 C 
BRANCH  69  70
ATOM     70  N   UNL     1       6.704   7.045   5.506  1.00  0.00    -0.322 N 
ATOM     71  C   UNL     1       7.590   6.861   4.348  1.00  0.00     0.324 C 
ATOM     72  C   UNL     1       5.304   7.139   5.074  1.00  0.00     0.328 C 
ATOM     73  H   UNL     1       6.941   7.949   5.914  1.00  0.00     0.348 HD
ATOM     74  C   UNL     1       7.130   5.832   3.283  1.00  0.00     0.324 C 
ATOM     75  C   UNL     1       4.860   6.010   4.114  1.00  0.00     0.239 C 
ATOM     76  N   UNL     1       5.700   5.922   2.901  1.00  0.00    -0.323 N 
ATOM     77  C   UNL     1       3.380   6.153   3.743  1.00  0.00     0.071 C 
ATOM     78  C   UNL     1       5.323   4.747   2.099  1.00  0.00     0.262 C 
ATOM     79  H   UNL     1       5.554   6.762   2.341  1.00  0.00     0.348 HD
ATOM     80  C   UNL     1       2.937   4.920   2.962  1.00  0.00     0.012 C 
ATOM     81  C   UNL     1       3.832   4.725   1.742  1.00  0.00     0.062 C 
ENDBRANCH  69  70
ENDBRANCH  67  69
ENDBRANCH  59  62
ENDBRANCH  57  58
ENDBRANCH   1  57
TORSDOF 12
