REMARK SMILES Cc1c(CC(=O)NCCCNC(=O)c2ccc(-c3c4nc(c(-c5ccccc5)c5ccc([nH]5)c(-c5ccccc5)c5nc(c(-c6ccccc6)c6ccc3[nH]6)C=C5)C=C4)cc2)cccc1-c1ccn(C(F)F)c(=O)c1
REMARK SMILES IDX 8 1 7 2 5 3 6 4 4 6 3 7 1 8 2 9 65 10 62 11 64 12 63 13
REMARK SMILES IDX 66 14 67 15 75 16 68 17 73 18 69 19 74 20 70 21 71 22 72 23
REMARK SMILES IDX 9 24 10 25 11 26 12 27 13 29 14 30 15 31 61 32 16 33 60 34
REMARK SMILES IDX 17 35 18 36 19 37 54 38 20 39 59 40 53 41 55 42 21 43 58 44
REMARK SMILES IDX 52 45 51 46 22 48 44 49 29 50 43 51 30 52 33 53 42 54 56 55
REMARK SMILES IDX 31 56 32 57 41 59 57 60 34 61 23 62 24 63 28 64 25 65 27 66
REMARK SMILES IDX 26 67 45 68 46 69 50 70 47 71 49 72 48 73 35 74 36 75 40 76
REMARK SMILES IDX 37 77 39 78 38 79
REMARK H PARENT 7 5 11 28 55 47 33 58
REMARK Flexibility Score: inf
ROOT
ATOM      1  C   UNL     1       2.035  -1.886   2.704  1.00  0.00     0.117 C 
ENDROOT
BRANCH   1   2
ATOM      2  N   UNL     1       1.102  -2.946   2.354  1.00  0.00    -0.356 N 
ATOM      3  C   UNL     1       0.600  -3.295   1.130  1.00  0.00     0.224 C 
ATOM      4  O   UNL     1      -0.182  -4.247   1.071  1.00  0.00    -0.275 OA
ATOM      5  H   UNL     1       0.786  -3.493   3.109  1.00  0.00     0.163 HD
BRANCH   3   6
ATOM      6  C   UNL     1       1.001  -2.532  -0.132  1.00  0.00     0.135 C 
BRANCH   6   7
ATOM      7  C   UNL     1       0.338  -1.171  -0.254  1.00  0.00    -0.035 A 
ATOM      8  C   UNL     1       2.562   0.045  -0.527  1.00  0.00     0.045 C 
ATOM      9  C   UNL     1       1.061   0.048  -0.345  1.00  0.00    -0.040 A 
ATOM     10  C   UNL     1       0.346   1.275  -0.293  1.00  0.00    -0.015 A 
ATOM     11  C   UNL     1      -1.071  -1.134  -0.209  1.00  0.00     0.004 A 
ATOM     12  C   UNL     1      -1.057   1.270  -0.225  1.00  0.00     0.009 A 
ATOM     13  C   UNL     1      -1.762   0.072  -0.199  1.00  0.00     0.001 A 
BRANCH  10  14
ATOM     14  C   UNL     1       1.036   2.583  -0.216  1.00  0.00    -0.011 A 
ATOM     15  C   UNL     1       1.800   3.150  -1.310  1.00  0.00     0.027 A 
ATOM     16  C   UNL     1       1.010   3.227   0.965  1.00  0.00     0.080 A 
ATOM     17  C   UNL     1       2.541   4.249  -1.120  1.00  0.00     0.095 A 
ATOM     18  C   UNL     1       1.783   4.481   1.173  1.00  0.00     0.255 A 
ATOM     19  N   UNL     1       2.558   4.895   0.103  1.00  0.00    -0.258 N 
ATOM     20  O   UNL     1       1.709   5.038   2.264  1.00  0.00    -0.269 OA
BRANCH  19  21
ATOM     21  C   UNL     1       3.390   6.052   0.311  1.00  0.00     0.451 C 
ATOM     22  F   UNL     1       2.644   7.150   0.580  1.00  0.00    -0.185 F 
ATOM     23  F   UNL     1       4.242   5.857   1.347  1.00  0.00    -0.185 F 
ENDBRANCH  19  21
ENDBRANCH  10  14
ENDBRANCH   6   7
ENDBRANCH   3   6
ENDBRANCH   1   2
BRANCH   1  24
ATOM     24  C   UNL     1       1.348  -0.539   2.918  1.00  0.00     0.042 C 
BRANCH  24  25
ATOM     25  C   UNL     1       0.856  -0.312   4.337  1.00  0.00     0.118 C 
BRANCH  25  26
ATOM     26  N   UNL     1       1.742   0.502   5.159  1.00  0.00    -0.352 N 
ATOM     27  C   UNL     1       1.658   0.793   6.514  1.00  0.00     0.251 C 
ATOM     28  H   UNL     1       2.508   0.902   4.688  1.00  0.00     0.163 HD
ATOM     29  O   UNL     1       2.486   1.505   7.045  1.00  0.00    -0.269 OA
BRANCH  27  30
ATOM     30  C   UNL     1       0.627   0.105   7.333  1.00  0.00     0.039 A 
ATOM     31  C   UNL     1       1.050  -0.509   8.517  1.00  0.00     0.014 A 
ATOM     32  C   UNL     1      -0.652  -0.130   6.838  1.00  0.00     0.014 A 
ATOM     33  C   UNL     1       0.299  -1.556   9.042  1.00  0.00     0.010 A 
ATOM     34  C   UNL     1      -1.345  -1.234   7.292  1.00  0.00     0.010 A 
ATOM     35  C   UNL     1      -0.826  -1.994   8.342  1.00  0.00    -0.014 A 
BRANCH  35  36
ATOM     36  C   UNL     1      -1.420  -3.308   8.549  1.00  0.00     0.031 A 
ATOM     37  C   UNL     1      -2.727  -3.442   9.232  1.00  0.00     0.074 A 
ATOM     38  C   UNL     1      -0.792  -4.412   8.078  1.00  0.00     0.049 A 
ATOM     39  N   UNL     1      -3.103  -4.498   9.873  1.00  0.00    -0.248 NA
ATOM     40  C   UNL     1      -3.708  -2.361   9.283  1.00  0.00     0.031 C 
ATOM     41  C   UNL     1      -1.344  -5.764   7.992  1.00  0.00     0.029 A 
ATOM     42  N   UNL     1       0.530  -4.606   7.690  1.00  0.00    -0.354 N 
ATOM     43  C   UNL     1      -4.444  -4.361  10.144  1.00  0.00     0.074 A 
ATOM     44  C   UNL     1      -4.752  -2.982   9.840  1.00  0.00     0.031 C 
ATOM     45  C   UNL     1      -0.328  -6.640   7.916  1.00  0.00     0.029 A 
ATOM     46  C   UNL     1       0.896  -5.886   8.116  1.00  0.00     0.049 A 
ATOM     47  H   UNL     1       1.099  -3.964   7.207  1.00  0.00     0.167 HD
ATOM     48  C   UNL     1      -5.188  -5.461  10.452  1.00  0.00     0.031 A 
ATOM     49  C   UNL     1       1.823  -6.158   9.084  1.00  0.00     0.031 A 
ATOM     50  C   UNL     1      -4.375  -6.673  10.520  1.00  0.00     0.049 A 
ATOM     51  C   UNL     1       1.268  -6.978  10.241  1.00  0.00     0.074 A 
ATOM     52  C   UNL     1      -4.158  -7.713   9.630  1.00  0.00     0.029 A 
ATOM     53  N   UNL     1      -3.405  -6.791  11.507  1.00  0.00    -0.354 N 
ATOM     54  N   UNL     1      -0.006  -7.125  10.479  1.00  0.00    -0.248 NA
ATOM     55  C   UNL     1       2.094  -7.644  11.249  1.00  0.00     0.031 C 
ATOM     56  C   UNL     1      -3.005  -8.422  10.056  1.00  0.00     0.029 A 
ATOM     57  C   UNL     1      -2.541  -7.829  11.216  1.00  0.00     0.049 A 
ATOM     58  H   UNL     1      -3.342  -6.215  12.303  1.00  0.00     0.167 HD
ATOM     59  C   UNL     1      -0.186  -7.862  11.620  1.00  0.00     0.074 A 
ATOM     60  C   UNL     1       1.160  -8.177  12.059  1.00  0.00     0.031 C 
ATOM     61  C   UNL     1      -1.432  -8.132  12.110  1.00  0.00     0.031 A 
BRANCH  48  62
ATOM     62  C   UNL     1      -6.697  -5.476  10.388  1.00  0.00    -0.014 A 
ATOM     63  C   UNL     1      -7.369  -6.665  10.045  1.00  0.00     0.009 A 
ATOM     64  C   UNL     1      -7.510  -4.350  10.597  1.00  0.00     0.009 A 
ATOM     65  C   UNL     1      -8.751  -6.700   9.815  1.00  0.00     0.001 A 
ATOM     66  C   UNL     1      -8.886  -4.365  10.327  1.00  0.00     0.001 A 
ATOM     67  C   UNL     1      -9.505  -5.539   9.922  1.00  0.00     0.000 A 
ENDBRANCH  48  62
BRANCH  49  68
ATOM     68  C   UNL     1       2.895  -5.139   9.229  1.00  0.00    -0.014 A 
ATOM     69  C   UNL     1       3.836  -5.004   8.191  1.00  0.00     0.009 A 
ATOM     70  C   UNL     1       2.788  -4.111  10.176  1.00  0.00     0.009 A 
ATOM     71  C   UNL     1       4.562  -3.820   8.034  1.00  0.00     0.001 A 
ATOM     72  C   UNL     1       3.523  -2.929  10.019  1.00  0.00     0.001 A 
ATOM     73  C   UNL     1       4.380  -2.770   8.931  1.00  0.00     0.000 A 
ENDBRANCH  49  68
BRANCH  61  74
ATOM     74  C   UNL     1      -1.752  -8.755  13.447  1.00  0.00    -0.014 A 
ATOM     75  C   UNL     1      -0.903  -8.720  14.560  1.00  0.00     0.009 A 
ATOM     76  C   UNL     1      -3.044  -9.292  13.653  1.00  0.00     0.009 A 
ATOM     77  C   UNL     1      -1.310  -9.230  15.802  1.00  0.00     0.001 A 
ATOM     78  C   UNL     1      -3.469  -9.761  14.898  1.00  0.00     0.001 A 
ATOM     79  C   UNL     1      -2.595  -9.739  15.973  1.00  0.00     0.000 A 
ENDBRANCH  61  74
ENDBRANCH  35  36
ENDBRANCH  27  30
ENDBRANCH  25  26
ENDBRANCH  24  25
ENDBRANCH   1  24
TORSDOF 13
