REMARK SMILES CS(=O)(=O)c1ccc(/C=C(/C(=O)NCCCNC(=O)c2ccc(-c3c4nc(c(-c5ccccc5)c5ccc([nH]5)c(-c5ccccc5)c5nc(c(-c6ccccc6)c6ccc3[nH]6)C=C5)C=C4)cc2)c2ccc(F)cc2)cc1
REMARK SMILES IDX 15 1 14 2 13 3 11 4 12 5 10 7 9 8 8 9 5 10 6 11 76 12 7 13
REMARK SMILES IDX 75 14 2 15 1 16 3 17 4 18 68 19 69 20 74 21 70 22 73 23
REMARK SMILES IDX 71 24 72 25 16 26 17 27 18 28 19 30 20 31 21 32 67 33 22 34
REMARK SMILES IDX 66 35 23 36 24 37 25 38 60 39 26 40 65 41 59 42 61 43 27 44
REMARK SMILES IDX 64 45 58 46 57 47 28 49 50 50 35 51 49 52 36 53 39 54 48 55
REMARK SMILES IDX 62 56 37 57 38 58 47 60 63 61 40 62 29 63 30 64 34 65 31 66
REMARK SMILES IDX 33 67 32 68 51 69 52 70 56 71 53 72 55 73 54 74 41 75 42 76
REMARK SMILES IDX 46 77 43 78 45 79 44 80
REMARK H PARENT 13 6 17 29 61 48 39 59
REMARK Flexibility Score: inf
ROOT
ATOM      1  C   UNL     1       1.051   9.468  -1.734  1.00  0.00     0.042 C 
ENDROOT
BRANCH   1   2
ATOM      2  C   UNL     1       1.922   8.876  -2.845  1.00  0.00     0.118 C 
BRANCH   2   3
ATOM      3  N   UNL     1       3.323   8.888  -2.466  1.00  0.00    -0.352 N 
ATOM      4  C   UNL     1       4.191   7.941  -2.024  1.00  0.00     0.251 C 
ATOM      5  O   UNL     1       5.333   8.330  -1.768  1.00  0.00    -0.269 OA
ATOM      6  H   UNL     1       3.735   9.779  -2.547  1.00  0.00     0.163 HD
BRANCH   4   7
ATOM      7  C   UNL     1       3.843   6.474  -1.918  1.00  0.00     0.047 C 
ATOM      8  C   UNL     1       2.620   6.064  -1.508  1.00  0.00     0.022 C 
BRANCH   8   9
ATOM      9  C   UNL     1       2.063   4.694  -1.425  1.00  0.00    -0.025 A 
ATOM     10  C   UNL     1       0.931   2.124  -1.487  1.00  0.00     0.067 A 
ATOM     11  C   UNL     1       2.230   2.299  -1.014  1.00  0.00     0.021 A 
ATOM     12  C   UNL     1       0.172   3.224  -1.887  1.00  0.00     0.021 A 
ATOM     13  C   UNL     1       2.774   3.585  -0.950  1.00  0.00     0.009 A 
ATOM     14  C   UNL     1       0.741   4.501  -1.860  1.00  0.00     0.009 A 
BRANCH  10  15
ATOM     15  S   UNL     1       0.231   0.495  -1.590  1.00  0.00     0.175 S 
ATOM     16  C   UNL     1       0.677  -0.303  -0.070  1.00  0.00     0.163 C 
ATOM     17  O   UNL     1       0.911  -0.180  -2.678  1.00  0.00    -0.224 OA
ATOM     18  O   UNL     1      -1.212   0.646  -1.584  1.00  0.00    -0.224 OA
ENDBRANCH  10  15
ENDBRANCH   8   9
BRANCH   7  19
ATOM     19  C   UNL     1       4.955   5.508  -2.104  1.00  0.00    -0.013 A 
ATOM     20  C   UNL     1       5.982   5.470  -1.141  1.00  0.00     0.012 A 
ATOM     21  C   UNL     1       4.969   4.575  -3.151  1.00  0.00     0.012 A 
ATOM     22  C   UNL     1       6.981   4.500  -1.201  1.00  0.00     0.040 A 
ATOM     23  C   UNL     1       5.966   3.595  -3.201  1.00  0.00     0.040 A 
ATOM     24  C   UNL     1       6.956   3.563  -2.224  1.00  0.00     0.123 A 
ATOM     25  F   UNL     1       7.891   2.605  -2.260  1.00  0.00    -0.207 F 
ENDBRANCH   7  19
ENDBRANCH   4   7
ENDBRANCH   2   3
ENDBRANCH   1   2
BRANCH   1  26
ATOM     26  C   UNL     1       1.275  10.964  -1.498  1.00  0.00     0.118 C 
BRANCH  26  27
ATOM     27  N   UNL     1       0.842  11.771  -2.627  1.00  0.00    -0.352 N 
ATOM     28  C   UNL     1      -0.037  12.820  -2.689  1.00  0.00     0.251 C 
ATOM     29  H   UNL     1       1.248  11.522  -3.489  1.00  0.00     0.163 HD
ATOM     30  O   UNL     1      -0.412  13.217  -3.790  1.00  0.00    -0.269 OA
BRANCH  28  31
ATOM     31  C   UNL     1      -0.549  13.479  -1.465  1.00  0.00     0.039 A 
ATOM     32  C   UNL     1      -1.877  13.920  -1.461  1.00  0.00     0.014 A 
ATOM     33  C   UNL     1       0.271  13.742  -0.364  1.00  0.00     0.014 A 
ATOM     34  C   UNL     1      -2.388  14.592  -0.348  1.00  0.00     0.010 A 
ATOM     35  C   UNL     1      -0.259  14.357   0.773  1.00  0.00     0.010 A 
ATOM     36  C   UNL     1      -1.589  14.800   0.788  1.00  0.00    -0.014 A 
BRANCH  36  37
ATOM     37  C   UNL     1      -2.151  15.478   1.985  1.00  0.00     0.031 A 
ATOM     38  C   UNL     1      -1.649  16.830   2.414  1.00  0.00     0.074 A 
ATOM     39  C   UNL     1      -3.113  14.863   2.700  1.00  0.00     0.049 A 
ATOM     40  N   UNL     1      -2.057  17.585   3.404  1.00  0.00    -0.248 NA
ATOM     41  C   UNL     1      -0.530  17.400   1.647  1.00  0.00     0.031 C 
ATOM     42  C   UNL     1      -3.654  13.531   2.421  1.00  0.00     0.029 A 
ATOM     43  N   UNL     1      -3.812  15.283   3.804  1.00  0.00    -0.354 N 
ATOM     44  C   UNL     1      -1.242  18.710   3.385  1.00  0.00     0.074 A 
ATOM     45  C   UNL     1      -0.285  18.517   2.316  1.00  0.00     0.031 C 
ATOM     46  C   UNL     1      -4.628  13.260   3.305  1.00  0.00     0.029 A 
ATOM     47  C   UNL     1      -4.762  14.384   4.226  1.00  0.00     0.049 A 
ATOM     48  H   UNL     1      -3.650  16.145   4.250  1.00  0.00     0.167 HD
ATOM     49  C   UNL     1      -1.294  19.812   4.171  1.00  0.00     0.031 A 
ATOM     50  C   UNL     1      -5.650  14.460   5.233  1.00  0.00     0.031 A 
ATOM     51  C   UNL     1      -2.249  20.011   5.230  1.00  0.00     0.049 A 
ATOM     52  C   UNL     1      -5.703  15.701   6.078  1.00  0.00     0.074 A 
ATOM     53  C   UNL     1      -2.417  21.117   6.045  1.00  0.00     0.029 A 
ATOM     54  N   UNL     1      -3.199  19.080   5.620  1.00  0.00    -0.354 N 
ATOM     55  N   UNL     1      -4.973  16.787   5.997  1.00  0.00    -0.248 NA
ATOM     56  C   UNL     1      -6.717  15.732   7.140  1.00  0.00     0.031 C 
ATOM     57  C   UNL     1      -3.441  20.838   6.958  1.00  0.00     0.029 A 
ATOM     58  C   UNL     1      -3.943  19.578   6.677  1.00  0.00     0.049 A 
ATOM     59  H   UNL     1      -3.325  18.195   5.207  1.00  0.00     0.167 HD
ATOM     60  C   UNL     1      -5.454  17.638   6.983  1.00  0.00     0.074 A 
ATOM     61  C   UNL     1      -6.552  16.951   7.632  1.00  0.00     0.031 C 
ATOM     62  C   UNL     1      -5.024  18.878   7.321  1.00  0.00     0.031 A 
BRANCH  49  63
ATOM     63  C   UNL     1      -0.278  20.891   3.916  1.00  0.00    -0.014 A 
ATOM     64  C   UNL     1      -0.343  21.693   2.765  1.00  0.00     0.009 A 
ATOM     65  C   UNL     1       0.738  21.133   4.853  1.00  0.00     0.009 A 
ATOM     66  C   UNL     1       0.611  22.688   2.539  1.00  0.00     0.001 A 
ATOM     67  C   UNL     1       1.675  22.146   4.639  1.00  0.00     0.001 A 
ATOM     68  C   UNL     1       1.616  22.916   3.478  1.00  0.00     0.000 A 
ENDBRANCH  49  63
BRANCH  50  69
ATOM     69  C   UNL     1      -6.593  13.338   5.477  1.00  0.00    -0.014 A 
ATOM     70  C   UNL     1      -7.955  13.474   5.167  1.00  0.00     0.009 A 
ATOM     71  C   UNL     1      -6.137  12.128   6.021  1.00  0.00     0.009 A 
ATOM     72  C   UNL     1      -8.846  12.429   5.421  1.00  0.00     0.001 A 
ATOM     73  C   UNL     1      -7.025  11.075   6.249  1.00  0.00     0.001 A 
ATOM     74  C   UNL     1      -8.380  11.230   5.958  1.00  0.00     0.000 A 
ENDBRANCH  50  69
BRANCH  62  75
ATOM     75  C   UNL     1      -5.761  19.573   8.431  1.00  0.00    -0.014 A 
ATOM     76  C   UNL     1      -5.627  19.157   9.765  1.00  0.00     0.009 A 
ATOM     77  C   UNL     1      -6.596  20.661   8.138  1.00  0.00     0.009 A 
ATOM     78  C   UNL     1      -6.350  19.791  10.778  1.00  0.00     0.001 A 
ATOM     79  C   UNL     1      -7.296  21.311   9.156  1.00  0.00     0.001 A 
ATOM     80  C   UNL     1      -7.181  20.868  10.473  1.00  0.00     0.000 A 
ENDBRANCH  62  75
ENDBRANCH  36  37
ENDBRANCH  28  31
ENDBRANCH  26  27
ENDBRANCH   1  26
TORSDOF 13
