REMARK SMILES C[NH2+][C@@]1(C(=O)NCCCNC(=O)c2ccc(-c3c4nc(c(-c5ccccc5)c5ccc([nH]5)c(-c5ccccc5)c5nc(c(-c6ccccc6)c6ccc3[nH]6)C=C5)C=C4)cc2)CC[C@H](SC(C)C)C1
REMARK SMILES IDX 8 1 7 2 6 3 4 4 5 5 3 7 61 8 68 9 62 10 63 11 2 12 1 13
REMARK SMILES IDX 64 16 65 17 66 18 67 19 9 20 10 21 11 22 12 24 13 25 14 26
REMARK SMILES IDX 60 27 15 28 59 29 16 30 17 31 18 32 53 33 19 34 58 35 52 36
REMARK SMILES IDX 54 37 20 38 57 39 51 40 50 41 21 43 43 44 28 45 42 46 29 47
REMARK SMILES IDX 32 48 41 49 55 50 30 51 31 52 40 54 56 55 33 56 22 57 23 58
REMARK SMILES IDX 27 59 24 60 26 61 25 62 44 63 45 64 49 65 46 66 48 67 47 68
REMARK SMILES IDX 34 69 35 70 39 71 36 72 38 73 37 74
REMARK H PARENT 6 6 2 14 2 15 10 23 54 42 32 53
REMARK Flexibility Score: inf
ROOT
ATOM      1  C   UNL     1      -4.581  -0.434   0.703  1.00  0.00     0.042 C 
ENDROOT
BRANCH   1   2
ATOM      2  C   UNL     1      -3.860   0.775   0.133  1.00  0.00     0.118 C 
BRANCH   2   3
ATOM      3  N   UNL     1      -2.538   0.980   0.671  1.00  0.00    -0.351 N 
ATOM      4  C   UNL     1      -1.323   1.098   0.076  1.00  0.00     0.281 C 
ATOM      5  O   UNL     1      -0.461   1.611   0.808  1.00  0.00    -0.268 OA
ATOM      6  H   UNL     1      -2.511   1.048   1.653  1.00  0.00     0.163 HD
BRANCH   4   7
ATOM      7  C   UNL     1      -0.974   0.693  -1.420  1.00  0.00     0.176 C 
ATOM      8  C   UNL     1      -1.524   1.710  -2.432  1.00  0.00     0.080 C 
ATOM      9  C   UNL     1      -1.497  -0.665  -1.919  1.00  0.00     0.093 C 
ATOM     10  C   UNL     1      -2.753   1.087  -3.094  1.00  0.00     0.022 C 
ATOM     11  C   UNL     1      -2.598  -0.430  -2.988  1.00  0.00     0.054 C 
BRANCH   7  12
ATOM     12  N   UNL     1       0.521   0.736  -1.561  1.00  0.00    -0.336 N 
ATOM     13  C   UNL     1       1.246  -0.238  -0.742  1.00  0.00     0.331 C 
ATOM     14  H   UNL     1       0.752   0.562  -2.539  1.00  0.00     0.346 HD
ATOM     15  H   UNL     1       0.812   1.658  -1.234  1.00  0.00     0.346 HD
ENDBRANCH   7  12
BRANCH  11  16
ATOM     16  S   UNL     1      -3.967  -1.583  -2.527  1.00  0.00    -0.155 SA
BRANCH  16  17
ATOM     17  C   UNL     1      -5.562  -1.011  -3.226  1.00  0.00     0.040 C 
ATOM     18  C   UNL     1      -5.872   0.474  -3.240  1.00  0.00     0.019 C 
ATOM     19  C   UNL     1      -5.816  -1.656  -4.582  1.00  0.00     0.019 C 
ENDBRANCH  16  17
ENDBRANCH  11  16
ENDBRANCH   4   7
ENDBRANCH   2   3
ENDBRANCH   1   2
BRANCH   1  20
ATOM     20  C   UNL     1      -5.124  -0.194   2.100  1.00  0.00     0.118 C 
BRANCH  20  21
ATOM     21  N   UNL     1      -6.249   0.735   2.100  1.00  0.00    -0.352 N 
ATOM     22  C   UNL     1      -7.604   0.551   1.966  1.00  0.00     0.251 C 
ATOM     23  H   UNL     1      -5.986   1.676   2.219  1.00  0.00     0.163 HD
ATOM     24  O   UNL     1      -8.306   1.535   1.741  1.00  0.00    -0.269 OA
BRANCH  22  25
ATOM     25  C   UNL     1      -8.245  -0.784   2.071  1.00  0.00     0.039 A 
ATOM     26  C   UNL     1      -9.441  -1.015   1.377  1.00  0.00     0.014 A 
ATOM     27  C   UNL     1      -7.752  -1.781   2.909  1.00  0.00     0.014 A 
ATOM     28  C   UNL     1     -10.104  -2.244   1.495  1.00  0.00     0.010 A 
ATOM     29  C   UNL     1      -8.340  -3.043   2.930  1.00  0.00     0.010 A 
ATOM     30  C   UNL     1      -9.542  -3.282   2.251  1.00  0.00    -0.014 A 
BRANCH  30  31
ATOM     31  C   UNL     1     -10.208  -4.603   2.410  1.00  0.00     0.031 A 
ATOM     32  C   UNL     1     -10.567  -5.103   3.788  1.00  0.00     0.074 A 
ATOM     33  C   UNL     1     -10.413  -5.394   1.339  1.00  0.00     0.049 A 
ATOM     34  N   UNL     1     -11.008  -6.281   4.155  1.00  0.00    -0.248 NA
ATOM     35  C   UNL     1     -10.361  -4.169   4.908  1.00  0.00     0.031 C 
ATOM     36  C   UNL     1     -10.081  -5.055  -0.046  1.00  0.00     0.029 A 
ATOM     37  N   UNL     1     -10.942  -6.657   1.253  1.00  0.00    -0.354 N 
ATOM     38  C   UNL     1     -11.080  -6.242   5.543  1.00  0.00     0.074 A 
ATOM     39  C   UNL     1     -10.596  -4.944   5.956  1.00  0.00     0.031 C 
ATOM     40  C   UNL     1     -10.442  -6.071  -0.846  1.00  0.00     0.029 A 
ATOM     41  C   UNL     1     -10.985  -7.151  -0.029  1.00  0.00     0.049 A 
ATOM     42  H   UNL     1     -11.261  -7.162   2.036  1.00  0.00     0.167 HD
ATOM     43  C   UNL     1     -11.527  -7.191   6.401  1.00  0.00     0.031 A 
ATOM     44  C   UNL     1     -11.404  -8.342  -0.493  1.00  0.00     0.031 A 
ATOM     45  C   UNL     1     -12.061  -8.461   5.991  1.00  0.00     0.049 A 
ATOM     46  C   UNL     1     -11.928  -9.368   0.473  1.00  0.00     0.074 A 
ATOM     47  C   UNL     1     -12.614  -9.458   6.775  1.00  0.00     0.029 A 
ATOM     48  N   UNL     1     -12.121  -8.902   4.679  1.00  0.00    -0.354 N 
ATOM     49  N   UNL     1     -12.035  -9.295   1.777  1.00  0.00    -0.248 NA
ATOM     50  C   UNL     1     -12.397 -10.637  -0.101  1.00  0.00     0.031 C 
ATOM     51  C   UNL     1     -12.976 -10.520   5.939  1.00  0.00     0.029 A 
ATOM     52  C   UNL     1     -12.690 -10.162   4.631  1.00  0.00     0.049 A 
ATOM     53  H   UNL     1     -11.806  -8.394   3.896  1.00  0.00     0.167 HD
ATOM     54  C   UNL     1     -12.609 -10.495   2.177  1.00  0.00     0.074 A 
ATOM     55  C   UNL     1     -12.839 -11.271   0.976  1.00  0.00     0.031 C 
ATOM     56  C   UNL     1     -12.918 -10.916   3.427  1.00  0.00     0.031 A 
BRANCH  43  57
ATOM     57  C   UNL     1     -11.457  -6.885   7.872  1.00  0.00    -0.014 A 
ATOM     58  C   UNL     1     -12.292  -5.921   8.459  1.00  0.00     0.009 A 
ATOM     59  C   UNL     1     -10.557  -7.589   8.688  1.00  0.00     0.009 A 
ATOM     60  C   UNL     1     -12.195  -5.636   9.823  1.00  0.00     0.001 A 
ATOM     61  C   UNL     1     -10.484  -7.324  10.057  1.00  0.00     0.001 A 
ATOM     62  C   UNL     1     -11.295  -6.340  10.621  1.00  0.00     0.000 A 
ENDBRANCH  43  57
BRANCH  44  63
ATOM     63  C   UNL     1     -11.373  -8.624  -1.952  1.00  0.00    -0.014 A 
ATOM     64  C   UNL     1     -12.567  -8.671  -2.688  1.00  0.00     0.009 A 
ATOM     65  C   UNL     1     -10.156  -8.844  -2.615  1.00  0.00     0.009 A 
ATOM     66  C   UNL     1     -12.545  -8.958  -4.054  1.00  0.00     0.001 A 
ATOM     67  C   UNL     1     -10.136  -9.104  -3.988  1.00  0.00     0.001 A 
ATOM     68  C   UNL     1     -11.331  -9.170  -4.704  1.00  0.00     0.000 A 
ENDBRANCH  44  63
BRANCH  56  69
ATOM     69  C   UNL     1     -13.578 -12.259   3.555  1.00  0.00    -0.014 A 
ATOM     70  C   UNL     1     -12.852 -13.447   3.380  1.00  0.00     0.009 A 
ATOM     71  C   UNL     1     -14.937 -12.332   3.897  1.00  0.00     0.009 A 
ATOM     72  C   UNL     1     -13.484 -14.684   3.516  1.00  0.00     0.001 A 
ATOM     73  C   UNL     1     -15.560 -13.571   4.058  1.00  0.00     0.001 A 
ATOM     74  C   UNL     1     -14.835 -14.745   3.859  1.00  0.00     0.000 A 
ENDBRANCH  56  69
ENDBRANCH  30  31
ENDBRANCH  22  25
ENDBRANCH  20  21
ENDBRANCH   1  20
TORSDOF 13
