REMARK SMILES COC(=O)c1ccc2c(c1)=N[C@H](c1cn(CCC(=O)NCCCNC(=O)c3ccc(-c4c5nc(c(-c6ccccc6)c6ccc([nH]6)c(-c6ccccc6)c6nc(c(-c7ccccc7)c7ccc4[nH]7)C=C6)C=C5)cc3)c3ccccc13)N=2
REMARK SMILES IDX 18 1 19 2 20 3 17 5 16 6 15 7 13 8 14 9 80 10 75 11 79 12
REMARK SMILES IDX 76 13 78 14 77 15 12 16 5 17 6 18 10 19 7 20 9 21 8 22 11 23
REMARK SMILES IDX 81 24 3 25 4 26 2 27 1 28 21 29 22 30 23 31 24 32 25 33
REMARK SMILES IDX 26 35 27 36 28 37 74 38 29 39 73 40 30 41 31 42 32 43 67 44
REMARK SMILES IDX 33 45 72 46 66 47 68 48 34 49 71 50 65 51 64 52 35 54 57 55
REMARK SMILES IDX 42 56 56 57 43 58 46 59 55 60 69 61 44 62 45 63 54 65 70 66
REMARK SMILES IDX 47 67 36 68 37 69 41 70 38 71 40 72 39 73 58 74 59 75 63 76
REMARK SMILES IDX 60 77 62 78 61 79 48 80 49 81 53 82 50 83 52 84 51 85
REMARK H PARENT 20 4 24 34 68 53 46 64
REMARK Flexibility Score: inf
ROOT
ATOM      1  C   UNL     1      -1.142  -1.705  12.949  1.00  0.00     0.221 C 
ATOM      2  O   UNL     1      -1.526  -2.818  13.325  1.00  0.00    -0.275 OA
ATOM      3  N   UNL     1      -2.110  -0.824  12.553  1.00  0.00    -0.356 N 
ATOM      4  H   UNL     1      -3.006  -1.230  12.518  1.00  0.00     0.163 HD
ENDROOT
BRANCH   1   5
ATOM      5  C   UNL     1       0.336  -1.363  13.006  1.00  0.00     0.122 C 
BRANCH   5   6
ATOM      6  C   UNL     1       1.224  -2.410  12.276  1.00  0.00     0.132 C 
BRANCH   6   7
ATOM      7  N   UNL     1       1.407  -2.163  10.835  1.00  0.00    -0.347 N 
ATOM      8  C   UNL     1       0.639  -0.476   9.646  1.00  0.00     0.024 A 
ATOM      9  C   UNL     1       1.726  -0.894  10.423  1.00  0.00     0.094 A 
ATOM     10  C   UNL     1      -0.359  -1.518   9.837  1.00  0.00     0.007 A 
ATOM     11  C   UNL     1       0.526  -2.599   9.863  1.00  0.00     0.048 A 
ATOM     12  C   UNL     1      -1.625  -1.885   9.356  1.00  0.00     0.011 A 
ATOM     13  C   UNL     1       0.578  -3.404   8.705  1.00  0.00     0.027 A 
ATOM     14  C   UNL     1      -1.740  -2.834   8.350  1.00  0.00     0.001 A 
ATOM     15  C   UNL     1      -0.589  -3.463   7.916  1.00  0.00     0.002 A 
BRANCH   8  16
ATOM     16  C   UNL     1       0.809   0.702   8.739  1.00  0.00     0.255 C 
ATOM     17  C   UNL     1       1.188   0.171   4.307  1.00  0.00     0.062 A 
ATOM     18  C   UNL     1       0.155   1.194   4.358  1.00  0.00     0.018 A 
ATOM     19  C   UNL     1       1.894  -0.154   5.403  1.00  0.00     0.046 A 
ATOM     20  C   UNL     1      -0.369   1.657   5.498  1.00  0.00     0.031 A 
ATOM     21  C   UNL     1       1.417   0.385   6.681  1.00  0.00     0.087 A 
ATOM     22  C   UNL     1       0.123   1.083   6.744  1.00  0.00     0.086 A 
ATOM     23  N   UNL     1       1.947   0.306   7.842  1.00  0.00    -0.252 NA
ATOM     24  N   UNL     1      -0.360   1.139   7.936  1.00  0.00    -0.252 NA
BRANCH  17  25
ATOM     25  C   UNL     1       1.553  -0.514   3.027  1.00  0.00     0.337 C 
ATOM     26  O   UNL     1       2.598  -1.102   2.839  1.00  0.00    -0.246 OA
BRANCH  25  27
ATOM     27  O   UNL     1       0.520  -0.420   2.145  1.00  0.00    -0.465 OA
ATOM     28  C   UNL     1       0.761  -0.965   0.844  1.00  0.00     0.282 C 
ENDBRANCH  25  27
ENDBRANCH  17  25
ENDBRANCH   8  16
ENDBRANCH   6   7
ENDBRANCH   5   6
ENDBRANCH   1   5
BRANCH   3  29
ATOM     29  C   UNL     1      -2.111   0.590  12.170  1.00  0.00     0.117 C 
BRANCH  29  30
ATOM     30  C   UNL     1      -2.649   0.958  10.759  1.00  0.00     0.042 C 
BRANCH  30  31
ATOM     31  C   UNL     1      -3.786   0.127  10.152  1.00  0.00     0.118 C 
BRANCH  31  32
ATOM     32  N   UNL     1      -5.092   0.736  10.037  1.00  0.00    -0.352 N 
ATOM     33  C   UNL     1      -5.824   1.122   8.941  1.00  0.00     0.251 C 
ATOM     34  H   UNL     1      -5.536   0.904  10.899  1.00  0.00     0.163 HD
ATOM     35  O   UNL     1      -7.044   1.230   9.073  1.00  0.00    -0.269 OA
BRANCH  33  36
ATOM     36  C   UNL     1      -5.223   1.582   7.666  1.00  0.00     0.039 A 
ATOM     37  C   UNL     1      -4.220   0.946   6.943  1.00  0.00     0.014 A 
ATOM     38  C   UNL     1      -5.776   2.767   7.154  1.00  0.00     0.014 A 
ATOM     39  C   UNL     1      -3.652   1.600   5.845  1.00  0.00     0.010 A 
ATOM     40  C   UNL     1      -5.212   3.411   6.061  1.00  0.00     0.010 A 
ATOM     41  C   UNL     1      -4.057   2.896   5.487  1.00  0.00    -0.014 A 
BRANCH  41  42
ATOM     42  C   UNL     1      -3.275   3.704   4.526  1.00  0.00     0.031 A 
ATOM     43  C   UNL     1      -3.004   3.077   3.201  1.00  0.00     0.074 A 
ATOM     44  C   UNL     1      -2.862   4.970   4.810  1.00  0.00     0.049 A 
ATOM     45  N   UNL     1      -1.887   3.093   2.547  1.00  0.00    -0.248 NA
ATOM     46  C   UNL     1      -4.059   2.279   2.555  1.00  0.00     0.031 C 
ATOM     47  C   UNL     1      -3.197   5.745   6.014  1.00  0.00     0.029 A 
ATOM     48  N   UNL     1      -2.158   5.890   4.066  1.00  0.00    -0.354 N 
ATOM     49  C   UNL     1      -2.126   2.430   1.346  1.00  0.00     0.074 A 
ATOM     50  C   UNL     1      -3.447   1.865   1.444  1.00  0.00     0.031 C 
ATOM     51  C   UNL     1      -2.978   7.058   5.789  1.00  0.00     0.029 A 
ATOM     52  C   UNL     1      -2.335   7.208   4.498  1.00  0.00     0.049 A 
ATOM     53  H   UNL     1      -1.586   5.644   3.303  1.00  0.00     0.167 HD
ATOM     54  C   UNL     1      -1.310   2.596   0.270  1.00  0.00     0.031 A 
ATOM     55  C   UNL     1      -2.031   8.358   3.843  1.00  0.00     0.031 A 
ATOM     56  C   UNL     1       0.011   3.046   0.622  1.00  0.00     0.049 A 
ATOM     57  C   UNL     1      -0.984   8.068   2.853  1.00  0.00     0.074 A 
ATOM     58  C   UNL     1       1.272   2.515   0.770  1.00  0.00     0.029 A 
ATOM     59  N   UNL     1       0.062   4.316   1.116  1.00  0.00    -0.354 N 
ATOM     60  N   UNL     1       0.236   7.752   3.175  1.00  0.00    -0.248 NA
ATOM     61  C   UNL     1      -1.365   7.835   1.465  1.00  0.00     0.031 C 
ATOM     62  C   UNL     1       2.035   3.459   1.513  1.00  0.00     0.029 A 
ATOM     63  C   UNL     1       1.282   4.612   1.657  1.00  0.00     0.049 A 
ATOM     64  H   UNL     1      -0.693   4.947   1.086  1.00  0.00     0.167 HD
ATOM     65  C   UNL     1       0.623   6.900   2.169  1.00  0.00     0.074 A 
ATOM     66  C   UNL     1      -0.313   7.117   1.070  1.00  0.00     0.031 C 
ATOM     67  C   UNL     1       1.428   5.831   2.412  1.00  0.00     0.031 A 
BRANCH  54  68
ATOM     68  C   UNL     1      -1.871   2.823  -1.115  1.00  0.00    -0.014 A 
ATOM     69  C   UNL     1      -3.224   3.154  -1.339  1.00  0.00     0.009 A 
ATOM     70  C   UNL     1      -0.993   3.014  -2.196  1.00  0.00     0.009 A 
ATOM     71  C   UNL     1      -3.680   3.649  -2.564  1.00  0.00     0.001 A 
ATOM     72  C   UNL     1      -1.441   3.539  -3.417  1.00  0.00     0.001 A 
ATOM     73  C   UNL     1      -2.783   3.859  -3.599  1.00  0.00     0.000 A 
ENDBRANCH  54  68
BRANCH  55  74
ATOM     74  C   UNL     1      -2.803   9.625   3.771  1.00  0.00    -0.014 A 
ATOM     75  C   UNL     1      -4.198   9.604   3.935  1.00  0.00     0.009 A 
ATOM     76  C   UNL     1      -2.231  10.781   3.207  1.00  0.00     0.009 A 
ATOM     77  C   UNL     1      -4.998  10.662   3.487  1.00  0.00     0.001 A 
ATOM     78  C   UNL     1      -3.033  11.839   2.755  1.00  0.00     0.001 A 
ATOM     79  C   UNL     1      -4.418  11.769   2.875  1.00  0.00     0.000 A 
ENDBRANCH  55  74
BRANCH  67  80
ATOM     80  C   UNL     1       2.360   5.843   3.584  1.00  0.00    -0.014 A 
ATOM     81  C   UNL     1       3.722   5.632   3.314  1.00  0.00     0.009 A 
ATOM     82  C   UNL     1       1.951   5.934   4.922  1.00  0.00     0.009 A 
ATOM     83  C   UNL     1       4.644   5.460   4.344  1.00  0.00     0.001 A 
ATOM     84  C   UNL     1       2.884   5.794   5.958  1.00  0.00     0.001 A 
ATOM     85  C   UNL     1       4.224   5.539   5.667  1.00  0.00     0.000 A 
ENDBRANCH  67  80
ENDBRANCH  41  42
ENDBRANCH  33  36
ENDBRANCH  31  32
ENDBRANCH  30  31
ENDBRANCH  29  30
ENDBRANCH   3  29
TORSDOF 15
