REMARK SMILES O=C(NCCCNC(=O)[C@H]1Cc2[nH]cnc2CN1S(=O)(=O)c1cccs1)c1ccc(-c2c3nc(c(-c4ccccc4)c4ccc([nH]4)c(-c4ccccc4)c4nc(c(-c5ccccc5)c5ccc2[nH]5)C=C4)C=C3)cc1
REMARK SMILES IDX 5 1 4 2 3 3 1 4 2 5 27 7 28 8 74 9 29 10 73 11 30 12 31 13
REMARK SMILES IDX 32 14 67 15 33 16 72 17 66 18 68 19 34 20 71 21 65 22 64 23
REMARK SMILES IDX 35 25 57 26 42 27 56 28 43 29 46 30 55 31 69 32 44 33 45 34
REMARK SMILES IDX 54 36 70 37 47 38 36 39 37 40 41 41 38 42 40 43 39 44 58 45
REMARK SMILES IDX 59 46 63 47 60 48 62 49 61 50 48 51 49 52 53 53 50 54 52 55
REMARK SMILES IDX 51 56 6 57 7 58 8 59 9 61 10 62 11 63 18 64 12 65 17 66
REMARK SMILES IDX 13 67 16 68 14 69 15 71 19 72 20 73 21 74 22 75 23 76 26 77
REMARK SMILES IDX 24 78 25 79
REMARK H PARENT 3 6 68 24 46 35 7 60 13 70
REMARK Flexibility Score: inf
ROOT
ATOM      1  C   UNL     1       4.956  -2.047  -0.998  1.00  0.00     0.042 C 
ENDROOT
BRANCH   1   2
ATOM      2  C   UNL     1       4.726  -0.537  -1.096  1.00  0.00     0.118 C 
BRANCH   2   3
ATOM      3  N   UNL     1       3.344  -0.130  -1.261  1.00  0.00    -0.352 N 
ATOM      4  O   UNL     1       1.298   0.621  -0.943  1.00  0.00    -0.269 OA
ATOM      5  C   UNL     1       2.298   0.122  -0.421  1.00  0.00     0.251 C 
ATOM      6  H   UNL     1       3.102  -0.006  -2.207  1.00  0.00     0.163 HD
BRANCH   5   7
ATOM      7  C   UNL     1       2.247  -0.226   1.024  1.00  0.00     0.039 A 
ATOM      8  C   UNL     1       3.303  -0.729   1.783  1.00  0.00     0.014 A 
ATOM      9  C   UNL     1       0.987  -0.081   1.638  1.00  0.00     0.014 A 
ATOM     10  C   UNL     1       3.084  -1.185   3.081  1.00  0.00     0.010 A 
ATOM     11  C   UNL     1       0.765  -0.517   2.938  1.00  0.00     0.010 A 
ATOM     12  C   UNL     1       1.806  -1.115   3.640  1.00  0.00    -0.014 A 
BRANCH  12  13
ATOM     13  C   UNL     1       1.615  -1.593   5.005  1.00  0.00     0.031 A 
ATOM     14  C   UNL     1       2.274  -0.788   6.071  1.00  0.00     0.074 A 
ATOM     15  C   UNL     1       0.770  -2.595   5.320  1.00  0.00     0.049 A 
ATOM     16  N   UNL     1       3.143  -1.175   6.947  1.00  0.00    -0.248 NA
ATOM     17  C   UNL     1       1.966   0.650   6.123  1.00  0.00     0.031 C 
ATOM     18  C   UNL     1      -0.183  -3.278   4.441  1.00  0.00     0.029 A 
ATOM     19  N   UNL     1       0.500  -3.131   6.545  1.00  0.00    -0.354 N 
ATOM     20  C   UNL     1       3.380  -0.072   7.768  1.00  0.00     0.074 A 
ATOM     21  C   UNL     1       2.723   1.049   7.145  1.00  0.00     0.031 C 
ATOM     22  C   UNL     1      -1.075  -3.957   5.197  1.00  0.00     0.029 A 
ATOM     23  C   UNL     1      -0.676  -3.865   6.592  1.00  0.00     0.049 A 
ATOM     24  H   UNL     1       1.088  -3.008   7.325  1.00  0.00     0.167 HD
ATOM     25  C   UNL     1       3.925  -0.194   9.010  1.00  0.00     0.031 A 
ATOM     26  C   UNL     1      -1.316  -4.305   7.703  1.00  0.00     0.031 A 
ATOM     27  C   UNL     1       4.588  -1.456   9.195  1.00  0.00     0.049 A 
ATOM     28  C   UNL     1      -0.352  -4.286   8.825  1.00  0.00     0.074 A 
ATOM     29  C   UNL     1       5.646  -2.107   8.593  1.00  0.00     0.029 A 
ATOM     30  N   UNL     1       3.939  -2.413   9.936  1.00  0.00    -0.354 N 
ATOM     31  N   UNL     1       0.666  -5.091   8.913  1.00  0.00    -0.248 NA
ATOM     32  C   UNL     1      -0.282  -3.096   9.656  1.00  0.00     0.031 C 
ATOM     33  C   UNL     1       5.281  -3.486   8.603  1.00  0.00     0.029 A 
ATOM     34  C   UNL     1       4.047  -3.590   9.248  1.00  0.00     0.049 A 
ATOM     35  H   UNL     1       3.483  -2.277  10.798  1.00  0.00     0.167 HD
ATOM     36  C   UNL     1       1.681  -4.317   9.454  1.00  0.00     0.074 A 
ATOM     37  C   UNL     1       1.009  -3.137   9.995  1.00  0.00     0.031 C 
ATOM     38  C   UNL     1       2.991  -4.571   9.164  1.00  0.00     0.031 A 
BRANCH  25  39
ATOM     39  C   UNL     1       3.511   0.660  10.187  1.00  0.00    -0.014 A 
ATOM     40  C   UNL     1       4.147   0.458  11.427  1.00  0.00     0.009 A 
ATOM     41  C   UNL     1       2.331   1.427  10.201  1.00  0.00     0.009 A 
ATOM     42  C   UNL     1       3.579   0.917  12.622  1.00  0.00     0.001 A 
ATOM     43  C   UNL     1       1.785   1.925  11.387  1.00  0.00     0.001 A 
ATOM     44  C   UNL     1       2.391   1.640  12.602  1.00  0.00     0.000 A 
ENDBRANCH  25  39
BRANCH  26  45
ATOM     45  C   UNL     1      -2.768  -4.475   7.919  1.00  0.00    -0.014 A 
ATOM     46  C   UNL     1      -3.256  -5.263   8.973  1.00  0.00     0.009 A 
ATOM     47  C   UNL     1      -3.681  -3.643   7.245  1.00  0.00     0.009 A 
ATOM     48  C   UNL     1      -4.602  -5.195   9.357  1.00  0.00     0.001 A 
ATOM     49  C   UNL     1      -5.025  -3.578   7.625  1.00  0.00     0.001 A 
ATOM     50  C   UNL     1      -5.482  -4.344   8.692  1.00  0.00     0.000 A 
ENDBRANCH  26  45
BRANCH  38  51
ATOM     51  C   UNL     1       3.316  -5.848   8.430  1.00  0.00    -0.014 A 
ATOM     52  C   UNL     1       2.815  -6.135   7.147  1.00  0.00     0.009 A 
ATOM     53  C   UNL     1       4.271  -6.713   8.981  1.00  0.00     0.009 A 
ATOM     54  C   UNL     1       3.233  -7.274   6.453  1.00  0.00     0.001 A 
ATOM     55  C   UNL     1       4.705  -7.840   8.278  1.00  0.00     0.001 A 
ATOM     56  C   UNL     1       4.181  -8.123   7.018  1.00  0.00     0.000 A 
ENDBRANCH  38  51
ENDBRANCH  12  13
ENDBRANCH   5   7
ENDBRANCH   2   3
ENDBRANCH   1   2
BRANCH   1  57
ATOM     57  C   UNL     1       4.284  -2.869  -2.094  1.00  0.00     0.117 C 
BRANCH  57  58
ATOM     58  N   UNL     1       4.705  -2.487  -3.429  1.00  0.00    -0.355 N 
ATOM     59  C   UNL     1       5.441  -3.171  -4.351  1.00  0.00     0.238 C 
ATOM     60  H   UNL     1       4.411  -1.592  -3.715  1.00  0.00     0.163 HD
ATOM     61  O   UNL     1       5.518  -2.687  -5.483  1.00  0.00    -0.273 OA
BRANCH  59  62
ATOM     62  C   UNL     1       6.070  -4.511  -4.003  1.00  0.00     0.168 C 
ATOM     63  C   UNL     1       5.102  -5.546  -4.646  1.00  0.00     0.086 C 
ATOM     64  N   UNL     1       7.503  -4.705  -4.497  1.00  0.00    -0.178 NA
ATOM     65  C   UNL     1       5.686  -6.888  -4.501  1.00  0.00     0.041 A 
ATOM     66  C   UNL     1       8.063  -6.080  -4.144  1.00  0.00     0.161 C 
ATOM     67  N   UNL     1       5.070  -8.101  -4.557  1.00  0.00    -0.348 N 
ATOM     68  C   UNL     1       7.018  -7.138  -4.290  1.00  0.00     0.077 A 
ATOM     69  C   UNL     1       6.045  -9.039  -4.341  1.00  0.00     0.197 A 
ATOM     70  H   UNL     1       4.114  -8.270  -4.720  1.00  0.00     0.167 HD
ATOM     71  N   UNL     1       7.229  -8.487  -4.168  1.00  0.00    -0.240 NA
BRANCH  64  72
ATOM     72  S   UNL     1       8.607  -3.508  -3.957  1.00  0.00     0.253 S 
ATOM     73  O   UNL     1       8.305  -3.266  -2.566  1.00  0.00    -0.206 OA
ATOM     74  O   UNL     1       9.944  -3.912  -4.362  1.00  0.00    -0.206 OA
BRANCH  72  75
ATOM     75  C   UNL     1       8.322  -1.943  -4.749  1.00  0.00     0.135 A 
ATOM     76  C   UNL     1       7.699  -0.792  -4.296  1.00  0.00     0.033 A 
ATOM     77  S   UNL     1       8.895  -1.751  -6.349  1.00  0.00    -0.131 S 
ATOM     78  C   UNL     1       7.638   0.225  -5.288  1.00  0.00     0.013 A 
ATOM     79  C   UNL     1       8.277  -0.156  -6.447  1.00  0.00     0.066 A 
ENDBRANCH  72  75
ENDBRANCH  64  72
ENDBRANCH  59  62
ENDBRANCH  57  58
ENDBRANCH   1  57
TORSDOF 12
