REMARK SMILES Cc1ccccc1CC(=O)Oc1cccc(C(=O)NCCCNC(=O)c2ccc(-c3c4nc(c(-c5ccccc5)c5ccc([nH]5)c(-c5ccccc5)c5nc(c(-c6ccccc6)c6ccc3[nH]6)C=C5)C=C4)cc2)c1
REMARK SMILES IDX 20 1 19 2 17 3 18 4 16 6 12 7 13 8 74 9 14 10 15 11 11 12
REMARK SMILES IDX 9 13 10 14 8 15 7 16 1 17 2 18 3 19 4 20 6 21 5 22 21 23
REMARK SMILES IDX 22 24 23 25 24 26 25 28 26 29 27 30 73 31 28 32 72 33 29 34
REMARK SMILES IDX 30 35 31 36 66 37 32 38 71 39 65 40 67 41 33 42 70 43 64 44
REMARK SMILES IDX 63 45 34 47 56 48 41 49 55 50 42 51 45 52 54 53 68 54 43 55
REMARK SMILES IDX 44 56 53 58 69 59 46 60 35 61 36 62 40 63 37 64 39 65 38 66
REMARK SMILES IDX 57 67 58 68 62 69 59 70 61 71 60 72 47 73 48 74 52 75 49 76
REMARK SMILES IDX 51 77 50 78
REMARK H PARENT 19 5 23 27 67 46 45 57
REMARK Flexibility Score: inf
ROOT
ATOM      1  C   UNL     1      -2.280   5.259  -7.732  1.00  0.00     0.118 C 
ENDROOT
BRANCH   1   2
ATOM      2  N   UNL     1      -2.071   3.842  -7.479  1.00  0.00    -0.352 N 
ATOM      3  C   UNL     1      -1.371   3.168  -6.506  1.00  0.00     0.251 C 
ATOM      4  O   UNL     1      -1.480   1.940  -6.492  1.00  0.00    -0.269 OA
ATOM      5  H   UNL     1      -2.517   3.252  -8.129  1.00  0.00     0.163 HD
BRANCH   3   6
ATOM      6  C   UNL     1      -0.505   3.821  -5.476  1.00  0.00     0.043 A 
ATOM      7  C   UNL     1       0.620   3.615  -3.335  1.00  0.00     0.131 A 
ATOM      8  C   UNL     1       1.226   4.858  -3.497  1.00  0.00     0.047 A 
ATOM      9  C   UNL     1      -0.219   3.082  -4.316  1.00  0.00     0.061 A 
ATOM     10  C   UNL     1       0.955   5.594  -4.640  1.00  0.00     0.005 A 
ATOM     11  C   UNL     1       0.103   5.074  -5.619  1.00  0.00     0.014 A 
BRANCH   7  12
ATOM     12  O   UNL     1       0.908   2.829  -2.216  1.00  0.00    -0.426 OA
BRANCH  12  13
ATOM     13  C   UNL     1       0.502   3.384  -1.006  1.00  0.00     0.315 C 
ATOM     14  O   UNL     1      -0.080   4.452  -0.849  1.00  0.00    -0.251 OA
BRANCH  13  15
ATOM     15  C   UNL     1       0.922   2.486   0.134  1.00  0.00     0.158 C 
BRANCH  15  16
ATOM     16  C   UNL     1       0.276   1.121   0.088  1.00  0.00    -0.034 A 
ATOM     17  C   UNL     1       2.492  -0.203  -0.013  1.00  0.00     0.044 C 
ATOM     18  C   UNL     1       0.992  -0.092   0.026  1.00  0.00    -0.047 A 
ATOM     19  C   UNL     1       0.274  -1.303  -0.010  1.00  0.00     0.004 A 
ATOM     20  C   UNL     1      -1.119  -1.324   0.017  1.00  0.00     0.000 A 
ATOM     21  C   UNL     1      -1.135   1.077   0.126  1.00  0.00     0.004 A 
ATOM     22  C   UNL     1      -1.825  -0.132   0.085  1.00  0.00     0.000 A 
ENDBRANCH  15  16
ENDBRANCH  13  15
ENDBRANCH  12  13
ENDBRANCH   7  12
ENDBRANCH   3   6
ENDBRANCH   1   2
BRANCH   1  23
ATOM     23  C   UNL     1      -1.192   5.841  -8.635  1.00  0.00     0.042 C 
BRANCH  23  24
ATOM     24  C   UNL     1      -1.561   5.897 -10.108  1.00  0.00     0.118 C 
BRANCH  24  25
ATOM     25  N   UNL     1      -1.954   7.230 -10.564  1.00  0.00    -0.352 N 
ATOM     26  C   UNL     1      -2.336   7.620 -11.839  1.00  0.00     0.251 C 
ATOM     27  H   UNL     1      -1.948   7.938  -9.880  1.00  0.00     0.163 HD
ATOM     28  O   UNL     1      -2.681   8.762 -12.078  1.00  0.00    -0.269 OA
BRANCH  26  29
ATOM     29  C   UNL     1      -2.432   6.567 -12.874  1.00  0.00     0.039 A 
ATOM     30  C   UNL     1      -3.703   6.292 -13.382  1.00  0.00     0.014 A 
ATOM     31  C   UNL     1      -1.373   5.680 -13.053  1.00  0.00     0.014 A 
ATOM     32  C   UNL     1      -3.978   5.006 -13.826  1.00  0.00     0.010 A 
ATOM     33  C   UNL     1      -1.669   4.378 -13.407  1.00  0.00     0.010 A 
ATOM     34  C   UNL     1      -2.992   4.027 -13.704  1.00  0.00    -0.014 A 
BRANCH  34  35
ATOM     35  C   UNL     1      -3.307   2.603 -13.683  1.00  0.00     0.031 A 
ATOM     36  C   UNL     1      -2.924   1.730 -14.805  1.00  0.00     0.074 A 
ATOM     37  C   UNL     1      -3.933   2.072 -12.607  1.00  0.00     0.049 A 
ATOM     38  N   UNL     1      -3.457   0.576 -15.029  1.00  0.00    -0.248 NA
ATOM     39  C   UNL     1      -1.972   2.135 -15.833  1.00  0.00     0.031 C 
ATOM     40  C   UNL     1      -4.101   0.661 -12.273  1.00  0.00     0.029 A 
ATOM     41  N   UNL     1      -4.777   2.742 -11.717  1.00  0.00    -0.354 N 
ATOM     42  C   UNL     1      -2.723  -0.030 -16.015  1.00  0.00     0.074 A 
ATOM     43  C   UNL     1      -1.914   1.025 -16.576  1.00  0.00     0.031 C 
ATOM     44  C   UNL     1      -5.162   0.533 -11.462  1.00  0.00     0.029 A 
ATOM     45  C   UNL     1      -5.799   1.835 -11.370  1.00  0.00     0.049 A 
ATOM     46  H   UNL     1      -4.677   3.667 -11.395  1.00  0.00     0.167 HD
ATOM     47  C   UNL     1      -2.791  -1.384 -16.148  1.00  0.00     0.031 A 
ATOM     48  C   UNL     1      -7.099   2.097 -11.694  1.00  0.00     0.031 A 
ATOM     49  C   UNL     1      -3.906  -1.956 -15.386  1.00  0.00     0.049 A 
ATOM     50  C   UNL     1      -7.725   1.101 -12.653  1.00  0.00     0.074 A 
ATOM     51  C   UNL     1      -4.024  -2.759 -14.263  1.00  0.00     0.029 A 
ATOM     52  N   UNL     1      -5.186  -1.492 -15.655  1.00  0.00    -0.354 N 
ATOM     53  N   UNL     1      -7.103   0.082 -13.179  1.00  0.00    -0.248 NA
ATOM     54  C   UNL     1      -9.085   1.248 -13.178  1.00  0.00     0.031 C 
ATOM     55  C   UNL     1      -5.393  -2.754 -13.855  1.00  0.00     0.029 A 
ATOM     56  C   UNL     1      -6.105  -1.970 -14.742  1.00  0.00     0.049 A 
ATOM     57  H   UNL     1      -5.411  -0.896 -16.405  1.00  0.00     0.167 HD
ATOM     58  C   UNL     1      -7.909  -0.516 -14.111  1.00  0.00     0.074 A 
ATOM     59  C   UNL     1      -9.143   0.247 -14.074  1.00  0.00     0.031 C 
ATOM     60  C   UNL     1      -7.493  -1.561 -14.884  1.00  0.00     0.031 A 
BRANCH  47  61
ATOM     61  C   UNL     1      -1.731  -2.221 -16.833  1.00  0.00    -0.014 A 
ATOM     62  C   UNL     1      -1.778  -3.623 -16.727  1.00  0.00     0.009 A 
ATOM     63  C   UNL     1      -0.608  -1.705 -17.506  1.00  0.00     0.009 A 
ATOM     64  C   UNL     1      -0.754  -4.445 -17.227  1.00  0.00     0.001 A 
ATOM     65  C   UNL     1       0.410  -2.516 -18.024  1.00  0.00     0.001 A 
ATOM     66  C   UNL     1       0.342  -3.890 -17.874  1.00  0.00     0.000 A 
ENDBRANCH  47  61
BRANCH  48  67
ATOM     67  C   UNL     1      -7.442   3.546 -11.622  1.00  0.00    -0.014 A 
ATOM     68  C   UNL     1      -7.376   4.185 -10.367  1.00  0.00     0.009 A 
ATOM     69  C   UNL     1      -7.489   4.340 -12.774  1.00  0.00     0.009 A 
ATOM     70  C   UNL     1      -7.240   5.572 -10.274  1.00  0.00     0.001 A 
ATOM     71  C   UNL     1      -7.369   5.732 -12.677  1.00  0.00     0.001 A 
ATOM     72  C   UNL     1      -7.208   6.343 -11.432  1.00  0.00     0.000 A 
ENDBRANCH  48  67
BRANCH  60  73
ATOM     73  C   UNL     1      -8.363  -2.259 -15.896  1.00  0.00    -0.014 A 
ATOM     74  C   UNL     1      -9.724  -2.517 -15.683  1.00  0.00     0.009 A 
ATOM     75  C   UNL     1      -7.789  -2.792 -17.069  1.00  0.00     0.009 A 
ATOM     76  C   UNL     1     -10.488  -3.215 -16.629  1.00  0.00     0.001 A 
ATOM     77  C   UNL     1      -8.540  -3.509 -18.003  1.00  0.00     0.001 A 
ATOM     78  C   UNL     1      -9.896  -3.710 -17.788  1.00  0.00     0.000 A 
ENDBRANCH  60  73
ENDBRANCH  34  35
ENDBRANCH  26  29
ENDBRANCH  24  25
ENDBRANCH  23  24
ENDBRANCH   1  23
TORSDOF 14
