REMARK SMILES Cc1cccc(-n2c(C)cc(/C=N\c3ccc(O)c(C(=O)NCCCNC(=O)c4ccc(-c5c6nc(c(-c7ccccc7)c7ccc([nH]7)c(-c7ccccc7)c7nc(c(-c8ccccc8)c8ccc5[nH]8)C=C7)C=C6)cc4)c3)c2C)c1
REMARK SMILES IDX 23 1 22 2 20 3 21 4 19 6 14 7 15 8 77 9 16 10 17 11 13 12
REMARK SMILES IDX 12 13 11 14 7 15 8 16 78 17 9 18 10 19 79 20 6 21 1 22 2 23
REMARK SMILES IDX 3 24 80 25 4 26 5 27 18 28 24 30 25 31 26 32 27 33 28 35
REMARK SMILES IDX 29 36 30 37 76 38 31 39 75 40 32 41 33 42 34 43 69 44 35 45
REMARK SMILES IDX 74 46 68 47 70 48 36 49 73 50 67 51 66 52 37 54 59 55 44 56
REMARK SMILES IDX 58 57 45 58 48 59 57 60 71 61 46 62 47 63 56 65 72 66 49 67
REMARK SMILES IDX 38 68 39 69 43 70 40 71 42 72 41 73 60 74 61 75 65 76 62 77
REMARK SMILES IDX 64 78 63 79 50 80 51 81 55 82 52 83 54 84 53 85
REMARK H PARENT 22 5 18 29 26 34 70 53 48 64
REMARK Flexibility Score: inf
ROOT
ATOM      1  C   UNL     1      -3.603  -1.348   5.692  1.00  0.00     0.118 C 
ENDROOT
BRANCH   1   2
ATOM      2  N   UNL     1      -4.909  -0.862   5.291  1.00  0.00    -0.352 N 
ATOM      3  C   UNL     1      -5.291   0.265   4.591  1.00  0.00     0.255 C 
ATOM      4  O   UNL     1      -6.490   0.367   4.323  1.00  0.00    -0.269 OA
ATOM      5  H   UNL     1      -5.657  -1.439   5.567  1.00  0.00     0.163 HD
BRANCH   3   6
ATOM      6  C   UNL     1      -4.356   1.365   4.178  1.00  0.00     0.083 A 
ATOM      7  C   UNL     1      -4.110   3.589   3.217  1.00  0.00     0.064 A 
ATOM      8  C   UNL     1      -2.752   3.589   3.521  1.00  0.00     0.032 A 
ATOM      9  C   UNL     1      -4.928   2.559   3.710  1.00  0.00     0.046 A 
ATOM     10  C   UNL     1      -2.164   2.414   3.949  1.00  0.00     0.049 A 
ATOM     11  C   UNL     1      -2.963   1.284   4.079  1.00  0.00     0.128 A 
BRANCH   7  12
ATOM     12  N   UNL     1      -4.649   4.552   2.362  1.00  0.00    -0.256 NA
ATOM     13  C   UNL     1      -4.254   4.683   1.122  1.00  0.00     0.121 C 
BRANCH  13  14
ATOM     14  C   UNL     1      -3.260   3.942   0.327  1.00  0.00     0.014 A 
ATOM     15  N   UNL     1      -1.857   2.408  -0.593  1.00  0.00    -0.318 N 
ATOM     16  C   UNL     1      -1.605   3.614  -1.223  1.00  0.00     0.021 A 
ATOM     17  C   UNL     1      -2.998   2.575   0.203  1.00  0.00     0.029 A 
ATOM     18  C   UNL     1      -0.676   3.759  -2.381  1.00  0.00     0.065 C 
ATOM     19  C   UNL     1      -2.418   4.568  -0.643  1.00  0.00     0.033 A 
ATOM     20  C   UNL     1      -3.680   1.412   0.819  1.00  0.00     0.065 C 
BRANCH  15  21
ATOM     21  C   UNL     1      -1.055   1.226  -0.687  1.00  0.00     0.046 A 
ATOM     22  C   UNL     1       2.562   0.188  -0.017  1.00  0.00     0.044 C 
ATOM     23  C   UNL     1       1.096   0.137  -0.337  1.00  0.00    -0.049 A 
ATOM     24  C   UNL     1       0.479  -1.110  -0.507  1.00  0.00     0.003 A 
ATOM     25  C   UNL     1       0.324   1.307  -0.433  1.00  0.00     0.030 A 
ATOM     26  C   UNL     1      -0.877  -1.189  -0.813  1.00  0.00     0.002 A 
ATOM     27  C   UNL     1      -1.638  -0.024  -0.919  1.00  0.00     0.026 A 
ENDBRANCH  15  21
ENDBRANCH  13  14
ENDBRANCH   7  12
BRANCH  11  28
ATOM     28  O   UNL     1      -2.296   0.124   3.752  1.00  0.00    -0.507 OA
ATOM     29  H   UNL     1      -1.361   0.121   3.697  1.00  0.00     0.293 HD
ENDBRANCH  11  28
ENDBRANCH   3   6
ENDBRANCH   1   2
BRANCH   1  30
ATOM     30  C   UNL     1      -3.395  -1.595   7.158  1.00  0.00     0.042 C 
BRANCH  30  31
ATOM     31  C   UNL     1      -3.842  -2.948   7.637  1.00  0.00     0.118 C 
BRANCH  31  32
ATOM     32  N   UNL     1      -2.945  -4.060   7.311  1.00  0.00    -0.352 N 
ATOM     33  C   UNL     1      -2.933  -5.354   7.817  1.00  0.00     0.251 C 
ATOM     34  H   UNL     1      -2.253  -3.862   6.639  1.00  0.00     0.163 HD
ATOM     35  O   UNL     1      -2.151  -6.186   7.360  1.00  0.00    -0.269 OA
BRANCH  33  36
ATOM     36  C   UNL     1      -3.974  -5.774   8.791  1.00  0.00     0.039 A 
ATOM     37  C   UNL     1      -4.665  -6.962   8.543  1.00  0.00     0.014 A 
ATOM     38  C   UNL     1      -4.505  -4.846   9.668  1.00  0.00     0.014 A 
ATOM     39  C   UNL     1      -6.012  -7.038   8.884  1.00  0.00     0.010 A 
ATOM     40  C   UNL     1      -5.873  -4.801   9.772  1.00  0.00     0.010 A 
ATOM     41  C   UNL     1      -6.639  -5.886   9.344  1.00  0.00    -0.014 A 
BRANCH  41  42
ATOM     42  C   UNL     1      -8.079  -5.675   9.346  1.00  0.00     0.031 A 
ATOM     43  C   UNL     1      -8.785  -5.491  10.627  1.00  0.00     0.074 A 
ATOM     44  C   UNL     1      -8.738  -5.503   8.180  1.00  0.00     0.049 A 
ATOM     45  N   UNL     1     -10.050  -5.674  10.784  1.00  0.00    -0.248 NA
ATOM     46  C   UNL     1      -8.105  -5.117  11.862  1.00  0.00     0.031 C 
ATOM     47  C   UNL     1     -10.086  -4.975   7.982  1.00  0.00     0.029 A 
ATOM     48  N   UNL     1      -8.364  -5.965   6.919  1.00  0.00    -0.354 N 
ATOM     49  C   UNL     1     -10.392  -5.132  12.000  1.00  0.00     0.074 A 
ATOM     50  C   UNL     1      -9.139  -4.891  12.672  1.00  0.00     0.031 C 
ATOM     51  C   UNL     1     -10.528  -5.356   6.772  1.00  0.00     0.029 A 
ATOM     52  C   UNL     1      -9.548  -6.274   6.219  1.00  0.00     0.049 A 
ATOM     53  H   UNL     1      -7.445  -6.059   6.581  1.00  0.00     0.167 HD
ATOM     54  C   UNL     1     -11.694  -4.814  12.240  1.00  0.00     0.031 A 
ATOM     55  C   UNL     1      -9.804  -7.569   5.861  1.00  0.00     0.031 A 
ATOM     56  C   UNL     1     -12.570  -5.238  11.144  1.00  0.00     0.049 A 
ATOM     57  C   UNL     1     -10.988  -8.192   6.583  1.00  0.00     0.074 A 
ATOM     58  C   UNL     1     -13.258  -4.579  10.138  1.00  0.00     0.029 A 
ATOM     59  N   UNL     1     -12.592  -6.580  10.798  1.00  0.00    -0.354 N 
ATOM     60  N   UNL     1     -11.722  -7.582   7.473  1.00  0.00    -0.248 NA
ATOM     61  C   UNL     1     -11.371  -9.597   6.424  1.00  0.00     0.031 C 
ATOM     62  C   UNL     1     -13.689  -5.548   9.184  1.00  0.00     0.029 A 
ATOM     63  C   UNL     1     -13.280  -6.794   9.621  1.00  0.00     0.049 A 
ATOM     64  H   UNL     1     -12.169  -7.294  11.327  1.00  0.00     0.167 HD
ATOM     65  C   UNL     1     -12.578  -8.479   8.056  1.00  0.00     0.074 A 
ATOM     66  C   UNL     1     -12.334  -9.726   7.354  1.00  0.00     0.031 C 
ATOM     67  C   UNL     1     -13.382  -8.152   9.110  1.00  0.00     0.031 A 
BRANCH  54  68
ATOM     68  C   UNL     1     -12.139  -3.904  13.362  1.00  0.00    -0.014 A 
ATOM     69  C   UNL     1     -13.385  -3.258  13.273  1.00  0.00     0.009 A 
ATOM     70  C   UNL     1     -11.377  -3.597  14.503  1.00  0.00     0.009 A 
ATOM     71  C   UNL     1     -13.797  -2.301  14.210  1.00  0.00     0.001 A 
ATOM     72  C   UNL     1     -11.763  -2.617  15.427  1.00  0.00     0.001 A 
ATOM     73  C   UNL     1     -12.973  -1.959  15.273  1.00  0.00     0.000 A 
ENDBRANCH  54  68
BRANCH  55  74
ATOM     74  C   UNL     1      -8.565  -8.301   5.463  1.00  0.00    -0.014 A 
ATOM     75  C   UNL     1      -7.897  -7.884   4.292  1.00  0.00     0.009 A 
ATOM     76  C   UNL     1      -7.859  -9.075   6.394  1.00  0.00     0.009 A 
ATOM     77  C   UNL     1      -6.527  -8.115   4.129  1.00  0.00     0.001 A 
ATOM     78  C   UNL     1      -6.491  -9.318   6.217  1.00  0.00     0.001 A 
ATOM     79  C   UNL     1      -5.818  -8.802   5.109  1.00  0.00     0.000 A 
ENDBRANCH  55  74
BRANCH  67  80
ATOM     80  C   UNL     1     -14.325  -9.115   9.781  1.00  0.00    -0.014 A 
ATOM     81  C   UNL     1     -15.110 -10.027   9.065  1.00  0.00     0.009 A 
ATOM     82  C   UNL     1     -14.546  -9.037  11.173  1.00  0.00     0.009 A 
ATOM     83  C   UNL     1     -16.031 -10.859   9.717  1.00  0.00     0.001 A 
ATOM     84  C   UNL     1     -15.480  -9.846  11.824  1.00  0.00     0.001 A 
ATOM     85  C   UNL     1     -16.217 -10.767  11.095  1.00  0.00     0.000 A 
ENDBRANCH  67  80
ENDBRANCH  41  42
ENDBRANCH  33  36
ENDBRANCH  31  32
ENDBRANCH  30  31
ENDBRANCH   1  30
TORSDOF 14
