REMARK SMILES CC1CC[NH+](CC(=O)N[C@H](Cc2cccc(F)c2)C(=O)NCCCNC(=O)c2ccc(-c3c4nc(c(-c5ccccc5)c5ccc([nH]5)c(-c5ccccc5)c5nc(c(-c6ccccc6)c6ccc3[nH]6)C=C5)C=C4)cc2)CC1
REMARK SMILES IDX 22 1 21 2 19 3 20 4 10 6 9 7 7 8 8 9 6 11 5 12 1 13 2 14
REMARK SMILES IDX 3 15 77 16 4 17 76 18 11 20 12 21 13 22 18 23 14 24 16 25
REMARK SMILES IDX 15 26 17 27 23 28 24 29 25 30 26 31 27 33 28 34 29 35 75 36
REMARK SMILES IDX 30 37 74 38 31 39 32 40 33 41 68 42 34 43 73 44 67 45 69 46
REMARK SMILES IDX 35 47 72 48 66 49 65 50 36 52 58 53 43 54 57 55 44 56 47 57
REMARK SMILES IDX 56 58 70 59 45 60 46 61 55 63 71 64 48 65 37 66 38 67 42 68
REMARK SMILES IDX 39 69 41 70 40 71 59 72 60 73 64 74 61 75 63 76 62 77 49 78
REMARK SMILES IDX 50 79 54 80 51 81 53 82 52 83
REMARK H PARENT 21 5 9 10 5 19 25 32 69 51 47 62
REMARK Flexibility Score: inf
ROOT
ATOM      1  C   UNL     1      -3.398  -3.084  -1.894  1.00  0.00     0.117 C 
ENDROOT
BRANCH   1   2
ATOM      2  N   UNL     1      -2.074  -3.656  -2.106  1.00  0.00    -0.354 N 
ATOM      3  C   UNL     1      -0.880  -3.002  -2.254  1.00  0.00     0.242 C 
ATOM      4  O   UNL     1      -0.008  -3.527  -2.947  1.00  0.00    -0.273 OA
ATOM      5  H   UNL     1      -2.033  -4.638  -2.147  1.00  0.00     0.163 HD
BRANCH   3   6
ATOM      6  C   UNL     1      -0.684  -1.618  -1.610  1.00  0.00     0.175 C 
BRANCH   6   7
ATOM      7  N   UNL     1      -1.257  -1.753  -0.255  1.00  0.00    -0.339 N 
ATOM      8  C   UNL     1      -1.109  -1.117   0.932  1.00  0.00     0.275 C 
ATOM      9  O   UNL     1      -1.670  -1.648   1.897  1.00  0.00    -0.268 OA
ATOM     10  H   UNL     1      -1.909  -2.489  -0.201  1.00  0.00     0.164 HD
BRANCH   8  11
ATOM     11  C   UNL     1      -0.375   0.201   1.065  1.00  0.00     0.363 C 
BRANCH  11  12
ATOM     12  N   UNL     1       1.068   0.188   1.341  1.00  0.00    -0.327 N 
ATOM     13  C   UNL     1       1.399  -3.837   2.495  1.00  0.00     0.008 C 
ATOM     14  C   UNL     1       1.998  -2.446   2.267  1.00  0.00    -0.003 C 
ATOM     15  C   UNL     1       1.311  -1.436   3.201  1.00  0.00     0.065 C 
ATOM     16  C   UNL     1       1.917  -2.097   0.774  1.00  0.00     0.065 C 
ATOM     17  C   UNL     1       1.426   0.008   2.739  1.00  0.00     0.262 C 
ATOM     18  C   UNL     1       1.938  -0.599   0.484  1.00  0.00     0.262 C 
ATOM     19  H   UNL     1       1.269   1.151   1.072  1.00  0.00     0.348 HD
ENDBRANCH  11  12
ENDBRANCH   8  11
ENDBRANCH   6   7
BRANCH   6  20
ATOM     20  C   UNL     1      -1.240  -0.502  -2.523  1.00  0.00     0.070 C 
BRANCH  20  21
ATOM     21  C   UNL     1      -0.441   0.785  -2.443  1.00  0.00    -0.043 A 
ATOM     22  C   UNL     1       0.897   0.825  -2.872  1.00  0.00     0.004 A 
ATOM     23  C   UNL     1      -0.983   1.920  -1.826  1.00  0.00     0.043 A 
ATOM     24  C   UNL     1       1.712   1.916  -2.554  1.00  0.00     0.003 A 
ATOM     25  C   UNL     1      -0.153   2.987  -1.488  1.00  0.00     0.123 A 
ATOM     26  C   UNL     1       1.194   2.983  -1.825  1.00  0.00     0.039 A 
ATOM     27  F   UNL     1      -0.649   3.994  -0.756  1.00  0.00    -0.207 F 
ENDBRANCH  20  21
ENDBRANCH   6  20
ENDBRANCH   3   6
ENDBRANCH   1   2
BRANCH   1  28
ATOM     28  C   UNL     1      -4.031  -2.721  -3.227  1.00  0.00     0.042 C 
BRANCH  28  29
ATOM     29  C   UNL     1      -4.217  -3.939  -4.117  1.00  0.00     0.118 C 
BRANCH  29  30
ATOM     30  N   UNL     1      -5.171  -4.881  -3.544  1.00  0.00    -0.352 N 
ATOM     31  C   UNL     1      -6.486  -5.081  -3.880  1.00  0.00     0.251 C 
ATOM     32  H   UNL     1      -4.825  -5.449  -2.818  1.00  0.00     0.163 HD
ATOM     33  O   UNL     1      -7.241  -5.683  -3.121  1.00  0.00    -0.269 OA
BRANCH  31  34
ATOM     34  C   UNL     1      -6.981  -4.544  -5.159  1.00  0.00     0.039 A 
ATOM     35  C   UNL     1      -8.184  -3.838  -5.193  1.00  0.00     0.014 A 
ATOM     36  C   UNL     1      -6.213  -4.701  -6.314  1.00  0.00     0.014 A 
ATOM     37  C   UNL     1      -8.572  -3.212  -6.378  1.00  0.00     0.010 A 
ATOM     38  C   UNL     1      -6.545  -3.991  -7.457  1.00  0.00     0.010 A 
ATOM     39  C   UNL     1      -7.729  -3.241  -7.501  1.00  0.00    -0.014 A 
BRANCH  39  40
ATOM     40  C   UNL     1      -8.046  -2.491  -8.739  1.00  0.00     0.031 A 
ATOM     41  C   UNL     1      -8.226  -3.233 -10.034  1.00  0.00     0.074 A 
ATOM     42  C   UNL     1      -8.068  -1.144  -8.713  1.00  0.00     0.049 A 
ATOM     43  N   UNL     1      -8.389  -2.756 -11.241  1.00  0.00    -0.248 NA
ATOM     44  C   UNL     1      -8.186  -4.704  -9.968  1.00  0.00     0.031 C 
ATOM     45  C   UNL     1      -7.871  -0.312  -7.523  1.00  0.00     0.029 A 
ATOM     46  N   UNL     1      -8.254  -0.236  -9.724  1.00  0.00    -0.354 N 
ATOM     47  C   UNL     1      -8.444  -3.864 -12.076  1.00  0.00     0.074 A 
ATOM     48  C   UNL     1      -8.250  -5.034 -11.250  1.00  0.00     0.031 C 
ATOM     49  C   UNL     1      -7.978   0.981  -7.868  1.00  0.00     0.029 A 
ATOM     50  C   UNL     1      -8.192   1.072  -9.308  1.00  0.00     0.049 A 
ATOM     51  H   UNL     1      -8.417  -0.496 -10.659  1.00  0.00     0.167 HD
ATOM     52  C   UNL     1      -8.654  -3.904 -13.413  1.00  0.00     0.031 A 
ATOM     53  C   UNL     1      -8.280   2.217 -10.011  1.00  0.00     0.031 A 
ATOM     54  C   UNL     1      -8.862  -2.737 -14.227  1.00  0.00     0.049 A 
ATOM     55  C   UNL     1      -8.475   2.143 -11.501  1.00  0.00     0.074 A 
ATOM     56  C   UNL     1      -9.158  -2.673 -15.576  1.00  0.00     0.029 A 
ATOM     57  N   UNL     1      -8.786  -1.432 -13.768  1.00  0.00    -0.354 N 
ATOM     58  N   UNL     1      -8.610   1.086 -12.265  1.00  0.00    -0.248 NA
ATOM     59  C   UNL     1      -8.528   3.421 -12.225  1.00  0.00     0.031 C 
ATOM     60  C   UNL     1      -9.192  -1.326 -15.949  1.00  0.00     0.029 A 
ATOM     61  C   UNL     1      -8.985  -0.553 -14.818  1.00  0.00     0.049 A 
ATOM     62  H   UNL     1      -8.616  -1.169 -12.834  1.00  0.00     0.167 HD
ATOM     63  C   UNL     1      -8.790   1.571 -13.553  1.00  0.00     0.074 A 
ATOM     64  C   UNL     1      -8.767   3.017 -13.464  1.00  0.00     0.031 C 
ATOM     65  C   UNL     1      -8.958   0.883 -14.708  1.00  0.00     0.031 A 
BRANCH  52  66
ATOM     66  C   UNL     1      -8.652  -5.250 -14.082  1.00  0.00    -0.014 A 
ATOM     67  C   UNL     1      -9.682  -6.178 -13.863  1.00  0.00     0.009 A 
ATOM     68  C   UNL     1      -7.628  -5.574 -14.985  1.00  0.00     0.009 A 
ATOM     69  C   UNL     1      -9.669  -7.416 -14.510  1.00  0.00     0.001 A 
ATOM     70  C   UNL     1      -7.633  -6.799 -15.654  1.00  0.00     0.001 A 
ATOM     71  C   UNL     1      -8.648  -7.722 -15.410  1.00  0.00     0.000 A 
ENDBRANCH  52  66
BRANCH  53  72
ATOM     72  C   UNL     1      -8.184   3.532  -9.324  1.00  0.00    -0.014 A 
ATOM     73  C   UNL     1      -9.300   4.380  -9.255  1.00  0.00     0.009 A 
ATOM     74  C   UNL     1      -6.975   3.958  -8.752  1.00  0.00     0.009 A 
ATOM     75  C   UNL     1      -9.199   5.638  -8.656  1.00  0.00     0.001 A 
ATOM     76  C   UNL     1      -6.886   5.203  -8.124  1.00  0.00     0.001 A 
ATOM     77  C   UNL     1      -7.994   6.046  -8.088  1.00  0.00     0.000 A 
ENDBRANCH  53  72
BRANCH  65  78
ATOM     78  C   UNL     1      -9.158   1.681 -15.966  1.00  0.00    -0.014 A 
ATOM     79  C   UNL     1      -8.098   2.387 -16.554  1.00  0.00     0.009 A 
ATOM     80  C   UNL     1     -10.409   1.673 -16.602  1.00  0.00     0.009 A 
ATOM     81  C   UNL     1      -8.296   3.092 -17.743  1.00  0.00     0.001 A 
ATOM     82  C   UNL     1     -10.595   2.352 -17.806  1.00  0.00     0.001 A 
ATOM     83  C   UNL     1      -9.540   3.067 -18.372  1.00  0.00     0.000 A 
ENDBRANCH  65  78
ENDBRANCH  39  40
ENDBRANCH  31  34
ENDBRANCH  29  30
ENDBRANCH  28  29
ENDBRANCH   1  28
TORSDOF 15
