REMARK SMILES O=C(NCCCNC(=O)[C@H]1CCCN(c2cc(-c3ccccn3)nc(-c3ccccc3F)n2)C1)c1ccc(-c2c3nc(c(-c4ccccc4)c4ccc([nH]4)c(-c4ccccc4)c4nc(c(-c5ccccc5)c5ccc2[nH]5)C=C4)C=C3)cc1
REMARK SMILES IDX 5 1 4 2 3 3 1 4 2 5 35 7 36 8 82 9 37 10 81 11 38 12 39 13
REMARK SMILES IDX 40 14 75 15 41 16 80 17 74 18 76 19 42 20 79 21 73 22 72 23
REMARK SMILES IDX 43 25 65 26 50 27 64 28 51 29 54 30 63 31 77 32 52 33 53 34
REMARK SMILES IDX 62 36 78 37 55 38 44 39 45 40 49 41 46 42 48 43 47 44 66 45
REMARK SMILES IDX 67 46 71 47 68 48 70 49 69 50 56 51 57 52 61 53 58 54 60 55
REMARK SMILES IDX 59 56 6 57 7 58 8 59 9 61 10 62 11 63 34 64 12 65 14 66
REMARK SMILES IDX 13 67 15 68 16 69 33 70 17 71 25 72 24 73 18 74 19 75 23 76
REMARK SMILES IDX 20 77 22 78 21 79 26 80 27 81 31 82 28 83 30 84 32 85 29 86
REMARK H PARENT 3 6 76 24 54 35 7 60
REMARK Flexibility Score: inf
ROOT
ATOM      1  C   UNL     1       2.545  -1.562  -6.037  1.00  0.00     0.042 C 
ENDROOT
BRANCH   1   2
ATOM      2  C   UNL     1       1.469  -1.548  -7.113  1.00  0.00     0.118 C 
BRANCH   2   3
ATOM      3  N   UNL     1       1.134  -2.899  -7.559  1.00  0.00    -0.352 N 
ATOM      4  O   UNL     1       0.066  -4.881  -7.514  1.00  0.00    -0.269 OA
ATOM      5  C   UNL     1       0.034  -3.677  -7.290  1.00  0.00     0.251 C 
ATOM      6  H   UNL     1       1.804  -3.319  -8.146  1.00  0.00     0.163 HD
BRANCH   5   7
ATOM      7  C   UNL     1      -1.185  -3.056  -6.737  1.00  0.00     0.039 A 
ATOM      8  C   UNL     1      -1.583  -1.795  -7.177  1.00  0.00     0.014 A 
ATOM      9  C   UNL     1      -1.960  -3.750  -5.803  1.00  0.00     0.014 A 
ATOM     10  C   UNL     1      -2.641  -1.153  -6.560  1.00  0.00     0.010 A 
ATOM     11  C   UNL     1      -3.108  -3.152  -5.277  1.00  0.00     0.010 A 
ATOM     12  C   UNL     1      -3.442  -1.837  -5.633  1.00  0.00    -0.014 A 
BRANCH  12  13
ATOM     13  C   UNL     1      -4.666  -1.164  -5.137  1.00  0.00     0.031 A 
ATOM     14  C   UNL     1      -4.843  -0.831  -3.685  1.00  0.00     0.074 A 
ATOM     15  C   UNL     1      -5.594  -0.793  -6.043  1.00  0.00     0.049 A 
ATOM     16  N   UNL     1      -5.827  -0.190  -3.107  1.00  0.00    -0.248 NA
ATOM     17  C   UNL     1      -3.789  -1.274  -2.759  1.00  0.00     0.031 C 
ATOM     18  C   UNL     1      -5.525  -1.070  -7.483  1.00  0.00     0.029 A 
ATOM     19  N   UNL     1      -6.750  -0.073  -5.902  1.00  0.00    -0.354 N 
ATOM     20  C   UNL     1      -5.519  -0.162  -1.753  1.00  0.00     0.074 A 
ATOM     21  C   UNL     1      -4.273  -0.879  -1.589  1.00  0.00     0.031 C 
ATOM     22  C   UNL     1      -6.549  -0.465  -8.098  1.00  0.00     0.029 A 
ATOM     23  C   UNL     1      -7.393   0.166  -7.093  1.00  0.00     0.049 A 
ATOM     24  H   UNL     1      -7.088   0.242  -5.033  1.00  0.00     0.167 HD
ATOM     25  C   UNL     1      -6.211   0.418  -0.742  1.00  0.00     0.031 A 
ATOM     26  C   UNL     1      -8.547   0.805  -7.350  1.00  0.00     0.031 A 
ATOM     27  C   UNL     1      -7.457   1.120  -0.915  1.00  0.00     0.049 A 
ATOM     28  C   UNL     1      -9.311   1.395  -6.204  1.00  0.00     0.074 A 
ATOM     29  C   UNL     1      -8.239   1.739   0.045  1.00  0.00     0.029 A 
ATOM     30  N   UNL     1      -8.104   1.295  -2.129  1.00  0.00    -0.354 N 
ATOM     31  N   UNL     1      -8.996   1.425  -4.931  1.00  0.00    -0.248 NA
ATOM     32  C   UNL     1     -10.588   2.041  -6.529  1.00  0.00     0.031 C 
ATOM     33  C   UNL     1      -9.383   2.245  -0.581  1.00  0.00     0.029 A 
ATOM     34  C   UNL     1      -9.283   1.997  -1.940  1.00  0.00     0.049 A 
ATOM     35  H   UNL     1      -7.773   0.969  -2.998  1.00  0.00     0.167 HD
ATOM     36  C   UNL     1     -10.030   2.104  -4.304  1.00  0.00     0.074 A 
ATOM     37  C   UNL     1     -10.962   2.497  -5.343  1.00  0.00     0.031 C 
ATOM     38  C   UNL     1     -10.199   2.372  -2.987  1.00  0.00     0.031 A 
BRANCH  25  39
ATOM     39  C   UNL     1      -5.645   0.299   0.646  1.00  0.00    -0.014 A 
ATOM     40  C   UNL     1      -4.495   1.007   1.027  1.00  0.00     0.009 A 
ATOM     41  C   UNL     1      -6.299  -0.495   1.603  1.00  0.00     0.009 A 
ATOM     42  C   UNL     1      -3.995   0.901   2.328  1.00  0.00     0.001 A 
ATOM     43  C   UNL     1      -5.814  -0.577   2.909  1.00  0.00     0.001 A 
ATOM     44  C   UNL     1      -4.658   0.115   3.269  1.00  0.00     0.000 A 
ENDBRANCH  25  39
BRANCH  26  45
ATOM     45  C   UNL     1      -9.062   0.882  -8.742  1.00  0.00    -0.014 A 
ATOM     46  C   UNL     1      -9.153   2.110  -9.412  1.00  0.00     0.009 A 
ATOM     47  C   UNL     1      -9.471  -0.286  -9.408  1.00  0.00     0.009 A 
ATOM     48  C   UNL     1      -9.674   2.171 -10.707  1.00  0.00     0.001 A 
ATOM     49  C   UNL     1      -9.956  -0.227 -10.715  1.00  0.00     0.001 A 
ATOM     50  C   UNL     1     -10.069   1.004 -11.359  1.00  0.00     0.000 A 
ENDBRANCH  26  45
BRANCH  38  51
ATOM     51  C   UNL     1     -11.424   3.156  -2.611  1.00  0.00    -0.014 A 
ATOM     52  C   UNL     1     -12.705   2.585  -2.679  1.00  0.00     0.009 A 
ATOM     53  C   UNL     1     -11.291   4.483  -2.175  1.00  0.00     0.009 A 
ATOM     54  C   UNL     1     -13.832   3.344  -2.360  1.00  0.00     0.001 A 
ATOM     55  C   UNL     1     -12.417   5.229  -1.826  1.00  0.00     0.001 A 
ATOM     56  C   UNL     1     -13.687   4.663  -1.931  1.00  0.00     0.000 A 
ENDBRANCH  38  51
ENDBRANCH  12  13
ENDBRANCH   5   7
ENDBRANCH   2   3
ENDBRANCH   1   2
BRANCH   1  57
ATOM     57  C   UNL     1       3.869  -2.060  -6.587  1.00  0.00     0.117 C 
BRANCH  57  58
ATOM     58  N   UNL     1       4.548  -1.028  -7.349  1.00  0.00    -0.356 N 
ATOM     59  C   UNL     1       5.523  -0.129  -7.078  1.00  0.00     0.224 C 
ATOM     60  H   UNL     1       4.225  -0.968  -8.277  1.00  0.00     0.163 HD
ATOM     61  O   UNL     1       5.782   0.640  -8.013  1.00  0.00    -0.275 OA
BRANCH  59  62
ATOM     62  C   UNL     1       6.248   0.015  -5.733  1.00  0.00     0.098 C 
ATOM     63  C   UNL     1       6.248  -1.220  -4.825  1.00  0.00     0.017 C 
ATOM     64  C   UNL     1       7.680   0.474  -6.087  1.00  0.00     0.131 C 
ATOM     65  C   UNL     1       7.280  -1.197  -3.707  1.00  0.00     0.022 C 
ATOM     66  N   UNL     1       8.617   0.310  -4.983  1.00  0.00    -0.356 N 
ATOM     67  C   UNL     1       8.659  -0.962  -4.290  1.00  0.00     0.118 C 
BRANCH  66  68
ATOM     68  C   UNL     1       9.327   1.389  -4.502  1.00  0.00     0.133 A 
ATOM     69  C   UNL     1      10.657   1.225  -4.184  1.00  0.00     0.077 A 
ATOM     70  N   UNL     1       8.724   2.579  -4.366  1.00  0.00    -0.211 NA
ATOM     71  C   UNL     1      11.358   2.322  -3.734  1.00  0.00     0.095 A 
ATOM     72  C   UNL     1       9.476   3.598  -3.902  1.00  0.00     0.165 A 
ATOM     73  N   UNL     1      10.777   3.523  -3.575  1.00  0.00    -0.226 NA
BRANCH  71  74
ATOM     74  C   UNL     1      12.794   2.203  -3.456  1.00  0.00     0.089 A 
ATOM     75  C   UNL     1      13.684   1.811  -4.460  1.00  0.00     0.030 A 
ATOM     76  N   UNL     1      13.187   2.376  -2.169  1.00  0.00    -0.255 NA
ATOM     77  C   UNL     1      15.018   1.588  -4.135  1.00  0.00     0.004 A 
ATOM     78  C   UNL     1      14.491   2.167  -1.886  1.00  0.00     0.112 A 
ATOM     79  C   UNL     1      15.431   1.768  -2.822  1.00  0.00     0.020 A 
ENDBRANCH  71  74
BRANCH  72  80
ATOM     80  C   UNL     1       8.816   4.880  -3.681  1.00  0.00     0.055 A 
ATOM     81  C   UNL     1       7.751   5.009  -2.770  1.00  0.00     0.015 A 
ATOM     82  C   UNL     1       9.248   6.033  -4.345  1.00  0.00     0.134 A 
ATOM     83  C   UNL     1       7.164   6.255  -2.520  1.00  0.00     0.001 A 
ATOM     84  C   UNL     1       8.662   7.276  -4.108  1.00  0.00     0.040 A 
ATOM     85  F   UNL     1      10.238   5.965  -5.249  1.00  0.00    -0.206 F 
ATOM     86  C   UNL     1       7.622   7.389  -3.188  1.00  0.00     0.003 A 
ENDBRANCH  72  80
ENDBRANCH  66  68
ENDBRANCH  59  62
ENDBRANCH  57  58
ENDBRANCH   1  57
TORSDOF 13
