REMARK SMILES O=C(C[C@@H]1C(=O)NCCN1C(=O)OCC1c2ccccc2-c2ccccc21)NCCCNC(=O)c1ccc(-c2c3nc(c(-c4ccccc4)c4ccc([nH]4)c(-c4ccccc4)c4nc(c(-c5ccccc5)c5ccc2[nH]5)C=C4)C=C3)cc1
REMARK SMILES IDX 1 1 2 2 28 3 3 5 4 6 5 7 10 8 6 9 7 10 9 11 8 12 11 14 12 15
REMARK SMILES IDX 13 16 14 17 15 18 16 19 27 20 17 21 21 22 22 23 26 24 18 25
REMARK SMILES IDX 20 26 23 27 25 28 19 29 24 30 29 31 30 32 31 33 32 34 33 35
REMARK SMILES IDX 34 37 35 38 36 39 82 40 37 41 81 42 38 43 39 44 40 45 75 46
REMARK SMILES IDX 41 47 80 48 74 49 76 50 42 51 79 52 73 53 72 54 43 56 65 57
REMARK SMILES IDX 50 58 64 59 51 60 54 61 63 62 77 63 52 64 53 65 62 67 78 68
REMARK SMILES IDX 55 69 44 70 45 71 49 72 46 73 48 74 47 75 66 76 67 77 71 78
REMARK SMILES IDX 68 79 70 80 69 81 56 82 57 83 61 84 58 85 60 86 59 87
REMARK H PARENT 28 4 7 13 32 36 76 55 54 66
REMARK Flexibility Score: inf
ROOT
ATOM      1  O   UNL     1       0.865   0.096   0.162  1.00  0.00    -0.275 OA
ATOM      2  C   UNL     1       2.088  -0.006   0.197  1.00  0.00     0.222 C 
ATOM      3  N   UNL     1       2.731  -1.052   0.802  1.00  0.00    -0.356 N 
ATOM      4  H   UNL     1       3.715  -1.075   0.771  1.00  0.00     0.163 HD
ENDROOT
BRANCH   2   5
ATOM      5  C   UNL     1       2.991   0.968  -0.539  1.00  0.00     0.135 C 
BRANCH   5   6
ATOM      6  C   UNL     1       3.901   1.933   0.252  1.00  0.00     0.187 C 
ATOM      7  C   UNL     1       4.032   1.489   1.739  1.00  0.00     0.243 C 
ATOM      8  N   UNL     1       3.662   3.400   0.078  1.00  0.00    -0.294 N 
ATOM      9  O   UNL     1       4.500   0.390   2.049  1.00  0.00    -0.273 OA
ATOM     10  N   UNL     1       3.557   2.320   2.716  1.00  0.00    -0.353 N 
ATOM     11  C   UNL     1       3.885   4.239   1.252  1.00  0.00     0.145 C 
ATOM     12  C   UNL     1       3.129   3.674   2.445  1.00  0.00     0.137 C 
ATOM     13  H   UNL     1       3.504   1.983   3.639  1.00  0.00     0.163 HD
BRANCH   8  14
ATOM     14  C   UNL     1       3.518   4.065  -1.130  1.00  0.00     0.410 C 
ATOM     15  O   UNL     1       3.650   5.278  -1.260  1.00  0.00    -0.224 OA
BRANCH  14  16
ATOM     16  O   UNL     1       3.150   3.251  -2.146  1.00  0.00    -0.448 OA
BRANCH  16  17
ATOM     17  C   UNL     1       2.568   3.883  -3.302  1.00  0.00     0.248 C 
BRANCH  17  18
ATOM     18  C   UNL     1       1.141   4.470  -3.116  1.00  0.00     0.088 C 
ATOM     19  C   UNL     1       0.472   4.265  -1.761  1.00  0.00    -0.029 A 
ATOM     20  C   UNL     1       1.119   5.993  -3.234  1.00  0.00    -0.029 A 
ATOM     21  C   UNL     1       0.106   3.083  -1.141  1.00  0.00     0.005 A 
ATOM     22  C   UNL     1       0.226   5.511  -1.142  1.00  0.00    -0.014 A 
ATOM     23  C   UNL     1       0.589   6.568  -2.060  1.00  0.00    -0.014 A 
ATOM     24  C   UNL     1       1.497   6.778  -4.314  1.00  0.00     0.005 A 
ATOM     25  C   UNL     1      -0.418   3.145   0.152  1.00  0.00     0.000 A 
ATOM     26  C   UNL     1      -0.301   5.574   0.139  1.00  0.00     0.009 A 
ATOM     27  C   UNL     1       0.442   7.941  -1.953  1.00  0.00     0.009 A 
ATOM     28  C   UNL     1       1.348   8.161  -4.205  1.00  0.00     0.000 A 
ATOM     29  C   UNL     1      -0.607   4.378   0.794  1.00  0.00     0.001 A 
ATOM     30  C   UNL     1       0.826   8.738  -3.036  1.00  0.00     0.001 A 
ENDBRANCH  17  18
ENDBRANCH  16  17
ENDBRANCH  14  16
ENDBRANCH   8  14
ENDBRANCH   5   6
ENDBRANCH   2   5
BRANCH   3  31
ATOM     31  C   UNL     1       2.041  -2.126   1.484  1.00  0.00     0.117 C 
BRANCH  31  32
ATOM     32  C   UNL     1       2.439  -3.490   0.937  1.00  0.00     0.042 C 
BRANCH  32  33
ATOM     33  C   UNL     1       3.939  -3.766   0.959  1.00  0.00     0.118 C 
BRANCH  33  34
ATOM     34  N   UNL     1       4.499  -3.811   2.303  1.00  0.00    -0.352 N 
ATOM     35  C   UNL     1       5.127  -4.840   2.964  1.00  0.00     0.251 C 
ATOM     36  H   UNL     1       4.415  -2.975   2.817  1.00  0.00     0.163 HD
ATOM     37  O   UNL     1       5.401  -4.734   4.155  1.00  0.00    -0.269 OA
BRANCH  35  38
ATOM     38  C   UNL     1       5.445  -6.095   2.249  1.00  0.00     0.039 A 
ATOM     39  C   UNL     1       5.134  -7.314   2.857  1.00  0.00     0.014 A 
ATOM     40  C   UNL     1       6.034  -6.075   0.982  1.00  0.00     0.014 A 
ATOM     41  C   UNL     1       5.325  -8.506   2.156  1.00  0.00     0.010 A 
ATOM     42  C   UNL     1       6.149  -7.257   0.254  1.00  0.00     0.010 A 
ATOM     43  C   UNL     1       5.782  -8.484   0.828  1.00  0.00    -0.014 A 
BRANCH  43  44
ATOM     44  C   UNL     1       5.840  -9.725   0.011  1.00  0.00     0.031 A 
ATOM     45  C   UNL     1       7.151 -10.230  -0.522  1.00  0.00     0.074 A 
ATOM     46  C   UNL     1       4.694 -10.358  -0.313  1.00  0.00     0.049 A 
ATOM     47  N   UNL     1       7.383 -11.252  -1.308  1.00  0.00    -0.248 NA
ATOM     48  C   UNL     1       8.357  -9.481  -0.138  1.00  0.00     0.031 C 
ATOM     49  C   UNL     1       3.352  -9.954   0.111  1.00  0.00     0.029 A 
ATOM     50  N   UNL     1       4.475 -11.473  -1.084  1.00  0.00    -0.354 N 
ATOM     51  C   UNL     1       8.755 -11.260  -1.523  1.00  0.00     0.074 A 
ATOM     52  C   UNL     1       9.297 -10.114  -0.824  1.00  0.00     0.031 C 
ATOM     53  C   UNL     1       2.454 -10.822  -0.381  1.00  0.00     0.029 A 
ATOM     54  C   UNL     1       3.148 -11.812  -1.198  1.00  0.00     0.049 A 
ATOM     55  H   UNL     1       5.200 -11.982  -1.513  1.00  0.00     0.167 HD
ATOM     56  C   UNL     1       9.499 -12.148  -2.224  1.00  0.00     0.031 A 
ATOM     57  C   UNL     1       2.551 -12.797  -1.896  1.00  0.00     0.031 A 
ATOM     58  C   UNL     1       8.960 -13.284  -2.925  1.00  0.00     0.049 A 
ATOM     59  C   UNL     1       3.396 -13.739  -2.708  1.00  0.00     0.074 A 
ATOM     60  C   UNL     1       9.640 -14.268  -3.622  1.00  0.00     0.029 A 
ATOM     61  N   UNL     1       7.610 -13.583  -3.028  1.00  0.00    -0.354 N 
ATOM     62  N   UNL     1       4.700 -13.774  -2.841  1.00  0.00    -0.248 NA
ATOM     63  C   UNL     1       2.685 -14.782  -3.461  1.00  0.00     0.031 C 
ATOM     64  C   UNL     1       8.698 -15.123  -4.204  1.00  0.00     0.029 A 
ATOM     65  C   UNL     1       7.435 -14.713  -3.810  1.00  0.00     0.049 A 
ATOM     66  H   UNL     1       6.883 -13.068  -2.608  1.00  0.00     0.167 HD
ATOM     67  C   UNL     1       4.966 -14.856  -3.672  1.00  0.00     0.074 A 
ATOM     68  C   UNL     1       3.691 -15.463  -3.991  1.00  0.00     0.031 C 
ATOM     69  C   UNL     1       6.160 -15.305  -4.129  1.00  0.00     0.031 A 
BRANCH  56  70
ATOM     70  C   UNL     1      10.985 -11.915  -2.284  1.00  0.00    -0.014 A 
ATOM     71  C   UNL     1      11.794 -12.069  -1.147  1.00  0.00     0.009 A 
ATOM     72  C   UNL     1      11.590 -11.578  -3.505  1.00  0.00     0.009 A 
ATOM     73  C   UNL     1      13.172 -11.852  -1.223  1.00  0.00     0.001 A 
ATOM     74  C   UNL     1      12.972 -11.394  -3.586  1.00  0.00     0.001 A 
ATOM     75  C   UNL     1      13.760 -11.520  -2.443  1.00  0.00     0.000 A 
ENDBRANCH  56  70
BRANCH  57  76
ATOM     76  C   UNL     1       1.071 -12.942  -1.867  1.00  0.00    -0.014 A 
ATOM     77  C   UNL     1       0.475 -14.052  -1.248  1.00  0.00     0.009 A 
ATOM     78  C   UNL     1       0.246 -11.981  -2.472  1.00  0.00     0.009 A 
ATOM     79  C   UNL     1      -0.913 -14.210  -1.262  1.00  0.00     0.001 A 
ATOM     80  C   UNL     1      -1.143 -12.124  -2.455  1.00  0.00     0.001 A 
ATOM     81  C   UNL     1      -1.721 -13.245  -1.861  1.00  0.00     0.000 A 
ENDBRANCH  57  76
BRANCH  69  82
ATOM     82  C   UNL     1       6.147 -16.529  -5.004  1.00  0.00    -0.014 A 
ATOM     83  C   UNL     1       5.640 -16.488  -6.312  1.00  0.00     0.009 A 
ATOM     84  C   UNL     1       6.686 -17.733  -4.522  1.00  0.00     0.009 A 
ATOM     85  C   UNL     1       5.640 -17.636  -7.107  1.00  0.00     0.001 A 
ATOM     86  C   UNL     1       6.716 -18.870  -5.331  1.00  0.00     0.001 A 
ATOM     87  C   UNL     1       6.184 -18.824  -6.618  1.00  0.00     0.000 A 
ENDBRANCH  69  82
ENDBRANCH  43  44
ENDBRANCH  35  38
ENDBRANCH  33  34
ENDBRANCH  32  33
ENDBRANCH  31  32
ENDBRANCH   3  31
TORSDOF 15
