REMARK SMILES CC[C@H]1CCCCN1S(=O)(=O)c1ccc2oc(C(=O)NCCCNC(=O)c3ccc(-c4c5nc(c(-c6ccccc6)c6ccc([nH]6)c(-c6ccccc6)c6nc(c(-c7ccccc7)c7ccc4[nH]7)C=C6)C=C5)cc3)c(C)c2c1
REMARK SMILES IDX 21 1 20 2 18 3 19 4 17 6 12 7 13 8 78 9 14 10 77 11 15 12
REMARK SMILES IDX 75 13 16 14 76 15 9 16 10 17 11 18 8 19 3 20 4 21 5 22 7 23
REMARK SMILES IDX 6 24 2 25 1 26 22 27 23 28 24 29 25 30 26 32 27 33 28 34
REMARK SMILES IDX 74 35 29 36 73 37 30 38 31 39 32 40 67 41 33 42 72 43 66 44
REMARK SMILES IDX 68 45 34 46 71 47 65 48 64 49 35 51 57 52 42 53 56 54 43 55
REMARK SMILES IDX 46 56 55 57 69 58 44 59 45 60 54 62 70 63 47 64 36 65 37 66
REMARK SMILES IDX 41 67 38 68 40 69 39 70 58 71 59 72 63 73 60 74 62 75 61 76
REMARK SMILES IDX 48 77 49 78 53 79 50 80 52 81 51 82
REMARK H PARENT 20 5 24 31 68 50 46 61
REMARK Flexibility Score: inf
ROOT
ATOM      1  C   UNL     1       0.389   2.227  10.182  1.00  0.00     0.118 C 
ENDROOT
BRANCH   1   2
ATOM      2  N   UNL     1      -0.772   3.060  10.009  1.00  0.00    -0.349 N 
ATOM      3  C   UNL     1      -1.490   3.342   8.860  1.00  0.00     0.287 C 
ATOM      4  O   UNL     1      -2.470   4.073   9.031  1.00  0.00    -0.266 OA
ATOM      5  H   UNL     1      -1.104   3.494  10.828  1.00  0.00     0.163 HD
BRANCH   3   6
ATOM      6  C   UNL     1      -1.090   2.860   7.539  1.00  0.00     0.195 A 
ATOM      7  C   UNL     1       0.117   1.664   3.303  1.00  0.00     0.083 A 
ATOM      8  C   UNL     1      -0.954   2.509   2.988  1.00  0.00     0.025 A 
ATOM      9  C   UNL     1       0.603   1.581   4.606  1.00  0.00     0.034 A 
ATOM     10  C   UNL     1      -1.599   3.253   4.001  1.00  0.00     0.049 A 
ATOM     11  C   UNL     1      -0.173   2.123   5.626  1.00  0.00     0.025 A 
ATOM     12  C   UNL     1      -1.191   2.995   5.312  1.00  0.00     0.135 A 
ATOM     13  C   UNL     1      -0.274   1.855   7.015  1.00  0.00     0.008 A 
ATOM     14  O   UNL     1      -1.699   3.506   6.466  1.00  0.00    -0.451 OA
ATOM     15  C   UNL     1       0.362   0.640   7.601  1.00  0.00     0.049 C 
BRANCH   7  16
ATOM     16  S   UNL     1       0.969   0.667   2.102  1.00  0.00     0.243 S 
ATOM     17  O   UNL     1       2.378   0.888   2.349  1.00  0.00    -0.207 OA
ATOM     18  O   UNL     1       0.385   0.944   0.806  1.00  0.00    -0.207 OA
BRANCH  16  19
ATOM     19  N   UNL     1       0.596  -0.980   2.497  1.00  0.00    -0.195 NA
ATOM     20  C   UNL     1       1.077  -1.993   1.483  1.00  0.00     0.073 C 
ATOM     21  C   UNL     1       0.360  -3.334   1.717  1.00  0.00     0.020 C 
ATOM     22  C   UNL     1       0.409  -3.845   3.154  1.00  0.00     0.003 C 
ATOM     23  C   UNL     1       0.770  -1.448   3.891  1.00  0.00     0.103 C 
ATOM     24  C   UNL     1       0.028  -2.756   4.135  1.00  0.00     0.017 C 
BRANCH  20  25
ATOM     25  C   UNL     1       2.615  -2.093   1.331  1.00  0.00     0.017 C 
ATOM     26  C   UNL     1       3.388  -3.066   2.210  1.00  0.00     0.005 C 
ENDBRANCH  20  25
ENDBRANCH  16  19
ENDBRANCH   7  16
ENDBRANCH   3   6
ENDBRANCH   1   2
BRANCH   1  27
ATOM     27  C   UNL     1       1.486   2.763  11.072  1.00  0.00     0.042 C 
BRANCH  27  28
ATOM     28  C   UNL     1       1.170   2.746  12.552  1.00  0.00     0.118 C 
BRANCH  28  29
ATOM     29  N   UNL     1       1.027   1.401  13.101  1.00  0.00    -0.352 N 
ATOM     30  C   UNL     1       1.873   0.610  13.845  1.00  0.00     0.251 C 
ATOM     31  H   UNL     1       0.160   0.979  12.901  1.00  0.00     0.163 HD
ATOM     32  O   UNL     1       1.563  -0.560  14.055  1.00  0.00    -0.269 OA
BRANCH  30  33
ATOM     33  C   UNL     1       3.161   1.126  14.365  1.00  0.00     0.039 A 
ATOM     34  C   UNL     1       4.261   0.265  14.451  1.00  0.00     0.014 A 
ATOM     35  C   UNL     1       3.296   2.444  14.792  1.00  0.00     0.014 A 
ATOM     36  C   UNL     1       5.502   0.754  14.872  1.00  0.00     0.010 A 
ATOM     37  C   UNL     1       4.553   2.963  15.067  1.00  0.00     0.010 A 
ATOM     38  C   UNL     1       5.670   2.122  15.134  1.00  0.00    -0.014 A 
BRANCH  38  39
ATOM     39  C   UNL     1       6.981   2.704  15.520  1.00  0.00     0.031 A 
ATOM     40  C   UNL     1       7.117   3.448  16.824  1.00  0.00     0.074 A 
ATOM     41  C   UNL     1       8.020   2.652  14.664  1.00  0.00     0.049 A 
ATOM     42  N   UNL     1       8.133   4.133  17.285  1.00  0.00    -0.248 NA
ATOM     43  C   UNL     1       5.937   3.461  17.706  1.00  0.00     0.031 C 
ATOM     44  C   UNL     1       8.010   2.010  13.348  1.00  0.00     0.029 A 
ATOM     45  N   UNL     1       9.290   3.160  14.773  1.00  0.00    -0.354 N 
ATOM     46  C   UNL     1       7.698   4.687  18.483  1.00  0.00     0.074 A 
ATOM     47  C   UNL     1       6.312   4.314  18.646  1.00  0.00     0.031 C 
ATOM     48  C   UNL     1       9.227   2.125  12.792  1.00  0.00     0.029 A 
ATOM     49  C   UNL     1      10.087   2.889  13.688  1.00  0.00     0.049 A 
ATOM     50  H   UNL     1       9.601   3.671  15.556  1.00  0.00     0.167 HD
ATOM     51  C   UNL     1       8.394   5.419  19.385  1.00  0.00     0.031 A 
ATOM     52  C   UNL     1      11.369   3.219  13.443  1.00  0.00     0.031 A 
ATOM     53  C   UNL     1       9.783   5.758  19.244  1.00  0.00     0.049 A 
ATOM     54  C   UNL     1      12.130   4.016  14.464  1.00  0.00     0.074 A 
ATOM     55  C   UNL     1      10.603   6.431  20.132  1.00  0.00     0.029 A 
ATOM     56  N   UNL     1      10.560   5.440  18.140  1.00  0.00    -0.354 N 
ATOM     57  N   UNL     1      11.723   4.480  15.620  1.00  0.00    -0.248 NA
ATOM     58  C   UNL     1      13.531   4.325  14.148  1.00  0.00     0.031 C 
ATOM     59  C   UNL     1      11.868   6.557  19.546  1.00  0.00     0.029 A 
ATOM     60  C   UNL     1      11.847   5.918  18.316  1.00  0.00     0.049 A 
ATOM     61  H   UNL     1      10.243   4.948  17.349  1.00  0.00     0.167 HD
ATOM     62  C   UNL     1      12.824   5.111  16.183  1.00  0.00     0.074 A 
ATOM     63  C   UNL     1      13.919   4.959  15.246  1.00  0.00     0.031 C 
ATOM     64  C   UNL     1      12.921   5.756  17.372  1.00  0.00     0.031 A 
BRANCH  51  65
ATOM     65  C   UNL     1       7.651   5.896  20.603  1.00  0.00    -0.014 A 
ATOM     66  C   UNL     1       7.205   4.996  21.585  1.00  0.00     0.009 A 
ATOM     67  C   UNL     1       7.390   7.264  20.771  1.00  0.00     0.009 A 
ATOM     68  C   UNL     1       6.467   5.449  22.680  1.00  0.00     0.001 A 
ATOM     69  C   UNL     1       6.681   7.719  21.885  1.00  0.00     0.001 A 
ATOM     70  C   UNL     1       6.208   6.811  22.831  1.00  0.00     0.000 A 
ENDBRANCH  51  65
BRANCH  52  71
ATOM     71  C   UNL     1      12.026   2.757  12.193  1.00  0.00    -0.014 A 
ATOM     72  C   UNL     1      12.984   1.732  12.238  1.00  0.00     0.009 A 
ATOM     73  C   UNL     1      11.693   3.321  10.952  1.00  0.00     0.009 A 
ATOM     74  C   UNL     1      13.610   1.294  11.069  1.00  0.00     0.001 A 
ATOM     75  C   UNL     1      12.302   2.863   9.781  1.00  0.00     0.001 A 
ATOM     76  C   UNL     1      13.265   1.856   9.841  1.00  0.00     0.000 A 
ENDBRANCH  52  71
BRANCH  64  77
ATOM     77  C   UNL     1      14.267   6.311  17.741  1.00  0.00    -0.014 A 
ATOM     78  C   UNL     1      14.780   7.456  17.113  1.00  0.00     0.009 A 
ATOM     79  C   UNL     1      15.009   5.703  18.765  1.00  0.00     0.009 A 
ATOM     80  C   UNL     1      16.029   7.961  17.482  1.00  0.00     0.001 A 
ATOM     81  C   UNL     1      16.243   6.226  19.151  1.00  0.00     0.001 A 
ATOM     82  C   UNL     1      16.756   7.350  18.503  1.00  0.00     0.000 A 
ENDBRANCH  64  77
ENDBRANCH  38  39
ENDBRANCH  30  33
ENDBRANCH  28  29
ENDBRANCH  27  28
ENDBRANCH   1  27
TORSDOF 13
