REMARK SMILES C[C@H](C(=O)NCCCNC(=O)c1ccc(-c2c3nc(c(-c4ccccc4)c4ccc([nH]4)c(-c4ccccc4)c4nc(c(-c5ccccc5)c5ccc2[nH]5)C=C4)C=C3)cc1)c1ccc2c3cc(Cl)ccc3n(C(=O)c3ccc(Cl)cc3)c2c1
REMARK SMILES IDX 6 1 5 2 3 3 4 4 2 6 1 7 60 8 61 9 82 10 62 11 81 12 63 13
REMARK SMILES IDX 71 14 64 15 70 16 65 17 69 18 66 19 68 20 67 21 72 22 73 23
REMARK SMILES IDX 74 24 75 25 80 26 76 27 79 28 77 29 78 30 7 31 8 32 9 33
REMARK SMILES IDX 10 34 11 36 12 37 13 38 59 39 14 40 58 41 15 42 16 43 17 44
REMARK SMILES IDX 52 45 18 46 57 47 51 48 53 49 19 50 56 51 50 52 49 53 20 55
REMARK SMILES IDX 42 56 27 57 41 58 28 59 31 60 40 61 54 62 29 63 30 64 39 66
REMARK SMILES IDX 55 67 32 68 21 69 22 70 26 71 23 72 25 73 24 74 43 75 44 76
REMARK SMILES IDX 48 77 45 78 47 79 46 80 33 81 34 82 38 83 35 84 37 85 36 86
REMARK H PARENT 5 5 9 35 53 54 31 65
REMARK Flexibility Score: inf
ROOT
ATOM      1  C   UNL     1       0.485   2.261   0.701  1.00  0.00     0.117 C 
ENDROOT
BRANCH   1   2
ATOM      2  N   UNL     1       1.033   0.925   0.822  1.00  0.00    -0.356 N 
ATOM      3  C   UNL     1       1.144  -0.056  -0.125  1.00  0.00     0.227 C 
ATOM      4  O   UNL     1       1.658  -1.123   0.215  1.00  0.00    -0.274 OA
ATOM      5  H   UNL     1       1.375   0.689   1.715  1.00  0.00     0.163 HD
BRANCH   3   6
ATOM      6  C   UNL     1       0.651   0.207  -1.556  1.00  0.00     0.105 C 
ATOM      7  C   UNL     1       1.246  -0.820  -2.527  1.00  0.00     0.023 C 
BRANCH   6   8
ATOM      8  C   UNL     1      -0.870   0.209  -1.650  1.00  0.00    -0.034 A 
ATOM      9  C   UNL     1      -1.548   1.315  -2.167  1.00  0.00     0.005 A 
ATOM     10  C   UNL     1      -1.606  -0.903  -1.211  1.00  0.00     0.032 A 
ATOM     11  C   UNL     1      -2.946   1.337  -2.230  1.00  0.00     0.011 A 
ATOM     12  C   UNL     1      -3.014  -0.874  -1.262  1.00  0.00     0.057 A 
ATOM     13  C   UNL     1      -3.691   0.228  -1.773  1.00  0.00     0.008 A 
ATOM     14  N   UNL     1      -3.960  -1.844  -0.901  1.00  0.00    -0.276 N 
ATOM     15  C   UNL     1      -5.084  -0.043  -1.674  1.00  0.00     0.009 A 
ATOM     16  C   UNL     1      -5.239  -1.305  -1.086  1.00  0.00     0.057 A 
ATOM     17  C   UNL     1      -6.228   0.721  -1.997  1.00  0.00     0.031 A 
ATOM     18  C   UNL     1      -6.519  -1.778  -0.730  1.00  0.00     0.029 A 
ATOM     19  C   UNL     1      -7.493   0.227  -1.686  1.00  0.00     0.041 A 
ATOM     20  C   UNL     1      -7.639  -0.999  -1.051  1.00  0.00     0.023 A 
ATOM     21  Cl  UNL     1      -8.885   1.169  -2.060  1.00  0.00    -0.084 Cl
BRANCH  14  22
ATOM     22  C   UNL     1      -3.609  -3.113  -0.375  1.00  0.00     0.262 C 
ATOM     23  O   UNL     1      -2.616  -3.132   0.355  1.00  0.00    -0.268 OA
BRANCH  22  24
ATOM     24  C   UNL     1      -4.261  -4.432  -0.637  1.00  0.00     0.040 A 
ATOM     25  C   UNL     1      -3.776  -5.541   0.085  1.00  0.00     0.015 A 
ATOM     26  C   UNL     1      -5.225  -4.651  -1.627  1.00  0.00     0.015 A 
ATOM     27  C   UNL     1      -4.261  -6.829  -0.151  1.00  0.00     0.021 A 
ATOM     28  C   UNL     1      -5.737  -5.940  -1.841  1.00  0.00     0.021 A 
ATOM     29  C   UNL     1      -5.251  -7.022  -1.107  1.00  0.00     0.041 A 
ATOM     30  Cl  UNL     1      -5.858  -8.604  -1.400  1.00  0.00    -0.084 Cl
ENDBRANCH  22  24
ENDBRANCH  14  22
ENDBRANCH   6   8
ENDBRANCH   3   6
ENDBRANCH   1   2
BRANCH   1  31
ATOM     31  C   UNL     1      -0.876   2.402   1.378  1.00  0.00     0.042 C 
BRANCH  31  32
ATOM     32  C   UNL     1      -0.839   2.307   2.903  1.00  0.00     0.118 C 
BRANCH  32  33
ATOM     33  N   UNL     1      -0.032   3.356   3.510  1.00  0.00    -0.352 N 
ATOM     34  C   UNL     1      -0.324   4.277   4.482  1.00  0.00     0.251 C 
ATOM     35  H   UNL     1       0.887   3.414   3.160  1.00  0.00     0.163 HD
ATOM     36  O   UNL     1       0.479   5.182   4.697  1.00  0.00    -0.269 OA
BRANCH  34  37
ATOM     37  C   UNL     1      -1.577   4.217   5.270  1.00  0.00     0.039 A 
ATOM     38  C   UNL     1      -2.166   5.426   5.658  1.00  0.00     0.014 A 
ATOM     39  C   UNL     1      -2.136   3.010   5.700  1.00  0.00     0.014 A 
ATOM     40  C   UNL     1      -3.327   5.425   6.434  1.00  0.00     0.010 A 
ATOM     41  C   UNL     1      -3.333   3.007   6.420  1.00  0.00     0.010 A 
ATOM     42  C   UNL     1      -3.937   4.214   6.800  1.00  0.00    -0.014 A 
BRANCH  42  43
ATOM     43  C   UNL     1      -5.210   4.219   7.566  1.00  0.00     0.031 A 
ATOM     44  C   UNL     1      -5.269   3.702   8.976  1.00  0.00     0.074 A 
ATOM     45  C   UNL     1      -6.329   4.682   6.975  1.00  0.00     0.049 A 
ATOM     46  N   UNL     1      -6.286   3.676   9.803  1.00  0.00    -0.248 NA
ATOM     47  C   UNL     1      -4.034   3.121   9.527  1.00  0.00     0.031 C 
ATOM     48  C   UNL     1      -6.418   5.168   5.596  1.00  0.00     0.029 A 
ATOM     49  N   UNL     1      -7.603   4.828   7.463  1.00  0.00    -0.354 N 
ATOM     50  C   UNL     1      -5.817   3.073  10.963  1.00  0.00     0.074 A 
ATOM     51  C   UNL     1      -4.439   2.705  10.719  1.00  0.00     0.031 C 
ATOM     52  C   UNL     1      -7.669   5.596   5.362  1.00  0.00     0.029 A 
ATOM     53  C   UNL     1      -8.475   5.388   6.561  1.00  0.00     0.049 A 
ATOM     54  H   UNL     1      -7.867   4.558   8.372  1.00  0.00     0.167 HD
ATOM     55  C   UNL     1      -6.467   2.861  12.133  1.00  0.00     0.031 A 
ATOM     56  C   UNL     1      -9.776   5.709   6.685  1.00  0.00     0.031 A 
ATOM     57  C   UNL     1      -7.837   3.228  12.382  1.00  0.00     0.049 A 
ATOM     58  C   UNL     1     -10.471   5.470   7.995  1.00  0.00     0.074 A 
ATOM     59  C   UNL     1      -8.566   3.103  13.552  1.00  0.00     0.029 A 
ATOM     60  N   UNL     1      -8.686   3.790  11.441  1.00  0.00    -0.354 N 
ATOM     61  N   UNL     1      -9.991   4.968   9.106  1.00  0.00    -0.248 NA
ATOM     62  C   UNL     1     -11.887   5.858   8.069  1.00  0.00     0.031 C 
ATOM     63  C   UNL     1      -9.870   3.546  13.306  1.00  0.00     0.029 A 
ATOM     64  C   UNL     1      -9.938   3.995  11.997  1.00  0.00     0.049 A 
ATOM     65  H   UNL     1      -8.436   4.010  10.515  1.00  0.00     0.167 HD
ATOM     66  C   UNL     1     -11.038   4.997  10.017  1.00  0.00     0.074 A 
ATOM     67  C   UNL     1     -12.171   5.589   9.335  1.00  0.00     0.031 C 
ATOM     68  C   UNL     1     -11.061   4.569  11.303  1.00  0.00     0.031 A 
BRANCH  55  69
ATOM     69  C   UNL     1      -5.698   2.193  13.240  1.00  0.00    -0.014 A 
ATOM     70  C   UNL     1      -4.669   2.866  13.919  1.00  0.00     0.009 A 
ATOM     71  C   UNL     1      -6.029   0.887  13.634  1.00  0.00     0.009 A 
ATOM     72  C   UNL     1      -3.965   2.233  14.945  1.00  0.00     0.001 A 
ATOM     73  C   UNL     1      -5.341   0.266  14.679  1.00  0.00     0.001 A 
ATOM     74  C   UNL     1      -4.304   0.935  15.327  1.00  0.00     0.000 A 
ENDBRANCH  55  69
BRANCH  56  75
ATOM     75  C   UNL     1     -10.500   6.322   5.543  1.00  0.00    -0.014 A 
ATOM     76  C   UNL     1     -10.868   7.675   5.578  1.00  0.00     0.009 A 
ATOM     77  C   UNL     1     -10.826   5.557   4.412  1.00  0.00     0.009 A 
ATOM     78  C   UNL     1     -11.570   8.245   4.513  1.00  0.00     0.001 A 
ATOM     79  C   UNL     1     -11.504   6.137   3.338  1.00  0.00     0.001 A 
ATOM     80  C   UNL     1     -11.883   7.477   3.393  1.00  0.00     0.000 A 
ENDBRANCH  56  75
BRANCH  68  81
ATOM     81  C   UNL     1     -12.350   4.744  12.054  1.00  0.00    -0.014 A 
ATOM     82  C   UNL     1     -13.471   3.949  11.767  1.00  0.00     0.009 A 
ATOM     83  C   UNL     1     -12.442   5.710  13.068  1.00  0.00     0.009 A 
ATOM     84  C   UNL     1     -14.671   4.147  12.452  1.00  0.00     0.001 A 
ATOM     85  C   UNL     1     -13.634   5.886  13.771  1.00  0.00     0.001 A 
ATOM     86  C   UNL     1     -14.751   5.114  13.455  1.00  0.00     0.000 A 
ENDBRANCH  68  81
ENDBRANCH  42  43
ENDBRANCH  34  37
ENDBRANCH  32  33
ENDBRANCH  31  32
ENDBRANCH   1  31
TORSDOF 13
