REMARK SMILES Cc1ccc(S(=O)(=O)N2c3ccc(C(=O)NCCCNC(=O)c4ccc(-c5c6nc(c(-c7ccccc7)c7ccc([nH]7)c(-c7ccccc7)c7nc(c(-c8ccccc8)c8ccc5[nH]8)C=C7)C=C6)cc4)cc3C[C@H]2C)cc1
REMARK SMILES IDX 18 1 17 2 16 3 14 4 15 5 13 7 9 8 10 9 74 10 11 11 72 12
REMARK SMILES IDX 73 13 75 14 12 15 71 16 6 17 7 18 8 19 5 20 1 21 2 22 3 23
REMARK SMILES IDX 77 24 4 25 76 26 19 27 20 28 21 29 22 31 23 32 24 33 70 34
REMARK SMILES IDX 25 35 69 36 26 37 27 38 28 39 63 40 29 41 68 42 62 43 64 44
REMARK SMILES IDX 30 45 67 46 61 47 60 48 31 50 53 51 38 52 52 53 39 54 42 55
REMARK SMILES IDX 51 56 65 57 40 58 41 59 50 61 66 62 43 63 32 64 33 65 37 66
REMARK SMILES IDX 34 67 36 68 35 69 54 70 55 71 59 72 56 73 58 74 57 75 44 76
REMARK SMILES IDX 45 77 49 78 46 79 48 80 47 81
REMARK H PARENT 16 6 20 30 64 49 42 60
REMARK Flexibility Score: inf
ROOT
ATOM      1  C   UNL     1     -10.301   0.703   2.481  1.00  0.00     0.042 C 
ENDROOT
BRANCH   1   2
ATOM      2  C   UNL     1     -10.646   0.517   1.002  1.00  0.00     0.118 C 
BRANCH   2   3
ATOM      3  N   UNL     1     -10.588   1.772   0.269  1.00  0.00    -0.352 N 
ATOM      4  C   UNL     1      -9.552   2.514  -0.242  1.00  0.00     0.251 C 
ATOM      5  O   UNL     1      -9.864   3.519  -0.886  1.00  0.00    -0.269 OA
ATOM      6  H   UNL     1     -11.473   2.171   0.107  1.00  0.00     0.163 HD
BRANCH   4   7
ATOM      7  C   UNL     1      -8.095   2.208  -0.057  1.00  0.00     0.040 A 
ATOM      8  N   UNL     1      -3.894   1.803   0.286  1.00  0.00    -0.263 N 
ATOM      9  C   UNL     1      -5.336   1.845   0.264  1.00  0.00     0.055 A 
ATOM     10  C   UNL     1      -3.491   3.075  -0.444  1.00  0.00     0.101 C 
ATOM     11  C   UNL     1      -6.193   1.046   0.981  1.00  0.00     0.028 A 
ATOM     12  C   UNL     1      -5.822   2.813  -0.605  1.00  0.00    -0.021 A 
ATOM     13  C   UNL     1      -4.698   3.488  -1.316  1.00  0.00     0.063 C 
ATOM     14  C   UNL     1      -3.202   4.143   0.623  1.00  0.00     0.032 C 
ATOM     15  C   UNL     1      -7.568   1.226   0.800  1.00  0.00     0.016 A 
ATOM     16  C   UNL     1      -7.186   3.007  -0.777  1.00  0.00     0.019 A 
BRANCH   8  17
ATOM     17  S   UNL     1      -3.309   0.317  -0.376  1.00  0.00     0.264 S 
ATOM     18  O   UNL     1      -3.484   0.375  -1.813  1.00  0.00    -0.201 OA
ATOM     19  O   UNL     1      -3.877  -0.772   0.399  1.00  0.00    -0.201 OA
BRANCH  17  20
ATOM     20  C   UNL     1      -1.554   0.217  -0.092  1.00  0.00     0.088 A 
ATOM     21  C   UNL     1       2.723  -0.225   0.105  1.00  0.00     0.044 C 
ATOM     22  C   UNL     1       1.231  -0.077   0.079  1.00  0.00    -0.051 A 
ATOM     23  C   UNL     1       0.420  -1.190  -0.166  1.00  0.00     0.005 A 
ATOM     24  C   UNL     1       0.630   1.165   0.309  1.00  0.00     0.005 A 
ATOM     25  C   UNL     1      -0.965  -1.044  -0.257  1.00  0.00     0.022 A 
ATOM     26  C   UNL     1      -0.758   1.310   0.239  1.00  0.00     0.022 A 
ENDBRANCH  17  20
ENDBRANCH   8  17
ENDBRANCH   4   7
ENDBRANCH   2   3
ENDBRANCH   1   2
BRANCH   1  27
ATOM     27  C   UNL     1     -11.509   0.673   3.391  1.00  0.00     0.118 C 
BRANCH  27  28
ATOM     28  N   UNL     1     -11.805  -0.649   3.933  1.00  0.00    -0.352 N 
ATOM     29  C   UNL     1     -12.906  -1.073   4.660  1.00  0.00     0.251 C 
ATOM     30  H   UNL     1     -11.126  -1.339   3.756  1.00  0.00     0.163 HD
ATOM     31  O   UNL     1     -12.971  -2.217   5.073  1.00  0.00    -0.269 OA
BRANCH  29  32
ATOM     32  C   UNL     1     -14.067  -0.160   4.795  1.00  0.00     0.039 A 
ATOM     33  C   UNL     1     -15.330  -0.675   4.485  1.00  0.00     0.014 A 
ATOM     34  C   UNL     1     -13.880   1.210   4.939  1.00  0.00     0.014 A 
ATOM     35  C   UNL     1     -16.325   0.193   4.048  1.00  0.00     0.010 A 
ATOM     36  C   UNL     1     -14.808   2.056   4.373  1.00  0.00     0.010 A 
ATOM     37  C   UNL     1     -16.003   1.538   3.872  1.00  0.00    -0.014 A 
BRANCH  37  38
ATOM     38  C   UNL     1     -16.821   2.459   3.098  1.00  0.00     0.031 A 
ATOM     39  C   UNL     1     -17.642   3.464   3.798  1.00  0.00     0.074 A 
ATOM     40  C   UNL     1     -16.807   2.421   1.746  1.00  0.00     0.049 A 
ATOM     41  N   UNL     1     -18.777   3.892   3.359  1.00  0.00    -0.248 NA
ATOM     42  C   UNL     1     -17.263   4.034   5.088  1.00  0.00     0.031 C 
ATOM     43  C   UNL     1     -17.391   3.404   0.837  1.00  0.00     0.029 A 
ATOM     44  N   UNL     1     -16.443   1.364   0.909  1.00  0.00    -0.354 N 
ATOM     45  C   UNL     1     -19.113   4.982   4.124  1.00  0.00     0.074 A 
ATOM     46  C   UNL     1     -18.198   4.976   5.241  1.00  0.00     0.031 C 
ATOM     47  C   UNL     1     -17.630   2.808  -0.342  1.00  0.00     0.029 A 
ATOM     48  C   UNL     1     -17.328   1.395  -0.179  1.00  0.00     0.049 A 
ATOM     49  H   UNL     1     -15.709   0.723   1.054  1.00  0.00     0.167 HD
ATOM     50  C   UNL     1     -20.015   5.889   3.664  1.00  0.00     0.031 A 
ATOM     51  C   UNL     1     -18.159   0.368  -0.517  1.00  0.00     0.031 A 
ATOM     52  C   UNL     1     -20.517   5.543   2.342  1.00  0.00     0.049 A 
ATOM     53  C   UNL     1     -19.614   0.781  -0.550  1.00  0.00     0.074 A 
ATOM     54  C   UNL     1     -20.165   5.972   1.072  1.00  0.00     0.029 A 
ATOM     55  N   UNL     1     -21.287   4.400   2.176  1.00  0.00    -0.354 N 
ATOM     56  N   UNL     1     -20.081   1.835   0.059  1.00  0.00    -0.248 NA
ATOM     57  C   UNL     1     -20.662   0.015  -1.219  1.00  0.00     0.031 C 
ATOM     58  C   UNL     1     -20.701   5.054   0.136  1.00  0.00     0.029 A 
ATOM     59  C   UNL     1     -21.393   4.084   0.837  1.00  0.00     0.049 A 
ATOM     60  H   UNL     1     -21.700   3.889   2.909  1.00  0.00     0.167 HD
ATOM     61  C   UNL     1     -21.437   1.912  -0.129  1.00  0.00     0.074 A 
ATOM     62  C   UNL     1     -21.755   0.746  -0.931  1.00  0.00     0.031 C 
ATOM     63  C   UNL     1     -22.172   2.933   0.402  1.00  0.00     0.031 A 
BRANCH  50  64
ATOM     64  C   UNL     1     -20.161   7.245   4.294  1.00  0.00    -0.014 A 
ATOM     65  C   UNL     1     -20.335   8.378   3.479  1.00  0.00     0.009 A 
ATOM     66  C   UNL     1     -20.088   7.470   5.679  1.00  0.00     0.009 A 
ATOM     67  C   UNL     1     -20.341   9.673   4.008  1.00  0.00     0.001 A 
ATOM     68  C   UNL     1     -20.054   8.766   6.210  1.00  0.00     0.001 A 
ATOM     69  C   UNL     1     -20.171   9.869   5.372  1.00  0.00     0.000 A 
ENDBRANCH  50  64
BRANCH  51  70
ATOM     70  C   UNL     1     -17.688  -0.976  -0.095  1.00  0.00    -0.014 A 
ATOM     71  C   UNL     1     -16.591  -1.546  -0.768  1.00  0.00     0.009 A 
ATOM     72  C   UNL     1     -18.050  -1.493   1.158  1.00  0.00     0.009 A 
ATOM     73  C   UNL     1     -15.814  -2.535  -0.158  1.00  0.00     0.001 A 
ATOM     74  C   UNL     1     -17.268  -2.482   1.765  1.00  0.00     0.001 A 
ATOM     75  C   UNL     1     -16.134  -2.979   1.122  1.00  0.00     0.000 A 
ENDBRANCH  51  70
BRANCH  63  76
ATOM     76  C   UNL     1     -23.679   3.023   0.496  1.00  0.00    -0.014 A 
ATOM     77  C   UNL     1     -24.556   1.945   0.329  1.00  0.00     0.009 A 
ATOM     78  C   UNL     1     -24.263   4.247   0.903  1.00  0.00     0.009 A 
ATOM     79  C   UNL     1     -25.939   2.091   0.521  1.00  0.00     0.001 A 
ATOM     80  C   UNL     1     -25.631   4.386   1.142  1.00  0.00     0.001 A 
ATOM     81  C   UNL     1     -26.474   3.306   0.939  1.00  0.00     0.000 A 
ENDBRANCH  63  76
ENDBRANCH  37  38
ENDBRANCH  29  32
ENDBRANCH  27  28
ENDBRANCH   1  27
TORSDOF 12
