REMARK SMILES C[C@@H](C(=O)NCCCNC(=O)c1ccc(-c2c3nc(c(-c4ccccc4)c4ccc([nH]4)c(-c4ccccc4)c4nc(c(-c5ccccc5)c5ccc2[nH]5)C=C4)C=C3)cc1)c1ccc(C[C@@H]2CCC[C@@H]2O)cc1F
REMARK SMILES IDX 6 1 5 2 3 3 4 4 2 6 1 7 60 8 61 9 72 10 62 11 71 12 73 13
REMARK SMILES IDX 63 14 64 15 65 16 66 17 69 18 67 19 68 20 70 21 7 23 8 24
REMARK SMILES IDX 9 25 10 26 11 28 12 29 13 30 59 31 14 32 58 33 15 34 16 35
REMARK SMILES IDX 17 36 52 37 18 38 57 39 51 40 53 41 19 42 56 43 50 44 49 45
REMARK SMILES IDX 20 47 42 48 27 49 41 50 28 51 31 52 40 53 54 54 29 55 30 56
REMARK SMILES IDX 39 58 55 59 32 60 21 61 22 62 26 63 23 64 25 65 24 66 43 67
REMARK SMILES IDX 44 68 48 69 45 70 47 71 46 72 33 73 34 74 38 75 35 76 37 77
REMARK SMILES IDX 36 78
REMARK H PARENT 5 5 70 22 9 27 53 46 31 57
REMARK Flexibility Score: inf
ROOT
ATOM      1  C   UNL     1     -10.345   4.289  10.087  1.00  0.00     0.117 C 
ENDROOT
BRANCH   1   2
ATOM      2  N   UNL     1      -9.106   3.637   9.714  1.00  0.00    -0.356 N 
ATOM      3  C   UNL     1      -8.814   2.821   8.661  1.00  0.00     0.227 C 
ATOM      4  O   UNL     1      -7.680   2.336   8.655  1.00  0.00    -0.274 OA
ATOM      5  H   UNL     1      -8.350   3.812  10.320  1.00  0.00     0.163 HD
BRANCH   3   6
ATOM      6  C   UNL     1      -9.856   2.569   7.557  1.00  0.00     0.108 C 
ATOM      7  C   UNL     1     -11.016   1.690   8.027  1.00  0.00     0.023 C 
BRANCH   6   8
ATOM      8  C   UNL     1      -9.238   1.946   6.314  1.00  0.00    -0.000 A 
ATOM      9  C   UNL     1      -8.598   0.698   6.366  1.00  0.00     0.008 A 
ATOM     10  C   UNL     1      -9.299   2.603   5.084  1.00  0.00     0.127 A 
ATOM     11  C   UNL     1      -8.000   0.154   5.229  1.00  0.00     0.004 A 
ATOM     12  C   UNL     1      -8.698   2.069   3.947  1.00  0.00     0.043 A 
ATOM     13  F   UNL     1      -9.938   3.778   4.983  1.00  0.00    -0.207 F 
ATOM     14  C   UNL     1      -8.010   0.851   4.016  1.00  0.00    -0.045 A 
BRANCH  14  15
ATOM     15  C   UNL     1      -7.268   0.320   2.816  1.00  0.00     0.041 C 
BRANCH  15  16
ATOM     16  C   UNL     1      -5.737   0.532   2.763  1.00  0.00     0.022 C 
ATOM     17  C   UNL     1      -4.940  -0.141   3.888  1.00  0.00     0.007 C 
ATOM     18  C   UNL     1      -5.229   1.976   2.818  1.00  0.00     0.117 C 
ATOM     19  C   UNL     1      -4.633   0.946   4.923  1.00  0.00     0.003 C 
ATOM     20  C   UNL     1      -5.050   2.274   4.301  1.00  0.00     0.032 C 
BRANCH  18  21
ATOM     21  O   UNL     1      -6.087   2.894   2.173  1.00  0.00    -0.393 OA
ATOM     22  H   UNL     1      -6.960   2.871   2.595  1.00  0.00     0.210 HD
ENDBRANCH  18  21
ENDBRANCH  15  16
ENDBRANCH  14  15
ENDBRANCH   6   8
ENDBRANCH   3   6
ENDBRANCH   1   2
BRANCH   1  23
ATOM     23  C   UNL     1     -11.043   3.547  11.223  1.00  0.00     0.042 C 
BRANCH  23  24
ATOM     24  C   UNL     1     -10.237   3.494  12.517  1.00  0.00     0.118 C 
BRANCH  24  25
ATOM     25  N   UNL     1     -10.076   4.802  13.136  1.00  0.00    -0.352 N 
ATOM     26  C   UNL     1     -10.479   5.235  14.376  1.00  0.00     0.251 C 
ATOM     27  H   UNL     1      -9.612   5.474  12.586  1.00  0.00     0.163 HD
ATOM     28  O   UNL     1     -10.417   6.425  14.667  1.00  0.00    -0.269 OA
BRANCH  26  29
ATOM     29  C   UNL     1     -11.011   4.263  15.353  1.00  0.00     0.039 A 
ATOM     30  C   UNL     1     -12.196   4.559  16.034  1.00  0.00     0.014 A 
ATOM     31  C   UNL     1     -10.346   3.057  15.585  1.00  0.00     0.014 A 
ATOM     32  C   UNL     1     -12.756   3.610  16.892  1.00  0.00     0.010 A 
ATOM     33  C   UNL     1     -10.943   2.086  16.378  1.00  0.00     0.010 A 
ATOM     34  C   UNL     1     -12.154   2.351  17.039  1.00  0.00    -0.014 A 
BRANCH  34  35
ATOM     35  C   UNL     1     -12.750   1.282  17.878  1.00  0.00     0.031 A 
ATOM     36  C   UNL     1     -11.990   0.757  19.062  1.00  0.00     0.074 A 
ATOM     37  C   UNL     1     -13.906   0.700  17.506  1.00  0.00     0.049 A 
ATOM     38  N   UNL     1     -12.236  -0.290  19.807  1.00  0.00    -0.248 NA
ATOM     39  C   UNL     1     -10.768   1.490  19.432  1.00  0.00     0.031 C 
ATOM     40  C   UNL     1     -14.727   1.097  16.361  1.00  0.00     0.029 A 
ATOM     41  N   UNL     1     -14.572  -0.376  18.038  1.00  0.00    -0.354 N 
ATOM     42  C   UNL     1     -11.182  -0.362  20.709  1.00  0.00     0.074 A 
ATOM     43  C   UNL     1     -10.275   0.719  20.389  1.00  0.00     0.031 C 
ATOM     44  C   UNL     1     -15.784   0.275  16.275  1.00  0.00     0.029 A 
ATOM     45  C   UNL     1     -15.690  -0.735  17.325  1.00  0.00     0.049 A 
ATOM     46  H   UNL     1     -14.278  -0.844  18.853  1.00  0.00     0.167 HD
ATOM     47  C   UNL     1     -10.990  -1.245  21.718  1.00  0.00     0.031 A 
ATOM     48  C   UNL     1     -16.529  -1.778  17.478  1.00  0.00     0.031 A 
ATOM     49  C   UNL     1     -11.897  -2.315  22.035  1.00  0.00     0.049 A 
ATOM     50  C   UNL     1     -16.293  -2.757  18.593  1.00  0.00     0.074 A 
ATOM     51  C   UNL     1     -11.826  -3.227  23.074  1.00  0.00     0.029 A 
ATOM     52  N   UNL     1     -13.038  -2.621  21.309  1.00  0.00    -0.354 N 
ATOM     53  N   UNL     1     -15.324  -2.782  19.476  1.00  0.00    -0.248 NA
ATOM     54  C   UNL     1     -17.270  -3.845  18.740  1.00  0.00     0.031 C 
ATOM     55  C   UNL     1     -12.895  -4.119  22.943  1.00  0.00     0.029 A 
ATOM     56  C   UNL     1     -13.666  -3.724  21.862  1.00  0.00     0.049 A 
ATOM     57  H   UNL     1     -13.355  -2.127  20.519  1.00  0.00     0.167 HD
ATOM     58  C   UNL     1     -15.590  -3.867  20.301  1.00  0.00     0.074 A 
ATOM     59  C   UNL     1     -16.812  -4.474  19.815  1.00  0.00     0.031 C 
ATOM     60  C   UNL     1     -14.886  -4.314  21.370  1.00  0.00     0.031 A 
BRANCH  47  61
ATOM     61  C   UNL     1      -9.732  -1.096  22.529  1.00  0.00    -0.014 A 
ATOM     62  C   UNL     1      -9.524   0.014  23.364  1.00  0.00     0.009 A 
ATOM     63  C   UNL     1      -8.734  -2.080  22.451  1.00  0.00     0.009 A 
ATOM     64  C   UNL     1      -8.320   0.163  24.057  1.00  0.00     0.001 A 
ATOM     65  C   UNL     1      -7.547  -1.946  23.172  1.00  0.00     0.001 A 
ATOM     66  C   UNL     1      -7.334  -0.818  23.962  1.00  0.00     0.000 A 
ENDBRANCH  47  61
BRANCH  48  67
ATOM     67  C   UNL     1     -17.669  -1.941  16.540  1.00  0.00    -0.014 A 
ATOM     68  C   UNL     1     -18.980  -1.668  16.957  1.00  0.00     0.009 A 
ATOM     69  C   UNL     1     -17.447  -2.329  15.208  1.00  0.00     0.009 A 
ATOM     70  C   UNL     1     -20.047  -1.793  16.064  1.00  0.00     0.001 A 
ATOM     71  C   UNL     1     -18.513  -2.427  14.311  1.00  0.00     0.001 A 
ATOM     72  C   UNL     1     -19.812  -2.164  14.741  1.00  0.00     0.000 A 
ENDBRANCH  48  67
BRANCH  60  73
ATOM     73  C   UNL     1     -15.437  -5.491  22.125  1.00  0.00    -0.014 A 
ATOM     74  C   UNL     1     -15.360  -6.793  21.610  1.00  0.00     0.009 A 
ATOM     75  C   UNL     1     -15.966  -5.297  23.412  1.00  0.00     0.009 A 
ATOM     76  C   UNL     1     -15.817  -7.877  22.364  1.00  0.00     0.001 A 
ATOM     77  C   UNL     1     -16.396  -6.383  24.173  1.00  0.00     0.001 A 
ATOM     78  C   UNL     1     -16.325  -7.672  23.647  1.00  0.00     0.000 A 
ENDBRANCH  60  73
ENDBRANCH  34  35
ENDBRANCH  26  29
ENDBRANCH  24  25
ENDBRANCH  23  24
ENDBRANCH   1  23
TORSDOF 14
