REMARK SMILES CC(C)([NH2+]C[C@@H]1COc2ccccc21)C(=O)NCCCNC(=O)c1ccc(-c2c3nc(c(-c4ccccc4)c4ccc([nH]4)c(-c4ccccc4)c4nc(c(-c5ccccc5)c5ccc2[nH]5)C=C4)C=C3)cc1
REMARK SMILES IDX 18 1 17 2 15 3 16 4 2 6 1 7 3 8 4 9 5 12 6 13 7 14 14 15
REMARK SMILES IDX 8 16 9 17 13 18 10 19 12 20 11 21 19 22 20 23 21 24 22 25
REMARK SMILES IDX 23 27 24 28 25 29 71 30 26 31 70 32 27 33 28 34 29 35 64 36
REMARK SMILES IDX 30 37 69 38 63 39 65 40 31 41 68 42 62 43 61 44 32 46 54 47
REMARK SMILES IDX 39 48 53 49 40 50 43 51 52 52 66 53 41 54 42 55 51 57 67 58
REMARK SMILES IDX 44 59 33 60 34 61 38 62 35 63 37 64 36 65 55 66 56 67 60 68
REMARK SMILES IDX 57 69 59 70 58 71 45 72 46 73 50 74 47 75 49 76 48 77
REMARK H PARENT 17 5 4 10 4 11 21 26 65 45 43 56
REMARK Flexibility Score: inf
ROOT
ATOM      1  C   UNL     1       1.788  -5.071  -0.917  1.00  0.00     0.118 C 
ENDROOT
BRANCH   1   2
ATOM      2  N   UNL     1       2.424  -5.163   0.366  1.00  0.00    -0.351 N 
ATOM      3  C   UNL     1       1.915  -5.013   1.617  1.00  0.00     0.280 C 
ATOM      4  O   UNL     1       2.769  -5.070   2.513  1.00  0.00    -0.268 OA
ATOM      5  H   UNL     1       3.386  -5.369   0.335  1.00  0.00     0.163 HD
BRANCH   3   6
ATOM      6  C   UNL     1       0.379  -4.891   1.942  1.00  0.00     0.169 C 
ATOM      7  C   UNL     1       0.319  -4.880   3.506  1.00  0.00     0.090 C 
ATOM      8  C   UNL     1      -0.381  -6.148   1.527  1.00  0.00     0.090 C 
BRANCH   6   9
ATOM      9  N   UNL     1      -0.252  -3.594   1.589  1.00  0.00    -0.333 N 
ATOM     10  H   UNL     1       0.403  -2.889   1.927  1.00  0.00     0.347 HD
ATOM     11  H   UNL     1      -1.178  -3.764   1.980  1.00  0.00     0.347 HD
BRANCH   9  12
ATOM     12  C   UNL     1      -0.657  -3.117   0.270  1.00  0.00     0.273 C 
BRANCH  12  13
ATOM     13  C   UNL     1      -1.881  -3.598  -0.569  1.00  0.00     0.116 C 
ATOM     14  C   UNL     1      -3.057  -4.142   0.250  1.00  0.00     0.244 C 
ATOM     15  C   UNL     1      -1.716  -4.724  -1.528  1.00  0.00     0.006 A 
ATOM     16  O   UNL     1      -3.166  -5.573   0.053  1.00  0.00    -0.492 OA
ATOM     17  C   UNL     1      -2.432  -5.819  -1.077  1.00  0.00     0.123 A 
ATOM     18  C   UNL     1      -1.007  -4.805  -2.719  1.00  0.00     0.008 A 
ATOM     19  C   UNL     1      -2.355  -7.053  -1.694  1.00  0.00     0.047 A 
ATOM     20  C   UNL     1      -0.908  -6.045  -3.362  1.00  0.00     0.001 A 
ATOM     21  C   UNL     1      -1.560  -7.170  -2.836  1.00  0.00     0.004 A 
ENDBRANCH  12  13
ENDBRANCH   9  12
ENDBRANCH   6   9
ENDBRANCH   3   6
ENDBRANCH   1   2
BRANCH   1  22
ATOM     22  C   UNL     1       2.162  -3.771  -1.619  1.00  0.00     0.042 C 
BRANCH  22  23
ATOM     23  C   UNL     1       3.193  -3.953  -2.710  1.00  0.00     0.118 C 
BRANCH  23  24
ATOM     24  N   UNL     1       2.675  -4.727  -3.834  1.00  0.00    -0.352 N 
ATOM     25  C   UNL     1       2.580  -4.413  -5.167  1.00  0.00     0.251 C 
ATOM     26  H   UNL     1       2.339  -5.622  -3.598  1.00  0.00     0.163 HD
ATOM     27  O   UNL     1       1.938  -5.149  -5.915  1.00  0.00    -0.269 OA
BRANCH  25  28
ATOM     28  C   UNL     1       3.210  -3.184  -5.700  1.00  0.00     0.039 A 
ATOM     29  C   UNL     1       2.581  -2.489  -6.737  1.00  0.00     0.014 A 
ATOM     30  C   UNL     1       4.413  -2.708  -5.180  1.00  0.00     0.014 A 
ATOM     31  C   UNL     1       3.122  -1.283  -7.193  1.00  0.00     0.010 A 
ATOM     32  C   UNL     1       4.873  -1.449  -5.536  1.00  0.00     0.010 A 
ATOM     33  C   UNL     1       4.247  -0.731  -6.563  1.00  0.00    -0.014 A 
BRANCH  33  34
ATOM     34  C   UNL     1       4.819   0.577  -6.971  1.00  0.00     0.031 A 
ATOM     35  C   UNL     1       6.249   0.653  -7.439  1.00  0.00     0.074 A 
ATOM     36  C   UNL     1       4.087   1.700  -6.837  1.00  0.00     0.049 A 
ATOM     37  N   UNL     1       6.967   1.706  -7.736  1.00  0.00    -0.248 NA
ATOM     38  C   UNL     1       6.982  -0.620  -7.552  1.00  0.00     0.031 C 
ATOM     39  C   UNL     1       2.708   1.765  -6.348  1.00  0.00     0.029 A 
ATOM     40  N   UNL     1       4.409   3.009  -7.093  1.00  0.00    -0.354 N 
ATOM     41  C   UNL     1       8.234   1.224  -8.039  1.00  0.00     0.074 A 
ATOM     42  C   UNL     1       8.208  -0.205  -7.829  1.00  0.00     0.031 C 
ATOM     43  C   UNL     1       2.291   3.041  -6.373  1.00  0.00     0.029 A 
ATOM     44  C   UNL     1       3.387   3.889  -6.829  1.00  0.00     0.049 A 
ATOM     45  H   UNL     1       5.289   3.291  -7.433  1.00  0.00     0.167 HD
ATOM     46  C   UNL     1       9.318   1.904  -8.479  1.00  0.00     0.031 A 
ATOM     47  C   UNL     1       3.342   5.230  -6.934  1.00  0.00     0.031 A 
ATOM     48  C   UNL     1       9.335   3.323  -8.709  1.00  0.00     0.049 A 
ATOM     49  C   UNL     1       4.562   5.965  -7.418  1.00  0.00     0.074 A 
ATOM     50  C   UNL     1      10.359   4.102  -9.215  1.00  0.00     0.029 A 
ATOM     51  N   UNL     1       8.273   4.175  -8.446  1.00  0.00    -0.354 N 
ATOM     52  N   UNL     1       5.731   5.486  -7.770  1.00  0.00    -0.248 NA
ATOM     53  C   UNL     1       4.451   7.426  -7.529  1.00  0.00     0.031 C 
ATOM     54  C   UNL     1       9.937   5.435  -9.204  1.00  0.00     0.029 A 
ATOM     55  C   UNL     1       8.627   5.476  -8.755  1.00  0.00     0.049 A 
ATOM     56  H   UNL     1       7.398   3.895  -8.092  1.00  0.00     0.167 HD
ATOM     57  C   UNL     1       6.483   6.581  -8.174  1.00  0.00     0.074 A 
ATOM     58  C   UNL     1       5.632   7.745  -8.040  1.00  0.00     0.031 C 
ATOM     59  C   UNL     1       7.764   6.621  -8.617  1.00  0.00     0.031 A 
BRANCH  46  60
ATOM     60  C   UNL     1      10.575   1.118  -8.738  1.00  0.00    -0.014 A 
ATOM     61  C   UNL     1      10.654   0.192  -9.792  1.00  0.00     0.009 A 
ATOM     62  C   UNL     1      11.708   1.328  -7.936  1.00  0.00     0.009 A 
ATOM     63  C   UNL     1      11.825  -0.536 -10.010  1.00  0.00     0.001 A 
ATOM     64  C   UNL     1      12.889   0.624  -8.178  1.00  0.00     0.001 A 
ATOM     65  C   UNL     1      12.943  -0.315  -9.208  1.00  0.00     0.000 A 
ENDBRANCH  46  60
BRANCH  47  66
ATOM     66  C   UNL     1       2.096   5.967  -6.591  1.00  0.00    -0.014 A 
ATOM     67  C   UNL     1       1.345   6.601  -7.593  1.00  0.00     0.009 A 
ATOM     68  C   UNL     1       1.656   6.050  -5.261  1.00  0.00     0.009 A 
ATOM     69  C   UNL     1       0.198   7.329  -7.266  1.00  0.00     0.001 A 
ATOM     70  C   UNL     1       0.490   6.750  -4.941  1.00  0.00     0.001 A 
ATOM     71  C   UNL     1      -0.231   7.399  -5.942  1.00  0.00     0.000 A 
ENDBRANCH  47  66
BRANCH  59  72
ATOM     72  C   UNL     1       8.307   7.960  -9.029  1.00  0.00    -0.014 A 
ATOM     73  C   UNL     1       8.598   8.955  -8.083  1.00  0.00     0.009 A 
ATOM     74  C   UNL     1       8.574   8.210 -10.384  1.00  0.00     0.009 A 
ATOM     75  C   UNL     1       9.111  10.188  -8.492  1.00  0.00     0.001 A 
ATOM     76  C   UNL     1       9.119   9.429 -10.787  1.00  0.00     0.001 A 
ATOM     77  C   UNL     1       9.376  10.421  -9.842  1.00  0.00     0.000 A 
ENDBRANCH  59  72
ENDBRANCH  33  34
ENDBRANCH  25  28
ENDBRANCH  23  24
ENDBRANCH  22  23
ENDBRANCH   1  22
TORSDOF 13
