REMARK SMILES COc1ccc(-c2[nH]nc3nc(-c4ccc(C(F)(F)F)cc4)cc(C(=O)NCCCNC(=O)c4ccc(-c5c6nc(c(-c7ccccc7)c7ccc([nH]7)c(-c7ccccc7)c7nc(c(-c8ccccc8)c8ccc5[nH]8)C=C7)C=C6)cc4)c23)cc1
REMARK SMILES IDX 29 1 28 2 27 3 25 4 26 5 24 7 7 8 8 9 82 10 9 11 10 13 11 14
REMARK SMILES IDX 23 15 12 16 6 17 3 18 4 19 84 20 5 21 83 22 2 23 1 24 13 25
REMARK SMILES IDX 14 26 22 27 15 28 21 29 16 30 17 31 18 32 19 33 20 34 30 35
REMARK SMILES IDX 31 36 32 37 33 39 34 40 35 41 81 42 36 43 80 44 37 45 38 46
REMARK SMILES IDX 39 47 74 48 40 49 79 50 73 51 75 52 41 53 78 54 72 55 71 56
REMARK SMILES IDX 42 58 64 59 49 60 63 61 50 62 53 63 62 64 76 65 51 66 52 67
REMARK SMILES IDX 61 69 77 70 54 71 43 72 44 73 48 74 45 75 47 76 46 77 65 78
REMARK SMILES IDX 66 79 70 80 67 81 69 82 68 83 55 84 56 85 60 86 57 87 59 88
REMARK SMILES IDX 58 89
REMARK H PARENT 27 6 8 12 31 38 75 57 53 68
REMARK Flexibility Score: inf
ROOT
ATOM      1  C   UNL     1       7.004  -5.934  -4.857  1.00  0.00     0.042 C 
ENDROOT
BRANCH   1   2
ATOM      2  C   UNL     1       5.542  -6.387  -4.754  1.00  0.00     0.118 C 
BRANCH   2   3
ATOM      3  N   UNL     1       4.684  -5.370  -4.165  1.00  0.00    -0.352 N 
ATOM      4  C   UNL     1       3.867  -4.378  -4.652  1.00  0.00     0.252 C 
ATOM      5  O   UNL     1       3.153  -3.865  -3.798  1.00  0.00    -0.269 OA
ATOM      6  H   UNL     1       4.691  -5.400  -3.181  1.00  0.00     0.163 HD
BRANCH   4   7
ATOM      7  C   UNL     1       3.791  -3.967  -6.076  1.00  0.00     0.055 A 
ATOM      8  C   UNL     1       1.919  -2.233  -6.139  1.00  0.00     0.075 A 
ATOM      9  N   UNL     1       1.313  -1.639  -7.223  1.00  0.00    -0.275 N 
ATOM     10  C   UNL     1       2.873  -3.083  -6.686  1.00  0.00     0.059 A 
ATOM     11  N   UNL     1       1.803  -1.992  -8.416  1.00  0.00    -0.154 NA
ATOM     12  H   UNL     1       0.571  -0.999  -7.126  1.00  0.00     0.190 HD
ATOM     13  C   UNL     1       2.764  -2.862  -8.115  1.00  0.00     0.182 A 
ATOM     14  N   UNL     1       3.554  -3.485  -9.026  1.00  0.00    -0.226 NA
ATOM     15  C   UNL     1       4.647  -4.477  -7.059  1.00  0.00     0.043 A 
ATOM     16  C   UNL     1       4.477  -4.287  -8.451  1.00  0.00     0.074 A 
BRANCH   8  17
ATOM     17  C   UNL     1       1.516  -1.842  -4.794  1.00  0.00     0.001 A 
ATOM     18  C   UNL     1       0.778  -1.200  -2.156  1.00  0.00     0.118 A 
ATOM     19  C   UNL     1      -0.124  -1.837  -3.010  1.00  0.00     0.047 A 
ATOM     20  C   UNL     1       2.045  -0.859  -2.631  1.00  0.00     0.047 A 
ATOM     21  C   UNL     1       0.235  -2.150  -4.324  1.00  0.00     0.014 A 
ATOM     22  C   UNL     1       2.404  -1.162  -3.951  1.00  0.00     0.014 A 
BRANCH  18  23
ATOM     23  O   UNL     1       0.328  -1.011  -0.879  1.00  0.00    -0.497 OA
ATOM     24  C   UNL     1       0.980   0.003  -0.126  1.00  0.00     0.278 C 
ENDBRANCH  18  23
ENDBRANCH   8  17
BRANCH  16  25
ATOM     25  C   UNL     1       5.334  -5.082  -9.346  1.00  0.00     0.000 A 
ATOM     26  C   UNL     1       6.264  -4.483 -10.202  1.00  0.00     0.011 A 
ATOM     27  C   UNL     1       5.311  -6.489  -9.264  1.00  0.00     0.011 A 
ATOM     28  C   UNL     1       7.182  -5.267 -10.913  1.00  0.00     0.014 A 
ATOM     29  C   UNL     1       6.224  -7.272  -9.972  1.00  0.00     0.014 A 
ATOM     30  C   UNL     1       7.182  -6.666 -10.793  1.00  0.00     0.056 A 
BRANCH  30  31
ATOM     31  C   UNL     1       8.208  -7.496 -11.527  1.00  0.00     0.416 C 
ATOM     32  F   UNL     1       8.134  -7.350 -12.877  1.00  0.00    -0.166 F 
ATOM     33  F   UNL     1       9.483  -7.163 -11.180  1.00  0.00    -0.166 F 
ATOM     34  F   UNL     1       8.098  -8.833 -11.286  1.00  0.00    -0.166 F 
ENDBRANCH  30  31
ENDBRANCH  16  25
ENDBRANCH   4   7
ENDBRANCH   2   3
ENDBRANCH   1   2
BRANCH   1  35
ATOM     35  C   UNL     1       7.741  -6.078  -3.532  1.00  0.00     0.118 C 
BRANCH  35  36
ATOM     36  N   UNL     1       7.875  -7.479  -3.140  1.00  0.00    -0.352 N 
ATOM     37  C   UNL     1       8.359  -8.024  -1.970  1.00  0.00     0.251 C 
ATOM     38  H   UNL     1       7.573  -8.132  -3.812  1.00  0.00     0.163 HD
ATOM     39  O   UNL     1       8.683  -9.199  -1.928  1.00  0.00    -0.269 OA
BRANCH  37  40
ATOM     40  C   UNL     1       8.501  -7.172  -0.777  1.00  0.00     0.039 A 
ATOM     41  C   UNL     1       9.624  -7.308   0.044  1.00  0.00     0.014 A 
ATOM     42  C   UNL     1       7.514  -6.234  -0.482  1.00  0.00     0.014 A 
ATOM     43  C   UNL     1       9.791  -6.430   1.111  1.00  0.00     0.010 A 
ATOM     44  C   UNL     1       7.733  -5.293   0.497  1.00  0.00     0.010 A 
ATOM     45  C   UNL     1       8.855  -5.404   1.314  1.00  0.00    -0.014 A 
BRANCH  45  46
ATOM     46  C   UNL     1       9.143  -4.334   2.265  1.00  0.00     0.031 A 
ATOM     47  C   UNL     1      10.426  -3.623   2.001  1.00  0.00     0.074 A 
ATOM     48  C   UNL     1       8.240  -3.855   3.147  1.00  0.00     0.049 A 
ATOM     49  N   UNL     1      11.483  -3.596   2.742  1.00  0.00    -0.248 NA
ATOM     50  C   UNL     1      10.603  -2.981   0.686  1.00  0.00     0.031 C 
ATOM     51  C   UNL     1       6.830  -4.236   3.288  1.00  0.00     0.029 A 
ATOM     52  N   UNL     1       8.359  -2.823   4.029  1.00  0.00    -0.354 N 
ATOM     53  C   UNL     1      12.387  -2.761   2.088  1.00  0.00     0.074 A 
ATOM     54  C   UNL     1      11.871  -2.575   0.756  1.00  0.00     0.031 C 
ATOM     55  C   UNL     1       6.178  -3.297   4.010  1.00  0.00     0.029 A 
ATOM     56  C   UNL     1       7.147  -2.344   4.519  1.00  0.00     0.049 A 
ATOM     57  H   UNL     1       9.229  -2.447   4.296  1.00  0.00     0.167 HD
ATOM     58  C   UNL     1      13.332  -2.066   2.780  1.00  0.00     0.031 A 
ATOM     59  C   UNL     1       6.952  -1.227   5.262  1.00  0.00     0.031 A 
ATOM     60  C   UNL     1      13.497  -2.591   4.114  1.00  0.00     0.049 A 
ATOM     61  C   UNL     1       8.261  -0.847   5.836  1.00  0.00     0.074 A 
ATOM     62  C   UNL     1      13.848  -3.811   4.653  1.00  0.00     0.029 A 
ATOM     63  N   UNL     1      12.891  -1.887   5.127  1.00  0.00    -0.354 N 
ATOM     64  N   UNL     1       8.873  -1.537   6.752  1.00  0.00    -0.248 NA
ATOM     65  C   UNL     1       9.090   0.091   5.099  1.00  0.00     0.031 C 
ATOM     66  C   UNL     1      13.029  -3.951   5.813  1.00  0.00     0.029 A 
ATOM     67  C   UNL     1      12.281  -2.782   5.961  1.00  0.00     0.049 A 
ATOM     68  H   UNL     1      12.895  -0.909   5.233  1.00  0.00     0.167 HD
ATOM     69  C   UNL     1      10.211  -1.468   6.401  1.00  0.00     0.074 A 
ATOM     70  C   UNL     1      10.296  -0.353   5.459  1.00  0.00     0.031 C 
ATOM     71  C   UNL     1      11.059  -2.501   6.682  1.00  0.00     0.031 A 
BRANCH  58  72
ATOM     72  C   UNL     1      13.742  -0.648   2.435  1.00  0.00    -0.014 A 
ATOM     73  C   UNL     1      14.660   0.007   3.280  1.00  0.00     0.009 A 
ATOM     74  C   UNL     1      13.050   0.165   1.517  1.00  0.00     0.009 A 
ATOM     75  C   UNL     1      14.789   1.401   3.281  1.00  0.00     0.001 A 
ATOM     76  C   UNL     1      13.210   1.553   1.484  1.00  0.00     0.001 A 
ATOM     77  C   UNL     1      14.053   2.175   2.391  1.00  0.00     0.000 A 
ENDBRANCH  58  72
BRANCH  59  78
ATOM     78  C   UNL     1       5.783  -0.327   5.363  1.00  0.00    -0.014 A 
ATOM     79  C   UNL     1       5.685   0.588   6.426  1.00  0.00     0.009 A 
ATOM     80  C   UNL     1       4.915  -0.155   4.272  1.00  0.00     0.009 A 
ATOM     81  C   UNL     1       4.796   1.669   6.371  1.00  0.00     0.001 A 
ATOM     82  C   UNL     1       4.021   0.921   4.219  1.00  0.00     0.001 A 
ATOM     83  C   UNL     1       3.977   1.845   5.259  1.00  0.00     0.000 A 
ENDBRANCH  59  78
BRANCH  71  84
ATOM     84  C   UNL     1      10.583  -3.567   7.639  1.00  0.00    -0.014 A 
ATOM     85  C   UNL     1       9.452  -4.370   7.410  1.00  0.00     0.009 A 
ATOM     86  C   UNL     1      11.394  -3.859   8.745  1.00  0.00     0.009 A 
ATOM     87  C   UNL     1       9.130  -5.415   8.284  1.00  0.00     0.001 A 
ATOM     88  C   UNL     1      11.086  -4.917   9.602  1.00  0.00     0.001 A 
ATOM     89  C   UNL     1       9.951  -5.691   9.375  1.00  0.00     0.000 A 
ENDBRANCH  71  84
ENDBRANCH  45  46
ENDBRANCH  37  40
ENDBRANCH  35  36
ENDBRANCH   1  35
TORSDOF 14
