REMARK SMILES CC(C)[NH2+][C@]1(C(=O)NCCCNC(=O)c2ccc(-c3c4nc(c(-c5ccccc5)c5ccc([nH]5)c(-c5ccccc5)c5nc(c(-c6ccccc6)c6ccc3[nH]6)C=C5)C=C4)cc2)CC[C@@H](Oc2cc(F)ccc2F)C1
REMARK SMILES IDX 10 1 9 2 8 3 6 4 7 5 5 7 63 8 75 9 64 10 65 11 4 12 2 15
REMARK SMILES IDX 1 16 3 17 66 18 67 19 68 20 73 21 69 22 72 23 74 24 70 25
REMARK SMILES IDX 71 26 11 27 12 28 13 29 14 31 15 32 16 33 62 34 17 35 61 36
REMARK SMILES IDX 18 37 19 38 20 39 55 40 21 41 60 42 54 43 56 44 22 45 59 46
REMARK SMILES IDX 53 47 52 48 23 50 45 51 30 52 44 53 31 54 34 55 43 56 57 57
REMARK SMILES IDX 32 58 33 59 42 61 58 62 35 63 24 64 25 65 29 66 26 67 28 68
REMARK SMILES IDX 27 69 46 70 47 71 51 72 48 73 50 74 49 75 36 76 37 77 41 78
REMARK SMILES IDX 38 79 40 80 39 81
REMARK H PARENT 8 6 4 13 4 14 12 30 56 49 34 60
REMARK Flexibility Score: inf
ROOT
ATOM      1  C   UNL     1       2.031   2.453   2.463  1.00  0.00     0.042 C 
ENDROOT
BRANCH   1   2
ATOM      2  C   UNL     1       1.147   3.040   1.382  1.00  0.00     0.118 C 
BRANCH   2   3
ATOM      3  N   UNL     1       0.529   2.053   0.512  1.00  0.00    -0.351 N 
ATOM      4  C   UNL     1      -0.770   2.005   0.066  1.00  0.00     0.281 C 
ATOM      5  O   UNL     1      -1.070   1.102  -0.717  1.00  0.00    -0.268 OA
ATOM      6  H   UNL     1       1.116   1.326   0.202  1.00  0.00     0.163 HD
BRANCH   4   7
ATOM      7  C   UNL     1      -1.807   3.040   0.603  1.00  0.00     0.179 C 
ATOM      8  C   UNL     1      -1.314   4.451   0.177  1.00  0.00     0.083 C 
ATOM      9  C   UNL     1      -3.192   2.980  -0.098  1.00  0.00     0.124 C 
ATOM     10  C   UNL     1      -2.538   5.336   0.135  1.00  0.00     0.052 C 
ATOM     11  C   UNL     1      -3.619   4.423  -0.420  1.00  0.00     0.180 C 
BRANCH   7  12
ATOM     12  N   UNL     1      -1.966   2.900   2.085  1.00  0.00    -0.332 N 
ATOM     13  H   UNL     1      -1.183   3.380   2.529  1.00  0.00     0.347 HD
ATOM     14  H   UNL     1      -2.879   3.300   2.303  1.00  0.00     0.347 HD
BRANCH  12  15
ATOM     15  C   UNL     1      -2.003   1.512   2.607  1.00  0.00     0.176 C 
ATOM     16  C   UNL     1      -1.949   1.571   4.138  1.00  0.00     0.075 C 
ATOM     17  C   UNL     1      -3.220   0.687   2.183  1.00  0.00     0.075 C 
ENDBRANCH  12  15
ENDBRANCH   7  12
BRANCH  11  18
ATOM     18  O   UNL     1      -4.018   4.662  -1.778  1.00  0.00    -0.487 OA
BRANCH  18  19
ATOM     19  C   UNL     1      -3.051   4.622  -2.742  1.00  0.00     0.158 A 
ATOM     20  C   UNL     1      -2.473   5.815  -3.174  1.00  0.00     0.088 A 
ATOM     21  C   UNL     1      -2.767   3.440  -3.431  1.00  0.00     0.165 A 
ATOM     22  C   UNL     1      -1.564   5.794  -4.229  1.00  0.00     0.127 A 
ATOM     23  C   UNL     1      -1.844   3.420  -4.474  1.00  0.00     0.046 A 
ATOM     24  F   UNL     1      -3.414   2.305  -3.134  1.00  0.00    -0.203 F 
ATOM     25  F   UNL     1      -1.012   6.941  -4.644  1.00  0.00    -0.207 F 
ATOM     26  C   UNL     1      -1.233   4.606  -4.874  1.00  0.00     0.042 A 
ENDBRANCH  18  19
ENDBRANCH  11  18
ENDBRANCH   4   7
ENDBRANCH   2   3
ENDBRANCH   1   2
BRANCH   1  27
ATOM     27  C   UNL     1       3.222   1.688   1.922  1.00  0.00     0.118 C 
BRANCH  27  28
ATOM     28  N   UNL     1       4.104   2.514   1.104  1.00  0.00    -0.352 N 
ATOM     29  C   UNL     1       5.223   3.252   1.417  1.00  0.00     0.251 C 
ATOM     30  H   UNL     1       3.853   2.549   0.152  1.00  0.00     0.163 HD
ATOM     31  O   UNL     1       5.673   4.044   0.600  1.00  0.00    -0.269 OA
BRANCH  29  32
ATOM     32  C   UNL     1       5.863   3.123   2.745  1.00  0.00     0.039 A 
ATOM     33  C   UNL     1       6.416   4.251   3.359  1.00  0.00     0.014 A 
ATOM     34  C   UNL     1       5.933   1.889   3.383  1.00  0.00     0.014 A 
ATOM     35  C   UNL     1       6.953   4.146   4.646  1.00  0.00     0.010 A 
ATOM     36  C   UNL     1       6.319   1.817   4.712  1.00  0.00     0.010 A 
ATOM     37  C   UNL     1       6.860   2.938   5.354  1.00  0.00    -0.014 A 
BRANCH  37  38
ATOM     38  C   UNL     1       7.352   2.791   6.747  1.00  0.00     0.031 A 
ATOM     39  C   UNL     1       8.379   1.735   7.070  1.00  0.00     0.074 A 
ATOM     40  C   UNL     1       6.806   3.528   7.734  1.00  0.00     0.049 A 
ATOM     41  N   UNL     1       8.843   1.360   8.235  1.00  0.00    -0.248 NA
ATOM     42  C   UNL     1       8.921   0.964   5.937  1.00  0.00     0.031 C 
ATOM     43  C   UNL     1       5.762   4.542   7.564  1.00  0.00     0.029 A 
ATOM     44  N   UNL     1       7.053   3.531   9.084  1.00  0.00    -0.354 N 
ATOM     45  C   UNL     1       9.687   0.287   7.975  1.00  0.00     0.074 A 
ATOM     46  C   UNL     1       9.620   0.026   6.556  1.00  0.00     0.031 C 
ATOM     47  C   UNL     1       5.494   5.101   8.755  1.00  0.00     0.029 A 
ATOM     48  C   UNL     1       6.306   4.453   9.777  1.00  0.00     0.049 A 
ATOM     49  H   UNL     1       7.704   2.931   9.514  1.00  0.00     0.167 HD
ATOM     50  C   UNL     1      10.475  -0.404   8.833  1.00  0.00     0.031 A 
ATOM     51  C   UNL     1       6.280   4.741  11.092  1.00  0.00     0.031 A 
ATOM     52  C   UNL     1      10.575  -0.112  10.236  1.00  0.00     0.049 A 
ATOM     53  C   UNL     1       7.178   3.978  12.024  1.00  0.00     0.074 A 
ATOM     54  C   UNL     1      11.403  -0.690  11.181  1.00  0.00     0.029 A 
ATOM     55  N   UNL     1       9.821   0.848  10.893  1.00  0.00    -0.354 N 
ATOM     56  N   UNL     1       8.026   3.016  11.752  1.00  0.00    -0.248 NA
ATOM     57  C   UNL     1       7.122   4.349  13.444  1.00  0.00     0.031 C 
ATOM     58  C   UNL     1      11.115  -0.113  12.422  1.00  0.00     0.029 A 
ATOM     59  C   UNL     1      10.148   0.864  12.238  1.00  0.00     0.049 A 
ATOM     60  H   UNL     1       9.153   1.432  10.467  1.00  0.00     0.167 HD
ATOM     61  C   UNL     1       8.626   2.686  12.960  1.00  0.00     0.074 A 
ATOM     62  C   UNL     1       8.055   3.562  13.963  1.00  0.00     0.031 C 
ATOM     63  C   UNL     1       9.566   1.745  13.217  1.00  0.00     0.031 A 
BRANCH  50  64
ATOM     64  C   UNL     1      11.286  -1.538   8.267  1.00  0.00    -0.014 A 
ATOM     65  C   UNL     1      12.342  -1.308   7.370  1.00  0.00     0.009 A 
ATOM     66  C   UNL     1      10.994  -2.859   8.642  1.00  0.00     0.009 A 
ATOM     67  C   UNL     1      13.052  -2.378   6.819  1.00  0.00     0.001 A 
ATOM     68  C   UNL     1      11.728  -3.925   8.118  1.00  0.00     0.001 A 
ATOM     69  C   UNL     1      12.747  -3.684   7.197  1.00  0.00     0.000 A 
ENDBRANCH  50  64
BRANCH  51  70
ATOM     70  C   UNL     1       5.402   5.829  11.598  1.00  0.00    -0.014 A 
ATOM     71  C   UNL     1       5.960   7.037  12.044  1.00  0.00     0.009 A 
ATOM     72  C   UNL     1       4.007   5.674  11.630  1.00  0.00     0.009 A 
ATOM     73  C   UNL     1       5.142   8.058  12.534  1.00  0.00     0.001 A 
ATOM     74  C   UNL     1       3.190   6.708  12.094  1.00  0.00     0.001 A 
ATOM     75  C   UNL     1       3.759   7.895  12.554  1.00  0.00     0.000 A 
ENDBRANCH  51  70
BRANCH  63  76
ATOM     76  C   UNL     1      10.062   1.639  14.631  1.00  0.00    -0.014 A 
ATOM     77  C   UNL     1       9.259   1.097  15.647  1.00  0.00     0.009 A 
ATOM     78  C   UNL     1      11.370   2.046  14.939  1.00  0.00     0.009 A 
ATOM     79  C   UNL     1       9.748   0.995  16.951  1.00  0.00     0.001 A 
ATOM     80  C   UNL     1      11.865   1.914  16.236  1.00  0.00     0.001 A 
ATOM     81  C   UNL     1      11.051   1.398  17.242  1.00  0.00     0.000 A 
ENDBRANCH  63  76
ENDBRANCH  37  38
ENDBRANCH  29  32
ENDBRANCH  27  28
ENDBRANCH   1  27
TORSDOF 14
