REMARK SMILES C[C@H]1[C@H](C(=O)NCCCNC(=O)c2ccc(-c3c4nc(c(-c5ccccc5)c5ccc([nH]5)c(-c5ccccc5)c5nc(c(-c6ccccc6)c6ccc3[nH]6)C=C5)C=C4)cc2)CC[N@@H+]1[C@@H](c1ccccc1)c1ccco1
REMARK SMILES IDX 8 1 7 2 6 3 4 4 5 5 3 7 1 8 2 9 63 10 61 11 62 12 64 14
REMARK SMILES IDX 65 15 66 16 70 17 67 18 69 19 68 20 71 21 72 22 75 23 73 24
REMARK SMILES IDX 74 25 9 26 10 27 11 28 12 30 13 31 14 32 60 33 15 34 59 35
REMARK SMILES IDX 16 36 17 37 18 38 53 39 19 40 58 41 52 42 54 43 20 44 57 45
REMARK SMILES IDX 51 46 50 47 21 49 43 50 28 51 42 52 29 53 32 54 41 55 55 56
REMARK SMILES IDX 30 57 31 58 40 60 56 61 33 62 22 63 23 64 27 65 24 66 26 67
REMARK SMILES IDX 25 68 44 69 45 70 49 71 46 72 48 73 47 74 34 75 35 76 39 77
REMARK SMILES IDX 36 78 38 79 37 80
REMARK H PARENT 6 6 63 13 10 29 54 48 32 59
REMARK Flexibility Score: inf
ROOT
ATOM      1  C   UNL     1       0.454   1.126   4.112  1.00  0.00     0.042 C 
ENDROOT
BRANCH   1   2
ATOM      2  C   UNL     1      -0.511   1.637   3.047  1.00  0.00     0.117 C 
BRANCH   2   3
ATOM      3  N   UNL     1       0.102   2.592   2.155  1.00  0.00    -0.356 N 
ATOM      4  C   UNL     1       0.379   2.494   0.828  1.00  0.00     0.229 C 
ATOM      5  O   UNL     1       0.846   3.505   0.292  1.00  0.00    -0.275 OA
ATOM      6  H   UNL     1       0.359   3.446   2.571  1.00  0.00     0.163 HD
BRANCH   4   7
ATOM      7  C   UNL     1       0.102   1.250  -0.019  1.00  0.00     0.142 C 
ATOM      8  C   UNL     1       1.908  -0.472  -0.266  1.00  0.00     0.076 C 
ATOM      9  C   UNL     1       0.622  -0.108   0.491  1.00  0.00     0.194 C 
ATOM     10  N   UNL     1      -0.420  -1.107   0.166  1.00  0.00    -0.319 N 
ATOM     11  C   UNL     1      -1.363   1.006  -0.346  1.00  0.00     0.081 C 
ATOM     12  C   UNL     1      -1.384  -0.472  -0.721  1.00  0.00     0.264 C 
ATOM     13  H   UNL     1       0.006  -1.879  -0.347  1.00  0.00     0.349 HD
BRANCH  10  14
ATOM     14  C   UNL     1      -0.916  -1.974   1.266  1.00  0.00     0.283 C 
BRANCH  14  15
ATOM     15  C   UNL     1      -1.861  -1.406   2.338  1.00  0.00     0.017 A 
ATOM     16  C   UNL     1      -1.608  -1.710   3.691  1.00  0.00     0.010 A 
ATOM     17  C   UNL     1      -3.047  -0.707   2.054  1.00  0.00     0.010 A 
ATOM     18  C   UNL     1      -2.446  -1.248   4.708  1.00  0.00     0.001 A 
ATOM     19  C   UNL     1      -3.868  -0.213   3.073  1.00  0.00     0.001 A 
ATOM     20  C   UNL     1      -3.559  -0.472   4.401  1.00  0.00     0.000 A 
ENDBRANCH  14  15
BRANCH  14  21
ATOM     21  C   UNL     1      -1.407  -3.320   0.777  1.00  0.00     0.165 A 
ATOM     22  C   UNL     1      -0.786  -4.380   0.143  1.00  0.00     0.052 A 
ATOM     23  O   UNL     1      -2.683  -3.686   1.116  1.00  0.00    -0.463 OA
ATOM     24  C   UNL     1      -1.714  -5.453   0.144  1.00  0.00     0.042 A 
ATOM     25  C   UNL     1      -2.850  -4.979   0.753  1.00  0.00     0.195 A 
ENDBRANCH  14  21
ENDBRANCH  10  14
ENDBRANCH   4   7
ENDBRANCH   2   3
ENDBRANCH   1   2
BRANCH   1  26
ATOM     26  C   UNL     1       0.335   1.853   5.445  1.00  0.00     0.118 C 
BRANCH  26  27
ATOM     27  N   UNL     1      -0.974   1.703   6.079  1.00  0.00    -0.352 N 
ATOM     28  C   UNL     1      -1.406   1.023   7.187  1.00  0.00     0.251 C 
ATOM     29  H   UNL     1      -1.692   2.191   5.615  1.00  0.00     0.163 HD
ATOM     30  O   UNL     1      -2.620   0.975   7.418  1.00  0.00    -0.269 OA
BRANCH  28  31
ATOM     31  C   UNL     1      -0.482   0.318   8.101  1.00  0.00     0.039 A 
ATOM     32  C   UNL     1      -0.920  -0.853   8.737  1.00  0.00     0.014 A 
ATOM     33  C   UNL     1       0.780   0.823   8.402  1.00  0.00     0.014 A 
ATOM     34  C   UNL     1      -0.079  -1.534   9.623  1.00  0.00     0.010 A 
ATOM     35  C   UNL     1       1.657   0.087   9.192  1.00  0.00     0.010 A 
ATOM     36  C   UNL     1       1.231  -1.083   9.836  1.00  0.00    -0.014 A 
BRANCH  36  37
ATOM     37  C   UNL     1       2.164  -1.761  10.773  1.00  0.00     0.031 A 
ATOM     38  C   UNL     1       2.729  -0.995  11.942  1.00  0.00     0.074 A 
ATOM     39  C   UNL     1       2.577  -3.020  10.531  1.00  0.00     0.049 A 
ATOM     40  N   UNL     1       3.685  -1.330  12.772  1.00  0.00    -0.248 NA
ATOM     41  C   UNL     1       2.175   0.349  12.180  1.00  0.00     0.031 C 
ATOM     42  C   UNL     1       2.134  -3.863   9.419  1.00  0.00     0.029 A 
ATOM     43  N   UNL     1       3.484  -3.802  11.201  1.00  0.00    -0.354 N 
ATOM     44  C   UNL     1       3.873  -0.226  13.595  1.00  0.00     0.074 A 
ATOM     45  C   UNL     1       2.974   0.807  13.131  1.00  0.00     0.031 C 
ATOM     46  C   UNL     1       2.757  -5.051   9.494  1.00  0.00     0.029 A 
ATOM     47  C   UNL     1       3.677  -5.035  10.626  1.00  0.00     0.049 A 
ATOM     48  H   UNL     1       3.953  -3.508  12.015  1.00  0.00     0.167 HD
ATOM     49  C   UNL     1       4.701  -0.088  14.658  1.00  0.00     0.031 A 
ATOM     50  C   UNL     1       4.512  -6.035  10.964  1.00  0.00     0.031 A 
ATOM     51  C   UNL     1       5.569  -1.128  15.141  1.00  0.00     0.049 A 
ATOM     52  C   UNL     1       5.414  -5.867  12.156  1.00  0.00     0.074 A 
ATOM     53  C   UNL     1       6.404  -1.114  16.244  1.00  0.00     0.029 A 
ATOM     54  N   UNL     1       5.704  -2.376  14.552  1.00  0.00    -0.354 N 
ATOM     55  N   UNL     1       5.551  -4.832  12.949  1.00  0.00    -0.248 NA
ATOM     56  C   UNL     1       6.267  -7.011  12.504  1.00  0.00     0.031 C 
ATOM     57  C   UNL     1       7.077  -2.339  16.297  1.00  0.00     0.029 A 
ATOM     58  C   UNL     1       6.619  -3.135  15.260  1.00  0.00     0.049 A 
ATOM     59  H   UNL     1       5.221  -2.677  13.748  1.00  0.00     0.167 HD
ATOM     60  C   UNL     1       6.486  -5.209  13.905  1.00  0.00     0.074 A 
ATOM     61  C   UNL     1       6.865  -6.574  13.603  1.00  0.00     0.031 C 
ATOM     62  C   UNL     1       6.987  -4.490  14.940  1.00  0.00     0.031 A 
BRANCH  49  63
ATOM     63  C   UNL     1       4.703   1.241  15.365  1.00  0.00    -0.014 A 
ATOM     64  C   UNL     1       3.589   1.681  16.098  1.00  0.00     0.009 A 
ATOM     65  C   UNL     1       5.841   2.061  15.310  1.00  0.00     0.009 A 
ATOM     66  C   UNL     1       3.596   2.931  16.719  1.00  0.00     0.001 A 
ATOM     67  C   UNL     1       5.859   3.296  15.961  1.00  0.00     0.001 A 
ATOM     68  C   UNL     1       4.732   3.736  16.654  1.00  0.00     0.000 A 
ENDBRANCH  49  63
BRANCH  50  69
ATOM     69  C   UNL     1       4.526  -7.293  10.171  1.00  0.00    -0.014 A 
ATOM     70  C   UNL     1       4.005  -8.479  10.712  1.00  0.00     0.009 A 
ATOM     71  C   UNL     1       5.053  -7.314   8.871  1.00  0.00     0.009 A 
ATOM     72  C   UNL     1       4.037  -9.666   9.976  1.00  0.00     0.001 A 
ATOM     73  C   UNL     1       5.055  -8.496   8.126  1.00  0.00     0.001 A 
ATOM     74  C   UNL     1       4.556  -9.673   8.683  1.00  0.00     0.000 A 
ENDBRANCH  50  69
BRANCH  62  75
ATOM     75  C   UNL     1       7.974  -5.183  15.837  1.00  0.00    -0.014 A 
ATOM     76  C   UNL     1       9.277  -5.472  15.404  1.00  0.00     0.009 A 
ATOM     77  C   UNL     1       7.600  -5.525  17.146  1.00  0.00     0.009 A 
ATOM     78  C   UNL     1      10.173  -6.127  16.251  1.00  0.00     0.001 A 
ATOM     79  C   UNL     1       8.507  -6.152  18.001  1.00  0.00     0.001 A 
ATOM     80  C   UNL     1       9.788  -6.462  17.549  1.00  0.00     0.000 A 
ENDBRANCH  62  75
ENDBRANCH  36  37
ENDBRANCH  28  31
ENDBRANCH  26  27
ENDBRANCH   1  26
TORSDOF 13
