REMARK SMILES O=C(NCCCNC(=O)c1cc(N2CCN(c3ccc(F)cc3)CC2)ccc1NC(=O)C1CCCC1)c1ccc(-c2c3nc(c(-c4ccccc4)c4ccc([nH]4)c(-c4ccccc4)c4nc(c(-c5ccccc5)c5ccc2[nH]5)C=C4)C=C3)cc1
REMARK SMILES IDX 5 1 4 2 3 3 1 4 2 5 37 7 38 8 84 9 39 10 83 11 40 12 41 13
REMARK SMILES IDX 42 14 77 15 43 16 82 17 76 18 78 19 44 20 81 21 75 22 74 23
REMARK SMILES IDX 45 25 67 26 52 27 66 28 53 29 56 30 65 31 79 32 54 33 55 34
REMARK SMILES IDX 64 36 80 37 57 38 46 39 47 40 51 41 48 42 50 43 49 44 68 45
REMARK SMILES IDX 69 46 73 47 70 48 72 49 71 50 58 51 59 52 63 53 60 54 62 55
REMARK SMILES IDX 61 56 6 57 7 58 8 59 9 61 10 62 11 63 28 64 12 65 27 66
REMARK SMILES IDX 26 67 29 68 30 69 31 71 32 72 33 73 36 74 34 75 35 76 13 77
REMARK SMILES IDX 14 78 25 79 15 80 24 81 16 82 17 83 18 84 23 85 19 86 22 87
REMARK SMILES IDX 20 88 21 89
REMARK H PARENT 3 6 78 24 56 35 7 60 29 70
REMARK Flexibility Score: inf
ROOT
ATOM      1  C   UNL     1       5.068   0.040  -2.419  1.00  0.00     0.042 C 
ENDROOT
BRANCH   1   2
ATOM      2  C   UNL     1       4.600   0.895  -1.254  1.00  0.00     0.118 C 
BRANCH   2   3
ATOM      3  N   UNL     1       3.171   0.778  -0.987  1.00  0.00    -0.352 N 
ATOM      4  O   UNL     1       1.262   0.021  -0.067  1.00  0.00    -0.269 OA
ATOM      5  C   UNL     1       2.482   0.098  -0.008  1.00  0.00     0.251 C 
ATOM      6  H   UNL     1       2.599   1.273  -1.618  1.00  0.00     0.163 HD
BRANCH   5   7
ATOM      7  C   UNL     1       3.205  -0.572   1.096  1.00  0.00     0.039 A 
ATOM      8  C   UNL     1       4.311   0.025   1.692  1.00  0.00     0.014 A 
ATOM      9  C   UNL     1       2.755  -1.812   1.563  1.00  0.00     0.014 A 
ATOM     10  C   UNL     1       5.092  -0.698   2.581  1.00  0.00     0.010 A 
ATOM     11  C   UNL     1       3.466  -2.483   2.566  1.00  0.00     0.010 A 
ATOM     12  C   UNL     1       4.667  -1.951   3.053  1.00  0.00    -0.014 A 
BRANCH  12  13
ATOM     13  C   UNL     1       5.483  -2.621   4.099  1.00  0.00     0.031 A 
ATOM     14  C   UNL     1       6.139  -3.952   3.859  1.00  0.00     0.074 A 
ATOM     15  C   UNL     1       5.702  -1.959   5.254  1.00  0.00     0.049 A 
ATOM     16  N   UNL     1       6.970  -4.607   4.633  1.00  0.00    -0.248 NA
ATOM     17  C   UNL     1       5.825  -4.645   2.600  1.00  0.00     0.031 C 
ATOM     18  C   UNL     1       5.105  -0.668   5.612  1.00  0.00     0.029 A 
ATOM     19  N   UNL     1       6.522  -2.247   6.314  1.00  0.00    -0.354 N 
ATOM     20  C   UNL     1       7.261  -5.790   3.968  1.00  0.00     0.074 A 
ATOM     21  C   UNL     1       6.501  -5.779   2.737  1.00  0.00     0.031 C 
ATOM     22  C   UNL     1       5.646  -0.234   6.758  1.00  0.00     0.029 A 
ATOM     23  C   UNL     1       6.567  -1.247   7.256  1.00  0.00     0.049 A 
ATOM     24  H   UNL     1       7.029  -3.087   6.393  1.00  0.00     0.167 HD
ATOM     25  C   UNL     1       8.092  -6.793   4.345  1.00  0.00     0.031 A 
ATOM     26  C   UNL     1       7.266  -1.151   8.401  1.00  0.00     0.031 A 
ATOM     27  C   UNL     1       8.849  -6.804   5.570  1.00  0.00     0.049 A 
ATOM     28  C   UNL     1       8.179  -2.274   8.789  1.00  0.00     0.074 A 
ATOM     29  C   UNL     1       9.717  -7.776   6.039  1.00  0.00     0.029 A 
ATOM     30  N   UNL     1       8.833  -5.793   6.518  1.00  0.00    -0.354 N 
ATOM     31  N   UNL     1       8.447  -3.379   8.138  1.00  0.00    -0.248 NA
ATOM     32  C   UNL     1       8.882  -2.136  10.071  1.00  0.00     0.031 C 
ATOM     33  C   UNL     1      10.197  -7.369   7.289  1.00  0.00     0.029 A 
ATOM     34  C   UNL     1       9.665  -6.122   7.575  1.00  0.00     0.049 A 
ATOM     35  H   UNL     1       8.307  -4.963   6.450  1.00  0.00     0.167 HD
ATOM     36  C   UNL     1       9.349  -4.072   8.932  1.00  0.00     0.074 A 
ATOM     37  C   UNL     1       9.611  -3.243  10.091  1.00  0.00     0.031 C 
ATOM     38  C   UNL     1       9.901  -5.292   8.726  1.00  0.00     0.031 A 
BRANCH  25  39
ATOM     39  C   UNL     1       8.214  -7.977   3.427  1.00  0.00    -0.014 A 
ATOM     40  C   UNL     1       8.931  -7.893   2.223  1.00  0.00     0.009 A 
ATOM     41  C   UNL     1       7.651  -9.209   3.796  1.00  0.00     0.009 A 
ATOM     42  C   UNL     1       9.061  -9.012   1.397  1.00  0.00     0.001 A 
ATOM     43  C   UNL     1       7.802 -10.332   2.980  1.00  0.00     0.001 A 
ATOM     44  C   UNL     1       8.502 -10.231   1.778  1.00  0.00     0.000 A 
ENDBRANCH  25  39
BRANCH  26  45
ATOM     45  C   UNL     1       7.106   0.046   9.266  1.00  0.00    -0.014 A 
ATOM     46  C   UNL     1       8.151   0.969   9.419  1.00  0.00     0.009 A 
ATOM     47  C   UNL     1       5.892   0.276   9.933  1.00  0.00     0.009 A 
ATOM     48  C   UNL     1       7.989   2.087  10.240  1.00  0.00     0.001 A 
ATOM     49  C   UNL     1       5.722   1.411  10.726  1.00  0.00     0.001 A 
ATOM     50  C   UNL     1       6.774   2.310  10.887  1.00  0.00     0.000 A 
ENDBRANCH  26  45
BRANCH  38  51
ATOM     51  C   UNL     1      10.847  -5.787   9.781  1.00  0.00    -0.014 A 
ATOM     52  C   UNL     1      10.374  -6.220  11.030  1.00  0.00     0.009 A 
ATOM     53  C   UNL     1      12.225  -5.821   9.523  1.00  0.00     0.009 A 
ATOM     54  C   UNL     1      11.269  -6.639  12.015  1.00  0.00     0.001 A 
ATOM     55  C   UNL     1      13.115  -6.266  10.501  1.00  0.00     0.001 A 
ATOM     56  C   UNL     1      12.637  -6.663  11.749  1.00  0.00     0.000 A 
ENDBRANCH  38  51
ENDBRANCH  12  13
ENDBRANCH   5   7
ENDBRANCH   2   3
ENDBRANCH   1   2
BRANCH   1  57
ATOM     57  C   UNL     1       4.536   0.498  -3.765  1.00  0.00     0.118 C 
BRANCH  57  58
ATOM     58  N   UNL     1       4.915   1.871  -4.084  1.00  0.00    -0.352 N 
ATOM     59  C   UNL     1       5.768   2.371  -5.037  1.00  0.00     0.253 C 
ATOM     60  H   UNL     1       4.487   2.555  -3.520  1.00  0.00     0.163 HD
ATOM     61  O   UNL     1       6.090   3.555  -4.987  1.00  0.00    -0.269 OA
BRANCH  59  62
ATOM     62  C   UNL     1       6.289   1.506  -6.122  1.00  0.00     0.065 A 
ATOM     63  C   UNL     1       7.654   1.658  -6.430  1.00  0.00     0.042 A 
ATOM     64  C   UNL     1       5.465   0.647  -6.882  1.00  0.00     0.054 A 
ATOM     65  C   UNL     1       8.241   0.923  -7.457  1.00  0.00     0.038 A 
ATOM     66  C   UNL     1       6.102  -0.201  -7.783  1.00  0.00     0.029 A 
ATOM     67  C   UNL     1       7.466  -0.058  -8.069  1.00  0.00     0.028 A 
BRANCH  64  68
ATOM     68  N   UNL     1       4.063   0.731  -6.711  1.00  0.00    -0.325 N 
ATOM     69  C   UNL     1       2.960   0.143  -7.247  1.00  0.00     0.227 C 
ATOM     70  H   UNL     1       3.822   1.390  -6.021  1.00  0.00     0.169 HD
ATOM     71  O   UNL     1       1.869   0.495  -6.786  1.00  0.00    -0.274 OA
BRANCH  69  72
ATOM     72  C   UNL     1       3.049  -0.908  -8.323  1.00  0.00     0.079 C 
ATOM     73  C   UNL     1       3.228  -2.306  -7.734  1.00  0.00     0.013 C 
ATOM     74  C   UNL     1       1.764  -1.085  -9.129  1.00  0.00     0.013 C 
ATOM     75  C   UNL     1       2.865  -3.242  -8.883  1.00  0.00     0.001 C 
ATOM     76  C   UNL     1       1.982  -2.423  -9.826  1.00  0.00     0.001 C 
ENDBRANCH  69  72
ENDBRANCH  64  68
BRANCH  65  77
ATOM     77  N   UNL     1       9.510   1.232  -7.893  1.00  0.00    -0.368 N 
ATOM     78  C   UNL     1      10.696   0.706  -7.197  1.00  0.00     0.138 C 
ATOM     79  C   UNL     1       9.708   1.595  -9.308  1.00  0.00     0.138 C 
ATOM     80  C   UNL     1      11.356  -0.447  -8.000  1.00  0.00     0.138 C 
ATOM     81  C   UNL     1      10.368   0.451 -10.104  1.00  0.00     0.138 C 
ATOM     82  N   UNL     1      11.561  -0.065  -9.414  1.00  0.00    -0.368 N 
BRANCH  82  83
ATOM     83  C   UNL     1      12.832   0.203  -9.881  1.00  0.00     0.037 A 
ATOM     84  C   UNL     1      13.829  -0.783  -9.813  1.00  0.00     0.029 A 
ATOM     85  C   UNL     1      13.174   1.434 -10.463  1.00  0.00     0.029 A 
ATOM     86  C   UNL     1      15.111  -0.559 -10.323  1.00  0.00     0.041 A 
ATOM     87  C   UNL     1      14.459   1.672 -10.961  1.00  0.00     0.041 A 
ATOM     88  C   UNL     1      15.414   0.669 -10.892  1.00  0.00     0.123 A 
ATOM     89  F   UNL     1      16.640   0.888 -11.383  1.00  0.00    -0.207 F 
ENDBRANCH  82  83
ENDBRANCH  65  77
ENDBRANCH  59  62
ENDBRANCH  57  58
ENDBRANCH   1  57
TORSDOF 14
