REMARK SMILES O=C(NCCCNC(=O)[C@H]1Cc2c([nH]c3ccccc23)[C@H](c2c[nH]c3ccccc23)[NH2+]1)c1ccc(-c2c3nc(c(-c4ccccc4)c4ccc([nH]4)c(-c4ccccc4)c4nc(c(-c5ccccc5)c5ccc2[nH]5)C=C4)C=C3)cc1
REMARK SMILES IDX 4 1 3 2 1 3 2 4 32 6 33 7 79 8 34 9 78 10 35 11 36 12 37 13
REMARK SMILES IDX 72 14 38 15 77 16 71 17 73 18 39 19 76 20 70 21 69 22 40 24
REMARK SMILES IDX 62 25 47 26 61 27 48 28 51 29 60 30 74 31 49 32 50 33 59 35
REMARK SMILES IDX 75 36 52 37 41 38 42 39 46 40 43 41 45 42 44 43 63 44 64 45
REMARK SMILES IDX 68 46 65 47 67 48 66 49 53 50 54 51 58 52 55 53 57 54 56 55
REMARK SMILES IDX 5 56 6 57 7 58 8 59 9 61 10 62 11 63 31 64 12 65 21 66 13 69
REMARK SMILES IDX 20 70 14 71 15 72 19 73 16 75 18 76 17 77 22 78 23 79 30 80
REMARK SMILES IDX 24 81 25 82 29 83 26 85 28 86 27 87
REMARK H PARENT 3 5 73 23 51 34 7 60 31 67 31 68 14 74 24 84
REMARK Flexibility Score: inf
ROOT
ATOM      1  C   UNL     1       4.347  -0.834   1.125  1.00  0.00     0.118 C 
ENDROOT
BRANCH   1   2
ATOM      2  N   UNL     1       2.939  -0.938   0.751  1.00  0.00    -0.352 N 
ATOM      3  O   UNL     1       1.000  -0.212  -0.126  1.00  0.00    -0.269 OA
ATOM      4  C   UNL     1       2.225  -0.241  -0.188  1.00  0.00     0.251 C 
ATOM      5  H   UNL     1       2.424  -1.613   1.250  1.00  0.00     0.163 HD
BRANCH   4   6
ATOM      6  C   UNL     1       2.926   0.452  -1.286  1.00  0.00     0.039 A 
ATOM      7  C   UNL     1       4.034  -0.140  -1.898  1.00  0.00     0.014 A 
ATOM      8  C   UNL     1       2.417   1.662  -1.766  1.00  0.00     0.014 A 
ATOM      9  C   UNL     1       4.704   0.528  -2.912  1.00  0.00     0.010 A 
ATOM     10  C   UNL     1       3.037   2.288  -2.848  1.00  0.00     0.010 A 
ATOM     11  C   UNL     1       4.191   1.730  -3.419  1.00  0.00    -0.014 A 
BRANCH  11  12
ATOM     12  C   UNL     1       4.820   2.338  -4.612  1.00  0.00     0.031 A 
ATOM     13  C   UNL     1       5.477   3.682  -4.535  1.00  0.00     0.074 A 
ATOM     14  C   UNL     1       4.776   1.661  -5.775  1.00  0.00     0.049 A 
ATOM     15  N   UNL     1       6.034   4.379  -5.491  1.00  0.00    -0.248 NA
ATOM     16  C   UNL     1       5.502   4.335  -3.217  1.00  0.00     0.031 C 
ATOM     17  C   UNL     1       4.153   0.346  -5.961  1.00  0.00     0.029 A 
ATOM     18  N   UNL     1       5.262   1.977  -7.015  1.00  0.00    -0.354 N 
ATOM     19  C   UNL     1       6.452   5.563  -4.900  1.00  0.00     0.074 A 
ATOM     20  C   UNL     1       6.065   5.499  -3.506  1.00  0.00     0.031 C 
ATOM     21  C   UNL     1       4.317  -0.041  -7.233  1.00  0.00     0.029 A 
ATOM     22  C   UNL     1       4.992   1.024  -7.965  1.00  0.00     0.049 A 
ATOM     23  H   UNL     1       5.756   2.807  -7.207  1.00  0.00     0.167 HD
ATOM     24  C   UNL     1       7.096   6.607  -5.473  1.00  0.00     0.031 A 
ATOM     25  C   UNL     1       5.227   1.017  -9.289  1.00  0.00     0.031 A 
ATOM     26  C   UNL     1       7.469   6.658  -6.862  1.00  0.00     0.049 A 
ATOM     27  C   UNL     1       5.913   2.198  -9.906  1.00  0.00     0.074 A 
ATOM     28  C   UNL     1       8.163   7.649  -7.534  1.00  0.00     0.029 A 
ATOM     29  N   UNL     1       7.166   5.677  -7.796  1.00  0.00    -0.354 N 
ATOM     30  N   UNL     1       6.341   3.293  -9.327  1.00  0.00    -0.248 NA
ATOM     31  C   UNL     1       6.149   2.144 -11.354  1.00  0.00     0.031 C 
ATOM     32  C   UNL     1       8.229   7.294  -8.886  1.00  0.00     0.029 A 
ATOM     33  C   UNL     1       7.629   6.054  -9.046  1.00  0.00     0.049 A 
ATOM     34  H   UNL     1       6.692   4.837  -7.600  1.00  0.00     0.167 HD
ATOM     35  C   UNL     1       6.911   4.056 -10.335  1.00  0.00     0.074 A 
ATOM     36  C   UNL     1       6.786   3.289 -11.560  1.00  0.00     0.031 C 
ATOM     37  C   UNL     1       7.487   5.279 -10.253  1.00  0.00     0.031 A 
BRANCH  24  38
ATOM     38  C   UNL     1       7.393   7.797  -4.602  1.00  0.00    -0.014 A 
ATOM     39  C   UNL     1       8.355   7.740  -3.580  1.00  0.00     0.009 A 
ATOM     40  C   UNL     1       6.704   9.001  -4.817  1.00  0.00     0.009 A 
ATOM     41  C   UNL     1       8.587   8.850  -2.764  1.00  0.00     0.001 A 
ATOM     42  C   UNL     1       6.958  10.117  -4.019  1.00  0.00     0.001 A 
ATOM     43  C   UNL     1       7.890  10.038  -2.986  1.00  0.00     0.000 A 
ENDBRANCH  24  38
BRANCH  25  44
ATOM     44  C   UNL     1       4.772  -0.140 -10.100  1.00  0.00    -0.014 A 
ATOM     45  C   UNL     1       5.693  -1.064 -10.612  1.00  0.00     0.009 A 
ATOM     46  C   UNL     1       3.400  -0.361 -10.305  1.00  0.00     0.009 A 
ATOM     47  C   UNL     1       5.248  -2.184 -11.319  1.00  0.00     0.001 A 
ATOM     48  C   UNL     1       2.957  -1.495 -10.987  1.00  0.00     0.001 A 
ATOM     49  C   UNL     1       3.882  -2.403 -11.498  1.00  0.00     0.000 A 
ENDBRANCH  25  44
BRANCH  37  50
ATOM     50  C   UNL     1       8.050   5.856 -11.519  1.00  0.00    -0.014 A 
ATOM     51  C   UNL     1       7.213   6.376 -12.516  1.00  0.00     0.009 A 
ATOM     52  C   UNL     1       9.442   5.931 -11.686  1.00  0.00     0.009 A 
ATOM     53  C   UNL     1       7.760   6.944 -13.668  1.00  0.00     0.001 A 
ATOM     54  C   UNL     1       9.986   6.523 -12.826  1.00  0.00     0.001 A 
ATOM     55  C   UNL     1       9.145   7.023 -13.818  1.00  0.00     0.000 A 
ENDBRANCH  37  50
ENDBRANCH  11  12
ENDBRANCH   4   6
ENDBRANCH   1   2
BRANCH   1  56
ATOM     56  C   UNL     1       4.506  -0.122   2.464  1.00  0.00     0.042 C 
BRANCH  56  57
ATOM     57  C   UNL     1       3.946  -0.962   3.607  1.00  0.00     0.118 C 
BRANCH  57  58
ATOM     58  N   UNL     1       4.912  -1.944   4.064  1.00  0.00    -0.351 N 
ATOM     59  C   UNL     1       5.952  -1.918   4.942  1.00  0.00     0.278 C 
ATOM     60  H   UNL     1       4.788  -2.826   3.645  1.00  0.00     0.163 HD
ATOM     61  O   UNL     1       6.660  -2.935   4.923  1.00  0.00    -0.268 OA
BRANCH  59  62
ATOM     62  C   UNL     1       6.191  -0.822   6.008  1.00  0.00     0.277 C 
ATOM     63  C   UNL     1       7.694  -0.854   6.411  1.00  0.00     0.114 C 
ATOM     64  N   UNL     1       5.739   0.537   5.598  1.00  0.00    -0.324 N 
ATOM     65  C   UNL     1       7.999   0.285   7.319  1.00  0.00    -0.006 A 
ATOM     66  C   UNL     1       5.859   1.544   6.667  1.00  0.00     0.264 C 
ATOM     67  H   UNL     1       4.760   0.481   5.316  1.00  0.00     0.347 HD
ATOM     68  H   UNL     1       6.344   0.837   4.834  1.00  0.00     0.347 HD
ATOM     69  C   UNL     1       7.140   1.361   7.411  1.00  0.00     0.083 A 
ATOM     70  C   UNL     1       9.111   0.537   8.165  1.00  0.00     0.003 A 
ATOM     71  N   UNL     1       7.712   2.279   8.248  1.00  0.00    -0.353 N 
ATOM     72  C   UNL     1       8.913   1.802   8.724  1.00  0.00     0.046 A 
ATOM     73  C   UNL     1      10.278  -0.176   8.502  1.00  0.00     0.010 A 
ATOM     74  H   UNL     1       7.321   3.154   8.477  1.00  0.00     0.166 HD
ATOM     75  C   UNL     1       9.834   2.396   9.594  1.00  0.00     0.026 A 
ATOM     76  C   UNL     1      11.203   0.400   9.382  1.00  0.00     0.001 A 
ATOM     77  C   UNL     1      10.984   1.669   9.914  1.00  0.00     0.002 A 
BRANCH  66  78
ATOM     78  C   UNL     1       4.615   1.650   7.551  1.00  0.00     0.041 A 
ATOM     79  C   UNL     1       4.370   2.765   8.345  1.00  0.00     0.093 A 
ATOM     80  C   UNL     1       3.446   0.796   7.726  1.00  0.00     0.009 A 
ATOM     81  N   UNL     1       3.177   2.618   8.988  1.00  0.00    -0.361 N 
ATOM     82  C   UNL     1       2.578   1.444   8.613  1.00  0.00     0.046 A 
ATOM     83  C   UNL     1       2.995  -0.449   7.222  1.00  0.00     0.011 A 
ATOM     84  H   UNL     1       2.800   3.262   9.630  1.00  0.00     0.166 HD
ATOM     85  C   UNL     1       1.330   0.929   8.998  1.00  0.00     0.026 A 
ATOM     86  C   UNL     1       1.751  -0.980   7.589  1.00  0.00     0.001 A 
ATOM     87  C   UNL     1       0.928  -0.295   8.467  1.00  0.00     0.002 A 
ENDBRANCH  66  78
ENDBRANCH  59  62
ENDBRANCH  57  58
ENDBRANCH  56  57
ENDBRANCH   1  56
TORSDOF 11
