REMARK SMILES CC[C@@H](C(=O)NCCCNC(=O)c1ccc(-c2c3nc(c(-c4ccccc4)c4ccc([nH]4)c(-c4ccccc4)c4nc(c(-c5ccccc5)c5ccc2[nH]5)C=C4)C=C3)cc1)N1C(=O)/C(=C\c2ccc(C(=O)OC)cc2)SC1=S
REMARK SMILES IDX 7 1 6 2 4 3 5 4 3 6 2 7 1 8 61 9 62 10 77 11 63 12 64 13
REMARK SMILES IDX 76 14 78 15 65 16 66 17 67 18 75 19 68 20 74 21 69 22 70 23
REMARK SMILES IDX 71 24 72 25 73 26 8 27 9 28 10 29 11 30 12 32 13 33 14 34
REMARK SMILES IDX 60 35 15 36 59 37 16 38 17 39 18 40 53 41 19 42 58 43 52 44
REMARK SMILES IDX 54 45 20 46 57 47 51 48 50 49 21 51 43 52 28 53 42 54 29 55
REMARK SMILES IDX 32 56 41 57 55 58 30 59 31 60 40 62 56 63 33 64 22 65 23 66
REMARK SMILES IDX 27 67 24 68 26 69 25 70 44 71 45 72 49 73 46 74 48 75 47 76
REMARK SMILES IDX 34 77 35 78 39 79 36 80 38 81 37 82
REMARK H PARENT 6 5 10 31 54 50 32 61
REMARK Flexibility Score: inf
ROOT
ATOM      1  C   UNL     1       2.103   1.858   1.384  1.00  0.00     0.117 C 
ENDROOT
BRANCH   1   2
ATOM      2  N   UNL     1       1.035   1.662   2.354  1.00  0.00    -0.354 N 
ATOM      3  C   UNL     1       0.193   0.597   2.504  1.00  0.00     0.243 C 
ATOM      4  O   UNL     1      -0.975   0.861   2.797  1.00  0.00    -0.273 OA
ATOM      5  H   UNL     1       0.902   2.400   2.991  1.00  0.00     0.163 HD
BRANCH   3   6
ATOM      6  C   UNL     1       0.680  -0.851   2.286  1.00  0.00     0.181 C 
BRANCH   6   7
ATOM      7  C   UNL     1      -0.090  -1.432   1.067  1.00  0.00     0.032 C 
ATOM      8  C   UNL     1       0.382  -0.896  -0.274  1.00  0.00     0.006 C 
ENDBRANCH   6   7
BRANCH   6   9
ATOM      9  N   UNL     1       0.601  -1.850   3.406  1.00  0.00    -0.280 N 
ATOM     10  C   UNL     1       1.268  -3.048   3.155  1.00  0.00     0.266 C 
ATOM     11  C   UNL     1      -0.127  -1.829   4.576  1.00  0.00     0.149 C 
ATOM     12  O   UNL     1       2.113  -3.191   2.281  1.00  0.00    -0.268 OA
ATOM     13  C   UNL     1       0.799  -4.135   4.060  1.00  0.00     0.081 C 
ATOM     14  S   UNL     1      -0.257  -3.464   5.237  1.00  0.00    -0.054 SA
ATOM     15  S   UNL     1      -0.749  -0.560   5.455  1.00  0.00    -0.052 S 
ATOM     16  C   UNL     1       1.049  -5.453   3.991  1.00  0.00     0.029 C 
BRANCH  16  17
ATOM     17  C   UNL     1       1.904  -6.134   3.012  1.00  0.00    -0.024 A 
ATOM     18  C   UNL     1       1.387  -7.185   2.244  1.00  0.00     0.009 A 
ATOM     19  C   UNL     1       3.247  -5.777   2.856  1.00  0.00     0.009 A 
ATOM     20  C   UNL     1       2.187  -7.824   1.289  1.00  0.00     0.016 A 
ATOM     21  C   UNL     1       4.042  -6.399   1.892  1.00  0.00     0.016 A 
ATOM     22  C   UNL     1       3.514  -7.419   1.093  1.00  0.00     0.060 A 
BRANCH  22  23
ATOM     23  C   UNL     1       4.319  -8.085   0.034  1.00  0.00     0.337 C 
ATOM     24  O   UNL     1       3.929  -9.046  -0.611  1.00  0.00    -0.246 OA
BRANCH  23  25
ATOM     25  O   UNL     1       5.512  -7.458  -0.112  1.00  0.00    -0.465 OA
ATOM     26  C   UNL     1       6.350  -8.012  -1.127  1.00  0.00     0.282 C 
ENDBRANCH  23  25
ENDBRANCH  22  23
ENDBRANCH  16  17
ENDBRANCH   6   9
ENDBRANCH   3   6
ENDBRANCH   1   2
BRANCH   1  27
ATOM     27  C   UNL     1       1.577   2.500   0.095  1.00  0.00     0.042 C 
BRANCH  27  28
ATOM     28  C   UNL     1       0.950   3.881   0.269  1.00  0.00     0.118 C 
BRANCH  28  29
ATOM     29  N   UNL     1       1.943   4.934   0.375  1.00  0.00    -0.352 N 
ATOM     30  C   UNL     1       2.199   5.986  -0.473  1.00  0.00     0.251 C 
ATOM     31  H   UNL     1       2.520   4.888   1.172  1.00  0.00     0.163 HD
ATOM     32  O   UNL     1       3.218   6.653  -0.319  1.00  0.00    -0.269 OA
BRANCH  30  33
ATOM     33  C   UNL     1       1.272   6.312  -1.583  1.00  0.00     0.039 A 
ATOM     34  C   UNL     1       1.809   6.667  -2.825  1.00  0.00     0.014 A 
ATOM     35  C   UNL     1      -0.114   6.312  -1.403  1.00  0.00     0.014 A 
ATOM     36  C   UNL     1       0.959   6.964  -3.895  1.00  0.00     0.010 A 
ATOM     37  C   UNL     1      -0.960   6.529  -2.491  1.00  0.00     0.010 A 
ATOM     38  C   UNL     1      -0.434   6.867  -3.747  1.00  0.00    -0.014 A 
BRANCH  38  39
ATOM     39  C   UNL     1      -1.352   7.129  -4.887  1.00  0.00     0.031 A 
ATOM     40  C   UNL     1      -2.324   8.278  -4.835  1.00  0.00     0.074 A 
ATOM     41  C   UNL     1      -1.349   6.307  -5.954  1.00  0.00     0.049 A 
ATOM     42  N   UNL     1      -3.223   8.642  -5.715  1.00  0.00    -0.248 NA
ATOM     43  C   UNL     1      -2.295   9.114  -3.625  1.00  0.00     0.031 C 
ATOM     44  C   UNL     1      -0.474   5.145  -6.127  1.00  0.00     0.029 A 
ATOM     45  N   UNL     1      -2.106   6.325  -7.099  1.00  0.00    -0.354 N 
ATOM     46  C   UNL     1      -3.875   9.736  -5.159  1.00  0.00     0.074 A 
ATOM     47  C   UNL     1      -3.307   9.939  -3.844  1.00  0.00     0.031 C 
ATOM     48  C   UNL     1      -0.715   4.589  -7.325  1.00  0.00     0.029 A 
ATOM     49  C   UNL     1      -1.790   5.323  -7.984  1.00  0.00     0.049 A 
ATOM     50  H   UNL     1      -2.809   6.993  -7.270  1.00  0.00     0.167 HD
ATOM     51  C   UNL     1      -4.843  10.518  -5.698  1.00  0.00     0.031 A 
ATOM     52  C   UNL     1      -2.308   5.025  -9.191  1.00  0.00     0.031 A 
ATOM     53  C   UNL     1      -5.414  10.315  -7.003  1.00  0.00     0.049 A 
ATOM     54  C   UNL     1      -3.421   5.870  -9.745  1.00  0.00     0.074 A 
ATOM     55  C   UNL     1      -6.367  11.077  -7.657  1.00  0.00     0.029 A 
ATOM     56  N   UNL     1      -5.091   9.266  -7.851  1.00  0.00    -0.354 N 
ATOM     57  N   UNL     1      -3.983   6.938  -9.233  1.00  0.00    -0.248 NA
ATOM     58  C   UNL     1      -3.967   5.468 -11.049  1.00  0.00     0.031 C 
ATOM     59  C   UNL     1      -6.665  10.454  -8.874  1.00  0.00     0.029 A 
ATOM     60  C   UNL     1      -5.850   9.341  -9.007  1.00  0.00     0.049 A 
ATOM     61  H   UNL     1      -4.421   8.570  -7.659  1.00  0.00     0.167 HD
ATOM     62  C   UNL     1      -4.926   7.354 -10.165  1.00  0.00     0.074 A 
ATOM     63  C   UNL     1      -4.851   6.429 -11.278  1.00  0.00     0.031 C 
ATOM     64  C   UNL     1      -5.773   8.411 -10.105  1.00  0.00     0.031 A 
BRANCH  51  65
ATOM     65  C   UNL     1      -5.355  11.654  -4.853  1.00  0.00    -0.014 A 
ATOM     66  C   UNL     1      -4.541  12.754  -4.534  1.00  0.00     0.009 A 
ATOM     67  C   UNL     1      -6.671  11.625  -4.366  1.00  0.00     0.009 A 
ATOM     68  C   UNL     1      -5.013  13.769  -3.700  1.00  0.00     0.001 A 
ATOM     69  C   UNL     1      -7.154  12.660  -3.562  1.00  0.00     0.001 A 
ATOM     70  C   UNL     1      -6.320  13.723  -3.216  1.00  0.00     0.000 A 
ENDBRANCH  51  65
BRANCH  52  71
ATOM     71  C   UNL     1      -1.756   3.890  -9.976  1.00  0.00    -0.014 A 
ATOM     72  C   UNL     1      -1.005   4.135 -11.136  1.00  0.00     0.009 A 
ATOM     73  C   UNL     1      -1.968   2.563  -9.572  1.00  0.00     0.009 A 
ATOM     74  C   UNL     1      -0.492   3.073 -11.885  1.00  0.00     0.001 A 
ATOM     75  C   UNL     1      -1.430   1.504 -10.308  1.00  0.00     0.001 A 
ATOM     76  C   UNL     1      -0.700   1.760 -11.468  1.00  0.00     0.000 A 
ENDBRANCH  52  71
BRANCH  64  77
ATOM     77  C   UNL     1      -6.665   8.646 -11.293  1.00  0.00    -0.014 A 
ATOM     78  C   UNL     1      -7.747   7.798 -11.575  1.00  0.00     0.009 A 
ATOM     79  C   UNL     1      -6.440   9.758 -12.120  1.00  0.00     0.009 A 
ATOM     80  C   UNL     1      -8.566   8.042 -12.680  1.00  0.00     0.001 A 
ATOM     81  C   UNL     1      -7.278  10.017 -13.205  1.00  0.00     0.001 A 
ATOM     82  C   UNL     1      -8.334   9.153 -13.490  1.00  0.00     0.000 A 
ENDBRANCH  64  77
ENDBRANCH  38  39
ENDBRANCH  30  33
ENDBRANCH  28  29
ENDBRANCH  27  28
ENDBRANCH   1  27
TORSDOF 15
