REMARK SMILES O=C(NCCCNC(=O)c1ccc(N[C@@H]2CCCS(=O)(=O)C2)c(F)c1F)c1ccc(-c2c3nc(c(-c4ccccc4)c4ccc([nH]4)c(-c4ccccc4)c4nc(c(-c5ccccc5)c5ccc2[nH]5)C=C4)C=C3)cc1
REMARK SMILES IDX 5 1 4 2 3 3 1 4 2 5 27 7 28 8 74 9 29 10 73 11 30 12 31 13
REMARK SMILES IDX 32 14 67 15 33 16 72 17 66 18 68 19 34 20 71 21 65 22 64 23
REMARK SMILES IDX 35 25 57 26 42 27 56 28 43 29 46 30 55 31 69 32 44 33 45 34
REMARK SMILES IDX 54 36 70 37 47 38 36 39 37 40 41 41 38 42 40 43 39 44 58 45
REMARK SMILES IDX 59 46 63 47 60 48 62 49 61 50 48 51 49 52 53 53 50 54 52 55
REMARK SMILES IDX 51 56 6 57 7 58 8 59 9 61 10 62 11 63 25 64 12 65 23 66
REMARK SMILES IDX 26 67 13 68 24 69 14 70 15 72 16 73 22 74 17 75 19 76 18 77
REMARK SMILES IDX 20 78 21 79
REMARK H PARENT 3 6 68 24 46 35 7 60 14 71
REMARK Flexibility Score: inf
ROOT
ATOM      1  C   UNL     1       5.010  -0.767   2.099  1.00  0.00     0.042 C 
ENDROOT
BRANCH   1   2
ATOM      2  C   UNL     1       4.606  -1.018   0.656  1.00  0.00     0.118 C 
BRANCH   2   3
ATOM      3  N   UNL     1       3.162  -0.975   0.466  1.00  0.00    -0.352 N 
ATOM      4  O   UNL     1       1.159  -0.101  -0.061  1.00  0.00    -0.269 OA
ATOM      5  C   UNL     1       2.379  -0.059  -0.190  1.00  0.00     0.251 C 
ATOM      6  H   UNL     1       2.669  -1.724   0.873  1.00  0.00     0.163 HD
BRANCH   5   7
ATOM      7  C   UNL     1       2.994   0.988  -1.031  1.00  0.00     0.039 A 
ATOM      8  C   UNL     1       4.063   0.696  -1.882  1.00  0.00     0.014 A 
ATOM      9  C   UNL     1       2.463   2.280  -0.994  1.00  0.00     0.014 A 
ATOM     10  C   UNL     1       4.695   1.718  -2.581  1.00  0.00     0.010 A 
ATOM     11  C   UNL     1       3.040   3.287  -1.768  1.00  0.00     0.010 A 
ATOM     12  C   UNL     1       4.179   3.021  -2.544  1.00  0.00    -0.014 A 
BRANCH  12  13
ATOM     13  C   UNL     1       4.797   4.093  -3.360  1.00  0.00     0.031 A 
ATOM     14  C   UNL     1       5.413   5.294  -2.705  1.00  0.00     0.074 A 
ATOM     15  C   UNL     1       4.763   3.996  -4.702  1.00  0.00     0.049 A 
ATOM     16  N   UNL     1       5.907   6.373  -3.259  1.00  0.00    -0.248 NA
ATOM     17  C   UNL     1       5.473   5.289  -1.236  1.00  0.00     0.031 C 
ATOM     18  C   UNL     1       4.201   2.873  -5.455  1.00  0.00     0.029 A 
ATOM     19  N   UNL     1       5.197   4.864  -5.672  1.00  0.00    -0.354 N 
ATOM     20  C   UNL     1       6.308   7.187  -2.208  1.00  0.00     0.074 A 
ATOM     21  C   UNL     1       5.977   6.488  -0.984  1.00  0.00     0.031 C 
ATOM     22  C   UNL     1       4.332   3.114  -6.766  1.00  0.00     0.029 A 
ATOM     23  C   UNL     1       4.921   4.436  -6.947  1.00  0.00     0.049 A 
ATOM     24  H   UNL     1       5.661   5.709  -5.473  1.00  0.00     0.167 HD
ATOM     25  C   UNL     1       6.895   8.407  -2.260  1.00  0.00     0.031 A 
ATOM     26  C   UNL     1       5.081   5.053  -8.132  1.00  0.00     0.031 A 
ATOM     27  C   UNL     1       7.203   9.102  -3.484  1.00  0.00     0.049 A 
ATOM     28  C   UNL     1       5.676   6.430  -8.166  1.00  0.00     0.074 A 
ATOM     29  C   UNL     1       7.827  10.327  -3.646  1.00  0.00     0.029 A 
ATOM     30  N   UNL     1       6.894   8.639  -4.755  1.00  0.00    -0.354 N 
ATOM     31  N   UNL     1       6.082   7.176  -7.167  1.00  0.00    -0.248 NA
ATOM     32  C   UNL     1       5.839   7.049  -9.488  1.00  0.00     0.031 C 
ATOM     33  C   UNL     1       7.831  10.637  -5.010  1.00  0.00     0.029 A 
ATOM     34  C   UNL     1       7.283   9.570  -5.704  1.00  0.00     0.049 A 
ATOM     35  H   UNL     1       6.462   7.777  -4.953  1.00  0.00     0.167 HD
ATOM     36  C   UNL     1       6.580   8.338  -7.740  1.00  0.00     0.074 A 
ATOM     37  C   UNL     1       6.425   8.197  -9.174  1.00  0.00     0.031 C 
ATOM     38  C   UNL     1       7.126   9.418  -7.130  1.00  0.00     0.031 A 
BRANCH  25  39
ATOM     39  C   UNL     1       7.190   9.089  -0.951  1.00  0.00    -0.014 A 
ATOM     40  C   UNL     1       8.160   8.596  -0.063  1.00  0.00     0.009 A 
ATOM     41  C   UNL     1       6.484  10.252  -0.602  1.00  0.00     0.009 A 
ATOM     42  C   UNL     1       8.377   9.222   1.168  1.00  0.00     0.001 A 
ATOM     43  C   UNL     1       6.728  10.895   0.613  1.00  0.00     0.001 A 
ATOM     44  C   UNL     1       7.663  10.371   1.503  1.00  0.00     0.000 A 
ENDBRANCH  25  39
BRANCH  26  45
ATOM     45  C   UNL     1       4.645   4.363  -9.372  1.00  0.00    -0.014 A 
ATOM     46  C   UNL     1       5.587   3.862 -10.282  1.00  0.00     0.009 A 
ATOM     47  C   UNL     1       3.279   4.152  -9.623  1.00  0.00     0.009 A 
ATOM     48  C   UNL     1       5.170   3.174 -11.423  1.00  0.00     0.001 A 
ATOM     49  C   UNL     1       2.866   3.437 -10.748  1.00  0.00     0.001 A 
ATOM     50  C   UNL     1       3.811   2.954 -11.650  1.00  0.00     0.000 A 
ENDBRANCH  26  45
BRANCH  38  51
ATOM     51  C   UNL     1       7.654  10.520  -8.006  1.00  0.00    -0.014 A 
ATOM     52  C   UNL     1       6.795  11.393  -8.688  1.00  0.00     0.009 A 
ATOM     53  C   UNL     1       9.040  10.731  -8.081  1.00  0.00     0.009 A 
ATOM     54  C   UNL     1       7.317  12.447  -9.443  1.00  0.00     0.001 A 
ATOM     55  C   UNL     1       9.557  11.802  -8.810  1.00  0.00     0.001 A 
ATOM     56  C   UNL     1       8.695  12.656  -9.495  1.00  0.00     0.000 A 
ENDBRANCH  38  51
ENDBRANCH  12  13
ENDBRANCH   5   7
ENDBRANCH   2   3
ENDBRANCH   1   2
BRANCH   1  57
ATOM     57  C   UNL     1       4.496  -1.821   3.065  1.00  0.00     0.118 C 
BRANCH  57  58
ATOM     58  N   UNL     1       5.044  -3.147   2.795  1.00  0.00    -0.352 N 
ATOM     59  C   UNL     1       5.905  -3.914   3.544  1.00  0.00     0.254 C 
ATOM     60  H   UNL     1       4.752  -3.554   1.947  1.00  0.00     0.163 HD
ATOM     61  O   UNL     1       6.346  -4.968   3.105  1.00  0.00    -0.269 OA
BRANCH  59  62
ATOM     62  C   UNL     1       6.255  -3.466   4.898  1.00  0.00     0.078 A 
ATOM     63  C   UNL     1       5.232  -3.134   5.785  1.00  0.00     0.019 A 
ATOM     64  C   UNL     1       7.580  -3.320   5.281  1.00  0.00     0.173 A 
ATOM     65  C   UNL     1       5.539  -2.511   6.991  1.00  0.00     0.030 A 
ATOM     66  C   UNL     1       7.873  -2.751   6.520  1.00  0.00     0.182 A 
ATOM     67  F   UNL     1       8.581  -3.655   4.455  1.00  0.00    -0.203 F 
ATOM     68  C   UNL     1       6.862  -2.295   7.391  1.00  0.00     0.074 A 
ATOM     69  F   UNL     1       9.158  -2.579   6.872  1.00  0.00    -0.201 F 
BRANCH  68  70
ATOM     70  N   UNL     1       7.209  -1.636   8.560  1.00  0.00    -0.379 N 
ATOM     71  H   UNL     1       8.161  -1.675   8.809  1.00  0.00     0.160 HD
BRANCH  70  72
ATOM     72  C   UNL     1       6.338  -0.887   9.477  1.00  0.00     0.094 C 
ATOM     73  C   UNL     1       5.395  -1.856  10.222  1.00  0.00     0.027 C 
ATOM     74  C   UNL     1       5.711   0.302   8.754  1.00  0.00     0.161 C 
ATOM     75  C   UNL     1       4.329  -1.195  11.088  1.00  0.00     0.018 C 
ATOM     76  S   UNL     1       4.535   1.158   9.757  1.00  0.00     0.152 S 
ATOM     77  C   UNL     1       3.507  -0.177  10.321  1.00  0.00     0.137 C 
ATOM     78  O   UNL     1       3.736   1.994   8.886  1.00  0.00    -0.229 OA
ATOM     79  O   UNL     1       5.231   1.718  10.900  1.00  0.00    -0.229 OA
ENDBRANCH  70  72
ENDBRANCH  68  70
ENDBRANCH  59  62
ENDBRANCH  57  58
ENDBRANCH   1  57
TORSDOF 12
