REMARK SMILES CN(c1ccccc1C(=O)NCCCNC(=O)c1ccc(-c2c3nc(c(-c4ccccc4)c4ccc([nH]4)c(-c4ccccc4)c4nc(c(-c5ccccc5)c5ccc2[nH]5)C=C4)C=C3)cc1)S(=O)(=O)c1ccc(I)cc1
REMARK SMILES IDX 12 1 11 2 9 3 10 4 8 6 3 7 4 8 5 9 7 10 6 11 2 12 1 13 66 14
REMARK SMILES IDX 67 15 68 16 69 17 70 18 75 19 71 20 74 21 72 22 73 23 13 24
REMARK SMILES IDX 14 25 15 26 16 27 17 29 18 30 19 31 65 32 20 33 64 34 21 35
REMARK SMILES IDX 22 36 23 37 58 38 24 39 63 40 57 41 59 42 25 43 62 44 56 45
REMARK SMILES IDX 55 46 26 48 48 49 33 50 47 51 34 52 37 53 46 54 60 55 35 56
REMARK SMILES IDX 36 57 45 59 61 60 38 61 27 62 28 63 32 64 29 65 31 66 30 67
REMARK SMILES IDX 49 68 50 69 54 70 51 71 53 72 52 73 39 74 40 75 44 76 41 77
REMARK SMILES IDX 43 78 42 79
REMARK H PARENT 11 5 15 28 59 47 37 58
REMARK Flexibility Score: inf
ROOT
ATOM      1  C   UNL     1       0.174   0.460  -0.822  1.00  0.00     0.118 C 
ENDROOT
BRANCH   1   2
ATOM      2  N   UNL     1      -1.200   0.681  -0.429  1.00  0.00    -0.352 N 
ATOM      3  C   UNL     1      -1.905   0.630   0.738  1.00  0.00     0.253 C 
ATOM      4  O   UNL     1      -3.126   0.775   0.595  1.00  0.00    -0.269 OA
ATOM      5  H   UNL     1      -1.768   0.929  -1.193  1.00  0.00     0.163 HD
BRANCH   3   6
ATOM      6  C   UNL     1      -1.369   0.549   2.137  1.00  0.00     0.064 A 
ATOM      7  C   UNL     1      -0.192  -0.036   2.643  1.00  0.00     0.064 A 
ATOM      8  C   UNL     1       0.089   0.073   4.029  1.00  0.00     0.028 A 
ATOM      9  C   UNL     1      -0.786   0.695   4.919  1.00  0.00     0.002 A 
ATOM     10  C   UNL     1      -2.242   1.165   3.075  1.00  0.00     0.016 A 
ATOM     11  C   UNL     1      -1.967   1.228   4.441  1.00  0.00     0.001 A 
BRANCH   7  12
ATOM     12  N   UNL     1       0.699  -0.884   1.889  1.00  0.00    -0.269 N 
ATOM     13  C   UNL     1       2.153  -0.646   2.036  1.00  0.00     0.164 C 
BRANCH  12  14
ATOM     14  S   UNL     1       0.200  -2.482   1.544  1.00  0.00     0.264 S 
ATOM     15  O   UNL     1      -1.140  -2.443   0.988  1.00  0.00    -0.201 OA
ATOM     16  O   UNL     1       1.275  -3.119   0.816  1.00  0.00    -0.201 OA
BRANCH  14  17
ATOM     17  C   UNL     1       0.044  -3.345   3.099  1.00  0.00     0.088 A 
ATOM     18  C   UNL     1      -0.999  -3.012   3.969  1.00  0.00     0.023 A 
ATOM     19  C   UNL     1       0.820  -4.485   3.341  1.00  0.00     0.023 A 
ATOM     20  C   UNL     1      -1.229  -3.776   5.114  1.00  0.00     0.016 A 
ATOM     21  C   UNL     1       0.560  -5.274   4.468  1.00  0.00     0.016 A 
ATOM     22  C   UNL     1      -0.456  -4.910   5.354  1.00  0.00     0.013 A 
ATOM     23  I   UNL     1      -0.864  -6.098   7.009  1.00  0.00    -0.044 I 
ENDBRANCH  14  17
ENDBRANCH  12  14
ENDBRANCH   7  12
ENDBRANCH   3   6
ENDBRANCH   1   2
BRANCH   1  24
ATOM     24  C   UNL     1       0.284  -0.861  -1.584  1.00  0.00     0.042 C 
BRANCH  24  25
ATOM     25  C   UNL     1       0.459  -0.656  -3.082  1.00  0.00     0.118 C 
BRANCH  25  26
ATOM     26  N   UNL     1       1.821  -0.245  -3.413  1.00  0.00    -0.352 N 
ATOM     27  C   UNL     1       2.830  -0.942  -4.035  1.00  0.00     0.251 C 
ATOM     28  H   UNL     1       2.052   0.674  -3.149  1.00  0.00     0.163 HD
ATOM     29  O   UNL     1       3.979  -0.512  -3.996  1.00  0.00    -0.269 OA
BRANCH  27  30
ATOM     30  C   UNL     1       2.542  -2.211  -4.741  1.00  0.00     0.039 A 
ATOM     31  C   UNL     1       3.457  -3.267  -4.669  1.00  0.00     0.014 A 
ATOM     32  C   UNL     1       1.379  -2.355  -5.496  1.00  0.00     0.014 A 
ATOM     33  C   UNL     1       3.164  -4.489  -5.285  1.00  0.00     0.010 A 
ATOM     34  C   UNL     1       1.038  -3.599  -6.009  1.00  0.00     0.010 A 
ATOM     35  C   UNL     1       1.929  -4.680  -5.923  1.00  0.00    -0.014 A 
BRANCH  35  36
ATOM     36  C   UNL     1       1.530  -5.967  -6.553  1.00  0.00     0.031 A 
ATOM     37  C   UNL     1       1.123  -5.973  -8.005  1.00  0.00     0.074 A 
ATOM     38  C   UNL     1       1.401  -7.087  -5.816  1.00  0.00     0.049 A 
ATOM     39  N   UNL     1       0.465  -6.880  -8.680  1.00  0.00    -0.248 NA
ATOM     40  C   UNL     1       1.451  -4.765  -8.783  1.00  0.00     0.031 C 
ATOM     41  C   UNL     1       1.729  -7.221  -4.395  1.00  0.00     0.029 A 
ATOM     42  N   UNL     1       0.924  -8.328  -6.163  1.00  0.00    -0.354 N 
ATOM     43  C   UNL     1       0.238  -6.322  -9.933  1.00  0.00     0.074 A 
ATOM     44  C   UNL     1       0.800  -4.990  -9.914  1.00  0.00     0.031 C 
ATOM     45  C   UNL     1       1.458  -8.475  -3.996  1.00  0.00     0.029 A 
ATOM     46  C   UNL     1       0.884  -9.215  -5.114  1.00  0.00     0.049 A 
ATOM     47  H   UNL     1       0.638  -8.559  -7.076  1.00  0.00     0.167 HD
ATOM     48  C   UNL     1      -0.371  -6.873 -11.009  1.00  0.00     0.031 A 
ATOM     49  C   UNL     1       0.413 -10.475  -5.054  1.00  0.00     0.031 A 
ATOM     50  C   UNL     1      -0.863  -8.222 -11.048  1.00  0.00     0.049 A 
ATOM     51  C   UNL     1      -0.198 -11.091  -6.282  1.00  0.00     0.074 A 
ATOM     52  C   UNL     1      -1.448  -8.898 -12.105  1.00  0.00     0.029 A 
ATOM     53  N   UNL     1      -0.796  -9.112  -9.988  1.00  0.00    -0.354 N 
ATOM     54  N   UNL     1      -0.402 -10.554  -7.460  1.00  0.00    -0.248 NA
ATOM     55  C   UNL     1      -0.638 -12.490  -6.174  1.00  0.00     0.031 C 
ATOM     56  C   UNL     1      -1.743 -10.197 -11.680  1.00  0.00     0.029 A 
ATOM     57  C   UNL     1      -1.310 -10.337 -10.371  1.00  0.00     0.049 A 
ATOM     58  H   UNL     1      -0.436  -8.903  -9.096  1.00  0.00     0.167 HD
ATOM     59  C   UNL     1      -0.962 -11.557  -8.241  1.00  0.00     0.074 A 
ATOM     60  C   UNL     1      -1.059 -12.736  -7.407  1.00  0.00     0.031 C 
ATOM     61  C   UNL     1      -1.362 -11.505  -9.534  1.00  0.00     0.031 A 
BRANCH  48  62
ATOM     62  C   UNL     1      -0.525  -6.017 -12.234  1.00  0.00    -0.014 A 
ATOM     63  C   UNL     1       0.585  -5.668 -13.019  1.00  0.00     0.009 A 
ATOM     64  C   UNL     1      -1.799  -5.574 -12.622  1.00  0.00     0.009 A 
ATOM     65  C   UNL     1       0.427  -4.858 -14.146  1.00  0.00     0.001 A 
ATOM     66  C   UNL     1      -1.957  -4.790 -13.766  1.00  0.00     0.001 A 
ATOM     67  C   UNL     1      -0.844  -4.424 -14.521  1.00  0.00     0.000 A 
ENDBRANCH  48  62
BRANCH  49  68
ATOM     68  C   UNL     1       0.505 -11.250  -3.789  1.00  0.00    -0.014 A 
ATOM     69  C   UNL     1       1.422 -12.306  -3.673  1.00  0.00     0.009 A 
ATOM     70  C   UNL     1      -0.326 -10.950  -2.699  1.00  0.00     0.009 A 
ATOM     71  C   UNL     1       1.482 -13.068  -2.503  1.00  0.00     0.001 A 
ATOM     72  C   UNL     1      -0.244 -11.695  -1.520  1.00  0.00     0.001 A 
ATOM     73  C   UNL     1       0.651 -12.760  -1.427  1.00  0.00     0.000 A 
ENDBRANCH  49  68
BRANCH  61  74
ATOM     74  C   UNL     1      -1.871 -12.773 -10.151  1.00  0.00    -0.014 A 
ATOM     75  C   UNL     1      -3.163 -13.248  -9.880  1.00  0.00     0.009 A 
ATOM     76  C   UNL     1      -1.066 -13.460 -11.073  1.00  0.00     0.009 A 
ATOM     77  C   UNL     1      -3.631 -14.402 -10.511  1.00  0.00     0.001 A 
ATOM     78  C   UNL     1      -1.546 -14.601 -11.717  1.00  0.00     0.001 A 
ATOM     79  C   UNL     1      -2.826 -15.073 -11.431  1.00  0.00     0.000 A 
ENDBRANCH  61  74
ENDBRANCH  35  36
ENDBRANCH  27  30
ENDBRANCH  25  26
ENDBRANCH  24  25
ENDBRANCH   1  24
TORSDOF 13
