REMARK SMILES Cc1c(C(=O)NCCCNC(=O)c2ccc(-c3c4nc(c(-c5ccccc5)c5ccc([nH]5)c(-c5ccccc5)c5nc(c(-c6ccccc6)c6ccc3[nH]6)C=C5)C=C4)cc2)sc2c1=C(CSc1nncn1-c1ccccc1)CC(=O)N=2
REMARK SMILES IDX 7 1 6 2 4 3 5 4 3 6 1 7 2 8 63 9 61 10 62 11 64 12 81 13
REMARK SMILES IDX 78 14 79 15 80 16 65 17 66 18 67 19 68 20 71 21 69 22 70 23
REMARK SMILES IDX 72 24 73 25 77 26 74 27 76 28 75 29 8 30 9 31 10 32 11 33
REMARK SMILES IDX 12 35 13 36 14 37 60 38 15 39 59 40 16 41 17 42 18 43 53 44
REMARK SMILES IDX 19 45 58 46 52 47 54 48 20 49 57 50 51 51 50 52 21 54 43 55
REMARK SMILES IDX 28 56 42 57 29 58 32 59 41 60 55 61 30 62 31 63 40 65 56 66
REMARK SMILES IDX 33 67 22 68 23 69 27 70 24 71 26 72 25 73 44 74 45 75 49 76
REMARK SMILES IDX 46 77 48 78 47 79 34 80 35 81 39 82 36 83 38 84 37 85
REMARK H PARENT 6 5 10 34 54 53 32 64
REMARK Flexibility Score: inf
ROOT
ATOM      1  C   UNL     1      -0.148  -1.655  -1.668  1.00  0.00     0.118 C 
ENDROOT
BRANCH   1   2
ATOM      2  N   UNL     1      -0.916  -0.788  -2.515  1.00  0.00    -0.351 N 
ATOM      3  C   UNL     1      -0.801   0.520  -2.835  1.00  0.00     0.261 C 
ATOM      4  O   UNL     1      -1.545   0.867  -3.761  1.00  0.00    -0.268 OA
ATOM      5  H   UNL     1      -1.677  -1.235  -2.951  1.00  0.00     0.163 HD
BRANCH   3   6
ATOM      6  C   UNL     1       0.151   1.510  -2.191  1.00  0.00     0.098 A 
ATOM      7  C   UNL     1       1.061   0.755   0.154  1.00  0.00     0.047 C 
ATOM      8  C   UNL     1       0.928   1.606  -1.075  1.00  0.00    -0.018 A 
ATOM      9  C   UNL     1       1.579   2.917  -0.983  1.00  0.00     0.016 A 
ATOM     10  S   UNL     1       0.060   3.109  -3.037  1.00  0.00    -0.110 S 
ATOM     11  C   UNL     1       0.827   3.945  -1.725  1.00  0.00     0.128 A 
ATOM     12  C   UNL     1       2.359   3.409  -0.003  1.00  0.00    -0.040 C 
ATOM     13  N   UNL     1       0.711   5.200  -1.485  1.00  0.00    -0.202 NA
ATOM     14  C   UNL     1       1.796   4.635   0.683  1.00  0.00     0.135 C 
ATOM     15  C   UNL     1       1.366   5.665  -0.362  1.00  0.00     0.251 C 
ATOM     16  O   UNL     1       1.561   6.859  -0.157  1.00  0.00    -0.272 OA
BRANCH  12  17
ATOM     17  C   UNL     1       3.871   3.498  -0.186  1.00  0.00     0.110 C 
BRANCH  17  18
ATOM     18  S   UNL     1       4.641   2.040  -0.925  1.00  0.00    -0.081 SA
BRANCH  18  19
ATOM     19  C   UNL     1       4.761   0.983   0.445  1.00  0.00     0.195 A 
ATOM     20  N   UNL     1       4.901   1.408   1.681  1.00  0.00    -0.123 NA
ATOM     21  N   UNL     1       4.506  -0.380   0.433  1.00  0.00    -0.277 N 
ATOM     22  N   UNL     1       4.713   0.344   2.519  1.00  0.00    -0.138 NA
ATOM     23  C   UNL     1       4.468  -0.706   1.771  1.00  0.00     0.231 A 
BRANCH  21  24
ATOM     24  C   UNL     1       4.233  -1.265  -0.648  1.00  0.00     0.049 A 
ATOM     25  C   UNL     1       4.771  -1.042  -1.921  1.00  0.00     0.027 A 
ATOM     26  C   UNL     1       3.393  -2.371  -0.446  1.00  0.00     0.027 A 
ATOM     27  C   UNL     1       4.410  -1.860  -2.993  1.00  0.00     0.002 A 
ATOM     28  C   UNL     1       3.045  -3.192  -1.523  1.00  0.00     0.002 A 
ATOM     29  C   UNL     1       3.532  -2.921  -2.799  1.00  0.00     0.000 A 
ENDBRANCH  21  24
ENDBRANCH  18  19
ENDBRANCH  17  18
ENDBRANCH  12  17
ENDBRANCH   3   6
ENDBRANCH   1   2
BRANCH   1  30
ATOM     30  C   UNL     1      -0.895  -1.988  -0.368  1.00  0.00     0.042 C 
BRANCH  30  31
ATOM     31  C   UNL     1      -1.434  -3.406  -0.430  1.00  0.00     0.118 C 
BRANCH  31  32
ATOM     32  N   UNL     1      -0.354  -4.414  -0.376  1.00  0.00    -0.352 N 
ATOM     33  C   UNL     1      -0.416  -5.805  -0.489  1.00  0.00     0.251 C 
ATOM     34  H   UNL     1       0.549  -4.048  -0.239  1.00  0.00     0.163 HD
ATOM     35  O   UNL     1       0.516  -6.511  -0.184  1.00  0.00    -0.269 OA
BRANCH  33  36
ATOM     36  C   UNL     1      -1.657  -6.367  -1.047  1.00  0.00     0.039 A 
ATOM     37  C   UNL     1      -2.380  -7.432  -0.501  1.00  0.00     0.014 A 
ATOM     38  C   UNL     1      -2.175  -5.611  -2.073  1.00  0.00     0.014 A 
ATOM     39  C   UNL     1      -3.669  -7.655  -0.990  1.00  0.00     0.010 A 
ATOM     40  C   UNL     1      -3.522  -5.530  -2.121  1.00  0.00     0.010 A 
ATOM     41  C   UNL     1      -4.225  -6.674  -1.816  1.00  0.00    -0.014 A 
BRANCH  41  42
ATOM     42  C   UNL     1      -5.542  -6.696  -2.418  1.00  0.00     0.031 A 
ATOM     43  C   UNL     1      -6.668  -6.706  -1.465  1.00  0.00     0.074 A 
ATOM     44  C   UNL     1      -5.704  -6.367  -3.723  1.00  0.00     0.049 A 
ATOM     45  N   UNL     1      -7.487  -7.675  -1.248  1.00  0.00    -0.248 NA
ATOM     46  C   UNL     1      -6.829  -5.564  -0.552  1.00  0.00     0.031 C 
ATOM     47  C   UNL     1      -4.700  -5.957  -4.725  1.00  0.00     0.029 A 
ATOM     48  N   UNL     1      -6.862  -6.181  -4.396  1.00  0.00    -0.354 N 
ATOM     49  C   UNL     1      -8.399  -7.202  -0.315  1.00  0.00     0.074 A 
ATOM     50  C   UNL     1      -7.833  -5.988   0.219  1.00  0.00     0.031 C 
ATOM     51  C   UNL     1      -5.311  -5.347  -5.765  1.00  0.00     0.029 A 
ATOM     52  C   UNL     1      -6.743  -5.493  -5.595  1.00  0.00     0.049 A 
ATOM     53  H   UNL     1      -7.726  -6.511  -4.060  1.00  0.00     0.167 HD
ATOM     54  C   UNL     1      -9.658  -7.714  -0.237  1.00  0.00     0.031 A 
ATOM     55  C   UNL     1      -7.764  -5.051  -6.370  1.00  0.00     0.031 A 
ATOM     56  C   UNL     1      -9.796  -8.902  -1.046  1.00  0.00     0.049 A 
ATOM     57  C   UNL     1      -8.954  -5.859  -5.994  1.00  0.00     0.074 A 
ATOM     58  C   UNL     1      -9.177 -10.136  -1.062  1.00  0.00     0.029 A 
ATOM     59  N   UNL     1     -10.348  -8.745  -2.299  1.00  0.00    -0.354 N 
ATOM     60  N   UNL     1      -9.015  -7.151  -6.177  1.00  0.00    -0.248 NA
ATOM     61  C   UNL     1      -9.826  -5.341  -4.949  1.00  0.00     0.031 C 
ATOM     62  C   UNL     1      -8.941 -10.402  -2.445  1.00  0.00     0.029 A 
ATOM     63  C   UNL     1      -9.510  -9.367  -3.192  1.00  0.00     0.049 A 
ATOM     64  H   UNL     1     -11.186  -8.275  -2.514  1.00  0.00     0.167 HD
ATOM     65  C   UNL     1      -9.578  -7.655  -5.010  1.00  0.00     0.074 A 
ATOM     66  C   UNL     1     -10.139  -6.485  -4.329  1.00  0.00     0.031 C 
ATOM     67  C   UNL     1      -9.273  -8.906  -4.546  1.00  0.00     0.031 A 
BRANCH  54  68
ATOM     68  C   UNL     1     -10.856  -6.944   0.242  1.00  0.00    -0.014 A 
ATOM     69  C   UNL     1     -12.073  -7.628   0.407  1.00  0.00     0.009 A 
ATOM     70  C   UNL     1     -10.906  -5.538   0.285  1.00  0.00     0.009 A 
ATOM     71  C   UNL     1     -13.282  -6.938   0.541  1.00  0.00     0.001 A 
ATOM     72  C   UNL     1     -12.107  -4.846   0.458  1.00  0.00     0.001 A 
ATOM     73  C   UNL     1     -13.299  -5.547   0.558  1.00  0.00     0.000 A 
ENDBRANCH  54  68
BRANCH  55  74
ATOM     74  C   UNL     1      -7.822  -3.774  -7.118  1.00  0.00    -0.014 A 
ATOM     75  C   UNL     1      -8.789  -3.543  -8.108  1.00  0.00     0.009 A 
ATOM     76  C   UNL     1      -7.064  -2.668  -6.683  1.00  0.00     0.009 A 
ATOM     77  C   UNL     1      -9.002  -2.252  -8.620  1.00  0.00     0.001 A 
ATOM     78  C   UNL     1      -7.275  -1.382  -7.192  1.00  0.00     0.001 A 
ATOM     79  C   UNL     1      -8.255  -1.171  -8.153  1.00  0.00     0.000 A 
ENDBRANCH  55  74
BRANCH  67  80
ATOM     80  C   UNL     1      -8.390  -9.793  -5.403  1.00  0.00    -0.014 A 
ATOM     81  C   UNL     1      -7.054  -9.472  -5.712  1.00  0.00     0.009 A 
ATOM     82  C   UNL     1      -8.847 -11.073  -5.741  1.00  0.00     0.009 A 
ATOM     83  C   UNL     1      -6.212 -10.390  -6.351  1.00  0.00     0.001 A 
ATOM     84  C   UNL     1      -8.003 -11.998  -6.365  1.00  0.00     0.001 A 
ATOM     85  C   UNL     1      -6.687 -11.657  -6.672  1.00  0.00     0.000 A 
ENDBRANCH  67  80
ENDBRANCH  41  42
ENDBRANCH  33  36
ENDBRANCH  31  32
ENDBRANCH  30  31
ENDBRANCH   1  30
TORSDOF 14
