REMARK SMILES C[C@@H]1OCC[C@@H]1C(=O)Nc1ccc(C(=O)NCCCNC(=O)c2ccc(-c3c4nc(c(-c5ccccc5)c5ccc([nH]5)c(-c5ccccc5)c5nc(c(-c6ccccc6)c6ccc3[nH]6)C=C5)C=C4)cc2)cc1F
REMARK SMILES IDX 18 1 17 2 16 3 14 4 15 5 13 7 10 8 11 9 72 10 12 11 71 12
REMARK SMILES IDX 73 13 9 14 7 15 8 16 6 18 1 19 2 20 3 21 4 22 5 23 19 24
REMARK SMILES IDX 20 25 21 26 22 28 23 29 24 30 70 31 25 32 69 33 26 34 27 35
REMARK SMILES IDX 28 36 63 37 29 38 68 39 62 40 64 41 30 42 67 43 61 44 60 45
REMARK SMILES IDX 31 47 53 48 38 49 52 50 39 51 42 52 51 53 65 54 40 55 41 56
REMARK SMILES IDX 50 58 66 59 43 60 32 61 33 62 37 63 34 64 36 65 35 66 54 67
REMARK SMILES IDX 55 68 59 69 56 70 58 71 57 72 44 73 45 74 49 75 46 76 48 77
REMARK SMILES IDX 47 78
REMARK H PARENT 16 6 9 17 20 27 64 46 42 57
REMARK Flexibility Score: inf
ROOT
ATOM      1  C   UNL     1       2.048  -3.259   4.732  1.00  0.00     0.042 C 
ENDROOT
BRANCH   1   2
ATOM      2  C   UNL     1       1.422  -2.178   5.627  1.00  0.00     0.118 C 
BRANCH   2   3
ATOM      3  N   UNL     1       2.440  -1.329   6.249  1.00  0.00    -0.352 N 
ATOM      4  C   UNL     1       3.034  -0.133   5.892  1.00  0.00     0.251 C 
ATOM      5  O   UNL     1       3.835   0.375   6.675  1.00  0.00    -0.269 OA
ATOM      6  H   UNL     1       2.772  -1.686   7.104  1.00  0.00     0.163 HD
BRANCH   4   7
ATOM      7  C   UNL     1       2.703   0.593   4.636  1.00  0.00     0.042 A 
ATOM      8  C   UNL     1       1.708   2.016   2.376  1.00  0.00     0.077 A 
ATOM      9  C   UNL     1       2.523   2.652   3.326  1.00  0.00     0.030 A 
ATOM     10  C   UNL     1       1.402   0.694   2.643  1.00  0.00     0.147 A 
ATOM     11  C   UNL     1       2.967   1.961   4.479  1.00  0.00     0.016 A 
ATOM     12  C   UNL     1       2.039  -0.036   3.616  1.00  0.00     0.055 A 
ATOM     13  F   UNL     1       0.378   0.039   2.108  1.00  0.00    -0.205 F 
BRANCH   8  14
ATOM     14  N   UNL     1       1.326   2.735   1.220  1.00  0.00    -0.323 N 
ATOM     15  C   UNL     1       0.625   2.417   0.080  1.00  0.00     0.230 C 
ATOM     16  O   UNL     1       0.581   3.275  -0.808  1.00  0.00    -0.274 OA
ATOM     17  H   UNL     1       1.629   3.672   1.234  1.00  0.00     0.170 HD
BRANCH  15  18
ATOM     18  C   UNL     1      -0.107   1.103  -0.085  1.00  0.00     0.110 C 
ATOM     19  C   UNL     1       1.869   0.106  -1.442  1.00  0.00     0.039 C 
ATOM     20  C   UNL     1       0.735  -0.130  -0.455  1.00  0.00     0.127 C 
ATOM     21  O   UNL     1      -0.182  -1.081  -1.047  1.00  0.00    -0.378 OA
ATOM     22  C   UNL     1      -1.469  -0.453  -1.128  1.00  0.00     0.161 C 
ATOM     23  C   UNL     1      -1.185   1.036  -1.152  1.00  0.00     0.044 C 
ENDBRANCH  15  18
ENDBRANCH   8  14
ENDBRANCH   4   7
ENDBRANCH   2   3
ENDBRANCH   1   2
BRANCH   1  24
ATOM     24  C   UNL     1       2.440  -4.510   5.505  1.00  0.00     0.118 C 
BRANCH  24  25
ATOM     25  N   UNL     1       1.268  -5.237   5.964  1.00  0.00    -0.352 N 
ATOM     26  C   UNL     1       0.976  -6.574   5.924  1.00  0.00     0.251 C 
ATOM     27  H   UNL     1       0.569  -4.675   6.371  1.00  0.00     0.163 HD
ATOM     28  O   UNL     1      -0.163  -6.940   6.195  1.00  0.00    -0.269 OA
BRANCH  26  29
ATOM     29  C   UNL     1       1.999  -7.575   5.548  1.00  0.00     0.039 A 
ATOM     30  C   UNL     1       1.581  -8.700   4.832  1.00  0.00     0.014 A 
ATOM     31  C   UNL     1       3.336  -7.458   5.939  1.00  0.00     0.014 A 
ATOM     32  C   UNL     1       2.503  -9.687   4.482  1.00  0.00     0.010 A 
ATOM     33  C   UNL     1       4.271  -8.406   5.526  1.00  0.00     0.010 A 
ATOM     34  C   UNL     1       3.862  -9.536   4.802  1.00  0.00    -0.014 A 
BRANCH  34  35
ATOM     35  C   UNL     1       4.853 -10.550   4.367  1.00  0.00     0.031 A 
ATOM     36  C   UNL     1       5.602 -11.378   5.374  1.00  0.00     0.074 A 
ATOM     37  C   UNL     1       5.094 -10.706   3.051  1.00  0.00     0.049 A 
ATOM     38  N   UNL     1       6.483 -12.326   5.168  1.00  0.00    -0.248 NA
ATOM     39  C   UNL     1       5.349 -11.094   6.795  1.00  0.00     0.031 C 
ATOM     40  C   UNL     1       4.467  -9.929   1.978  1.00  0.00     0.029 A 
ATOM     41  N   UNL     1       5.927 -11.572   2.390  1.00  0.00    -0.354 N 
ATOM     42  C   UNL     1       6.895 -12.741   6.428  1.00  0.00     0.074 A 
ATOM     43  C   UNL     1       6.206 -11.910   7.392  1.00  0.00     0.031 C 
ATOM     44  C   UNL     1       4.907 -10.381   0.794  1.00  0.00     0.029 A 
ATOM     45  C   UNL     1       5.874 -11.448   1.023  1.00  0.00     0.049 A 
ATOM     46  H   UNL     1       6.507 -12.221   2.851  1.00  0.00     0.167 HD
ATOM     47  C   UNL     1       7.755 -13.735   6.755  1.00  0.00     0.031 A 
ATOM     48  C   UNL     1       6.530 -12.120   0.059  1.00  0.00     0.031 A 
ATOM     49  C   UNL     1       8.437 -14.563   5.794  1.00  0.00     0.049 A 
ATOM     50  C   UNL     1       7.480 -13.217   0.449  1.00  0.00     0.074 A 
ATOM     51  C   UNL     1       9.280 -15.637   6.025  1.00  0.00     0.029 A 
ATOM     52  N   UNL     1       8.360 -14.404   4.419  1.00  0.00    -0.354 N 
ATOM     53  N   UNL     1       7.793 -13.653   1.645  1.00  0.00    -0.248 NA
ATOM     54  C   UNL     1       8.156 -13.923  -0.648  1.00  0.00     0.031 C 
ATOM     55  C   UNL     1       9.759 -16.090   4.792  1.00  0.00     0.029 A 
ATOM     56  C   UNL     1       9.165 -15.340   3.790  1.00  0.00     0.049 A 
ATOM     57  H   UNL     1       7.814 -13.727   3.958  1.00  0.00     0.167 HD
ATOM     58  C   UNL     1       8.685 -14.698   1.444  1.00  0.00     0.074 A 
ATOM     59  C   UNL     1       8.841 -14.846   0.011  1.00  0.00     0.031 C 
ATOM     60  C   UNL     1       9.321 -15.465   2.363  1.00  0.00     0.031 A 
BRANCH  47  61
ATOM     61  C   UNL     1       8.019 -13.975   8.217  1.00  0.00    -0.014 A 
ATOM     62  C   UNL     1       7.032 -14.512   9.059  1.00  0.00     0.009 A 
ATOM     63  C   UNL     1       9.288 -13.702   8.751  1.00  0.00     0.009 A 
ATOM     64  C   UNL     1       7.299 -14.736  10.412  1.00  0.00     0.001 A 
ATOM     65  C   UNL     1       9.562 -13.955  10.097  1.00  0.00     0.001 A 
ATOM     66  C   UNL     1       8.565 -14.463  10.928  1.00  0.00     0.000 A 
ENDBRANCH  47  61
BRANCH  48  67
ATOM     67  C   UNL     1       6.299 -11.785  -1.371  1.00  0.00    -0.014 A 
ATOM     68  C   UNL     1       5.628 -12.682  -2.217  1.00  0.00     0.009 A 
ATOM     69  C   UNL     1       6.752 -10.565  -1.898  1.00  0.00     0.009 A 
ATOM     70  C   UNL     1       5.443 -12.377  -3.567  1.00  0.00     0.001 A 
ATOM     71  C   UNL     1       6.537 -10.249  -3.241  1.00  0.00     0.001 A 
ATOM     72  C   UNL     1       5.893 -11.160  -4.077  1.00  0.00     0.000 A 
ENDBRANCH  48  67
BRANCH  60  73
ATOM     73  C   UNL     1      10.226 -16.546   1.840  1.00  0.00    -0.014 A 
ATOM     74  C   UNL     1      11.444 -16.238   1.214  1.00  0.00     0.009 A 
ATOM     75  C   UNL     1       9.860 -17.893   1.990  1.00  0.00     0.009 A 
ATOM     76  C   UNL     1      12.256 -17.255   0.710  1.00  0.00     0.001 A 
ATOM     77  C   UNL     1      10.690 -18.909   1.515  1.00  0.00     0.001 A 
ATOM     78  C   UNL     1      11.880 -18.589   0.864  1.00  0.00     0.000 A 
ENDBRANCH  60  73
ENDBRANCH  34  35
ENDBRANCH  26  29
ENDBRANCH  24  25
ENDBRANCH   1  24
TORSDOF 12
