REMARK SMILES Cc1ccc(-c2cc([C@@H](C)C(=O)NCCCNC(=O)c3ccc(-c4c5nc(c(-c6ccccc6)c6ccc([nH]6)c(-c6ccccc6)c6nc(c(-c7ccccc7)c7ccc4[nH]7)C=C6)C=C5)cc3)ccc2C[C@H]2CCCC2=O)cc1
REMARK SMILES IDX 14 1 13 2 11 3 12 4 9 6 10 7 8 8 6 9 7 10 70 11 69 12 68 13
REMARK SMILES IDX 5 14 1 15 2 16 3 17 79 18 4 19 78 20 71 21 72 22 73 23 76 24
REMARK SMILES IDX 74 25 75 26 77 27 15 28 16 29 17 30 18 31 19 33 20 34 21 35
REMARK SMILES IDX 67 36 22 37 66 38 23 39 24 40 25 41 60 42 26 43 65 44 59 45
REMARK SMILES IDX 61 46 27 47 64 48 58 49 57 50 28 52 50 53 35 54 49 55 36 56
REMARK SMILES IDX 39 57 48 58 62 59 37 60 38 61 47 63 63 64 40 65 29 66 30 67
REMARK SMILES IDX 34 68 31 69 33 70 32 71 51 72 52 73 56 74 53 75 55 76 54 77
REMARK SMILES IDX 41 78 42 79 46 80 43 81 45 82 44 83
REMARK H PARENT 13 5 17 32 61 51 39 62
REMARK Flexibility Score: inf
ROOT
ATOM      1  C   UNL     1      -8.833   0.911  -1.027  1.00  0.00     0.117 C 
ENDROOT
BRANCH   1   2
ATOM      2  N   UNL     1      -8.006   2.055  -1.374  1.00  0.00    -0.356 N 
ATOM      3  C   UNL     1      -6.764   2.160  -1.926  1.00  0.00     0.227 C 
ATOM      4  O   UNL     1      -6.297   3.305  -1.988  1.00  0.00    -0.274 OA
ATOM      5  H   UNL     1      -8.424   2.922  -1.172  1.00  0.00     0.163 HD
BRANCH   3   6
ATOM      6  C   UNL     1      -5.934   0.974  -2.456  1.00  0.00     0.105 C 
ATOM      7  C   UNL     1      -6.656   0.090  -3.471  1.00  0.00     0.023 C 
BRANCH   6   8
ATOM      8  C   UNL     1      -5.173   0.231  -1.367  1.00  0.00    -0.035 A 
ATOM      9  C   UNL     1      -3.117  -0.065  -0.039  1.00  0.00    -0.015 A 
ATOM     10  C   UNL     1      -3.833   0.550  -1.090  1.00  0.00     0.013 A 
ATOM     11  C   UNL     1      -3.822  -0.897   0.859  1.00  0.00    -0.039 A 
ATOM     12  C   UNL     1      -5.125  -1.289   0.524  1.00  0.00     0.004 A 
ATOM     13  C   UNL     1      -5.758  -0.781  -0.610  1.00  0.00     0.005 A 
BRANCH   9  14
ATOM     14  C   UNL     1      -1.647   0.052  -0.009  1.00  0.00    -0.018 A 
ATOM     15  C   UNL     1       2.681   0.191  -0.023  1.00  0.00     0.044 C 
ATOM     16  C   UNL     1       1.182   0.159  -0.030  1.00  0.00    -0.051 A 
ATOM     17  C   UNL     1       0.524  -1.065  -0.160  1.00  0.00     0.004 A 
ATOM     18  C   UNL     1       0.422   1.329   0.098  1.00  0.00     0.004 A 
ATOM     19  C   UNL     1      -0.869  -1.112  -0.162  1.00  0.00     0.009 A 
ATOM     20  C   UNL     1      -0.979   1.276   0.106  1.00  0.00     0.009 A 
ENDBRANCH   9  14
BRANCH  11  21
ATOM     21  C   UNL     1      -3.241  -1.393   2.171  1.00  0.00     0.047 C 
BRANCH  21  22
ATOM     22  C   UNL     1      -3.631  -0.609   3.433  1.00  0.00     0.060 C 
ATOM     23  C   UNL     1      -3.319   0.893   3.442  1.00  0.00     0.012 C 
ATOM     24  C   UNL     1      -5.115  -0.628   3.725  1.00  0.00     0.136 C 
ATOM     25  C   UNL     1      -4.639   1.603   3.165  1.00  0.00     0.009 C 
ATOM     26  C   UNL     1      -5.692   0.755   3.859  1.00  0.00     0.076 C 
ATOM     27  O   UNL     1      -5.772  -1.650   3.887  1.00  0.00    -0.299 OA
ENDBRANCH  21  22
ENDBRANCH  11  21
ENDBRANCH   6   8
ENDBRANCH   3   6
ENDBRANCH   1   2
BRANCH   1  28
ATOM     28  C   UNL     1      -8.522   0.386   0.370  1.00  0.00     0.042 C 
BRANCH  28  29
ATOM     29  C   UNL     1      -9.472   0.861   1.455  1.00  0.00     0.118 C 
BRANCH  29  30
ATOM     30  N   UNL     1     -10.391  -0.185   1.908  1.00  0.00    -0.352 N 
ATOM     31  C   UNL     1     -11.232  -0.189   3.010  1.00  0.00     0.251 C 
ATOM     32  H   UNL     1     -10.416  -0.998   1.352  1.00  0.00     0.163 HD
ATOM     33  O   UNL     1     -12.019  -1.099   3.200  1.00  0.00    -0.269 OA
BRANCH  31  34
ATOM     34  C   UNL     1     -11.253   1.016   3.868  1.00  0.00     0.039 A 
ATOM     35  C   UNL     1     -12.457   1.719   3.948  1.00  0.00     0.014 A 
ATOM     36  C   UNL     1     -10.056   1.593   4.282  1.00  0.00     0.014 A 
ATOM     37  C   UNL     1     -12.415   3.090   4.167  1.00  0.00     0.010 A 
ATOM     38  C   UNL     1     -10.000   2.970   4.377  1.00  0.00     0.010 A 
ATOM     39  C   UNL     1     -11.171   3.722   4.234  1.00  0.00    -0.014 A 
BRANCH  39  40
ATOM     40  C   UNL     1     -11.017   5.152   3.981  1.00  0.00     0.031 A 
ATOM     41  C   UNL     1     -10.722   6.081   5.088  1.00  0.00     0.074 A 
ATOM     42  C   UNL     1     -11.166   5.648   2.730  1.00  0.00     0.049 A 
ATOM     43  N   UNL     1     -11.161   7.296   5.141  1.00  0.00    -0.248 NA
ATOM     44  C   UNL     1      -9.940   5.691   6.256  1.00  0.00     0.031 C 
ATOM     45  C   UNL     1     -10.862   7.007   2.284  1.00  0.00     0.029 A 
ATOM     46  N   UNL     1     -11.846   5.086   1.646  1.00  0.00    -0.354 N 
ATOM     47  C   UNL     1     -10.487   7.920   6.162  1.00  0.00     0.074 A 
ATOM     48  C   UNL     1      -9.812   6.865   6.883  1.00  0.00     0.031 C 
ATOM     49  C   UNL     1     -11.599   7.275   1.194  1.00  0.00     0.029 A 
ATOM     50  C   UNL     1     -12.488   6.144   0.985  1.00  0.00     0.049 A 
ATOM     51  H   UNL     1     -11.870   4.134   1.396  1.00  0.00     0.167 HD
ATOM     52  C   UNL     1     -10.421   9.279   6.216  1.00  0.00     0.031 A 
ATOM     53  C   UNL     1     -13.834   6.220   0.779  1.00  0.00     0.031 A 
ATOM     54  C   UNL     1     -11.132   9.919   5.119  1.00  0.00     0.049 A 
ATOM     55  C   UNL     1     -14.453   7.495   1.310  1.00  0.00     0.074 A 
ATOM     56  C   UNL     1     -10.707  10.456   3.914  1.00  0.00     0.029 A 
ATOM     57  N   UNL     1     -12.513   9.818   5.042  1.00  0.00    -0.354 N 
ATOM     58  N   UNL     1     -13.865   8.282   2.164  1.00  0.00    -0.248 NA
ATOM     59  C   UNL     1     -15.812   7.931   0.997  1.00  0.00     0.031 C 
ATOM     60  C   UNL     1     -11.844  10.645   3.091  1.00  0.00     0.029 A 
ATOM     61  C   UNL     1     -12.956  10.235   3.802  1.00  0.00     0.049 A 
ATOM     62  H   UNL     1     -13.095   9.495   5.767  1.00  0.00     0.167 HD
ATOM     63  C   UNL     1     -14.727   9.280   2.539  1.00  0.00     0.074 A 
ATOM     64  C   UNL     1     -15.930   9.027   1.768  1.00  0.00     0.031 C 
ATOM     65  C   UNL     1     -14.374  10.205   3.477  1.00  0.00     0.031 A 
BRANCH  52  66
ATOM     66  C   UNL     1      -9.427   9.990   7.094  1.00  0.00    -0.014 A 
ATOM     67  C   UNL     1      -8.773  11.141   6.618  1.00  0.00     0.009 A 
ATOM     68  C   UNL     1      -9.061   9.545   8.375  1.00  0.00     0.009 A 
ATOM     69  C   UNL     1      -7.735  11.750   7.332  1.00  0.00     0.001 A 
ATOM     70  C   UNL     1      -7.996  10.126   9.077  1.00  0.00     0.001 A 
ATOM     71  C   UNL     1      -7.324  11.221   8.548  1.00  0.00     0.000 A 
ENDBRANCH  52  66
BRANCH  53  72
ATOM     72  C   UNL     1     -14.541   4.913   0.774  1.00  0.00    -0.014 A 
ATOM     73  C   UNL     1     -14.312   4.020  -0.289  1.00  0.00     0.009 A 
ATOM     74  C   UNL     1     -15.141   4.428   1.945  1.00  0.00     0.009 A 
ATOM     75  C   UNL     1     -14.589   2.657  -0.146  1.00  0.00     0.001 A 
ATOM     76  C   UNL     1     -15.421   3.064   2.081  1.00  0.00     0.001 A 
ATOM     77  C   UNL     1     -15.117   2.176   1.049  1.00  0.00     0.000 A 
ENDBRANCH  53  72
BRANCH  65  78
ATOM     78  C   UNL     1     -15.281  11.208   4.147  1.00  0.00    -0.014 A 
ATOM     79  C   UNL     1     -16.674  11.091   4.227  1.00  0.00     0.009 A 
ATOM     80  C   UNL     1     -14.696  12.277   4.865  1.00  0.00     0.009 A 
ATOM     81  C   UNL     1     -17.443  12.012   4.957  1.00  0.00     0.001 A 
ATOM     82  C   UNL     1     -15.452  13.170   5.629  1.00  0.00     0.001 A 
ATOM     83  C   UNL     1     -16.832  13.041   5.666  1.00  0.00     0.000 A 
ENDBRANCH  65  78
ENDBRANCH  39  40
ENDBRANCH  31  34
ENDBRANCH  29  30
ENDBRANCH  28  29
ENDBRANCH   1  28
TORSDOF 14
