REMARK SMILES CCN1C(=O)c2ccccc2[S@@](=O)c2ccc(C(=O)NCCCNC(=O)c3ccc(-c4c5nc(c(-c6ccccc6)c6ccc([nH]6)c(-c6ccccc6)c6nc(c(-c7ccccc7)c7ccc4[nH]7)C=C6)C=C5)cc3)cc21
REMARK SMILES IDX 22 1 21 2 20 3 18 4 19 5 17 7 3 8 4 9 76 10 5 11 6 12 14 13
REMARK SMILES IDX 75 14 7 15 11 16 12 17 15 18 8 19 10 20 13 21 16 22 9 23
REMARK SMILES IDX 2 24 1 25 23 26 24 27 25 28 26 30 27 31 28 32 74 33 29 34
REMARK SMILES IDX 73 35 30 36 31 37 32 38 67 39 33 40 72 41 66 42 68 43 34 44
REMARK SMILES IDX 71 45 65 46 64 47 35 49 57 50 42 51 56 52 43 53 46 54 55 55
REMARK SMILES IDX 69 56 44 57 45 58 54 60 70 61 47 62 36 63 37 64 41 65 38 66
REMARK SMILES IDX 40 67 39 68 58 69 59 70 63 71 60 72 62 73 61 74 48 75 49 76
REMARK SMILES IDX 53 77 50 78 52 79 51 80
REMARK H PARENT 20 6 24 29 68 48 46 59
REMARK Flexibility Score: inf
ROOT
ATOM      1  C   UNL     1      -2.455   2.176   2.527  1.00  0.00     0.042 C 
ENDROOT
BRANCH   1   2
ATOM      2  C   UNL     1      -3.126   3.075   1.486  1.00  0.00     0.118 C 
BRANCH   2   3
ATOM      3  N   UNL     1      -2.944   4.486   1.792  1.00  0.00    -0.352 N 
ATOM      4  C   UNL     1      -2.093   5.444   1.298  1.00  0.00     0.251 C 
ATOM      5  O   UNL     1      -2.249   6.602   1.685  1.00  0.00    -0.269 OA
ATOM      6  H   UNL     1      -3.551   4.820   2.492  1.00  0.00     0.163 HD
BRANCH   4   7
ATOM      7  C   UNL     1      -1.022   5.163   0.303  1.00  0.00     0.041 A 
ATOM      8  N   UNL     1       1.230   2.317  -0.779  1.00  0.00    -0.307 N 
ATOM      9  C   UNL     1       2.374   1.944  -1.496  1.00  0.00     0.259 C 
ATOM     10  C   UNL     1       0.686   3.674  -0.728  1.00  0.00     0.061 A 
ATOM     11  O   UNL     1       2.588   0.832  -1.974  1.00  0.00    -0.269 OA
ATOM     12  C   UNL     1       3.537   2.840  -1.425  1.00  0.00     0.056 A 
ATOM     13  C   UNL     1       1.012   4.729  -1.610  1.00  0.00     0.068 A 
ATOM     14  C   UNL     1      -0.312   3.958   0.239  1.00  0.00     0.041 A 
ATOM     15  C   UNL     1       4.669   2.359  -0.748  1.00  0.00     0.015 A 
ATOM     16  C   UNL     1       3.542   4.095  -2.015  1.00  0.00     0.057 A 
ATOM     17  S   UNL     1       2.166   4.662  -3.000  1.00  0.00     0.088 S 
ATOM     18  C   UNL     1       0.341   5.970  -1.509  1.00  0.00     0.021 A 
ATOM     19  C   UNL     1       5.801   3.158  -0.628  1.00  0.00     0.001 A 
ATOM     20  C   UNL     1       4.681   4.900  -1.881  1.00  0.00     0.019 A 
ATOM     21  O   UNL     1       1.718   3.493  -3.823  1.00  0.00    -0.249 OA
ATOM     22  C   UNL     1      -0.668   6.183  -0.572  1.00  0.00     0.015 A 
ATOM     23  C   UNL     1       5.803   4.434  -1.186  1.00  0.00     0.001 A 
BRANCH   8  24
ATOM     24  C   UNL     1       0.474   1.254  -0.076  1.00  0.00     0.122 C 
ATOM     25  C   UNL     1       0.972  -0.187  -0.104  1.00  0.00     0.028 C 
ENDBRANCH   8  24
ENDBRANCH   4   7
ENDBRANCH   2   3
ENDBRANCH   1   2
BRANCH   1  26
ATOM     26  C   UNL     1      -3.149   2.170   3.885  1.00  0.00     0.118 C 
BRANCH  26  27
ATOM     27  N   UNL     1      -4.291   1.272   3.925  1.00  0.00    -0.352 N 
ATOM     28  C   UNL     1      -4.605   0.305   4.853  1.00  0.00     0.251 C 
ATOM     29  H   UNL     1      -4.931   1.369   3.183  1.00  0.00     0.163 HD
ATOM     30  O   UNL     1      -5.530  -0.469   4.633  1.00  0.00    -0.269 OA
BRANCH  28  31
ATOM     31  C   UNL     1      -3.818   0.171   6.104  1.00  0.00     0.039 A 
ATOM     32  C   UNL     1      -3.444   1.289   6.854  1.00  0.00     0.014 A 
ATOM     33  C   UNL     1      -3.479  -1.111   6.552  1.00  0.00     0.014 A 
ATOM     34  C   UNL     1      -2.636   1.133   7.980  1.00  0.00     0.010 A 
ATOM     35  C   UNL     1      -2.715  -1.270   7.714  1.00  0.00     0.010 A 
ATOM     36  C   UNL     1      -2.260  -0.147   8.419  1.00  0.00    -0.014 A 
BRANCH  36  37
ATOM     37  C   UNL     1      -1.402  -0.286   9.623  1.00  0.00     0.031 A 
ATOM     38  C   UNL     1       0.028  -0.737   9.503  1.00  0.00     0.074 A 
ATOM     39  C   UNL     1      -1.895   0.053  10.830  1.00  0.00     0.049 A 
ATOM     40  N   UNL     1       0.937  -0.846  10.441  1.00  0.00    -0.248 NA
ATOM     41  C   UNL     1       0.502  -1.109   8.161  1.00  0.00     0.031 C 
ATOM     42  C   UNL     1      -3.261   0.517  11.083  1.00  0.00     0.029 A 
ATOM     43  N   UNL     1      -1.294   0.094  12.063  1.00  0.00    -0.354 N 
ATOM     44  C   UNL     1       2.082  -1.307   9.806  1.00  0.00     0.074 A 
ATOM     45  C   UNL     1       1.752  -1.476   8.407  1.00  0.00     0.031 C 
ATOM     46  C   UNL     1      -3.375   0.853  12.378  1.00  0.00     0.029 A 
ATOM     47  C   UNL     1      -2.106   0.592  13.051  1.00  0.00     0.049 A 
ATOM     48  H   UNL     1      -0.370  -0.206  12.223  1.00  0.00     0.167 HD
ATOM     49  C   UNL     1       3.302  -1.560  10.337  1.00  0.00     0.031 A 
ATOM     50  C   UNL     1      -1.859   0.824  14.354  1.00  0.00     0.031 A 
ATOM     51  C   UNL     1       3.644  -1.392  11.723  1.00  0.00     0.049 A 
ATOM     52  C   UNL     1      -0.507   0.507  14.923  1.00  0.00     0.074 A 
ATOM     53  C   UNL     1       4.860  -1.624  12.344  1.00  0.00     0.029 A 
ATOM     54  N   UNL     1       2.773  -0.947  12.702  1.00  0.00    -0.354 N 
ATOM     55  N   UNL     1       0.561   0.067  14.307  1.00  0.00    -0.248 NA
ATOM     56  C   UNL     1      -0.333   0.712  16.368  1.00  0.00     0.031 C 
ATOM     57  C   UNL     1       4.716  -1.344  13.707  1.00  0.00     0.029 A 
ATOM     58  C   UNL     1       3.419  -0.909  13.925  1.00  0.00     0.049 A 
ATOM     59  H   UNL     1       1.833  -0.695  12.551  1.00  0.00     0.167 HD
ATOM     60  C   UNL     1       1.536  -0.057  15.287  1.00  0.00     0.074 A 
ATOM     61  C   UNL     1       0.939   0.371  16.535  1.00  0.00     0.031 C 
ATOM     62  C   UNL     1       2.812  -0.492  15.160  1.00  0.00     0.031 A 
BRANCH  49  63
ATOM     63  C   UNL     1       4.369  -2.060   9.409  1.00  0.00    -0.014 A 
ATOM     64  C   UNL     1       4.727  -3.416   9.419  1.00  0.00     0.009 A 
ATOM     65  C   UNL     1       5.062  -1.175   8.568  1.00  0.00     0.009 A 
ATOM     66  C   UNL     1       5.761  -3.880   8.604  1.00  0.00     0.001 A 
ATOM     67  C   UNL     1       6.085  -1.645   7.742  1.00  0.00     0.001 A 
ATOM     68  C   UNL     1       6.436  -2.995   7.764  1.00  0.00     0.000 A 
ENDBRANCH  49  63
BRANCH  50  69
ATOM     69  C   UNL     1      -2.921   1.410  15.206  1.00  0.00    -0.014 A 
ATOM     70  C   UNL     1      -4.007   0.630  15.632  1.00  0.00     0.009 A 
ATOM     71  C   UNL     1      -2.866   2.763  15.570  1.00  0.00     0.009 A 
ATOM     72  C   UNL     1      -5.026   1.200  16.397  1.00  0.00     0.001 A 
ATOM     73  C   UNL     1      -3.878   3.325  16.350  1.00  0.00     0.001 A 
ATOM     74  C   UNL     1      -4.960   2.545  16.758  1.00  0.00     0.000 A 
ENDBRANCH  50  69
BRANCH  62  75
ATOM     75  C   UNL     1       3.653  -0.531  16.400  1.00  0.00    -0.014 A 
ATOM     76  C   UNL     1       4.622   0.459  16.622  1.00  0.00     0.009 A 
ATOM     77  C   UNL     1       3.528  -1.587  17.315  1.00  0.00     0.009 A 
ATOM     78  C   UNL     1       5.453   0.392  17.741  1.00  0.00     0.001 A 
ATOM     79  C   UNL     1       4.352  -1.642  18.441  1.00  0.00     0.001 A 
ATOM     80  C   UNL     1       5.316  -0.656  18.650  1.00  0.00     0.000 A 
ENDBRANCH  62  75
ENDBRANCH  36  37
ENDBRANCH  28  31
ENDBRANCH  26  27
ENDBRANCH   1  26
TORSDOF 11
