REMARK SMILES CC/C(C)=N/[NH+]=C1/NC(=O)[C@H](CC(=O)NCCCNC(=O)c2ccc(-c3c4nc(c(-c5ccccc5)c5ccc([nH]5)c(-c5ccccc5)c5nc(c(-c6ccccc6)c6ccc3[nH]6)C=C5)C=C4)cc2)S1
REMARK SMILES IDX 16 1 15 2 13 3 14 4 12 6 11 7 6 8 7 9 8 11 70 12 9 13 10 15
REMARK SMILES IDX 5 16 3 17 4 18 2 19 1 20 17 21 18 22 19 23 20 24 21 26 22 27
REMARK SMILES IDX 23 28 69 29 24 30 68 31 25 32 26 33 27 34 62 35 28 36 67 37
REMARK SMILES IDX 61 38 63 39 29 40 66 41 60 42 59 43 30 45 52 46 37 47 51 48
REMARK SMILES IDX 38 49 41 50 50 51 64 52 39 53 40 54 49 56 65 57 42 58 31 59
REMARK SMILES IDX 32 60 36 61 33 62 35 63 34 64 53 65 54 66 58 67 55 68 57 69
REMARK SMILES IDX 56 70 43 71 44 72 48 73 45 74 47 75 46 76
REMARK H PARENT 15 5 6 10 8 14 19 25 63 44 41 55
REMARK Flexibility Score: inf
ROOT
ATOM      1  C   UNL     1       3.033   9.297   1.174  1.00  0.00     0.117 C 
ENDROOT
BRANCH   1   2
ATOM      2  N   UNL     1       1.738   9.703   1.704  1.00  0.00    -0.356 N 
ATOM      3  C   UNL     1       0.815   9.004   2.421  1.00  0.00     0.221 C 
ATOM      4  O   UNL     1      -0.253   9.540   2.710  1.00  0.00    -0.275 OA
ATOM      5  H   UNL     1       1.489  10.636   1.512  1.00  0.00     0.163 HD
BRANCH   3   6
ATOM      6  C   UNL     1       1.113   7.590   2.842  1.00  0.00     0.127 C 
BRANCH   6   7
ATOM      7  C   UNL     1       0.549   6.580   1.861  1.00  0.00     0.183 C 
ATOM      8  N   UNL     1       2.275   3.810  -0.143  1.00  0.00    -0.142 N 
ATOM      9  C   UNL     1       1.908   4.847   0.530  1.00  0.00     0.337 C 
ATOM     10  H   UNL     1       2.692   3.874  -1.033  1.00  0.00     0.343 HD
ATOM     11  N   UNL     1       1.784   6.025  -0.110  1.00  0.00    -0.202 N 
ATOM     12  S   UNL     1       1.308   4.949   2.161  1.00  0.00    -0.020 SA
ATOM     13  C   UNL     1       0.860   6.874   0.409  1.00  0.00     0.322 C 
ATOM     14  H   UNL     1       2.326   6.255  -0.899  1.00  0.00     0.316 HD
ATOM     15  O   UNL     1       0.282   7.715  -0.272  1.00  0.00    -0.246 OA
BRANCH   8  16
ATOM     16  N   UNL     1       2.034   2.593   0.489  1.00  0.00    -0.095 NA
ATOM     17  C   UNL     1       0.827   2.137   0.289  1.00  0.00     0.058 C 
ATOM     18  C   UNL     1      -0.231   2.850  -0.534  1.00  0.00     0.066 C 
BRANCH  17  19
ATOM     19  C   UNL     1       0.444   0.826   0.929  1.00  0.00     0.052 C 
ATOM     20  C   UNL     1       0.873  -0.315   0.029  1.00  0.00     0.010 C 
ENDBRANCH  17  19
ENDBRANCH   8  16
ENDBRANCH   6   7
ENDBRANCH   3   6
ENDBRANCH   1   2
BRANCH   1  21
ATOM     21  C   UNL     1       3.097   9.388  -0.349  1.00  0.00     0.042 C 
BRANCH  21  22
ATOM     22  C   UNL     1       2.919  10.796  -0.892  1.00  0.00     0.118 C 
BRANCH  22  23
ATOM     23  N   UNL     1       4.126  11.585  -0.728  1.00  0.00    -0.352 N 
ATOM     24  C   UNL     1       4.975  12.078  -1.688  1.00  0.00     0.251 C 
ATOM     25  H   UNL     1       4.371  11.797   0.202  1.00  0.00     0.163 HD
ATOM     26  O   UNL     1       6.086  12.485  -1.367  1.00  0.00    -0.269 OA
BRANCH  24  27
ATOM     27  C   UNL     1       4.559  12.105  -3.110  1.00  0.00     0.039 A 
ATOM     28  C   UNL     1       5.500  11.791  -4.093  1.00  0.00     0.014 A 
ATOM     29  C   UNL     1       3.262  12.472  -3.480  1.00  0.00     0.014 A 
ATOM     30  C   UNL     1       5.128  11.803  -5.440  1.00  0.00     0.010 A 
ATOM     31  C   UNL     1       2.868  12.395  -4.813  1.00  0.00     0.010 A 
ATOM     32  C   UNL     1       3.801  12.078  -5.811  1.00  0.00    -0.014 A 
BRANCH  32  33
ATOM     33  C   UNL     1       3.382  12.061  -7.236  1.00  0.00     0.031 A 
ATOM     34  C   UNL     1       2.871  13.316  -7.892  1.00  0.00     0.074 A 
ATOM     35  C   UNL     1       3.416  10.907  -7.930  1.00  0.00     0.049 A 
ATOM     36  N   UNL     1       2.426  13.489  -9.111  1.00  0.00    -0.248 NA
ATOM     37  C   UNL     1       2.832  14.533  -7.064  1.00  0.00     0.031 C 
ATOM     38  C   UNL     1       3.855   9.613  -7.403  1.00  0.00     0.029 A 
ATOM     39  N   UNL     1       3.073  10.636  -9.232  1.00  0.00    -0.354 N 
ATOM     40  C   UNL     1       2.041  14.822  -9.189  1.00  0.00     0.074 A 
ATOM     41  C   UNL     1       2.253  15.400  -7.881  1.00  0.00     0.031 C 
ATOM     42  C   UNL     1       3.785   8.694  -8.380  1.00  0.00     0.029 A 
ATOM     43  C   UNL     1       3.254   9.321  -9.586  1.00  0.00     0.049 A 
ATOM     44  H   UNL     1       2.731  11.319  -9.852  1.00  0.00     0.167 HD
ATOM     45  C   UNL     1       1.571  15.510 -10.257  1.00  0.00     0.031 A 
ATOM     46  C   UNL     1       3.011   8.686 -10.749  1.00  0.00     0.031 A 
ATOM     47  C   UNL     1       1.367  14.938 -11.561  1.00  0.00     0.049 A 
ATOM     48  C   UNL     1       2.469   9.468 -11.914  1.00  0.00     0.074 A 
ATOM     49  C   UNL     1       0.948  15.567 -12.721  1.00  0.00     0.029 A 
ATOM     50  N   UNL     1       1.559  13.602 -11.876  1.00  0.00    -0.354 N 
ATOM     51  N   UNL     1       2.178  10.744 -11.989  1.00  0.00    -0.248 NA
ATOM     52  C   UNL     1       2.232   8.722 -13.157  1.00  0.00     0.031 C 
ATOM     53  C   UNL     1       0.828  14.599 -13.722  1.00  0.00     0.029 A 
ATOM     54  C   UNL     1       1.238  13.381 -13.205  1.00  0.00     0.049 A 
ATOM     55  H   UNL     1       1.877  12.913 -11.249  1.00  0.00     0.167 HD
ATOM     56  C   UNL     1       1.753  10.959 -13.294  1.00  0.00     0.074 A 
ATOM     57  C   UNL     1       1.842   9.686 -13.979  1.00  0.00     0.031 C 
ATOM     58  C   UNL     1       1.328  12.108 -13.874  1.00  0.00     0.031 A 
BRANCH  45  59
ATOM     59  C   UNL     1       1.234  16.963 -10.055  1.00  0.00    -0.014 A 
ATOM     60  C   UNL     1       2.236  17.921  -9.826  1.00  0.00     0.009 A 
ATOM     61  C   UNL     1      -0.101  17.387 -10.137  1.00  0.00     0.009 A 
ATOM     62  C   UNL     1       1.902  19.265  -9.646  1.00  0.00     0.001 A 
ATOM     63  C   UNL     1      -0.429  18.736  -9.990  1.00  0.00     0.001 A 
ATOM     64  C   UNL     1       0.572  19.672  -9.734  1.00  0.00     0.000 A 
ENDBRANCH  45  59
BRANCH  46  65
ATOM     65  C   UNL     1       3.286   7.230 -10.875  1.00  0.00    -0.014 A 
ATOM     66  C   UNL     1       4.327   6.766 -11.694  1.00  0.00     0.009 A 
ATOM     67  C   UNL     1       2.502   6.294 -10.182  1.00  0.00     0.009 A 
ATOM     68  C   UNL     1       4.557   5.396 -11.839  1.00  0.00     0.001 A 
ATOM     69  C   UNL     1       2.755   4.926 -10.303  1.00  0.00     0.001 A 
ATOM     70  C   UNL     1       3.775   4.478 -11.140  1.00  0.00     0.000 A 
ENDBRANCH  46  65
BRANCH  58  71
ATOM     71  C   UNL     1       0.963  12.053 -15.331  1.00  0.00    -0.014 A 
ATOM     72  C   UNL     1      -0.194  11.392 -15.772  1.00  0.00     0.009 A 
ATOM     73  C   UNL     1       1.771  12.710 -16.273  1.00  0.00     0.009 A 
ATOM     74  C   UNL     1      -0.515  11.361 -17.131  1.00  0.00     0.001 A 
ATOM     75  C   UNL     1       1.430  12.706 -17.626  1.00  0.00     0.001 A 
ATOM     76  C   UNL     1       0.294  12.023 -18.055  1.00  0.00     0.000 A 
ENDBRANCH  58  71
ENDBRANCH  32  33
ENDBRANCH  24  27
ENDBRANCH  22  23
ENDBRANCH  21  22
ENDBRANCH   1  21
TORSDOF 13
