REMARK SMILES O=C(C[C@H]1C[C@H]2CC[C@@H](C1)[N@H+]2[C@@H]1CCCSC1)NCCCNC(=O)c1ccc(-c2c3nc(c(-c4ccccc4)c4ccc([nH]4)c(-c4ccccc4)c4nc(c(-c5ccccc5)c5ccc2[nH]5)C=C4)C=C3)cc1
REMARK SMILES IDX 20 1 19 2 18 3 1 4 2 5 3 7 4 8 5 9 10 10 6 11 9 12 7 13
REMARK SMILES IDX 11 14 8 15 12 17 13 18 17 19 14 20 16 21 15 22 21 23 22 24
REMARK SMILES IDX 23 25 24 27 25 28 26 29 72 30 27 31 71 32 28 33 29 34 30 35
REMARK SMILES IDX 65 36 31 37 70 38 64 39 66 40 32 41 69 42 63 43 62 44 33 46
REMARK SMILES IDX 55 47 40 48 54 49 41 50 44 51 53 52 67 53 42 54 43 55 52 57
REMARK SMILES IDX 68 58 45 59 34 60 35 61 39 62 36 63 38 64 37 65 56 66 57 67
REMARK SMILES IDX 61 68 58 69 60 70 59 71 46 72 47 73 51 74 48 75 50 76 49 77
REMARK H PARENT 18 6 11 16 22 26 66 45 44 56
REMARK Flexibility Score: inf
ROOT
ATOM      1  C   UNL     1       1.972  -3.210   2.456  1.00  0.00     0.042 C 
ENDROOT
BRANCH   1   2
ATOM      2  C   UNL     1       1.292  -1.993   1.833  1.00  0.00     0.117 C 
BRANCH   2   3
ATOM      3  N   UNL     1       1.916  -1.528   0.607  1.00  0.00    -0.356 N 
ATOM      4  O   UNL     1       0.639   0.372   0.475  1.00  0.00    -0.275 OA
ATOM      5  C   UNL     1       1.566  -0.312   0.054  1.00  0.00     0.220 C 
ATOM      6  H   UNL     1       2.596  -2.086   0.164  1.00  0.00     0.163 HD
BRANCH   5   7
ATOM      7  C   UNL     1       2.440   0.137  -1.100  1.00  0.00     0.104 C 
BRANCH   7   8
ATOM      8  C   UNL     1       3.670   0.997  -0.723  1.00  0.00     0.010 C 
ATOM      9  C   UNL     1       3.330   2.418  -0.210  1.00  0.00     0.069 C 
ATOM     10  C   UNL     1       4.737   0.248   0.104  1.00  0.00     0.069 C 
ATOM     11  C   UNL     1       3.830   2.769   1.206  1.00  0.00     0.185 C 
ATOM     12  C   UNL     1       4.999   0.790   1.515  1.00  0.00     0.185 C 
ATOM     13  C   UNL     1       3.022   2.004   2.256  1.00  0.00     0.071 C 
ATOM     14  N   UNL     1       5.143   2.227   1.504  1.00  0.00    -0.327 N 
ATOM     15  C   UNL     1       3.800   0.706   2.453  1.00  0.00     0.071 C 
ATOM     16  H   UNL     1       5.482   2.564   2.405  1.00  0.00     0.348 HD
BRANCH  14  17
ATOM     17  C   UNL     1       6.392   2.919   1.229  1.00  0.00     0.194 C 
ATOM     18  C   UNL     1       6.573   3.334  -0.239  1.00  0.00     0.067 C 
ATOM     19  C   UNL     1       7.601   2.119   1.774  1.00  0.00     0.134 C 
ATOM     20  C   UNL     1       7.875   4.094  -0.505  1.00  0.00     0.017 C 
ATOM     21  S   UNL     1       9.194   2.974   1.617  1.00  0.00    -0.156 SA
ATOM     22  C   UNL     1       9.123   3.296  -0.160  1.00  0.00     0.070 C 
ENDBRANCH  14  17
ENDBRANCH   7   8
ENDBRANCH   5   7
ENDBRANCH   2   3
ENDBRANCH   1   2
BRANCH   1  23
ATOM     23  C   UNL     1       3.469  -3.091   2.743  1.00  0.00     0.118 C 
BRANCH  23  24
ATOM     24  N   UNL     1       3.812  -2.332   3.936  1.00  0.00    -0.352 N 
ATOM     25  C   UNL     1       4.683  -2.622   4.965  1.00  0.00     0.251 C 
ATOM     26  H   UNL     1       3.346  -1.469   4.023  1.00  0.00     0.163 HD
ATOM     27  O   UNL     1       4.863  -1.806   5.860  1.00  0.00    -0.269 OA
BRANCH  25  28
ATOM     28  C   UNL     1       5.330  -3.952   5.053  1.00  0.00     0.039 A 
ATOM     29  C   UNL     1       5.252  -4.633   6.273  1.00  0.00     0.014 A 
ATOM     30  C   UNL     1       5.949  -4.557   3.958  1.00  0.00     0.014 A 
ATOM     31  C   UNL     1       5.668  -5.963   6.356  1.00  0.00     0.010 A 
ATOM     32  C   UNL     1       6.296  -5.906   4.021  1.00  0.00     0.010 A 
ATOM     33  C   UNL     1       6.125  -6.632   5.210  1.00  0.00    -0.014 A 
BRANCH  33  34
ATOM     34  C   UNL     1       6.347  -8.102   5.221  1.00  0.00     0.031 A 
ATOM     35  C   UNL     1       7.713  -8.677   4.978  1.00  0.00     0.074 A 
ATOM     36  C   UNL     1       5.290  -8.927   5.370  1.00  0.00     0.049 A 
ATOM     37  N   UNL     1       8.071  -9.932   4.874  1.00  0.00    -0.248 NA
ATOM     38  C   UNL     1       8.815  -7.718   4.807  1.00  0.00     0.031 C 
ATOM     39  C   UNL     1       3.902  -8.502   5.572  1.00  0.00     0.029 A 
ATOM     40  N   UNL     1       5.217 -10.298   5.365  1.00  0.00    -0.354 N 
ATOM     41  C   UNL     1       9.434  -9.914   4.608  1.00  0.00     0.074 A 
ATOM     42  C   UNL     1       9.830  -8.524   4.529  1.00  0.00     0.031 C 
ATOM     43  C   UNL     1       3.123  -9.587   5.697  1.00  0.00     0.029 A 
ATOM     44  C   UNL     1       3.943 -10.783   5.543  1.00  0.00     0.049 A 
ATOM     45  H   UNL     1       6.003 -10.879   5.246  1.00  0.00     0.167 HD
ATOM     46  C   UNL     1      10.282 -10.960   4.457  1.00  0.00     0.031 A 
ATOM     47  C   UNL     1       3.481 -12.047   5.571  1.00  0.00     0.031 A 
ATOM     48  C   UNL     1       9.896 -12.343   4.547  1.00  0.00     0.049 A 
ATOM     49  C   UNL     1       4.442 -13.188   5.395  1.00  0.00     0.074 A 
ATOM     50  C   UNL     1      10.697 -13.469   4.460  1.00  0.00     0.029 A 
ATOM     51  N   UNL     1       8.599 -12.790   4.743  1.00  0.00    -0.354 N 
ATOM     52  N   UNL     1       5.737 -13.152   5.202  1.00  0.00    -0.248 NA
ATOM     53  C   UNL     1       3.876 -14.544   5.450  1.00  0.00     0.031 C 
ATOM     54  C   UNL     1       9.878 -14.598   4.563  1.00  0.00     0.029 A 
ATOM     55  C   UNL     1       8.575 -14.174   4.761  1.00  0.00     0.049 A 
ATOM     56  H   UNL     1       7.811 -12.209   4.854  1.00  0.00     0.167 HD
ATOM     57  C   UNL     1       6.146 -14.478   5.141  1.00  0.00     0.074 A 
ATOM     58  C   UNL     1       4.963 -15.293   5.328  1.00  0.00     0.031 C 
ATOM     59  C   UNL     1       7.393 -14.973   4.951  1.00  0.00     0.031 A 
BRANCH  46  60
ATOM     60  C   UNL     1      11.722 -10.642   4.169  1.00  0.00    -0.014 A 
ATOM     61  C   UNL     1      12.559 -10.105   5.160  1.00  0.00     0.009 A 
ATOM     62  C   UNL     1      12.258 -10.915   2.901  1.00  0.00     0.009 A 
ATOM     63  C   UNL     1      13.895  -9.815   4.875  1.00  0.00     0.001 A 
ATOM     64  C   UNL     1      13.600 -10.648   2.627  1.00  0.00     0.001 A 
ATOM     65  C   UNL     1      14.415 -10.090   3.611  1.00  0.00     0.000 A 
ENDBRANCH  46  60
BRANCH  47  66
ATOM     66  C   UNL     1       2.034 -12.306   5.790  1.00  0.00    -0.014 A 
ATOM     67  C   UNL     1       1.585 -12.832   7.010  1.00  0.00     0.009 A 
ATOM     68  C   UNL     1       1.098 -12.032   4.781  1.00  0.00     0.009 A 
ATOM     69  C   UNL     1       0.229 -13.102   7.208  1.00  0.00     0.001 A 
ATOM     70  C   UNL     1      -0.261 -12.279   4.991  1.00  0.00     0.001 A 
ATOM     71  C   UNL     1      -0.693 -12.822   6.200  1.00  0.00     0.000 A 
ENDBRANCH  47  66
BRANCH  59  72
ATOM     72  C   UNL     1       7.549 -16.467   4.975  1.00  0.00    -0.014 A 
ATOM     73  C   UNL     1       7.123 -17.261   3.900  1.00  0.00     0.009 A 
ATOM     74  C   UNL     1       8.170 -17.081   6.073  1.00  0.00     0.009 A 
ATOM     75  C   UNL     1       7.292 -18.647   3.937  1.00  0.00     0.001 A 
ATOM     76  C   UNL     1       8.360 -18.463   6.097  1.00  0.00     0.001 A 
ATOM     77  C   UNL     1       7.915 -19.245   5.032  1.00  0.00     0.000 A 
ENDBRANCH  59  72
ENDBRANCH  33  34
ENDBRANCH  25  28
ENDBRANCH  23  24
ENDBRANCH   1  23
TORSDOF 12
