REMARK SMILES Cc1ccc(Oc2ccc(NC(=O)CCCC(=O)NCCCNC(=O)c3ccc(-c4c5nc(c(-c6ccccc6)c6ccc([nH]6)c(-c6ccccc6)c6nc(c(-c7ccccc7)c7ccc4[nH]7)C=C6)C=C5)cc3)cc2)cc1C
REMARK SMILES IDX 17 1 18 2 19 3 16 5 15 6 14 7 12 8 11 9 13 11 10 12 7 13
REMARK SMILES IDX 8 14 75 15 9 16 74 17 6 18 5 19 1 20 2 21 3 22 77 23 4 24
REMARK SMILES IDX 76 25 78 26 20 27 21 28 22 29 23 30 24 31 25 33 26 34 27 35
REMARK SMILES IDX 73 36 28 37 72 38 29 39 30 40 31 41 66 42 32 43 71 44 65 45
REMARK SMILES IDX 67 46 33 47 70 48 64 49 63 50 34 52 56 53 41 54 55 55 42 56
REMARK SMILES IDX 45 57 54 58 68 59 43 60 44 61 53 63 69 64 46 65 35 66 36 67
REMARK SMILES IDX 40 68 37 69 39 70 38 71 57 72 58 73 62 74 59 75 61 76 60 77
REMARK SMILES IDX 47 78 48 79 52 80 49 81 51 82 50 83
REMARK H PARENT 19 4 11 10 23 32 67 51 45 62
REMARK Flexibility Score: inf
ROOT
ATOM      1  C   UNL     1      -7.201  -2.119   2.621  1.00  0.00     0.220 C 
ATOM      2  O   UNL     1      -6.932  -3.110   3.315  1.00  0.00    -0.275 OA
ATOM      3  N   UNL     1      -6.795  -0.946   3.156  1.00  0.00    -0.356 N 
ATOM      4  H   UNL     1      -6.366  -1.089   4.030  1.00  0.00     0.163 HD
ENDROOT
BRANCH   1   5
ATOM      5  C   UNL     1      -7.827  -2.349   1.245  1.00  0.00     0.100 C 
BRANCH   5   6
ATOM      6  C   UNL     1      -9.147  -1.719   0.813  1.00  0.00     0.020 C 
BRANCH   6   7
ATOM      7  C   UNL     1      -9.319  -0.219   0.607  1.00  0.00     0.101 C 
BRANCH   7   8
ATOM      8  C   UNL     1      -9.143   0.462  -0.750  1.00  0.00     0.224 C 
ATOM      9  N   UNL     1      -8.017   0.674  -1.474  1.00  0.00    -0.326 N 
ATOM     10  H   UNL     1      -8.228   1.177  -2.295  1.00  0.00     0.169 HD
ATOM     11  O   UNL     1     -10.164   0.957  -1.262  1.00  0.00    -0.275 OA
BRANCH   9  12
ATOM     12  C   UNL     1      -6.644   0.397  -1.411  1.00  0.00     0.041 A 
ATOM     13  C   UNL     1      -3.907  -0.290  -1.483  1.00  0.00     0.127 A 
ATOM     14  C   UNL     1      -4.660  -0.561  -0.357  1.00  0.00     0.049 A 
ATOM     15  C   UNL     1      -4.493   0.361  -2.565  1.00  0.00     0.049 A 
ATOM     16  C   UNL     1      -6.009  -0.205  -0.347  1.00  0.00     0.030 A 
ATOM     17  C   UNL     1      -5.851   0.720  -2.519  1.00  0.00     0.030 A 
BRANCH  13  18
ATOM     18  O   UNL     1      -2.654  -0.824  -1.602  1.00  0.00    -0.457 OA
BRANCH  18  19
ATOM     19  C   UNL     1      -1.606  -0.212  -0.954  1.00  0.00     0.127 A 
ATOM     20  C   UNL     1       2.088   1.547   0.403  1.00  0.00     0.044 C 
ATOM     21  C   UNL     1       0.795   0.886   0.013  1.00  0.00    -0.048 A 
ATOM     22  C   UNL     1      -0.360   1.676  -0.125  1.00  0.00     0.007 A 
ATOM     23  C   UNL     1       0.724  -0.490  -0.272  1.00  0.00    -0.045 A 
ATOM     24  C   UNL     1      -1.555   1.133  -0.605  1.00  0.00     0.047 A 
ATOM     25  C   UNL     1      -0.485  -1.022  -0.749  1.00  0.00     0.050 A 
ATOM     26  C   UNL     1       1.878  -1.433  -0.066  1.00  0.00     0.045 C 
ENDBRANCH  18  19
ENDBRANCH  13  18
ENDBRANCH   9  12
ENDBRANCH   7   8
ENDBRANCH   6   7
ENDBRANCH   5   6
ENDBRANCH   1   5
BRANCH   3  27
ATOM     27  C   UNL     1      -6.809   0.468   2.810  1.00  0.00     0.117 C 
BRANCH  27  28
ATOM     28  C   UNL     1      -7.688   1.266   3.756  1.00  0.00     0.042 C 
BRANCH  28  29
ATOM     29  C   UNL     1      -6.850   2.148   4.655  1.00  0.00     0.118 C 
BRANCH  29  30
ATOM     30  N   UNL     1      -6.354   3.349   3.987  1.00  0.00    -0.352 N 
ATOM     31  C   UNL     1      -6.291   4.625   4.506  1.00  0.00     0.251 C 
ATOM     32  H   UNL     1      -6.028   3.235   3.065  1.00  0.00     0.163 HD
ATOM     33  O   UNL     1      -5.957   5.581   3.814  1.00  0.00    -0.269 OA
BRANCH  31  34
ATOM     34  C   UNL     1      -6.692   4.816   5.914  1.00  0.00     0.039 A 
ATOM     35  C   UNL     1      -7.683   5.748   6.227  1.00  0.00     0.014 A 
ATOM     36  C   UNL     1      -6.199   3.945   6.887  1.00  0.00     0.014 A 
ATOM     37  C   UNL     1      -8.248   5.737   7.503  1.00  0.00     0.010 A 
ATOM     38  C   UNL     1      -6.854   3.849   8.104  1.00  0.00     0.010 A 
ATOM     39  C   UNL     1      -7.878   4.750   8.433  1.00  0.00    -0.014 A 
BRANCH  39  40
ATOM     40  C   UNL     1      -8.519   4.644   9.768  1.00  0.00     0.031 A 
ATOM     41  C   UNL     1      -7.664   4.726  11.005  1.00  0.00     0.074 A 
ATOM     42  C   UNL     1      -9.837   4.382   9.874  1.00  0.00     0.049 A 
ATOM     43  N   UNL     1      -7.998   4.538  12.256  1.00  0.00    -0.248 NA
ATOM     44  C   UNL     1      -6.231   5.006  10.804  1.00  0.00     0.031 C 
ATOM     45  C   UNL     1     -10.769   4.209   8.756  1.00  0.00     0.029 A 
ATOM     46  N   UNL     1     -10.623   4.207  10.986  1.00  0.00    -0.354 N 
ATOM     47  C   UNL     1      -6.813   4.630  12.976  1.00  0.00     0.074 A 
ATOM     48  C   UNL     1      -5.746   4.824  12.021  1.00  0.00     0.031 C 
ATOM     49  C   UNL     1     -12.004   3.999   9.239  1.00  0.00     0.029 A 
ATOM     50  C   UNL     1     -11.947   3.981  10.697  1.00  0.00     0.049 A 
ATOM     51  H   UNL     1     -10.271   4.241  11.904  1.00  0.00     0.167 HD
ATOM     52  C   UNL     1      -6.627   4.593  14.316  1.00  0.00     0.031 A 
ATOM     53  C   UNL     1     -12.997   3.784  11.516  1.00  0.00     0.031 A 
ATOM     54  C   UNL     1      -7.693   4.461  15.269  1.00  0.00     0.049 A 
ATOM     55  C   UNL     1     -12.777   3.797  13.004  1.00  0.00     0.074 A 
ATOM     56  C   UNL     1      -7.625   4.498  16.649  1.00  0.00     0.029 A 
ATOM     57  N   UNL     1      -9.026   4.283  14.934  1.00  0.00    -0.354 N 
ATOM     58  N   UNL     1     -11.659   3.956  13.671  1.00  0.00    -0.248 NA
ATOM     59  C   UNL     1     -13.965   3.617  13.850  1.00  0.00     0.031 C 
ATOM     60  C   UNL     1      -8.917   4.309  17.152  1.00  0.00     0.029 A 
ATOM     61  C   UNL     1      -9.791   4.199  16.082  1.00  0.00     0.049 A 
ATOM     62  H   UNL     1      -9.376   4.226  14.015  1.00  0.00     0.167 HD
ATOM     63  C   UNL     1     -12.013   3.922  15.014  1.00  0.00     0.074 A 
ATOM     64  C   UNL     1     -13.450   3.743  15.065  1.00  0.00     0.031 C 
ATOM     65  C   UNL     1     -11.220   4.028  16.108  1.00  0.00     0.031 A 
BRANCH  52  66
ATOM     66  C   UNL     1      -5.216   4.713  14.818  1.00  0.00    -0.014 A 
ATOM     67  C   UNL     1      -4.501   5.917  14.700  1.00  0.00     0.009 A 
ATOM     68  C   UNL     1      -4.591   3.609  15.418  1.00  0.00     0.009 A 
ATOM     69  C   UNL     1      -3.175   5.998  15.129  1.00  0.00     0.001 A 
ATOM     70  C   UNL     1      -3.276   3.703  15.876  1.00  0.00     0.001 A 
ATOM     71  C   UNL     1      -2.565   4.893  15.720  1.00  0.00     0.000 A 
ENDBRANCH  52  66
BRANCH  53  72
ATOM     72  C   UNL     1     -14.361   3.599  10.955  1.00  0.00    -0.014 A 
ATOM     73  C   UNL     1     -15.319   4.618  11.074  1.00  0.00     0.009 A 
ATOM     74  C   UNL     1     -14.718   2.407  10.307  1.00  0.00     0.009 A 
ATOM     75  C   UNL     1     -16.613   4.438  10.579  1.00  0.00     0.001 A 
ATOM     76  C   UNL     1     -16.005   2.239   9.790  1.00  0.00     0.001 A 
ATOM     77  C   UNL     1     -16.954   3.250   9.935  1.00  0.00     0.000 A 
ENDBRANCH  53  72
BRANCH  65  78
ATOM     78  C   UNL     1     -11.892   3.991  17.449  1.00  0.00    -0.014 A 
ATOM     79  C   UNL     1     -12.388   2.791  17.980  1.00  0.00     0.009 A 
ATOM     80  C   UNL     1     -11.983   5.166  18.211  1.00  0.00     0.009 A 
ATOM     81  C   UNL     1     -12.988   2.775  19.240  1.00  0.00     0.001 A 
ATOM     82  C   UNL     1     -12.559   5.141  19.481  1.00  0.00     0.001 A 
ATOM     83  C   UNL     1     -13.069   3.947  19.991  1.00  0.00     0.000 A 
ENDBRANCH  65  78
ENDBRANCH  39  40
ENDBRANCH  31  34
ENDBRANCH  29  30
ENDBRANCH  28  29
ENDBRANCH  27  28
ENDBRANCH   3  27
TORSDOF 16
