REMARK SMILES C[C@@H]1CC([NH2+][C@@](C)(C(=O)NCCCNC(=O)c2ccc(-c3c4nc(c(-c5ccccc5)c5ccc([nH]5)c(-c5ccccc5)c5nc(c(-c6ccccc6)c6ccc3[nH]6)C=C5)C=C4)cc2)C(F)(F)F)C[C@@H](C)C1
REMARK SMILES IDX 12 1 11 2 10 3 8 4 9 5 6 7 7 8 5 9 4 12 1 13 2 14 3 15 72 16
REMARK SMILES IDX 70 17 69 18 71 19 65 20 66 21 67 22 68 23 13 24 14 25 15 26
REMARK SMILES IDX 16 28 17 29 18 30 64 31 19 32 63 33 20 34 21 35 22 36 57 37
REMARK SMILES IDX 23 38 62 39 56 40 58 41 24 42 61 43 55 44 54 45 25 47 47 48
REMARK SMILES IDX 32 49 46 50 33 51 36 52 45 53 59 54 34 55 35 56 44 58 60 59
REMARK SMILES IDX 37 60 26 61 27 62 31 63 28 64 30 65 29 66 48 67 49 68 53 69
REMARK SMILES IDX 50 70 52 71 51 72 38 73 39 74 43 75 40 76 42 77 41 78
REMARK H PARENT 10 6 5 10 5 11 14 27 58 46 36 57
REMARK Flexibility Score: inf
ROOT
ATOM      1  C   UNL     1       3.521   0.911   1.634  1.00  0.00     0.042 C 
ENDROOT
BRANCH   1   2
ATOM      2  C   UNL     1       4.364  -0.352   1.510  1.00  0.00     0.118 C 
BRANCH   2   3
ATOM      3  N   UNL     1       4.062  -1.296   2.572  1.00  0.00    -0.350 N 
ATOM      4  C   UNL     1       3.469  -2.531   2.591  1.00  0.00     0.290 C 
ATOM      5  O   UNL     1       3.320  -3.011   3.717  1.00  0.00    -0.267 OA
ATOM      6  H   UNL     1       4.341  -0.985   3.463  1.00  0.00     0.163 HD
BRANCH   4   7
ATOM      7  C   UNL     1       3.039  -3.270   1.289  1.00  0.00     0.268 C 
ATOM      8  C   UNL     1       4.304  -3.471   0.425  1.00  0.00     0.101 C 
BRANCH   7   9
ATOM      9  N   UNL     1       1.964  -2.435   0.642  1.00  0.00    -0.324 N 
ATOM     10  H   UNL     1       1.257  -2.256   1.356  1.00  0.00     0.347 HD
ATOM     11  H   UNL     1       2.470  -1.626   0.283  1.00  0.00     0.347 HD
BRANCH   9  12
ATOM     12  C   UNL     1       1.261  -2.957  -0.535  1.00  0.00     0.184 C 
ATOM     13  C   UNL     1       0.501   0.347  -0.373  1.00  0.00     0.008 C 
ATOM     14  C   UNL     1       0.171  -0.727  -1.408  1.00  0.00    -0.008 C 
ATOM     15  C   UNL     1      -0.021  -2.127  -0.784  1.00  0.00     0.068 C 
ATOM     16  C   UNL     1       1.195  -0.717  -2.560  1.00  0.00     0.007 C 
ATOM     17  C   UNL     1       2.465  -1.524  -2.255  1.00  0.00    -0.008 C 
ATOM     18  C   UNL     1       2.078  -2.948  -1.835  1.00  0.00     0.068 C 
ATOM     19  C   UNL     1       3.419  -1.544  -3.447  1.00  0.00     0.008 C 
ENDBRANCH   9  12
ENDBRANCH   7   9
BRANCH   7  20
ATOM     20  C   UNL     1       2.594  -4.692   1.758  1.00  0.00     0.453 C 
ATOM     21  F   UNL     1       1.494  -4.680   2.542  1.00  0.00    -0.164 F 
ATOM     22  F   UNL     1       2.291  -5.473   0.683  1.00  0.00    -0.164 F 
ATOM     23  F   UNL     1       3.581  -5.349   2.414  1.00  0.00    -0.164 F 
ENDBRANCH   7  20
ENDBRANCH   4   7
ENDBRANCH   2   3
ENDBRANCH   1   2
BRANCH   1  24
ATOM     24  C   UNL     1       3.966   1.848   2.747  1.00  0.00     0.118 C 
BRANCH  24  25
ATOM     25  N   UNL     1       5.230   2.502   2.444  1.00  0.00    -0.352 N 
ATOM     26  C   UNL     1       5.524   3.825   2.221  1.00  0.00     0.251 C 
ATOM     27  H   UNL     1       6.004   1.896   2.391  1.00  0.00     0.163 HD
ATOM     28  O   UNL     1       6.628   4.124   1.776  1.00  0.00    -0.269 OA
BRANCH  26  29
ATOM     29  C   UNL     1       4.531   4.891   2.490  1.00  0.00     0.039 A 
ATOM     30  C   UNL     1       4.487   5.998   1.635  1.00  0.00     0.014 A 
ATOM     31  C   UNL     1       3.679   4.842   3.595  1.00  0.00     0.014 A 
ATOM     32  C   UNL     1       3.552   7.014   1.853  1.00  0.00     0.010 A 
ATOM     33  C   UNL     1       2.688   5.807   3.759  1.00  0.00     0.010 A 
ATOM     34  C   UNL     1       2.619   6.910   2.896  1.00  0.00    -0.014 A 
BRANCH  34  35
ATOM     35  C   UNL     1       1.573   7.944   3.105  1.00  0.00     0.031 A 
ATOM     36  C   UNL     1       1.534   8.741   4.382  1.00  0.00     0.074 A 
ATOM     37  C   UNL     1       0.615   8.122   2.175  1.00  0.00     0.049 A 
ATOM     38  N   UNL     1       0.663   9.640   4.768  1.00  0.00    -0.248 NA
ATOM     39  C   UNL     1       2.596   8.474   5.365  1.00  0.00     0.031 C 
ATOM     40  C   UNL     1       0.509   7.385   0.914  1.00  0.00     0.029 A 
ATOM     41  N   UNL     1      -0.459   8.976   2.151  1.00  0.00    -0.354 N 
ATOM     42  C   UNL     1       1.058  10.024   6.044  1.00  0.00     0.074 A 
ATOM     43  C   UNL     1       2.216   9.228   6.386  1.00  0.00     0.031 C 
ATOM     44  C   UNL     1      -0.551   7.839   0.227  1.00  0.00     0.029 A 
ATOM     45  C   UNL     1      -1.223   8.867   1.014  1.00  0.00     0.049 A 
ATOM     46  H   UNL     1      -0.662   9.607   2.879  1.00  0.00     0.167 HD
ATOM     47  C   UNL     1       0.518  10.968   6.853  1.00  0.00     0.031 A 
ATOM     48  C   UNL     1      -2.342   9.518   0.647  1.00  0.00     0.031 A 
ATOM     49  C   UNL     1      -0.623  11.773   6.509  1.00  0.00     0.049 A 
ATOM     50  C   UNL     1      -2.923  10.560   1.560  1.00  0.00     0.074 A 
ATOM     51  C   UNL     1      -1.202  12.802   7.232  1.00  0.00     0.029 A 
ATOM     52  N   UNL     1      -1.360  11.639   5.343  1.00  0.00    -0.354 N 
ATOM     53  N   UNL     1      -2.495  10.961   2.732  1.00  0.00    -0.248 NA
ATOM     54  C   UNL     1      -4.136  11.246   1.092  1.00  0.00     0.031 C 
ATOM     55  C   UNL     1      -2.321  13.256   6.526  1.00  0.00     0.029 A 
ATOM     56  C   UNL     1      -2.405  12.548   5.338  1.00  0.00     0.049 A 
ATOM     57  H   UNL     1      -1.169  10.993   4.625  1.00  0.00     0.167 HD
ATOM     58  C   UNL     1      -3.371  11.961   3.132  1.00  0.00     0.074 A 
ATOM     59  C   UNL     1      -4.343  12.117   2.070  1.00  0.00     0.031 C 
ATOM     60  C   UNL     1      -3.369  12.687   4.277  1.00  0.00     0.031 A 
BRANCH  47  61
ATOM     61  C   UNL     1       1.158  11.170   8.199  1.00  0.00    -0.014 A 
ATOM     62  C   UNL     1       2.434  11.746   8.322  1.00  0.00     0.009 A 
ATOM     63  C   UNL     1       0.467  10.801   9.363  1.00  0.00     0.009 A 
ATOM     64  C   UNL     1       3.020  11.907   9.579  1.00  0.00     0.001 A 
ATOM     65  C   UNL     1       1.043  10.991  10.621  1.00  0.00     0.001 A 
ATOM     66  C   UNL     1       2.323  11.533  10.727  1.00  0.00     0.000 A 
ENDBRANCH  47  61
BRANCH  48  67
ATOM     67  C   UNL     1      -2.978   9.215  -0.661  1.00  0.00    -0.014 A 
ATOM     68  C   UNL     1      -2.907  10.137  -1.716  1.00  0.00     0.009 A 
ATOM     69  C   UNL     1      -3.649   7.999  -0.866  1.00  0.00     0.009 A 
ATOM     70  C   UNL     1      -3.513   9.858  -2.943  1.00  0.00     0.001 A 
ATOM     71  C   UNL     1      -4.230   7.711  -2.103  1.00  0.00     0.001 A 
ATOM     72  C   UNL     1      -4.169   8.643  -3.137  1.00  0.00     0.000 A 
ENDBRANCH  48  67
BRANCH  60  73
ATOM     73  C   UNL     1      -4.435  13.734   4.428  1.00  0.00    -0.014 A 
ATOM     74  C   UNL     1      -5.771  13.383   4.676  1.00  0.00     0.009 A 
ATOM     75  C   UNL     1      -4.090  15.093   4.356  1.00  0.00     0.009 A 
ATOM     76  C   UNL     1      -6.746  14.373   4.817  1.00  0.00     0.001 A 
ATOM     77  C   UNL     1      -5.061  16.080   4.526  1.00  0.00     0.001 A 
ATOM     78  C   UNL     1      -6.389  15.720   4.747  1.00  0.00     0.000 A 
ENDBRANCH  60  73
ENDBRANCH  34  35
ENDBRANCH  26  29
ENDBRANCH  24  25
ENDBRANCH   1  24
TORSDOF 13
