REMARK SMILES CC[C@@](O)(C(=O)NCCCNC(=O)c1ccc(-c2c3nc(c(-c4ccccc4)c4ccc([nH]4)c(-c4ccccc4)c4nc(c(-c5ccccc5)c5ccc2[nH]5)C=C4)C=C3)cc1)[C@@H]1CCOc2ccccc21
REMARK SMILES IDX 9 1 8 2 7 3 5 4 6 5 3 7 2 8 1 9 4 10 62 12 63 13 71 14 64 15
REMARK SMILES IDX 66 16 70 17 65 18 67 19 69 20 68 21 10 22 11 23 12 24 13 26
REMARK SMILES IDX 14 27 15 28 61 29 16 30 60 31 17 32 18 33 19 34 54 35 20 36
REMARK SMILES IDX 59 37 53 38 55 39 21 40 58 41 52 42 51 43 22 45 44 46 29 47
REMARK SMILES IDX 43 48 30 49 33 50 42 51 56 52 31 53 32 54 41 56 57 57 34 58
REMARK SMILES IDX 23 59 24 60 28 61 25 62 27 63 26 64 45 65 46 66 50 67 47 68
REMARK SMILES IDX 49 69 48 70 35 71 36 72 40 73 37 74 39 75 38 76
REMARK H PARENT 7 6 4 11 11 25 55 44 33 55
REMARK Flexibility Score: inf
ROOT
ATOM      1  C   UNL     1      -3.164   0.171  -2.731  1.00  0.00     0.042 C 
ENDROOT
BRANCH   1   2
ATOM      2  C   UNL     1      -2.304  -1.073  -2.889  1.00  0.00     0.117 C 
BRANCH   2   3
ATOM      3  N   UNL     1      -1.142  -0.784  -3.707  1.00  0.00    -0.354 N 
ATOM      4  C   UNL     1       0.136  -0.488  -3.357  1.00  0.00     0.252 C 
ATOM      5  O   UNL     1       0.845   0.001  -4.245  1.00  0.00    -0.272 OA
ATOM      6  H   UNL     1      -1.307  -0.807  -4.677  1.00  0.00     0.163 HD
BRANCH   4   7
ATOM      7  C   UNL     1       0.694  -0.733  -1.911  1.00  0.00     0.149 C 
BRANCH   7   8
ATOM      8  C   UNL     1       0.672   0.661  -1.232  1.00  0.00     0.043 C 
ATOM      9  C   UNL     1       0.647   0.706   0.297  1.00  0.00     0.007 C 
ENDBRANCH   7   8
BRANCH   7  10
ATOM     10  O   UNL     1      -0.096  -1.617  -1.114  1.00  0.00    -0.379 OA
ATOM     11  H   UNL     1      -0.959  -1.210  -0.940  1.00  0.00     0.212 HD
ENDBRANCH   7  10
BRANCH   7  12
ATOM     12  C   UNL     1       2.094  -1.419  -2.180  1.00  0.00     0.068 C 
ATOM     13  C   UNL     1       1.843  -2.785  -2.894  1.00  0.00     0.053 C 
ATOM     14  C   UNL     1       2.947  -1.605  -0.943  1.00  0.00     0.001 A 
ATOM     15  C   UNL     1       2.717  -3.900  -2.362  1.00  0.00     0.230 C 
ATOM     16  C   UNL     1       3.066  -2.861  -0.343  1.00  0.00     0.122 A 
ATOM     17  C   UNL     1       3.623  -0.524  -0.366  1.00  0.00     0.008 A 
ATOM     18  O   UNL     1       2.578  -3.992  -0.940  1.00  0.00    -0.493 OA
ATOM     19  C   UNL     1       3.688  -3.010   0.893  1.00  0.00     0.047 A 
ATOM     20  C   UNL     1       4.272  -0.670   0.861  1.00  0.00     0.001 A 
ATOM     21  C   UNL     1       4.277  -1.906   1.504  1.00  0.00     0.004 A 
ENDBRANCH   7  12
ENDBRANCH   4   7
ENDBRANCH   2   3
ENDBRANCH   1   2
BRANCH   1  22
ATOM     22  C   UNL     1      -3.761   0.638  -4.052  1.00  0.00     0.118 C 
BRANCH  22  23
ATOM     23  N   UNL     1      -4.680  -0.345  -4.611  1.00  0.00    -0.352 N 
ATOM     24  C   UNL     1      -6.044  -0.286  -4.749  1.00  0.00     0.251 C 
ATOM     25  H   UNL     1      -4.261  -1.174  -4.938  1.00  0.00     0.163 HD
ATOM     26  O   UNL     1      -6.686  -1.302  -4.987  1.00  0.00    -0.269 OA
BRANCH  24  27
ATOM     27  C   UNL     1      -6.732   1.011  -4.602  1.00  0.00     0.039 A 
ATOM     28  C   UNL     1      -7.928   1.070  -3.884  1.00  0.00     0.014 A 
ATOM     29  C   UNL     1      -6.195   2.165  -5.178  1.00  0.00     0.014 A 
ATOM     30  C   UNL     1      -8.552   2.302  -3.692  1.00  0.00     0.010 A 
ATOM     31  C   UNL     1      -6.763   3.401  -4.904  1.00  0.00     0.010 A 
ATOM     32  C   UNL     1      -7.954   3.482  -4.168  1.00  0.00    -0.014 A 
BRANCH  32  33
ATOM     33  C   UNL     1      -8.562   4.809  -3.916  1.00  0.00     0.031 A 
ATOM     34  C   UNL     1      -9.019   5.661  -5.069  1.00  0.00     0.074 A 
ATOM     35  C   UNL     1      -8.646   5.272  -2.654  1.00  0.00     0.049 A 
ATOM     36  N   UNL     1      -9.525   6.868  -5.053  1.00  0.00    -0.248 NA
ATOM     37  C   UNL     1      -8.862   5.094  -6.420  1.00  0.00     0.031 C 
ATOM     38  C   UNL     1      -8.195   4.560  -1.455  1.00  0.00     0.029 A 
ATOM     39  N   UNL     1      -9.137   6.458  -2.168  1.00  0.00    -0.354 N 
ATOM     40  C   UNL     1      -9.730   7.207  -6.385  1.00  0.00     0.074 A 
ATOM     41  C   UNL     1      -9.242   6.106  -7.184  1.00  0.00     0.031 C 
ATOM     42  C   UNL     1      -8.462   5.307  -0.373  1.00  0.00     0.029 A 
ATOM     43  C   UNL     1      -9.059   6.567  -0.801  1.00  0.00     0.049 A 
ATOM     44  H   UNL     1      -9.510   7.163  -2.745  1.00  0.00     0.167 HD
ATOM     45  C   UNL     1     -10.297   8.325  -6.896  1.00  0.00     0.031 A 
ATOM     46  C   UNL     1      -9.422   7.574   0.015  1.00  0.00     0.031 A 
ATOM     47  C   UNL     1     -10.791   9.414  -6.098  1.00  0.00     0.049 A 
ATOM     48  C   UNL     1     -10.032   8.812  -0.581  1.00  0.00     0.074 A 
ATOM     49  C   UNL     1     -11.430  10.568  -6.516  1.00  0.00     0.029 A 
ATOM     50  N   UNL     1     -10.697   9.485  -4.716  1.00  0.00    -0.354 N 
ATOM     51  N   UNL     1     -10.286   9.087  -1.837  1.00  0.00    -0.248 NA
ATOM     52  C   UNL     1     -10.416   9.876   0.358  1.00  0.00     0.031 C 
ATOM     53  C   UNL     1     -11.674  11.362  -5.391  1.00  0.00     0.029 A 
ATOM     54  C   UNL     1     -11.244  10.674  -4.268  1.00  0.00     0.049 A 
ATOM     55  H   UNL     1     -10.301   8.791  -4.140  1.00  0.00     0.167 HD
ATOM     56  C   UNL     1     -10.886  10.339  -1.837  1.00  0.00     0.074 A 
ATOM     57  C   UNL     1     -10.976  10.761  -0.454  1.00  0.00     0.031 C 
ATOM     58  C   UNL     1     -11.325  11.076  -2.887  1.00  0.00     0.031 A 
BRANCH  45  59
ATOM     59  C   UNL     1     -10.410   8.425  -8.392  1.00  0.00    -0.014 A 
ATOM     60  C   UNL     1     -11.292   7.603  -9.112  1.00  0.00     0.009 A 
ATOM     61  C   UNL     1      -9.656   9.383  -9.088  1.00  0.00     0.009 A 
ATOM     62  C   UNL     1     -11.390   7.714 -10.501  1.00  0.00     0.001 A 
ATOM     63  C   UNL     1      -9.779   9.513 -10.472  1.00  0.00     0.001 A 
ATOM     64  C   UNL     1     -10.639   8.673 -11.178  1.00  0.00     0.000 A 
ENDBRANCH  45  59
BRANCH  46  65
ATOM     65  C   UNL     1      -9.230   7.454   1.484  1.00  0.00    -0.014 A 
ATOM     66  C   UNL     1     -10.336   7.352   2.343  1.00  0.00     0.009 A 
ATOM     67  C   UNL     1      -7.941   7.457   2.039  1.00  0.00     0.009 A 
ATOM     68  C   UNL     1     -10.156   7.293   3.727  1.00  0.00     0.001 A 
ATOM     69  C   UNL     1      -7.762   7.364   3.421  1.00  0.00     0.001 A 
ATOM     70  C   UNL     1      -8.870   7.295   4.264  1.00  0.00     0.000 A 
ENDBRANCH  46  65
BRANCH  58  71
ATOM     71  C   UNL     1     -11.975  12.395  -2.576  1.00  0.00    -0.014 A 
ATOM     72  C   UNL     1     -11.227  13.488  -2.114  1.00  0.00     0.009 A 
ATOM     73  C   UNL     1     -13.354  12.553  -2.787  1.00  0.00     0.009 A 
ATOM     74  C   UNL     1     -11.854  14.703  -1.834  1.00  0.00     0.001 A 
ATOM     75  C   UNL     1     -13.972  13.778  -2.538  1.00  0.00     0.001 A 
ATOM     76  C   UNL     1     -13.224  14.849  -2.051  1.00  0.00     0.000 A 
ENDBRANCH  58  71
ENDBRANCH  32  33
ENDBRANCH  24  27
ENDBRANCH  22  23
ENDBRANCH   1  22
TORSDOF 13
