REMARK SMILES Cc1ccc(-c2cc(C(=O)NCCCNC(=O)c3ccc(-c4c5nc(c(-c6ccccc6)c6ccc([nH]6)c(-c6ccccc6)c6nc(c(-c7ccccc7)c7ccc4[nH]7)C=C6)C=C5)cc3)c3cc(C)ccc3n2)c(C)c1
REMARK SMILES IDX 13 1 12 2 11 3 9 4 10 5 8 7 6 8 7 9 73 10 72 11 66 12 71 13
REMARK SMILES IDX 67 14 70 15 68 16 69 17 5 18 1 19 2 20 3 21 76 22 4 23 74 24
REMARK SMILES IDX 75 25 14 26 15 27 16 28 17 30 18 31 19 32 65 33 20 34 64 35
REMARK SMILES IDX 21 36 22 37 23 38 58 39 24 40 63 41 57 42 59 43 25 44 62 45
REMARK SMILES IDX 56 46 55 47 26 49 48 50 33 51 47 52 34 53 37 54 46 55 60 56
REMARK SMILES IDX 35 57 36 58 45 60 61 61 38 62 27 63 28 64 32 65 29 66 31 67
REMARK SMILES IDX 30 68 49 69 50 70 54 71 51 72 53 73 52 74 39 75 40 76 44 77
REMARK SMILES IDX 41 78 43 79 42 80
REMARK H PARENT 11 6 15 29 59 48 37 59
REMARK Flexibility Score: inf
ROOT
ATOM      1  C   UNL     1      -6.253  -7.010   0.720  1.00  0.00     0.042 C 
ENDROOT
BRANCH   1   2
ATOM      2  C   UNL     1      -6.080  -5.505   0.794  1.00  0.00     0.118 C 
BRANCH   2   3
ATOM      3  N   UNL     1      -5.363  -4.995   1.952  1.00  0.00    -0.352 N 
ATOM      4  C   UNL     1      -4.629  -3.838   2.122  1.00  0.00     0.252 C 
ATOM      5  O   UNL     1      -4.187  -3.599   3.246  1.00  0.00    -0.269 OA
ATOM      6  H   UNL     1      -5.408  -5.571   2.749  1.00  0.00     0.163 HD
BRANCH   4   7
ATOM      7  C   UNL     1      -4.257  -2.932   0.996  1.00  0.00     0.051 A 
ATOM      8  C   UNL     1      -2.480  -1.741  -0.073  1.00  0.00     0.072 A 
ATOM      9  C   UNL     1      -2.935  -2.475   1.008  1.00  0.00     0.043 A 
ATOM     10  N   UNL     1      -3.226  -1.572  -1.190  1.00  0.00    -0.248 NA
ATOM     11  C   UNL     1      -4.500  -1.987  -1.190  1.00  0.00     0.072 A 
ATOM     12  C   UNL     1      -5.111  -2.559  -0.064  1.00  0.00     0.013 A 
ATOM     13  C   UNL     1      -5.245  -1.859  -2.355  1.00  0.00     0.029 A 
ATOM     14  C   UNL     1      -6.511  -2.741  -0.083  1.00  0.00     0.014 A 
ATOM     15  C   UNL     1      -6.582  -2.260  -2.425  1.00  0.00     0.005 A 
ATOM     16  C   UNL     1      -7.237  -2.684  -1.274  1.00  0.00    -0.050 A 
ATOM     17  C   UNL     1      -8.634  -3.226  -1.324  1.00  0.00     0.044 C 
BRANCH   8  18
ATOM     18  C   UNL     1      -1.199  -1.023  -0.050  1.00  0.00     0.003 A 
ATOM     19  C   UNL     1       2.605   1.058   0.010  1.00  0.00     0.044 C 
ATOM     20  C   UNL     1       1.298   0.323  -0.004  1.00  0.00    -0.051 A 
ATOM     21  C   UNL     1       1.246  -1.072  -0.038  1.00  0.00     0.004 A 
ATOM     22  C   UNL     1       0.100   1.043   0.011  1.00  0.00     0.007 A 
ATOM     23  C   UNL     1       0.014  -1.735  -0.061  1.00  0.00     0.011 A 
ATOM     24  C   UNL     1      -1.146   0.390   0.003  1.00  0.00    -0.041 A 
ATOM     25  C   UNL     1      -2.383   1.253   0.009  1.00  0.00     0.045 C 
ENDBRANCH   8  18
ENDBRANCH   4   7
ENDBRANCH   2   3
ENDBRANCH   1   2
BRANCH   1  26
ATOM     26  C   UNL     1      -6.990  -7.626   1.900  1.00  0.00     0.118 C 
BRANCH  26  27
ATOM     27  N   UNL     1      -8.348  -7.128   2.102  1.00  0.00    -0.352 N 
ATOM     28  C   UNL     1      -9.592  -7.618   1.781  1.00  0.00     0.251 C 
ATOM     29  H   UNL     1      -8.379  -6.259   2.565  1.00  0.00     0.163 HD
ATOM     30  O   UNL     1     -10.579  -6.919   2.011  1.00  0.00    -0.269 OA
BRANCH  28  31
ATOM     31  C   UNL     1      -9.778  -8.930   1.119  1.00  0.00     0.039 A 
ATOM     32  C   UNL     1     -10.818  -9.081   0.192  1.00  0.00     0.014 A 
ATOM     33  C   UNL     1      -8.964 -10.022   1.400  1.00  0.00     0.014 A 
ATOM     34  C   UNL     1     -10.957 -10.275  -0.523  1.00  0.00     0.010 A 
ATOM     35  C   UNL     1      -9.012 -11.155   0.595  1.00  0.00     0.010 A 
ATOM     36  C   UNL     1     -10.011 -11.300  -0.377  1.00  0.00    -0.014 A 
BRANCH  36  37
ATOM     37  C   UNL     1     -10.034 -12.531  -1.211  1.00  0.00     0.031 A 
ATOM     38  C   UNL     1     -10.087 -13.889  -0.559  1.00  0.00     0.074 A 
ATOM     39  C   UNL     1      -9.894 -12.438  -2.549  1.00  0.00     0.049 A 
ATOM     40  N   UNL     1      -9.958 -15.074  -1.101  1.00  0.00    -0.248 NA
ATOM     41  C   UNL     1     -10.261 -13.916   0.903  1.00  0.00     0.031 C 
ATOM     42  C   UNL     1      -9.772 -11.191  -3.309  1.00  0.00     0.029 A 
ATOM     43  N   UNL     1      -9.813 -13.417  -3.508  1.00  0.00    -0.354 N 
ATOM     44  C   UNL     1      -9.997 -15.977  -0.046  1.00  0.00     0.074 A 
ATOM     45  C   UNL     1     -10.099 -15.202   1.171  1.00  0.00     0.031 C 
ATOM     46  C   UNL     1      -9.663 -11.480  -4.615  1.00  0.00     0.029 A 
ATOM     47  C   UNL     1      -9.657 -12.928  -4.783  1.00  0.00     0.049 A 
ATOM     48  H   UNL     1      -9.863 -14.379  -3.302  1.00  0.00     0.167 HD
ATOM     49  C   UNL     1      -9.976 -17.331  -0.081  1.00  0.00     0.031 A 
ATOM     50  C   UNL     1      -9.512 -13.571  -5.957  1.00  0.00     0.031 A 
ATOM     51  C   UNL     1      -9.910 -18.106  -1.290  1.00  0.00     0.049 A 
ATOM     52  C   UNL     1      -9.513 -15.073  -5.977  1.00  0.00     0.074 A 
ATOM     53  C   UNL     1      -9.954 -19.481  -1.439  1.00  0.00     0.029 A 
ATOM     54  N   UNL     1      -9.794 -17.568  -2.563  1.00  0.00    -0.354 N 
ATOM     55  N   UNL     1      -9.611 -15.912  -4.974  1.00  0.00    -0.248 NA
ATOM     56  C   UNL     1      -9.394 -15.716  -7.293  1.00  0.00     0.031 C 
ATOM     57  C   UNL     1      -9.822 -19.777  -2.800  1.00  0.00     0.029 A 
ATOM     58  C   UNL     1      -9.748 -18.585  -3.502  1.00  0.00     0.049 A 
ATOM     59  H   UNL     1      -9.750 -16.607  -2.769  1.00  0.00     0.167 HD
ATOM     60  C   UNL     1      -9.585 -17.180  -5.538  1.00  0.00     0.074 A 
ATOM     61  C   UNL     1      -9.483 -17.000  -6.972  1.00  0.00     0.031 C 
ATOM     62  C   UNL     1      -9.641 -18.387  -4.924  1.00  0.00     0.031 A 
BRANCH  49  63
ATOM     63  C   UNL     1     -10.031 -18.054   1.237  1.00  0.00    -0.014 A 
ATOM     64  C   UNL     1     -11.191 -18.034   2.031  1.00  0.00     0.009 A 
ATOM     65  C   UNL     1      -8.914 -18.772   1.690  1.00  0.00     0.009 A 
ATOM     66  C   UNL     1     -11.212 -18.672   3.273  1.00  0.00     0.001 A 
ATOM     67  C   UNL     1      -8.949 -19.438   2.918  1.00  0.00     0.001 A 
ATOM     68  C   UNL     1     -10.092 -19.376   3.713  1.00  0.00     0.000 A 
ENDBRANCH  49  63
BRANCH  50  69
ATOM     69  C   UNL     1      -9.373 -12.793  -7.215  1.00  0.00    -0.014 A 
ATOM     70  C   UNL     1     -10.428 -12.744  -8.139  1.00  0.00     0.009 A 
ATOM     71  C   UNL     1      -8.193 -12.087  -7.495  1.00  0.00     0.009 A 
ATOM     72  C   UNL     1     -10.296 -12.023  -9.328  1.00  0.00     0.001 A 
ATOM     73  C   UNL     1      -8.074 -11.344  -8.672  1.00  0.00     0.001 A 
ATOM     74  C   UNL     1      -9.121 -11.319  -9.591  1.00  0.00     0.000 A 
ENDBRANCH  50  69
BRANCH  62  75
ATOM     75  C   UNL     1      -9.619 -19.605  -5.803  1.00  0.00    -0.014 A 
ATOM     76  C   UNL     1      -8.442 -20.015  -6.447  1.00  0.00     0.009 A 
ATOM     77  C   UNL     1     -10.784 -20.373  -5.954  1.00  0.00     0.009 A 
ATOM     78  C   UNL     1      -8.441 -21.156  -7.252  1.00  0.00     0.001 A 
ATOM     79  C   UNL     1     -10.772 -21.528  -6.737  1.00  0.00     0.001 A 
ATOM     80  C   UNL     1      -9.604 -21.914  -7.392  1.00  0.00     0.000 A 
ENDBRANCH  62  75
ENDBRANCH  36  37
ENDBRANCH  28  31
ENDBRANCH  26  27
ENDBRANCH   1  26
TORSDOF 11
