REMARK SMILES CC(C)CCn1nc(C(=O)NCCCNC(=O)c2ccc(-c3c4nc(c(-c5ccccc5)c5ccc([nH]5)c(-c5ccccc5)c5nc(c(-c6ccccc6)c6ccc3[nH]6)C=C5)C=C4)cc2)c2c1CCN(C(=O)[C@@H]1CCc3nn(C)c(=O)n3C1)C2
REMARK SMILES IDX 12 1 11 2 9 3 10 4 8 6 6 7 7 8 67 9 66 10 68 11 84 12 69 13
REMARK SMILES IDX 70 14 5 15 4 16 2 17 1 18 3 19 71 20 72 21 73 22 74 23 83 24
REMARK SMILES IDX 75 25 82 26 76 27 80 28 77 29 78 30 81 31 79 32 13 33 14 34
REMARK SMILES IDX 15 35 16 36 17 38 18 39 19 40 65 41 20 42 64 43 21 44 22 45
REMARK SMILES IDX 23 46 58 47 24 48 63 49 57 50 59 51 25 52 62 53 56 54 55 55
REMARK SMILES IDX 26 57 48 58 33 59 47 60 34 61 37 62 46 63 60 64 35 65 36 66
REMARK SMILES IDX 45 68 61 69 38 70 27 71 28 72 32 73 29 74 31 75 30 76 49 77
REMARK SMILES IDX 50 78 54 79 51 80 53 81 52 82 39 83 40 84 44 85 41 86 43 87
REMARK SMILES IDX 42 88
REMARK H PARENT 11 5 15 37 59 56 37 67
REMARK Flexibility Score: inf
ROOT
ATOM      1  C   UNL     1       1.313  -0.970  -7.623  1.00  0.00     0.118 C 
ENDROOT
BRANCH   1   2
ATOM      2  N   UNL     1       0.657   0.257  -7.185  1.00  0.00    -0.351 N 
ATOM      3  C   UNL     1       0.017   0.658  -6.026  1.00  0.00     0.272 C 
ATOM      4  O   UNL     1      -0.297   1.854  -6.014  1.00  0.00    -0.267 OA
ATOM      5  H   UNL     1       0.674   0.962  -7.872  1.00  0.00     0.163 HD
BRANCH   3   6
ATOM      6  C   UNL     1      -0.270  -0.231  -4.866  1.00  0.00     0.155 A 
ATOM      7  N   UNL     1      -0.753  -0.700  -2.812  1.00  0.00    -0.268 N 
ATOM      8  N   UNL     1      -0.445   0.319  -3.642  1.00  0.00    -0.167 NA
ATOM      9  C   UNL     1      -0.611  -1.911  -3.413  1.00  0.00     0.046 A 
ATOM     10  C   UNL     1      -0.498  -1.630  -4.753  1.00  0.00     0.026 A 
ATOM     11  C   UNL     1      -0.680  -3.293  -2.855  1.00  0.00     0.078 C 
ATOM     12  C   UNL     1      -0.596  -2.685  -5.758  1.00  0.00     0.159 C 
ATOM     13  C   UNL     1      -0.360  -4.309  -3.984  1.00  0.00     0.126 C 
ATOM     14  N   UNL     1      -1.036  -3.966  -5.245  1.00  0.00    -0.338 N 
BRANCH   7  15
ATOM     15  C   UNL     1      -1.324  -0.385  -1.516  1.00  0.00     0.145 C 
BRANCH  15  16
ATOM     16  C   UNL     1      -0.848  -1.251  -0.351  1.00  0.00     0.027 C 
BRANCH  16  17
ATOM     17  C   UNL     1       0.682  -1.313  -0.207  1.00  0.00    -0.016 C 
ATOM     18  C   UNL     1       1.247   0.009   0.306  1.00  0.00     0.007 C 
ATOM     19  C   UNL     1       1.073  -2.468   0.713  1.00  0.00     0.007 C 
ENDBRANCH  16  17
ENDBRANCH  15  16
ENDBRANCH   7  15
BRANCH  14  20
ATOM     20  C   UNL     1      -1.480  -4.823  -6.241  1.00  0.00     0.227 C 
ATOM     21  O   UNL     1      -1.178  -4.607  -7.424  1.00  0.00    -0.274 OA
BRANCH  20  22
ATOM     22  C   UNL     1      -2.453  -5.968  -5.992  1.00  0.00     0.099 C 
ATOM     23  C   UNL     1      -3.683  -5.622  -5.154  1.00  0.00     0.023 C 
ATOM     24  C   UNL     1      -1.796  -7.265  -5.575  1.00  0.00     0.142 C 
ATOM     25  C   UNL     1      -3.451  -5.678  -3.653  1.00  0.00     0.078 C 
ATOM     26  N   UNL     1      -1.716  -7.377  -4.146  1.00  0.00    -0.278 N 
ATOM     27  C   UNL     1      -2.419  -6.684  -3.231  1.00  0.00     0.133 A 
ATOM     28  C   UNL     1      -0.771  -8.094  -3.460  1.00  0.00     0.345 A 
ATOM     29  N   UNL     1      -2.023  -6.855  -2.002  1.00  0.00    -0.155 NA
ATOM     30  N   UNL     1      -0.971  -7.741  -2.123  1.00  0.00    -0.216 N 
ATOM     31  O   UNL     1       0.092  -8.810  -3.928  1.00  0.00    -0.246 OA
ATOM     32  C   UNL     1      -0.117  -8.102  -1.028  1.00  0.00     0.179 C 
ENDBRANCH  20  22
ENDBRANCH  14  20
ENDBRANCH   3   6
ENDBRANCH   1   2
BRANCH   1  33
ATOM     33  C   UNL     1       0.334  -1.927  -8.314  1.00  0.00     0.042 C 
BRANCH  33  34
ATOM     34  C   UNL     1       0.426  -2.082  -9.797  1.00  0.00     0.118 C 
BRANCH  34  35
ATOM     35  N   UNL     1       1.467  -3.035 -10.210  1.00  0.00    -0.352 N 
ATOM     36  C   UNL     1       1.760  -3.441 -11.510  1.00  0.00     0.251 C 
ATOM     37  H   UNL     1       2.014  -3.429  -9.492  1.00  0.00     0.163 HD
ATOM     38  O   UNL     1       2.316  -4.494 -11.746  1.00  0.00    -0.269 OA
BRANCH  36  39
ATOM     39  C   UNL     1       1.344  -2.530 -12.593  1.00  0.00     0.039 A 
ATOM     40  C   UNL     1       0.779  -2.951 -13.795  1.00  0.00     0.014 A 
ATOM     41  C   UNL     1       1.367  -1.190 -12.262  1.00  0.00     0.014 A 
ATOM     42  C   UNL     1       0.173  -1.981 -14.593  1.00  0.00     0.010 A 
ATOM     43  C   UNL     1       0.379  -0.417 -12.773  1.00  0.00     0.010 A 
ATOM     44  C   UNL     1      -0.042  -0.705 -14.046  1.00  0.00    -0.014 A 
BRANCH  44  45
ATOM     45  C   UNL     1      -0.757   0.370 -14.710  1.00  0.00     0.031 A 
ATOM     46  C   UNL     1      -2.080  -0.040 -15.204  1.00  0.00     0.074 A 
ATOM     47  C   UNL     1      -0.361   1.665 -14.691  1.00  0.00     0.049 A 
ATOM     48  N   UNL     1      -2.347  -0.482 -16.384  1.00  0.00    -0.248 NA
ATOM     49  C   UNL     1      -3.178  -0.191 -14.237  1.00  0.00     0.031 C 
ATOM     50  C   UNL     1       0.733   2.288 -13.922  1.00  0.00     0.029 A 
ATOM     51  N   UNL     1      -0.920   2.737 -15.316  1.00  0.00    -0.354 N 
ATOM     52  C   UNL     1      -3.719  -0.678 -16.390  1.00  0.00     0.074 A 
ATOM     53  C   UNL     1      -4.116  -0.749 -15.007  1.00  0.00     0.031 C 
ATOM     54  C   UNL     1       0.620   3.635 -13.963  1.00  0.00     0.029 A 
ATOM     55  C   UNL     1      -0.413   3.970 -14.921  1.00  0.00     0.049 A 
ATOM     56  H   UNL     1      -1.628   2.647 -15.994  1.00  0.00     0.167 HD
ATOM     57  C   UNL     1      -4.436  -0.375 -17.507  1.00  0.00     0.031 A 
ATOM     58  C   UNL     1      -0.788   5.185 -15.383  1.00  0.00     0.031 A 
ATOM     59  C   UNL     1      -3.551  -0.067 -18.610  1.00  0.00     0.049 A 
ATOM     60  C   UNL     1      -1.393   4.971 -16.713  1.00  0.00     0.074 A 
ATOM     61  C   UNL     1      -2.699  -0.760 -19.440  1.00  0.00     0.029 A 
ATOM     62  N   UNL     1      -3.175   1.254 -18.647  1.00  0.00    -0.354 N 
ATOM     63  N   UNL     1      -0.714   4.546 -17.740  1.00  0.00    -0.248 NA
ATOM     64  C   UNL     1      -2.841   4.863 -16.834  1.00  0.00     0.031 C 
ATOM     65  C   UNL     1      -1.679   0.165 -19.820  1.00  0.00     0.029 A 
ATOM     66  C   UNL     1      -1.962   1.411 -19.262  1.00  0.00     0.049 A 
ATOM     67  H   UNL     1      -3.710   1.994 -18.279  1.00  0.00     0.167 HD
ATOM     68  C   UNL     1      -1.595   3.722 -18.414  1.00  0.00     0.074 A 
ATOM     69  C   UNL     1      -2.918   4.101 -17.929  1.00  0.00     0.031 C 
ATOM     70  C   UNL     1      -1.157   2.599 -19.052  1.00  0.00     0.031 A 
BRANCH  57  71
ATOM     71  C   UNL     1      -5.839   0.187 -17.489  1.00  0.00    -0.014 A 
ATOM     72  C   UNL     1      -6.451   0.467 -18.725  1.00  0.00     0.009 A 
ATOM     73  C   UNL     1      -6.464   0.716 -16.345  1.00  0.00     0.009 A 
ATOM     74  C   UNL     1      -7.581   1.287 -18.813  1.00  0.00     0.001 A 
ATOM     75  C   UNL     1      -7.611   1.510 -16.425  1.00  0.00     0.001 A 
ATOM     76  C   UNL     1      -8.156   1.816 -17.662  1.00  0.00     0.000 A 
ENDBRANCH  57  71
BRANCH  58  77
ATOM     77  C   UNL     1      -0.832   6.494 -14.706  1.00  0.00    -0.014 A 
ATOM     78  C   UNL     1      -0.826   7.689 -15.443  1.00  0.00     0.009 A 
ATOM     79  C   UNL     1      -1.199   6.558 -13.350  1.00  0.00     0.009 A 
ATOM     80  C   UNL     1      -1.234   8.896 -14.859  1.00  0.00     0.001 A 
ATOM     81  C   UNL     1      -1.610   7.763 -12.769  1.00  0.00     0.001 A 
ATOM     82  C   UNL     1      -1.646   8.928 -13.529  1.00  0.00     0.000 A 
ENDBRANCH  58  77
BRANCH  70  83
ATOM     83  C   UNL     1       0.301   2.534 -19.417  1.00  0.00    -0.014 A 
ATOM     84  C   UNL     1       1.345   2.482 -18.478  1.00  0.00     0.009 A 
ATOM     85  C   UNL     1       0.623   2.450 -20.780  1.00  0.00     0.009 A 
ATOM     86  C   UNL     1       2.676   2.374 -18.900  1.00  0.00     0.001 A 
ATOM     87  C   UNL     1       1.948   2.322 -21.198  1.00  0.00     0.001 A 
ATOM     88  C   UNL     1       2.975   2.290 -20.259  1.00  0.00     0.000 A 
ENDBRANCH  70  83
ENDBRANCH  44  45
ENDBRANCH  36  39
ENDBRANCH  34  35
ENDBRANCH  33  34
ENDBRANCH   1  33
TORSDOF 15
