REMARK SMILES O=C(NCCCNC(=O)[C@@H]1CC[C@@]2(CCN(C(=O)OCc3ccccc3)C2)C1)c1ccc(-c2c3nc(c(-c4ccccc4)c4ccc([nH]4)c(-c4ccccc4)c4nc(c(-c5ccccc5)c5ccc2[nH]5)C=C4)C=C3)cc1
REMARK SMILES IDX 6 1 5 2 4 3 3 4 1 5 2 6 29 8 30 9 76 10 31 11 75 12 32 13
REMARK SMILES IDX 33 14 34 15 69 16 35 17 74 18 68 19 70 20 36 21 73 22 67 23
REMARK SMILES IDX 66 24 37 26 59 27 44 28 58 29 45 30 48 31 57 32 71 33 46 34
REMARK SMILES IDX 47 35 56 37 72 38 49 39 38 40 39 41 43 42 40 43 42 44 41 45
REMARK SMILES IDX 60 46 61 47 65 48 62 49 64 50 63 51 50 52 51 53 55 54 52 55
REMARK SMILES IDX 54 56 53 57 7 58 8 59 9 61 10 62 11 63 28 64 12 65 13 66
REMARK SMILES IDX 14 67 27 68 15 69 16 70 17 71 18 72 19 73 20 74 21 75 22 76
REMARK SMILES IDX 26 77 23 78 25 79 24 80
REMARK H PARENT 3 7 70 25 48 36 7 60
REMARK Flexibility Score: inf
ROOT
ATOM      1  C   UNL     1       3.563   3.855  -0.879  1.00  0.00     0.117 C 
ENDROOT
BRANCH   1   2
ATOM      2  C   UNL     1       3.806   2.365  -1.098  1.00  0.00     0.042 C 
BRANCH   2   3
ATOM      3  C   UNL     1       3.874   1.575   0.198  1.00  0.00     0.118 C 
BRANCH   3   4
ATOM      4  N   UNL     1       2.547   1.117   0.570  1.00  0.00    -0.352 N 
ATOM      5  O   UNL     1       0.772  -0.249   0.398  1.00  0.00    -0.269 OA
ATOM      6  C   UNL     1       1.994  -0.130   0.414  1.00  0.00     0.251 C 
ATOM      7  H   UNL     1       1.965   1.792   0.990  1.00  0.00     0.163 HD
BRANCH   6   8
ATOM      8  C   UNL     1       2.854  -1.331   0.283  1.00  0.00     0.039 A 
ATOM      9  C   UNL     1       4.043  -1.448   1.008  1.00  0.00     0.014 A 
ATOM     10  C   UNL     1       2.409  -2.408  -0.493  1.00  0.00     0.014 A 
ATOM     11  C   UNL     1       4.825  -2.593   0.891  1.00  0.00     0.010 A 
ATOM     12  C   UNL     1       3.148  -3.594  -0.537  1.00  0.00     0.010 A 
ATOM     13  C   UNL     1       4.363  -3.697   0.157  1.00  0.00    -0.014 A 
BRANCH  13  14
ATOM     14  C   UNL     1       5.102  -4.982   0.239  1.00  0.00     0.031 A 
ATOM     15  C   UNL     1       5.753  -5.593  -0.967  1.00  0.00     0.074 A 
ATOM     16  C   UNL     1       5.184  -5.597   1.436  1.00  0.00     0.049 A 
ATOM     17  N   UNL     1       6.445  -6.702  -1.052  1.00  0.00    -0.248 NA
ATOM     18  C   UNL     1       5.606  -4.877  -2.242  1.00  0.00     0.031 C 
ATOM     19  C   UNL     1       4.578  -5.109   2.679  1.00  0.00     0.029 A 
ATOM     20  N   UNL     1       5.822  -6.751   1.813  1.00  0.00    -0.354 N 
ATOM     21  C   UNL     1       6.801  -6.827  -2.388  1.00  0.00     0.074 A 
ATOM     22  C   UNL     1       6.229  -5.692  -3.083  1.00  0.00     0.031 C 
ATOM     23  C   UNL     1       4.917  -5.926   3.686  1.00  0.00     0.029 A 
ATOM     24  C   UNL     1       5.705  -7.030   3.153  1.00  0.00     0.049 A 
ATOM     25  H   UNL     1       6.316  -7.325   1.183  1.00  0.00     0.167 HD
ATOM     26  C   UNL     1       7.539  -7.798  -2.979  1.00  0.00     0.031 A 
ATOM     27  C   UNL     1       6.163  -8.067   3.877  1.00  0.00     0.031 A 
ATOM     28  C   UNL     1       8.101  -8.928  -2.285  1.00  0.00     0.049 A 
ATOM     29  C   UNL     1       6.949  -9.142   3.188  1.00  0.00     0.074 A 
ATOM     30  C   UNL     1       8.889  -9.947  -2.794  1.00  0.00     0.029 A 
ATOM     31  N   UNL     1       7.929  -9.192  -0.935  1.00  0.00    -0.354 N 
ATOM     32  N   UNL     1       7.308  -9.223   1.931  1.00  0.00    -0.248 NA
ATOM     33  C   UNL     1       7.392 -10.269   4.020  1.00  0.00     0.031 C 
ATOM     34  C   UNL     1       9.151 -10.855  -1.762  1.00  0.00     0.029 A 
ATOM     35  C   UNL     1       8.574 -10.372  -0.598  1.00  0.00     0.049 A 
ATOM     36  H   UNL     1       7.424  -8.626  -0.308  1.00  0.00     0.167 HD
ATOM     37  C   UNL     1       8.033 -10.401   1.821  1.00  0.00     0.074 A 
ATOM     38  C   UNL     1       8.081 -10.989   3.145  1.00  0.00     0.031 C 
ATOM     39  C   UNL     1       8.605 -10.947   0.721  1.00  0.00     0.031 A 
BRANCH  26  40
ATOM     40  C   UNL     1       7.760  -7.695  -4.463  1.00  0.00    -0.014 A 
ATOM     41  C   UNL     1       8.622  -6.730  -5.008  1.00  0.00     0.009 A 
ATOM     42  C   UNL     1       7.133  -8.609  -5.325  1.00  0.00     0.009 A 
ATOM     43  C   UNL     1       8.827  -6.664  -6.389  1.00  0.00     0.001 A 
ATOM     44  C   UNL     1       7.360  -8.557  -6.702  1.00  0.00     0.001 A 
ATOM     45  C   UNL     1       8.200  -7.579  -7.234  1.00  0.00     0.000 A 
ENDBRANCH  26  40
BRANCH  27  46
ATOM     46  C   UNL     1       5.875  -8.139   5.332  1.00  0.00    -0.014 A 
ATOM     47  C   UNL     1       6.899  -7.964   6.274  1.00  0.00     0.009 A 
ATOM     48  C   UNL     1       4.566  -8.367   5.787  1.00  0.00     0.009 A 
ATOM     49  C   UNL     1       6.622  -8.037   7.641  1.00  0.00     0.001 A 
ATOM     50  C   UNL     1       4.286  -8.408   7.153  1.00  0.00     0.001 A 
ATOM     51  C   UNL     1       5.316  -8.252   8.079  1.00  0.00     0.000 A 
ENDBRANCH  27  46
BRANCH  39  52
ATOM     52  C   UNL     1       9.356 -12.233   0.915  1.00  0.00    -0.014 A 
ATOM     53  C   UNL     1       8.682 -13.443   1.143  1.00  0.00     0.009 A 
ATOM     54  C   UNL     1      10.758 -12.236   0.845  1.00  0.00     0.009 A 
ATOM     55  C   UNL     1       9.400 -14.625   1.332  1.00  0.00     0.001 A 
ATOM     56  C   UNL     1      11.472 -13.424   1.005  1.00  0.00     0.001 A 
ATOM     57  C   UNL     1      10.793 -14.616   1.258  1.00  0.00     0.000 A 
ENDBRANCH  39  52
ENDBRANCH  13  14
ENDBRANCH   6   8
ENDBRANCH   3   4
ENDBRANCH   2   3
ENDBRANCH   1   2
BRANCH   1  58
ATOM     58  N   UNL     1       4.660   4.571  -0.227  1.00  0.00    -0.356 N 
ATOM     59  C   UNL     1       5.693   5.282  -0.797  1.00  0.00     0.223 C 
ATOM     60  H   UNL     1       4.660   4.540   0.757  1.00  0.00     0.163 HD
ATOM     61  O   UNL     1       6.402   5.997  -0.096  1.00  0.00    -0.275 OA
BRANCH  59  62
ATOM     62  C   UNL     1       5.916   5.085  -2.276  1.00  0.00     0.079 C 
ATOM     63  C   UNL     1       6.714   3.819  -2.554  1.00  0.00     0.014 C 
ATOM     64  C   UNL     1       6.740   6.085  -3.085  1.00  0.00     0.022 C 
ATOM     65  C   UNL     1       6.660   3.820  -4.065  1.00  0.00     0.010 C 
ATOM     66  C   UNL     1       7.060   5.274  -4.393  1.00  0.00    -0.009 C 
ATOM     67  C   UNL     1       6.313   5.849  -5.620  1.00  0.00     0.030 C 
ATOM     68  C   UNL     1       8.549   5.309  -4.763  1.00  0.00     0.130 C 
ATOM     69  C   UNL     1       7.382   6.092  -6.676  1.00  0.00     0.124 C 
ATOM     70  N   UNL     1       8.610   6.153  -5.920  1.00  0.00    -0.308 N 
BRANCH  70  71
ATOM     71  C   UNL     1       9.676   6.983  -6.124  1.00  0.00     0.410 C 
ATOM     72  O   UNL     1      10.672   6.992  -5.413  1.00  0.00    -0.224 OA
BRANCH  71  73
ATOM     73  O   UNL     1       9.456   7.843  -7.148  1.00  0.00    -0.445 OA
BRANCH  73  74
ATOM     74  C   UNL     1      10.214   9.050  -7.054  1.00  0.00     0.270 C 
BRANCH  74  75
ATOM     75  C   UNL     1       9.413  10.027  -6.229  1.00  0.00    -0.011 A 
ATOM     76  C   UNL     1       9.663  10.178  -4.857  1.00  0.00     0.007 A 
ATOM     77  C   UNL     1       8.338  10.719  -6.803  1.00  0.00     0.007 A 
ATOM     78  C   UNL     1       8.867  11.022  -4.081  1.00  0.00     0.000 A 
ATOM     79  C   UNL     1       7.545  11.564  -6.027  1.00  0.00     0.000 A 
ATOM     80  C   UNL     1       7.811  11.718  -4.668  1.00  0.00     0.000 A 
ENDBRANCH  74  75
ENDBRANCH  73  74
ENDBRANCH  71  73
ENDBRANCH  70  71
ENDBRANCH  59  62
ENDBRANCH   1  58
TORSDOF 14
