REMARK SMILES O=C(NCCCNC(=O)c1cc(=O)[nH]c2ccc(C(F)(F)F)cc12)c1ccc(-c2c3nc(c(-c4ccccc4)c4ccc([nH]4)c(-c4ccccc4)c4nc(c(-c5ccccc5)c5ccc2[nH]5)C=C4)C=C3)cc1
REMARK SMILES IDX 4 1 3 2 1 3 2 4 25 6 26 7 72 8 27 9 71 10 28 11 29 12 30 13
REMARK SMILES IDX 65 14 31 15 70 16 64 17 66 18 32 19 69 20 63 21 62 22 33 24
REMARK SMILES IDX 55 25 40 26 54 27 41 28 44 29 53 30 67 31 42 32 43 33 52 35
REMARK SMILES IDX 68 36 45 37 34 38 35 39 39 40 36 41 38 42 37 43 56 44 57 45
REMARK SMILES IDX 61 46 58 47 60 48 59 49 46 50 47 51 51 52 48 53 50 54 49 55
REMARK SMILES IDX 5 56 6 57 7 58 8 59 9 61 10 62 11 63 24 64 12 65 15 66 23 67
REMARK SMILES IDX 13 68 14 69 16 70 18 71 17 73 19 74 20 75 21 76 22 77
REMARK H PARENT 3 5 66 23 44 34 7 60 14 72
REMARK Flexibility Score: inf
ROOT
ATOM      1  C   UNL     1       4.607  -0.836   0.977  1.00  0.00     0.118 C 
ENDROOT
BRANCH   1   2
ATOM      2  N   UNL     1       3.167  -0.815   0.771  1.00  0.00    -0.352 N 
ATOM      3  O   UNL     1       1.170  -0.043   0.085  1.00  0.00    -0.269 OA
ATOM      4  C   UNL     1       2.392  -0.010  -0.025  1.00  0.00     0.251 C 
ATOM      5  H   UNL     1       2.667  -1.489   1.287  1.00  0.00     0.163 HD
BRANCH   4   6
ATOM      6  C   UNL     1       3.014   0.915  -0.998  1.00  0.00     0.039 A 
ATOM      7  C   UNL     1       4.080   0.511  -1.804  1.00  0.00     0.014 A 
ATOM      8  C   UNL     1       2.482   2.200  -1.135  1.00  0.00     0.014 A 
ATOM      9  C   UNL     1       4.705   1.429  -2.644  1.00  0.00     0.010 A 
ATOM     10  C   UNL     1       3.054   3.095  -2.041  1.00  0.00     0.010 A 
ATOM     11  C   UNL     1       4.188   2.725  -2.782  1.00  0.00    -0.014 A 
BRANCH  11  12
ATOM     12  C   UNL     1       4.797   3.679  -3.741  1.00  0.00     0.031 A 
ATOM     13  C   UNL     1       5.423   4.956  -3.260  1.00  0.00     0.074 A 
ATOM     14  C   UNL     1       4.744   3.408  -5.058  1.00  0.00     0.049 A 
ATOM     15  N   UNL     1       5.912   5.949  -3.959  1.00  0.00    -0.248 NA
ATOM     16  C   UNL     1       5.498   5.148  -1.804  1.00  0.00     0.031 C 
ATOM     17  C   UNL     1       4.167   2.198  -5.648  1.00  0.00     0.029 A 
ATOM     18  N   UNL     1       5.165   4.140  -6.139  1.00  0.00    -0.354 N 
ATOM     19  C   UNL     1       6.326   6.896  -3.031  1.00  0.00     0.074 A 
ATOM     20  C   UNL     1       6.009   6.368  -1.721  1.00  0.00     0.031 C 
ATOM     21  C   UNL     1       4.276   2.268  -6.982  1.00  0.00     0.029 A 
ATOM     22  C   UNL     1       4.865   3.552  -7.343  1.00  0.00     0.049 A 
ATOM     23  H   UNL     1       5.635   5.001  -6.060  1.00  0.00     0.167 HD
ATOM     24  C   UNL     1       6.914   8.097  -3.252  1.00  0.00     0.031 A 
ATOM     25  C   UNL     1       5.005   4.009  -8.601  1.00  0.00     0.031 A 
ATOM     26  C   UNL     1       7.208   8.622  -4.561  1.00  0.00     0.049 A 
ATOM     27  C   UNL     1       5.603   5.366  -8.827  1.00  0.00     0.074 A 
ATOM     28  C   UNL     1       7.835   9.811  -4.891  1.00  0.00     0.029 A 
ATOM     29  N   UNL     1       6.879   7.999  -5.755  1.00  0.00    -0.354 N 
ATOM     30  N   UNL     1       6.029   6.234  -7.941  1.00  0.00    -0.248 NA
ATOM     31  C   UNL     1       5.747   5.805 -10.221  1.00  0.00     0.031 C 
ATOM     32  C   UNL     1       7.822   9.939  -6.284  1.00  0.00     0.029 A 
ATOM     33  C   UNL     1       7.257   8.794  -6.824  1.00  0.00     0.049 A 
ATOM     34  H   UNL     1       6.441   7.120  -5.832  1.00  0.00     0.167 HD
ATOM     35  C   UNL     1       6.518   7.310  -8.670  1.00  0.00     0.074 A 
ATOM     36  C   UNL     1       6.338   6.983 -10.070  1.00  0.00     0.031 C 
ATOM     37  C   UNL     1       7.075   8.459  -8.215  1.00  0.00     0.031 A 
BRANCH  24  38
ATOM     38  C   UNL     1       7.224   8.947  -2.049  1.00  0.00    -0.014 A 
ATOM     39  C   UNL     1       8.206   8.577  -1.116  1.00  0.00     0.009 A 
ATOM     40  C   UNL     1       6.522  10.147  -1.849  1.00  0.00     0.009 A 
ATOM     41  C   UNL     1       8.438   9.361   0.018  1.00  0.00     0.001 A 
ATOM     42  C   UNL     1       6.780  10.946  -0.735  1.00  0.00     0.001 A 
ATOM     43  C   UNL     1       7.726  10.545   0.206  1.00  0.00     0.000 A 
ENDBRANCH  24  38
BRANCH  25  44
ATOM     44  C   UNL     1       4.539   3.166  -9.732  1.00  0.00    -0.014 A 
ATOM     45  C   UNL     1       5.459   2.536 -10.582  1.00  0.00     0.009 A 
ATOM     46  C   UNL     1       3.166   2.939  -9.927  1.00  0.00     0.009 A 
ATOM     47  C   UNL     1       5.012   1.702 -11.610  1.00  0.00     0.001 A 
ATOM     48  C   UNL     1       2.724   2.081 -10.935  1.00  0.00     0.001 A 
ATOM     49  C   UNL     1       3.647   1.468 -11.780  1.00  0.00     0.000 A 
ENDBRANCH  25  44
BRANCH  37  50
ATOM     50  C   UNL     1       7.583   9.438  -9.235  1.00  0.00    -0.014 A 
ATOM     51  C   UNL     1       6.709  10.224 -10.001  1.00  0.00     0.009 A 
ATOM     52  C   UNL     1       8.968   9.633  -9.369  1.00  0.00     0.009 A 
ATOM     53  C   UNL     1       7.213  11.175 -10.891  1.00  0.00     0.001 A 
ATOM     54  C   UNL     1       9.468  10.604 -10.237  1.00  0.00     0.001 A 
ATOM     55  C   UNL     1       8.590  11.371 -11.001  1.00  0.00     0.000 A 
ENDBRANCH  37  50
ENDBRANCH  11  12
ENDBRANCH   4   6
ENDBRANCH   1   2
BRANCH   1  56
ATOM     56  C   UNL     1       5.015  -0.369   2.369  1.00  0.00     0.042 C 
BRANCH  56  57
ATOM     57  C   UNL     1       4.490  -1.238   3.505  1.00  0.00     0.118 C 
BRANCH  57  58
ATOM     58  N   UNL     1       4.939  -2.620   3.406  1.00  0.00    -0.352 N 
ATOM     59  C   UNL     1       5.704  -3.377   4.243  1.00  0.00     0.252 C 
ATOM     60  H   UNL     1       4.638  -3.089   2.594  1.00  0.00     0.163 HD
ATOM     61  O   UNL     1       6.034  -4.505   3.886  1.00  0.00    -0.269 OA
BRANCH  59  62
ATOM     62  C   UNL     1       6.145  -2.828   5.553  1.00  0.00     0.054 A 
ATOM     63  C   UNL     1       5.183  -2.362   6.367  1.00  0.00     0.086 A 
ATOM     64  C   UNL     1       7.535  -2.924   6.048  1.00  0.00     0.012 A 
ATOM     65  C   UNL     1       5.497  -1.785   7.687  1.00  0.00     0.249 A 
ATOM     66  C   UNL     1       7.819  -2.431   7.332  1.00  0.00     0.049 A 
ATOM     67  C   UNL     1       8.581  -3.499   5.311  1.00  0.00     0.024 A 
ATOM     68  O   UNL     1       4.621  -1.264   8.363  1.00  0.00    -0.270 OA
ATOM     69  N   UNL     1       6.797  -1.857   8.095  1.00  0.00    -0.322 N 
ATOM     70  C   UNL     1       9.103  -2.511   7.871  1.00  0.00     0.027 A 
ATOM     71  C   UNL     1       9.879  -3.604   5.847  1.00  0.00     0.056 A 
ATOM     72  H   UNL     1       7.029  -1.484   8.977  1.00  0.00     0.170 HD
ATOM     73  C   UNL     1      10.128  -3.102   7.133  1.00  0.00     0.015 A 
BRANCH  71  74
ATOM     74  C   UNL     1      10.977  -4.259   5.041  1.00  0.00     0.416 C 
ATOM     75  F   UNL     1      10.677  -5.539   4.690  1.00  0.00    -0.166 F 
ATOM     76  F   UNL     1      11.230  -3.597   3.878  1.00  0.00    -0.166 F 
ATOM     77  F   UNL     1      12.168  -4.322   5.700  1.00  0.00    -0.166 F 
ENDBRANCH  71  74
ENDBRANCH  59  62
ENDBRANCH  57  58
ENDBRANCH  56  57
ENDBRANCH   1  56
TORSDOF 11
