REMARK SMILES Nc1ncc(C(=O)NCCCNC(=O)c2ccc(-c3c4nc(c(-c5ccccc5)c5ccc([nH]5)c(-c5ccccc5)c5nc(c(-c6ccccc6)c6ccc3[nH]6)C=C5)C=C4)cc2)c(-c2ccccc2)n1
REMARK SMILES IDX 10 1 9 2 8 3 6 4 7 5 5 7 2 8 3 9 70 10 4 11 63 12 1 13 64 16
REMARK SMILES IDX 65 17 69 18 66 19 68 20 67 21 11 22 12 23 13 24 14 26 15 27
REMARK SMILES IDX 16 28 62 29 17 30 61 31 18 32 19 33 20 34 55 35 21 36 60 37
REMARK SMILES IDX 54 38 56 39 22 40 59 41 53 42 52 43 23 45 45 46 30 47 44 48
REMARK SMILES IDX 31 49 34 50 43 51 57 52 32 53 33 54 42 56 58 57 35 58 24 59
REMARK SMILES IDX 25 60 29 61 26 62 28 63 27 64 46 65 47 66 51 67 48 68 50 69
REMARK SMILES IDX 49 70 36 71 37 72 41 73 38 74 40 75 39 76
REMARK H PARENT 8 6 1 14 1 15 12 25 56 44 34 55
REMARK Flexibility Score: inf
ROOT
ATOM      1  C   UNL     1       4.828  -2.733  -1.878  1.00  0.00     0.042 C 
ENDROOT
BRANCH   1   2
ATOM      2  C   UNL     1       3.776  -2.242  -0.899  1.00  0.00     0.118 C 
BRANCH   2   3
ATOM      3  N   UNL     1       4.004  -0.949  -0.295  1.00  0.00    -0.352 N 
ATOM      4  C   UNL     1       3.119  -0.077   0.292  1.00  0.00     0.255 C 
ATOM      5  O   UNL     1       3.605   0.923   0.829  1.00  0.00    -0.269 OA
ATOM      6  H   UNL     1       4.940  -0.646  -0.307  1.00  0.00     0.163 HD
BRANCH   4   7
ATOM      7  C   UNL     1       1.640  -0.182   0.250  1.00  0.00     0.084 A 
ATOM      8  C   UNL     1      -1.085   0.068   0.118  1.00  0.00     0.220 A 
ATOM      9  N   UNL     1      -0.363   1.177  -0.003  1.00  0.00    -0.221 NA
ATOM     10  N   UNL     1      -0.568  -1.143   0.312  1.00  0.00    -0.212 NA
ATOM     11  C   UNL     1       0.978   1.025   0.073  1.00  0.00     0.131 A 
ATOM     12  C   UNL     1       0.788  -1.267   0.394  1.00  0.00     0.089 A 
BRANCH   8  13
ATOM     13  N   UNL     1      -2.440   0.171   0.032  1.00  0.00    -0.368 N 
ATOM     14  H   UNL     1      -2.859   1.051  -0.111  1.00  0.00     0.159 HD
ATOM     15  H   UNL     1      -3.001  -0.634   0.114  1.00  0.00     0.159 HD
ENDBRANCH   8  13
BRANCH  12  16
ATOM     16  C   UNL     1       1.178  -2.668   0.603  1.00  0.00     0.001 A 
ATOM     17  C   UNL     1       1.892  -3.098   1.732  1.00  0.00     0.010 A 
ATOM     18  C   UNL     1       0.862  -3.622  -0.390  1.00  0.00     0.010 A 
ATOM     19  C   UNL     1       2.357  -4.417   1.813  1.00  0.00     0.001 A 
ATOM     20  C   UNL     1       1.342  -4.929  -0.317  1.00  0.00     0.001 A 
ATOM     21  C   UNL     1       2.106  -5.320   0.778  1.00  0.00     0.000 A 
ENDBRANCH  12  16
ENDBRANCH   4   7
ENDBRANCH   2   3
ENDBRANCH   1   2
BRANCH   1  22
ATOM     22  C   UNL     1       6.191  -3.014  -1.253  1.00  0.00     0.118 C 
BRANCH  22  23
ATOM     23  N   UNL     1       6.197  -4.074  -0.247  1.00  0.00    -0.352 N 
ATOM     24  C   UNL     1       6.365  -5.437  -0.290  1.00  0.00     0.251 C 
ATOM     25  H   UNL     1       6.049  -3.735   0.665  1.00  0.00     0.163 HD
ATOM     26  O   UNL     1       6.227  -6.074   0.757  1.00  0.00    -0.269 OA
BRANCH  24  27
ATOM     27  C   UNL     1       6.646  -6.179  -1.544  1.00  0.00     0.039 A 
ATOM     28  C   UNL     1       6.149  -7.485  -1.677  1.00  0.00     0.014 A 
ATOM     29  C   UNL     1       7.405  -5.647  -2.579  1.00  0.00     0.014 A 
ATOM     30  C   UNL     1       6.318  -8.192  -2.875  1.00  0.00     0.010 A 
ATOM     31  C   UNL     1       7.468  -6.296  -3.810  1.00  0.00     0.010 A 
ATOM     32  C   UNL     1       6.917  -7.573  -3.980  1.00  0.00    -0.014 A 
BRANCH  32  33
ATOM     33  C   UNL     1       6.977  -8.210  -5.325  1.00  0.00     0.031 A 
ATOM     34  C   UNL     1       8.300  -8.375  -6.030  1.00  0.00     0.074 A 
ATOM     35  C   UNL     1       5.835  -8.520  -5.973  1.00  0.00     0.049 A 
ATOM     36  N   UNL     1       8.541  -8.702  -7.275  1.00  0.00    -0.248 NA
ATOM     37  C   UNL     1       9.510  -8.089  -5.241  1.00  0.00     0.031 C 
ATOM     38  C   UNL     1       4.481  -8.374  -5.433  1.00  0.00     0.029 A 
ATOM     39  N   UNL     1       5.631  -9.002  -7.243  1.00  0.00    -0.354 N 
ATOM     40  C   UNL     1       9.919  -8.611  -7.429  1.00  0.00     0.074 A 
ATOM     41  C   UNL     1      10.457  -8.157  -6.165  1.00  0.00     0.031 C 
ATOM     42  C   UNL     1       3.592  -8.782  -6.352  1.00  0.00     0.029 A 
ATOM     43  C   UNL     1       4.304  -9.161  -7.566  1.00  0.00     0.049 A 
ATOM     44  H   UNL     1       6.366  -9.213  -7.864  1.00  0.00     0.167 HD
ATOM     45  C   UNL     1      10.675  -8.895  -8.517  1.00  0.00     0.031 A 
ATOM     46  C   UNL     1       3.721  -9.546  -8.717  1.00  0.00     0.031 A 
ATOM     47  C   UNL     1      10.148  -9.391  -9.760  1.00  0.00     0.049 A 
ATOM     48  C   UNL     1       4.579  -9.867  -9.907  1.00  0.00     0.074 A 
ATOM     49  C   UNL     1      10.838  -9.786 -10.893  1.00  0.00     0.029 A 
ATOM     50  N   UNL     1       8.800  -9.569 -10.029  1.00  0.00    -0.354 N 
ATOM     51  N   UNL     1       5.884  -9.823 -10.019  1.00  0.00    -0.248 NA
ATOM     52  C   UNL     1       3.882 -10.293 -11.129  1.00  0.00     0.031 C 
ATOM     53  C   UNL     1       9.905 -10.164 -11.863  1.00  0.00     0.029 A 
ATOM     54  C   UNL     1       8.637 -10.050 -11.317  1.00  0.00     0.049 A 
ATOM     55  H   UNL     1       8.068  -9.382  -9.398  1.00  0.00     0.167 HD
ATOM     56  C   UNL     1       6.166 -10.237 -11.314  1.00  0.00     0.074 A 
ATOM     57  C   UNL     1       4.899 -10.543 -11.943  1.00  0.00     0.031 C 
ATOM     58  C   UNL     1       7.369 -10.351 -11.927  1.00  0.00     0.031 A 
BRANCH  45  59
ATOM     59  C   UNL     1      12.159  -8.674  -8.409  1.00  0.00    -0.014 A 
ATOM     60  C   UNL     1      12.962  -9.493  -7.598  1.00  0.00     0.009 A 
ATOM     61  C   UNL     1      12.769  -7.651  -9.152  1.00  0.00     0.009 A 
ATOM     62  C   UNL     1      14.335  -9.263  -7.499  1.00  0.00     0.001 A 
ATOM     63  C   UNL     1      14.148  -7.443  -9.075  1.00  0.00     0.001 A 
ATOM     64  C   UNL     1      14.928  -8.241  -8.240  1.00  0.00     0.000 A 
ENDBRANCH  45  59
BRANCH  46  65
ATOM     65  C   UNL     1       2.240  -9.657  -8.800  1.00  0.00    -0.014 A 
ATOM     66  C   UNL     1       1.630 -10.919  -8.869  1.00  0.00     0.009 A 
ATOM     67  C   UNL     1       1.432  -8.510  -8.813  1.00  0.00     0.009 A 
ATOM     68  C   UNL     1       0.242 -11.030  -8.974  1.00  0.00     0.001 A 
ATOM     69  C   UNL     1       0.042  -8.625  -8.889  1.00  0.00     0.001 A 
ATOM     70  C   UNL     1      -0.551  -9.883  -8.979  1.00  0.00     0.000 A 
ENDBRANCH  46  65
BRANCH  58  71
ATOM     71  C   UNL     1       7.374 -10.857 -13.341  1.00  0.00    -0.014 A 
ATOM     72  C   UNL     1       6.955 -10.044 -14.405  1.00  0.00     0.009 A 
ATOM     73  C   UNL     1       7.850 -12.149 -13.615  1.00  0.00     0.009 A 
ATOM     74  C   UNL     1       6.989 -10.526 -15.715  1.00  0.00     0.001 A 
ATOM     75  C   UNL     1       7.907 -12.618 -14.928  1.00  0.00     0.001 A 
ATOM     76  C   UNL     1       7.470 -11.809 -15.975  1.00  0.00     0.000 A 
ENDBRANCH  58  71
ENDBRANCH  32  33
ENDBRANCH  24  27
ENDBRANCH  22  23
ENDBRANCH   1  22
TORSDOF 12
