REMARK SMILES [NH3+]C1(C(=O)N2[C@@H](C(=O)NCCCNC(=O)c3ccc(-c4c5nc(c(-c6ccccc6)c6ccc([nH]6)c(-c6ccccc6)c6nc(c(-c7ccccc7)c7ccc4[nH]7)C=C6)C=C5)cc3)CC[C@@H]3CCCC[C@@H]32)CC1
REMARK SMILES IDX 10 1 9 2 7 3 8 4 6 6 5 7 71 8 64 9 66 10 70 11 65 12 67 13
REMARK SMILES IDX 69 14 68 15 3 16 4 17 2 18 72 19 73 20 1 21 11 25 12 26
REMARK SMILES IDX 13 27 14 28 15 30 16 31 17 32 63 33 18 34 62 35 19 36 20 37
REMARK SMILES IDX 21 38 56 39 22 40 61 41 55 42 57 43 23 44 60 45 54 46 53 47
REMARK SMILES IDX 24 49 46 50 31 51 45 52 32 53 35 54 44 55 58 56 33 57 34 58
REMARK SMILES IDX 43 60 59 61 36 62 25 63 26 64 30 65 27 66 29 67 28 68 47 69
REMARK SMILES IDX 48 70 52 71 49 72 51 73 50 74 37 75 38 76 42 77 39 78 41 79
REMARK SMILES IDX 40 80
REMARK H PARENT 9 5 1 22 1 23 1 24 13 29 57 48 35 59
REMARK Flexibility Score: inf
ROOT
ATOM      1  C   UNL     1      -1.891  -0.549   2.147  1.00  0.00     0.117 C 
ENDROOT
BRANCH   1   2
ATOM      2  N   UNL     1      -2.444   0.571   1.408  1.00  0.00    -0.354 N 
ATOM      3  C   UNL     1      -2.377   1.902   1.674  1.00  0.00     0.242 C 
ATOM      4  O   UNL     1      -3.209   2.631   1.124  1.00  0.00    -0.273 OA
ATOM      5  H   UNL     1      -2.941   0.331   0.593  1.00  0.00     0.163 HD
BRANCH   3   6
ATOM      6  C   UNL     1      -1.412   2.472   2.724  1.00  0.00     0.175 C 
ATOM      7  N   UNL     1      -0.001   2.010   2.735  1.00  0.00    -0.322 N 
ATOM      8  C   UNL     1       0.812   2.361   3.916  1.00  0.00     0.089 C 
ATOM      9  C   UNL     1      -2.112   2.216   4.085  1.00  0.00     0.036 C 
ATOM     10  C   UNL     1       0.113   1.944   5.208  1.00  0.00     0.012 C 
ATOM     11  C   UNL     1       1.218   3.846   3.887  1.00  0.00     0.025 C 
ATOM     12  C   UNL     1      -1.276   2.584   5.298  1.00  0.00     0.008 C 
ATOM     13  C   UNL     1       1.006   2.302   6.394  1.00  0.00     0.006 C 
ATOM     14  C   UNL     1       1.577   4.513   5.221  1.00  0.00     0.002 C 
ATOM     15  C   UNL     1       1.206   3.802   6.522  1.00  0.00     0.000 C 
BRANCH   7  16
ATOM     16  C   UNL     1       0.618   1.193   1.788  1.00  0.00     0.284 C 
ATOM     17  O   UNL     1       1.266   0.214   2.173  1.00  0.00    -0.268 OA
BRANCH  16  18
ATOM     18  C   UNL     1       0.703   1.527   0.298  1.00  0.00     0.174 C 
ATOM     19  C   UNL     1       0.962   2.974  -0.079  1.00  0.00     0.086 C 
ATOM     20  C   UNL     1      -0.262   2.278  -0.580  1.00  0.00     0.086 C 
BRANCH  18  21
ATOM     21  N   UNL     1       1.531   0.508  -0.431  1.00  0.00    -0.345 N 
ATOM     22  H   UNL     1       2.156   0.043   0.228  1.00  0.00     0.345 HD
ATOM     23  H   UNL     1       2.083   0.971  -1.153  1.00  0.00     0.345 HD
ATOM     24  H   UNL     1       0.918  -0.184  -0.862  1.00  0.00     0.345 HD
ENDBRANCH  18  21
ENDBRANCH  16  18
ENDBRANCH   7  16
ENDBRANCH   3   6
ENDBRANCH   1   2
BRANCH   1  25
ATOM     25  C   UNL     1      -2.994  -1.359   2.809  1.00  0.00     0.042 C 
BRANCH  25  26
ATOM     26  C   UNL     1      -3.954  -1.984   1.813  1.00  0.00     0.118 C 
BRANCH  26  27
ATOM     27  N   UNL     1      -3.294  -2.931   0.925  1.00  0.00    -0.352 N 
ATOM     28  C   UNL     1      -3.544  -4.266   0.745  1.00  0.00     0.251 C 
ATOM     29  H   UNL     1      -2.565  -2.560   0.378  1.00  0.00     0.163 HD
ATOM     30  O   UNL     1      -2.754  -4.963   0.112  1.00  0.00    -0.269 OA
BRANCH  28  31
ATOM     31  C   UNL     1      -4.757  -4.864   1.332  1.00  0.00     0.039 A 
ATOM     32  C   UNL     1      -4.665  -6.106   1.962  1.00  0.00     0.014 A 
ATOM     33  C   UNL     1      -5.980  -4.191   1.271  1.00  0.00     0.014 A 
ATOM     34  C   UNL     1      -5.792  -6.646   2.580  1.00  0.00     0.010 A 
ATOM     35  C   UNL     1      -7.071  -4.679   1.976  1.00  0.00     0.010 A 
ATOM     36  C   UNL     1      -6.994  -5.921   2.620  1.00  0.00    -0.014 A 
BRANCH  36  37
ATOM     37  C   UNL     1      -8.195  -6.457   3.305  1.00  0.00     0.031 A 
ATOM     38  C   UNL     1      -9.447  -6.730   2.518  1.00  0.00     0.074 A 
ATOM     39  C   UNL     1      -8.176  -6.642   4.639  1.00  0.00     0.049 A 
ATOM     40  N   UNL     1     -10.612  -7.150   2.940  1.00  0.00    -0.248 NA
ATOM     41  C   UNL     1      -9.393  -6.470   1.069  1.00  0.00     0.031 C 
ATOM     42  C   UNL     1      -7.036  -6.373   5.519  1.00  0.00     0.029 A 
ATOM     43  N   UNL     1      -9.150  -7.099   5.489  1.00  0.00    -0.354 N 
ATOM     44  C   UNL     1     -11.429  -7.186   1.817  1.00  0.00     0.074 A 
ATOM     45  C   UNL     1     -10.648  -6.687   0.708  1.00  0.00     0.031 C 
ATOM     46  C   UNL     1      -7.365  -6.706   6.777  1.00  0.00     0.029 A 
ATOM     47  C   UNL     1      -8.749  -7.165   6.801  1.00  0.00     0.049 A 
ATOM     48  H   UNL     1     -10.052  -7.356   5.188  1.00  0.00     0.167 HD
ATOM     49  C   UNL     1     -12.707  -7.618   1.711  1.00  0.00     0.031 A 
ATOM     50  C   UNL     1      -9.424  -7.550   7.901  1.00  0.00     0.031 A 
ATOM     51  C   UNL     1     -13.478  -8.124   2.814  1.00  0.00     0.049 A 
ATOM     52  C   UNL     1     -10.848  -8.009   7.760  1.00  0.00     0.074 A 
ATOM     53  C   UNL     1     -14.763  -8.637   2.804  1.00  0.00     0.029 A 
ATOM     54  N   UNL     1     -13.034  -8.178   4.127  1.00  0.00    -0.354 N 
ATOM     55  N   UNL     1     -11.585  -8.102   6.679  1.00  0.00    -0.248 NA
ATOM     56  C   UNL     1     -11.530  -8.429   8.992  1.00  0.00     0.031 C 
ATOM     57  C   UNL     1     -15.118  -8.947   4.121  1.00  0.00     0.029 A 
ATOM     58  C   UNL     1     -14.029  -8.691   4.940  1.00  0.00     0.049 A 
ATOM     59  H   UNL     1     -12.143  -7.893   4.434  1.00  0.00     0.167 HD
ATOM     60  C   UNL     1     -12.803  -8.623   7.095  1.00  0.00     0.074 A 
ATOM     61  C   UNL     1     -12.700  -8.840   8.523  1.00  0.00     0.031 C 
ATOM     62  C   UNL     1     -13.908  -8.900   6.360  1.00  0.00     0.031 A 
BRANCH  49  63
ATOM     63  C   UNL     1     -13.351  -7.553   0.353  1.00  0.00    -0.014 A 
ATOM     64  C   UNL     1     -12.924  -8.382  -0.698  1.00  0.00     0.009 A 
ATOM     65  C   UNL     1     -14.418  -6.670   0.128  1.00  0.00     0.009 A 
ATOM     66  C   UNL     1     -13.526  -8.298  -1.956  1.00  0.00     0.001 A 
ATOM     67  C   UNL     1     -15.039  -6.612  -1.121  1.00  0.00     0.001 A 
ATOM     68  C   UNL     1     -14.586  -7.417  -2.164  1.00  0.00     0.000 A 
ENDBRANCH  49  63
BRANCH  50  69
ATOM     69  C   UNL     1      -8.757  -7.534   9.230  1.00  0.00    -0.014 A 
ATOM     70  C   UNL     1      -8.458  -8.735   9.892  1.00  0.00     0.009 A 
ATOM     71  C   UNL     1      -8.424  -6.319   9.848  1.00  0.00     0.009 A 
ATOM     72  C   UNL     1      -7.870  -8.719  11.159  1.00  0.00     0.001 A 
ATOM     73  C   UNL     1      -7.807  -6.306  11.101  1.00  0.00     0.001 A 
ATOM     74  C   UNL     1      -7.541  -7.505  11.760  1.00  0.00     0.000 A 
ENDBRANCH  50  69
BRANCH  62  75
ATOM     75  C   UNL     1     -15.078  -9.511   7.080  1.00  0.00    -0.014 A 
ATOM     76  C   UNL     1     -15.853  -8.768   7.985  1.00  0.00     0.009 A 
ATOM     77  C   UNL     1     -15.432 -10.844   6.816  1.00  0.00     0.009 A 
ATOM     78  C   UNL     1     -16.935  -9.361   8.639  1.00  0.00     0.001 A 
ATOM     79  C   UNL     1     -16.534 -11.423   7.446  1.00  0.00     0.001 A 
ATOM     80  C   UNL     1     -17.277 -10.685   8.365  1.00  0.00     0.000 A 
ENDBRANCH  62  75
ENDBRANCH  36  37
ENDBRANCH  28  31
ENDBRANCH  26  27
ENDBRANCH  25  26
ENDBRANCH   1  25
TORSDOF 13
