REMARK SMILES [NH3+][C@@H](Cc1ccc(F)cc1C(F)(F)F)C(=O)NCCCNC(=O)c1ccc(-c2c3nc(c(-c4ccccc4)c4ccc([nH]4)c(-c4ccccc4)c4nc(c(-c5ccccc5)c5ccc2[nH]5)C=C4)C=C3)cc1
REMARK SMILES IDX 18 1 17 2 15 3 16 4 2 6 1 7 3 11 4 12 5 13 10 14 6 15 9 16
REMARK SMILES IDX 7 17 8 18 11 19 12 20 13 21 14 22 19 23 20 24 21 25 22 26
REMARK SMILES IDX 23 28 24 29 25 30 71 31 26 32 70 33 27 34 28 35 29 36 64 37
REMARK SMILES IDX 30 38 69 39 63 40 65 41 31 42 68 43 62 44 61 45 32 47 54 48
REMARK SMILES IDX 39 49 53 50 40 51 43 52 52 53 66 54 41 55 42 56 51 58 67 59
REMARK SMILES IDX 44 60 33 61 34 62 38 63 35 64 37 65 36 66 55 67 56 68 60 69
REMARK SMILES IDX 57 70 59 71 58 72 45 73 46 74 50 75 47 76 49 77 48 78
REMARK H PARENT 17 5 1 8 1 9 1 10 21 27 65 46 43 57
REMARK Flexibility Score: inf
ROOT
ATOM      1  C   UNL     1      -1.445  -0.567   1.631  1.00  0.00     0.118 C 
ENDROOT
BRANCH   1   2
ATOM      2  N   UNL     1      -1.823  -1.136   0.366  1.00  0.00    -0.351 N 
ATOM      3  C   UNL     1      -1.015  -1.797  -0.521  1.00  0.00     0.278 C 
ATOM      4  O   UNL     1      -1.571  -2.519  -1.355  1.00  0.00    -0.268 OA
ATOM      5  H   UNL     1      -2.769  -1.040   0.109  1.00  0.00     0.163 HD
BRANCH   3   6
ATOM      6  C   UNL     1       0.531  -1.632  -0.519  1.00  0.00     0.275 C 
BRANCH   6   7
ATOM      7  N   UNL     1       0.910  -0.221  -0.724  1.00  0.00    -0.347 N 
ATOM      8  H   UNL     1       1.926  -0.138  -0.719  1.00  0.00     0.345 HD
ATOM      9  H   UNL     1       0.518   0.348   0.027  1.00  0.00     0.345 HD
ATOM     10  H   UNL     1       0.546   0.102  -1.620  1.00  0.00     0.345 HD
ENDBRANCH   6   7
BRANCH   6  11
ATOM     11  C   UNL     1       1.348  -2.430   0.536  1.00  0.00     0.111 C 
BRANCH  11  12
ATOM     12  C   UNL     1       1.174  -2.213   2.033  1.00  0.00    -0.029 A 
ATOM     13  C   UNL     1       0.438  -3.191   2.742  1.00  0.00     0.007 A 
ATOM     14  C   UNL     1       1.671  -1.089   2.748  1.00  0.00     0.062 A 
ATOM     15  C   UNL     1       0.137  -3.035   4.097  1.00  0.00     0.039 A 
ATOM     16  C   UNL     1       1.331  -0.944   4.112  1.00  0.00     0.052 A 
ATOM     17  C   UNL     1       0.571  -1.904   4.764  1.00  0.00     0.123 A 
ATOM     18  F   UNL     1       0.241  -1.722   6.049  1.00  0.00    -0.207 F 
BRANCH  14  19
ATOM     19  C   UNL     1       2.435   0.057   2.119  1.00  0.00     0.416 C 
ATOM     20  F   UNL     1       1.590   1.030   1.669  1.00  0.00    -0.166 F 
ATOM     21  F   UNL     1       3.275   0.683   2.990  1.00  0.00    -0.166 F 
ATOM     22  F   UNL     1       3.203  -0.294   1.054  1.00  0.00    -0.166 F 
ENDBRANCH  14  19
ENDBRANCH  11  12
ENDBRANCH   6  11
ENDBRANCH   3   6
ENDBRANCH   1   2
BRANCH   1  23
ATOM     23  C   UNL     1      -2.055   0.765   1.991  1.00  0.00     0.042 C 
BRANCH  23  24
ATOM     24  C   UNL     1      -3.502   0.689   2.434  1.00  0.00     0.118 C 
BRANCH  24  25
ATOM     25  N   UNL     1      -3.713  -0.138   3.619  1.00  0.00    -0.352 N 
ATOM     26  C   UNL     1      -4.100   0.164   4.906  1.00  0.00     0.251 C 
ATOM     27  H   UNL     1      -3.548  -1.096   3.469  1.00  0.00     0.163 HD
ATOM     28  O   UNL     1      -4.103  -0.724   5.749  1.00  0.00    -0.269 OA
BRANCH  26  29
ATOM     29  C   UNL     1      -4.473   1.544   5.297  1.00  0.00     0.039 A 
ATOM     30  C   UNL     1      -4.149   1.995   6.581  1.00  0.00     0.014 A 
ATOM     31  C   UNL     1      -5.146   2.395   4.425  1.00  0.00     0.014 A 
ATOM     32  C   UNL     1      -4.410   3.321   6.942  1.00  0.00     0.010 A 
ATOM     33  C   UNL     1      -5.278   3.744   4.731  1.00  0.00     0.010 A 
ATOM     34  C   UNL     1      -4.924   4.224   5.998  1.00  0.00    -0.014 A 
BRANCH  34  35
ATOM     35  C   UNL     1      -5.112   5.665   6.307  1.00  0.00     0.031 A 
ATOM     36  C   UNL     1      -6.473   6.298   6.173  1.00  0.00     0.074 A 
ATOM     37  C   UNL     1      -4.045   6.427   6.621  1.00  0.00     0.049 A 
ATOM     38  N   UNL     1      -6.817   7.555   6.305  1.00  0.00    -0.248 NA
ATOM     39  C   UNL     1      -7.589   5.410   5.803  1.00  0.00     0.031 C 
ATOM     40  C   UNL     1      -2.661   5.956   6.722  1.00  0.00     0.029 A 
ATOM     41  N   UNL     1      -3.958   7.766   6.908  1.00  0.00    -0.354 N 
ATOM     42  C   UNL     1      -8.172   7.609   6.000  1.00  0.00     0.074 A 
ATOM     43  C   UNL     1      -8.575   6.274   5.620  1.00  0.00     0.031 C 
ATOM     44  C   UNL     1      -1.873   6.978   7.089  1.00  0.00     0.029 A 
ATOM     45  C   UNL     1      -2.684   8.185   7.206  1.00  0.00     0.049 A 
ATOM     46  H   UNL     1      -4.736   8.370   6.902  1.00  0.00     0.167 HD
ATOM     47  C   UNL     1      -9.015   8.667   6.056  1.00  0.00     0.031 A 
ATOM     48  C   UNL     1      -2.219   9.404   7.536  1.00  0.00     0.031 A 
ATOM     49  C   UNL     1      -8.626   9.987   6.471  1.00  0.00     0.049 A 
ATOM     50  C   UNL     1      -3.179  10.556   7.622  1.00  0.00     0.074 A 
ATOM     51  C   UNL     1      -9.419  11.109   6.633  1.00  0.00     0.029 A 
ATOM     52  N   UNL     1      -7.331  10.359   6.797  1.00  0.00    -0.354 N 
ATOM     53  N   UNL     1      -4.470  10.574   7.397  1.00  0.00    -0.248 NA
ATOM     54  C   UNL     1      -2.617  11.854   8.020  1.00  0.00     0.031 C 
ATOM     55  C   UNL     1      -8.596  12.173   7.019  1.00  0.00     0.029 A 
ATOM     56  C   UNL     1      -7.300  11.698   7.145  1.00  0.00     0.049 A 
ATOM     57  H   UNL     1      -6.550   9.760   6.782  1.00  0.00     0.167 HD
ATOM     58  C   UNL     1      -4.880  11.876   7.652  1.00  0.00     0.074 A 
ATOM     59  C   UNL     1      -3.703  12.612   8.066  1.00  0.00     0.031 C 
ATOM     60  C   UNL     1      -6.120  12.414   7.553  1.00  0.00     0.031 A 
BRANCH  47  61
ATOM     61  C   UNL     1     -10.448   8.431   5.663  1.00  0.00    -0.014 A 
ATOM     62  C   UNL     1     -11.303   7.655   6.463  1.00  0.00     0.009 A 
ATOM     63  C   UNL     1     -10.956   9.009   4.490  1.00  0.00     0.009 A 
ATOM     64  C   UNL     1     -12.625   7.429   6.074  1.00  0.00     0.001 A 
ATOM     65  C   UNL     1     -12.287   8.808   4.120  1.00  0.00     0.001 A 
ATOM     66  C   UNL     1     -13.117   8.009   4.905  1.00  0.00     0.000 A 
ENDBRANCH  47  61
BRANCH  48  67
ATOM     67  C   UNL     1      -0.777   9.593   7.845  1.00  0.00    -0.014 A 
ATOM     68  C   UNL     1      -0.361   9.826   9.165  1.00  0.00     0.009 A 
ATOM     69  C   UNL     1       0.188   9.543   6.827  1.00  0.00     0.009 A 
ATOM     70  C   UNL     1       0.989  10.033   9.455  1.00  0.00     0.001 A 
ATOM     71  C   UNL     1       1.540   9.722   7.125  1.00  0.00     0.001 A 
ATOM     72  C   UNL     1       1.939   9.976   8.437  1.00  0.00     0.000 A 
ENDBRANCH  48  67
BRANCH  60  73
ATOM     73  C   UNL     1      -6.269  13.859   7.932  1.00  0.00    -0.014 A 
ATOM     74  C   UNL     1      -5.776  14.883   7.109  1.00  0.00     0.009 A 
ATOM     75  C   UNL     1      -6.941  14.199   9.117  1.00  0.00     0.009 A 
ATOM     76  C   UNL     1      -5.922  16.220   7.485  1.00  0.00     0.001 A 
ATOM     77  C   UNL     1      -7.110  15.537   9.475  1.00  0.00     0.001 A 
ATOM     78  C   UNL     1      -6.592  16.545   8.664  1.00  0.00     0.000 A 
ENDBRANCH  60  73
ENDBRANCH  34  35
ENDBRANCH  26  29
ENDBRANCH  24  25
ENDBRANCH  23  24
ENDBRANCH   1  23
TORSDOF 14
