REMARK SMILES Cc1ccc(NC(=O)C[C@@H](C(=O)NCCCNC(=O)c2ccc(-c3c4nc(c(-c5ccccc5)c5ccc([nH]5)c(-c5ccccc5)c5nc(c(-c6ccccc6)c6ccc3[nH]6)C=C5)C=C4)cc2)[NH+]2CCOCC2)cc1
REMARK SMILES IDX 14 1 13 2 11 3 12 4 10 6 9 7 7 8 6 9 8 11 5 12 1 13 2 14
REMARK SMILES IDX 3 15 75 16 4 17 74 18 68 19 69 20 73 21 70 23 72 24 71 25
REMARK SMILES IDX 15 26 16 27 17 28 18 29 19 31 20 32 21 33 67 34 22 35 66 36
REMARK SMILES IDX 23 37 24 38 25 39 60 40 26 41 65 42 59 43 61 44 27 45 64 46
REMARK SMILES IDX 58 47 57 48 28 50 50 51 35 52 49 53 36 54 39 55 48 56 62 57
REMARK SMILES IDX 37 58 38 59 47 61 63 62 40 63 29 64 30 65 34 66 31 67 33 68
REMARK SMILES IDX 32 69 51 70 52 71 56 72 53 73 55 74 54 75 41 76 42 77 46 78
REMARK SMILES IDX 43 79 45 80 44 81
REMARK H PARENT 13 5 6 10 68 22 17 30 61 49 39 60
REMARK Flexibility Score: inf
ROOT
ATOM      1  C   UNL     1      -4.100  -0.148  -2.222  1.00  0.00     0.118 C 
ENDROOT
BRANCH   1   2
ATOM      2  N   UNL     1      -2.686  -0.234  -1.926  1.00  0.00    -0.351 N 
ATOM      3  C   UNL     1      -1.851  -1.295  -1.752  1.00  0.00     0.278 C 
ATOM      4  O   UNL     1      -0.652  -1.019  -1.877  1.00  0.00    -0.268 OA
ATOM      5  H   UNL     1      -2.244   0.641  -1.833  1.00  0.00     0.163 HD
BRANCH   3   6
ATOM      6  C   UNL     1      -2.362  -2.751  -1.474  1.00  0.00     0.283 C 
BRANCH   6   7
ATOM      7  C   UNL     1      -2.897  -2.969  -0.040  1.00  0.00     0.175 C 
BRANCH   7   8
ATOM      8  C   UNL     1      -3.418  -1.806   0.766  1.00  0.00     0.230 C 
ATOM      9  N   UNL     1      -2.615  -0.843   1.299  1.00  0.00    -0.326 N 
ATOM     10  H   UNL     1      -3.097  -0.151   1.807  1.00  0.00     0.169 HD
ATOM     11  O   UNL     1      -4.638  -1.702   0.948  1.00  0.00    -0.274 OA
BRANCH   9  12
ATOM     12  C   UNL     1      -1.223  -0.658   1.256  1.00  0.00     0.041 A 
ATOM     13  C   UNL     1       2.873   0.180   0.246  1.00  0.00     0.044 C 
ATOM     14  C   UNL     1       1.479  -0.090   0.724  1.00  0.00    -0.051 A 
ATOM     15  C   UNL     1       1.053  -1.407   0.909  1.00  0.00     0.005 A 
ATOM     16  C   UNL     1       0.564   0.947   0.915  1.00  0.00     0.005 A 
ATOM     17  C   UNL     1      -0.287  -1.687   1.188  1.00  0.00     0.026 A 
ATOM     18  C   UNL     1      -0.774   0.665   1.201  1.00  0.00     0.026 A 
ENDBRANCH   9  12
ENDBRANCH   7   8
ENDBRANCH   6   7
BRANCH   6  19
ATOM     19  N   UNL     1      -1.263  -3.723  -1.798  1.00  0.00    -0.320 N 
ATOM     20  C   UNL     1      -0.840  -3.714  -3.217  1.00  0.00     0.291 C 
ATOM     21  C   UNL     1      -1.384  -5.121  -1.348  1.00  0.00     0.291 C 
ATOM     22  H   UNL     1      -0.542  -3.318  -1.201  1.00  0.00     0.348 HD
ATOM     23  C   UNL     1      -1.643  -4.666  -4.119  1.00  0.00     0.221 C 
ATOM     24  C   UNL     1      -2.167  -6.042  -2.291  1.00  0.00     0.221 C 
ATOM     25  O   UNL     1      -1.631  -6.005  -3.616  1.00  0.00    -0.370 OA
ENDBRANCH   6  19
ENDBRANCH   3   6
ENDBRANCH   1   2
BRANCH   1  26
ATOM     26  C   UNL     1      -4.890   0.781  -1.296  1.00  0.00     0.042 C 
BRANCH  26  27
ATOM     27  C   UNL     1      -4.269   2.157  -1.045  1.00  0.00     0.118 C 
BRANCH  27  28
ATOM     28  N   UNL     1      -5.226   3.251  -1.223  1.00  0.00    -0.352 N 
ATOM     29  C   UNL     1      -5.122   4.588  -0.895  1.00  0.00     0.251 C 
ATOM     30  H   UNL     1      -6.077   2.992  -1.644  1.00  0.00     0.163 HD
ATOM     31  O   UNL     1      -5.956   5.389  -1.309  1.00  0.00    -0.269 OA
BRANCH  29  32
ATOM     32  C   UNL     1      -3.943   5.074  -0.148  1.00  0.00     0.039 A 
ATOM     33  C   UNL     1      -3.254   6.183  -0.649  1.00  0.00     0.014 A 
ATOM     34  C   UNL     1      -3.434   4.359   0.933  1.00  0.00     0.014 A 
ATOM     35  C   UNL     1      -1.942   6.410  -0.243  1.00  0.00     0.010 A 
ATOM     36  C   UNL     1      -2.109   4.538   1.287  1.00  0.00     0.010 A 
ATOM     37  C   UNL     1      -1.342   5.508   0.636  1.00  0.00    -0.014 A 
BRANCH  37  38
ATOM     38  C   UNL     1       0.105   5.420   0.789  1.00  0.00     0.031 A 
ATOM     39  C   UNL     1       0.789   5.981   1.964  1.00  0.00     0.074 A 
ATOM     40  C   UNL     1       0.839   4.805  -0.165  1.00  0.00     0.049 A 
ATOM     41  N   UNL     1       2.006   6.416   1.946  1.00  0.00    -0.248 NA
ATOM     42  C   UNL     1       0.134   6.137   3.254  1.00  0.00     0.031 C 
ATOM     43  C   UNL     1       2.250   4.433  -0.105  1.00  0.00     0.029 A 
ATOM     44  N   UNL     1       0.478   4.585  -1.494  1.00  0.00    -0.354 N 
ATOM     45  C   UNL     1       2.388   6.609   3.251  1.00  0.00     0.074 A 
ATOM     46  C   UNL     1       1.162   6.523   4.016  1.00  0.00     0.031 C 
ATOM     47  C   UNL     1       2.708   4.280  -1.357  1.00  0.00     0.029 A 
ATOM     48  C   UNL     1       1.651   4.692  -2.265  1.00  0.00     0.049 A 
ATOM     49  H   UNL     1      -0.426   4.392  -1.830  1.00  0.00     0.167 HD
ATOM     50  C   UNL     1       3.713   6.673   3.563  1.00  0.00     0.031 A 
ATOM     51  C   UNL     1       1.767   5.662  -3.218  1.00  0.00     0.031 A 
ATOM     52  C   UNL     1       4.576   6.599   2.382  1.00  0.00     0.049 A 
ATOM     53  C   UNL     1       2.862   6.678  -2.954  1.00  0.00     0.074 A 
ATOM     54  C   UNL     1       5.397   5.619   1.845  1.00  0.00     0.029 A 
ATOM     55  N   UNL     1       4.465   7.576   1.406  1.00  0.00    -0.354 N 
ATOM     56  N   UNL     1       3.621   6.690  -1.894  1.00  0.00    -0.248 NA
ATOM     57  C   UNL     1       3.109   7.831  -3.824  1.00  0.00     0.031 C 
ATOM     58  C   UNL     1       5.787   6.029   0.538  1.00  0.00     0.029 A 
ATOM     59  C   UNL     1       5.208   7.257   0.286  1.00  0.00     0.049 A 
ATOM     60  H   UNL     1       3.926   8.394   1.499  1.00  0.00     0.167 HD
ATOM     61  C   UNL     1       4.379   7.830  -1.889  1.00  0.00     0.074 A 
ATOM     62  C   UNL     1       4.034   8.510  -3.123  1.00  0.00     0.031 C 
ATOM     63  C   UNL     1       5.197   8.162  -0.850  1.00  0.00     0.031 A 
BRANCH  50  64
ATOM     64  C   UNL     1       4.232   6.538   4.976  1.00  0.00    -0.014 A 
ATOM     65  C   UNL     1       5.515   6.005   5.202  1.00  0.00     0.009 A 
ATOM     66  C   UNL     1       3.498   6.872   6.127  1.00  0.00     0.009 A 
ATOM     67  C   UNL     1       5.986   5.713   6.489  1.00  0.00     0.001 A 
ATOM     68  C   UNL     1       3.942   6.545   7.416  1.00  0.00     0.001 A 
ATOM     69  C   UNL     1       5.183   5.951   7.596  1.00  0.00     0.000 A 
ENDBRANCH  50  64
BRANCH  51  70
ATOM     70  C   UNL     1       0.481   5.969  -3.903  1.00  0.00    -0.014 A 
ATOM     71  C   UNL     1      -0.096   4.976  -4.720  1.00  0.00     0.009 A 
ATOM     72  C   UNL     1      -0.316   7.045  -3.491  1.00  0.00     0.009 A 
ATOM     73  C   UNL     1      -1.461   5.003  -5.023  1.00  0.00     0.001 A 
ATOM     74  C   UNL     1      -1.680   7.074  -3.807  1.00  0.00     0.001 A 
ATOM     75  C   UNL     1      -2.257   6.037  -4.541  1.00  0.00     0.000 A 
ENDBRANCH  51  70
BRANCH  63  76
ATOM     76  C   UNL     1       6.049   9.399  -0.813  1.00  0.00    -0.014 A 
ATOM     77  C   UNL     1       6.770   9.854  -1.925  1.00  0.00     0.009 A 
ATOM     78  C   UNL     1       6.254  10.077   0.406  1.00  0.00     0.009 A 
ATOM     79  C   UNL     1       7.615  10.968  -1.834  1.00  0.00     0.001 A 
ATOM     80  C   UNL     1       7.112  11.174   0.507  1.00  0.00     0.001 A 
ATOM     81  C   UNL     1       7.786  11.627  -0.618  1.00  0.00     0.000 A 
ENDBRANCH  63  76
ENDBRANCH  37  38
ENDBRANCH  29  32
ENDBRANCH  27  28
ENDBRANCH  26  27
ENDBRANCH   1  26
TORSDOF 14
