REMARK SMILES C[C@H](C(=O)Nc1ccc(C(F)(F)F)cc1)n1nc(C(=O)NCCCNC(=O)c2ccc(-c3c4nc(c(-c5ccccc5)c5ccc([nH]5)c(-c5ccccc5)c5nc(c(-c6ccccc6)c6ccc3[nH]6)C=C5)C=C4)cc2)c2ccccc2c1=O
REMARK SMILES IDX 22 1 21 2 19 3 20 4 18 6 16 7 17 8 82 9 81 10 83 11 76 12
REMARK SMILES IDX 80 13 77 14 79 15 78 16 2 17 1 18 3 19 4 20 5 21 6 23 7 24
REMARK SMILES IDX 15 25 8 26 14 27 9 28 10 29 11 30 12 31 13 32 23 33 24 34
REMARK SMILES IDX 25 35 26 36 27 38 28 39 29 40 75 41 30 42 74 43 31 44 32 45
REMARK SMILES IDX 33 46 68 47 34 48 73 49 67 50 69 51 35 52 72 53 66 54 65 55
REMARK SMILES IDX 36 57 58 58 43 59 57 60 44 61 47 62 56 63 70 64 45 65 46 66
REMARK SMILES IDX 55 68 71 69 48 70 37 71 38 72 42 73 39 74 41 75 40 76 59 77
REMARK SMILES IDX 60 78 64 79 61 80 63 81 62 82 49 83 50 84 54 85 51 86 53 87
REMARK SMILES IDX 52 88
REMARK H PARENT 21 5 5 22 25 37 69 56 47 67
REMARK Flexibility Score: inf
ROOT
ATOM      1  C   UNL     1      -2.776   2.456  -1.664  1.00  0.00     0.118 C 
ENDROOT
BRANCH   1   2
ATOM      2  N   UNL     1      -3.790   1.921  -2.558  1.00  0.00    -0.351 N 
ATOM      3  C   UNL     1      -3.866   0.626  -3.048  1.00  0.00     0.272 C 
ATOM      4  O   UNL     1      -4.594   0.343  -3.972  1.00  0.00    -0.267 OA
ATOM      5  H   UNL     1      -4.497   2.543  -2.845  1.00  0.00     0.163 HD
BRANCH   3   6
ATOM      6  C   UNL     1      -3.030  -0.446  -2.332  1.00  0.00     0.156 A 
ATOM      7  N   UNL     1      -1.077  -0.886  -1.162  1.00  0.00    -0.216 N 
ATOM      8  N   UNL     1      -1.804  -0.130  -2.048  1.00  0.00    -0.163 NA
ATOM      9  C   UNL     1      -1.537  -2.085  -0.635  1.00  0.00     0.275 A 
ATOM     10  C   UNL     1      -2.923  -2.471  -0.991  1.00  0.00     0.051 A 
ATOM     11  O   UNL     1      -0.899  -2.787   0.142  1.00  0.00    -0.267 OA
ATOM     12  C   UNL     1      -3.657  -1.696  -1.885  1.00  0.00     0.020 A 
ATOM     13  C   UNL     1      -3.508  -3.605  -0.411  1.00  0.00     0.014 A 
ATOM     14  C   UNL     1      -4.934  -2.110  -2.285  1.00  0.00     0.011 A 
ATOM     15  C   UNL     1      -4.799  -3.991  -0.776  1.00  0.00     0.001 A 
ATOM     16  C   UNL     1      -5.499  -3.261  -1.733  1.00  0.00     0.001 A 
BRANCH   7  17
ATOM     17  C   UNL     1       0.268  -0.354  -0.877  1.00  0.00     0.197 C 
ATOM     18  C   UNL     1       1.257  -0.689  -1.992  1.00  0.00     0.044 C 
BRANCH  17  19
ATOM     19  C   UNL     1       0.898  -0.569   0.524  1.00  0.00     0.249 C 
ATOM     20  O   UNL     1       1.929  -1.233   0.679  1.00  0.00    -0.272 OA
ATOM     21  N   UNL     1       0.438   0.150   1.603  1.00  0.00    -0.324 N 
ATOM     22  H   UNL     1       1.035   0.184   2.385  1.00  0.00     0.170 HD
BRANCH  21  23
ATOM     23  C   UNL     1      -0.768   0.836   1.726  1.00  0.00     0.041 A 
ATOM     24  C   UNL     1      -0.770   2.223   1.863  1.00  0.00     0.027 A 
ATOM     25  C   UNL     1      -1.958   0.120   1.835  1.00  0.00     0.027 A 
ATOM     26  C   UNL     1      -1.986   2.904   1.991  1.00  0.00     0.015 A 
ATOM     27  C   UNL     1      -3.169   0.795   1.978  1.00  0.00     0.015 A 
ATOM     28  C   UNL     1      -3.200   2.197   2.025  1.00  0.00     0.056 A 
BRANCH  28  29
ATOM     29  C   UNL     1      -4.530   2.911   2.055  1.00  0.00     0.416 C 
ATOM     30  F   UNL     1      -5.343   2.480   3.056  1.00  0.00    -0.166 F 
ATOM     31  F   UNL     1      -4.422   4.259   2.203  1.00  0.00    -0.166 F 
ATOM     32  F   UNL     1      -5.224   2.722   0.897  1.00  0.00    -0.166 F 
ENDBRANCH  28  29
ENDBRANCH  21  23
ENDBRANCH  17  19
ENDBRANCH   7  17
ENDBRANCH   3   6
ENDBRANCH   1   2
BRANCH   1  33
ATOM     33  C   UNL     1      -1.507   2.804  -2.443  1.00  0.00     0.042 C 
BRANCH  33  34
ATOM     34  C   UNL     1      -1.529   4.238  -2.929  1.00  0.00     0.118 C 
BRANCH  34  35
ATOM     35  N   UNL     1      -1.106   5.163  -1.886  1.00  0.00    -0.352 N 
ATOM     36  C   UNL     1      -0.301   6.270  -2.015  1.00  0.00     0.251 C 
ATOM     37  H   UNL     1      -1.437   4.972  -0.979  1.00  0.00     0.163 HD
ATOM     38  O   UNL     1       0.130   6.844  -1.021  1.00  0.00    -0.269 OA
BRANCH  36  39
ATOM     39  C   UNL     1       0.070   6.729  -3.371  1.00  0.00     0.039 A 
ATOM     40  C   UNL     1       1.403   7.043  -3.647  1.00  0.00     0.014 A 
ATOM     41  C   UNL     1      -0.891   6.787  -4.383  1.00  0.00     0.014 A 
ATOM     42  C   UNL     1       1.783   7.343  -4.957  1.00  0.00     0.010 A 
ATOM     43  C   UNL     1      -0.496   6.994  -5.697  1.00  0.00     0.010 A 
ATOM     44  C   UNL     1       0.845   7.277  -6.000  1.00  0.00    -0.014 A 
BRANCH  44  45
ATOM     45  C   UNL     1       1.225   7.503  -7.417  1.00  0.00     0.031 A 
ATOM     46  C   UNL     1       0.588   8.626  -8.191  1.00  0.00     0.074 A 
ATOM     47  C   UNL     1       2.058   6.644  -8.036  1.00  0.00     0.049 A 
ATOM     48  N   UNL     1       0.674   8.903  -9.466  1.00  0.00    -0.248 NA
ATOM     49  C   UNL     1      -0.294   9.532  -7.436  1.00  0.00     0.031 C 
ATOM     50  C   UNL     1       2.706   5.487  -7.414  1.00  0.00     0.029 A 
ATOM     51  N   UNL     1       2.491   6.605  -9.338  1.00  0.00    -0.354 N 
ATOM     52  C   UNL     1      -0.170   9.987  -9.672  1.00  0.00     0.074 A 
ATOM     53  C   UNL     1      -0.794  10.287  -8.402  1.00  0.00     0.031 C 
ATOM     54  C   UNL     1       3.473   4.869  -8.327  1.00  0.00     0.029 A 
ATOM     55  C   UNL     1       3.336   5.556  -9.607  1.00  0.00     0.049 A 
ATOM     56  H   UNL     1       2.222   7.267 -10.015  1.00  0.00     0.167 HD
ATOM     57  C   UNL     1      -0.394  10.684 -10.811  1.00  0.00     0.031 A 
ATOM     58  C   UNL     1       3.927   5.182 -10.758  1.00  0.00     0.031 A 
ATOM     59  C   UNL     1       0.254  10.410 -12.064  1.00  0.00     0.049 A 
ATOM     60  C   UNL     1       3.679   5.984 -12.005  1.00  0.00     0.074 A 
ATOM     61  C   UNL     1       0.152  11.104 -13.257  1.00  0.00     0.029 A 
ATOM     62  N   UNL     1       1.131   9.360 -12.283  1.00  0.00    -0.354 N 
ATOM     63  N   UNL     1       2.925   7.043 -12.169  1.00  0.00    -0.248 NA
ATOM     64  C   UNL     1       4.369   5.540 -13.224  1.00  0.00     0.031 C 
ATOM     65  C   UNL     1       0.940  10.450 -14.210  1.00  0.00     0.029 A 
ATOM     66  C   UNL     1       1.567   9.377 -13.597  1.00  0.00     0.049 A 
ATOM     67  H   UNL     1       1.404   8.700 -11.605  1.00  0.00     0.167 HD
ATOM     68  C   UNL     1       3.071   7.409 -13.500  1.00  0.00     0.074 A 
ATOM     69  C   UNL     1       3.995   6.466 -14.096  1.00  0.00     0.031 C 
ATOM     70  C   UNL     1       2.493   8.436 -14.169  1.00  0.00     0.031 A 
BRANCH  57  71
ATOM     71  C   UNL     1      -1.385  11.812 -10.747  1.00  0.00    -0.014 A 
ATOM     72  C   UNL     1      -1.098  12.995 -10.047  1.00  0.00     0.009 A 
ATOM     73  C   UNL     1      -2.615  11.699 -11.415  1.00  0.00     0.009 A 
ATOM     74  C   UNL     1      -2.039  14.024  -9.982  1.00  0.00     0.001 A 
ATOM     75  C   UNL     1      -3.541  12.742 -11.373  1.00  0.00     0.001 A 
ATOM     76  C   UNL     1      -3.258  13.899 -10.648  1.00  0.00     0.000 A 
ENDBRANCH  57  71
BRANCH  58  77
ATOM     77  C   UNL     1       4.828   4.001 -10.783  1.00  0.00    -0.014 A 
ATOM     78  C   UNL     1       6.214   4.171 -10.919  1.00  0.00     0.009 A 
ATOM     79  C   UNL     1       4.311   2.701 -10.675  1.00  0.00     0.009 A 
ATOM     80  C   UNL     1       7.062   3.062 -10.972  1.00  0.00     0.001 A 
ATOM     81  C   UNL     1       5.164   1.595 -10.701  1.00  0.00     0.001 A 
ATOM     82  C   UNL     1       6.537   1.776 -10.859  1.00  0.00     0.000 A 
ENDBRANCH  58  77
BRANCH  70  83
ATOM     83  C   UNL     1       2.870   8.618 -15.611  1.00  0.00    -0.014 A 
ATOM     84  C   UNL     1       2.375   7.762 -16.606  1.00  0.00     0.009 A 
ATOM     85  C   UNL     1       3.687   9.697 -15.982  1.00  0.00     0.009 A 
ATOM     86  C   UNL     1       2.711   7.971 -17.945  1.00  0.00     0.001 A 
ATOM     87  C   UNL     1       4.000   9.919 -17.323  1.00  0.00     0.001 A 
ATOM     88  C   UNL     1       3.518   9.052 -18.302  1.00  0.00     0.000 A 
ENDBRANCH  70  83
ENDBRANCH  44  45
ENDBRANCH  36  39
ENDBRANCH  34  35
ENDBRANCH  33  34
ENDBRANCH   1  33
TORSDOF 14
