REMARK SMILES CC(C)(C[NH2+]Cc1ccc2c(c1)OCO2)C(=O)NCCCNC(=O)c1ccc(-c2c3nc(c(-c4ccccc4)c4ccc([nH]4)c(-c4ccccc4)c4nc(c(-c5ccccc5)c5ccc2[nH]5)C=C4)C=C3)cc1
REMARK SMILES IDX 19 1 18 2 16 3 17 4 2 6 1 7 3 8 4 9 5 10 6 13 7 14 8 15
REMARK SMILES IDX 12 16 9 17 11 18 10 19 13 20 15 21 14 22 20 23 21 24 22 25
REMARK SMILES IDX 23 26 24 28 25 29 26 30 72 31 27 32 71 33 28 34 29 35 30 36
REMARK SMILES IDX 65 37 31 38 70 39 64 40 66 41 32 42 69 43 63 44 62 45 33 47
REMARK SMILES IDX 55 48 40 49 54 50 41 51 44 52 53 53 67 54 42 55 43 56 52 58
REMARK SMILES IDX 68 59 45 60 34 61 35 62 39 63 36 64 38 65 37 66 56 67 57 68
REMARK SMILES IDX 61 69 58 70 60 71 59 72 46 73 47 74 51 75 48 76 50 77 49 78
REMARK H PARENT 18 5 5 11 5 12 22 27 66 46 44 57
REMARK Flexibility Score: inf
ROOT
ATOM      1  C   UNL     1       0.004   1.267  -4.151  1.00  0.00     0.117 C 
ENDROOT
BRANCH   1   2
ATOM      2  N   UNL     1       0.815   1.913  -3.136  1.00  0.00    -0.355 N 
ATOM      3  C   UNL     1       1.136   1.586  -1.856  1.00  0.00     0.231 C 
ATOM      4  O   UNL     1       1.859   2.399  -1.268  1.00  0.00    -0.274 OA
ATOM      5  H   UNL     1       1.216   2.761  -3.436  1.00  0.00     0.163 HD
BRANCH   3   6
ATOM      6  C   UNL     1       0.706   0.269  -1.189  1.00  0.00     0.092 C 
ATOM      7  C   UNL     1       1.275   0.223   0.249  1.00  0.00     0.027 C 
ATOM      8  C   UNL     1       1.345  -0.922  -1.940  1.00  0.00     0.027 C 
BRANCH   6   9
ATOM      9  C   UNL     1      -0.827   0.080  -1.131  1.00  0.00     0.277 C 
BRANCH   9  10
ATOM     10  N   UNL     1      -1.609   1.083  -0.395  1.00  0.00    -0.342 N 
ATOM     11  H   UNL     1      -1.313   2.010  -0.700  1.00  0.00     0.346 HD
ATOM     12  H   UNL     1      -1.434   0.929   0.599  1.00  0.00     0.346 HD
BRANCH  10  13
ATOM     13  C   UNL     1      -3.066   0.964  -0.603  1.00  0.00     0.297 C 
BRANCH  13  14
ATOM     14  C   UNL     1      -3.674  -0.331  -0.102  1.00  0.00     0.010 A 
ATOM     15  C   UNL     1      -4.439  -0.362   1.087  1.00  0.00     0.013 A 
ATOM     16  C   UNL     1      -3.435  -1.535  -0.786  1.00  0.00     0.060 A 
ATOM     17  C   UNL     1      -4.878  -1.578   1.630  1.00  0.00     0.051 A 
ATOM     18  C   UNL     1      -3.799  -2.716  -0.185  1.00  0.00     0.166 A 
ATOM     19  C   UNL     1      -4.497  -2.739   0.996  1.00  0.00     0.165 A 
ATOM     20  O   UNL     1      -3.477  -3.959  -0.631  1.00  0.00    -0.454 OA
ATOM     21  O   UNL     1      -4.716  -4.008   1.434  1.00  0.00    -0.454 OA
ATOM     22  C   UNL     1      -3.915  -4.753   0.490  1.00  0.00     0.468 C 
ENDBRANCH  13  14
ENDBRANCH  10  13
ENDBRANCH   9  10
ENDBRANCH   6   9
ENDBRANCH   3   6
ENDBRANCH   1   2
BRANCH   1  23
ATOM     23  C   UNL     1      -1.294   2.021  -4.412  1.00  0.00     0.042 C 
BRANCH  23  24
ATOM     24  C   UNL     1      -1.089   3.405  -5.014  1.00  0.00     0.118 C 
BRANCH  24  25
ATOM     25  N   UNL     1      -0.434   3.361  -6.315  1.00  0.00    -0.352 N 
ATOM     26  C   UNL     1      -0.875   3.769  -7.550  1.00  0.00     0.251 C 
ATOM     27  H   UNL     1       0.472   2.975  -6.308  1.00  0.00     0.163 HD
ATOM     28  O   UNL     1      -0.243   3.458  -8.554  1.00  0.00    -0.269 OA
BRANCH  26  29
ATOM     29  C   UNL     1      -2.114   4.565  -7.677  1.00  0.00     0.039 A 
ATOM     30  C   UNL     1      -2.985   4.293  -8.736  1.00  0.00     0.014 A 
ATOM     31  C   UNL     1      -2.409   5.591  -6.777  1.00  0.00     0.014 A 
ATOM     32  C   UNL     1      -4.181   5.003  -8.850  1.00  0.00     0.010 A 
ATOM     33  C   UNL     1      -3.641   6.234  -6.837  1.00  0.00     0.010 A 
ATOM     34  C   UNL     1      -4.537   5.952  -7.878  1.00  0.00    -0.014 A 
BRANCH  34  35
ATOM     35  C   UNL     1      -5.840   6.660  -7.931  1.00  0.00     0.031 A 
ATOM     36  C   UNL     1      -5.884   8.156  -8.085  1.00  0.00     0.074 A 
ATOM     37  C   UNL     1      -6.983   5.965  -7.772  1.00  0.00     0.049 A 
ATOM     38  N   UNL     1      -6.920   8.956  -8.087  1.00  0.00    -0.248 NA
ATOM     39  C   UNL     1      -4.592   8.848  -8.229  1.00  0.00     0.031 C 
ATOM     40  C   UNL     1      -7.075   4.516  -7.575  1.00  0.00     0.029 A 
ATOM     41  N   UNL     1      -8.289   6.386  -7.745  1.00  0.00    -0.354 N 
ATOM     42  C   UNL     1      -6.405  10.240  -8.213  1.00  0.00     0.074 A 
ATOM     43  C   UNL     1      -4.965  10.119  -8.231  1.00  0.00     0.031 C 
ATOM     44  C   UNL     1      -8.368   4.167  -7.478  1.00  0.00     0.029 A 
ATOM     45  C   UNL     1      -9.192   5.367  -7.559  1.00  0.00     0.049 A 
ATOM     46  H   UNL     1      -8.554   7.328  -7.850  1.00  0.00     0.167 HD
ATOM     47  C   UNL     1      -7.071  11.414  -8.324  1.00  0.00     0.031 A 
ATOM     48  C   UNL     1     -10.534   5.397  -7.456  1.00  0.00     0.031 A 
ATOM     49  C   UNL     1      -8.505  11.534  -8.314  1.00  0.00     0.049 A 
ATOM     50  C   UNL     1     -11.249   6.715  -7.561  1.00  0.00     0.074 A 
ATOM     51  C   UNL     1      -9.276  12.671  -8.477  1.00  0.00     0.029 A 
ATOM     52  N   UNL     1      -9.383  10.477  -8.127  1.00  0.00    -0.354 N 
ATOM     53  N   UNL     1     -10.750   7.913  -7.751  1.00  0.00    -0.248 NA
ATOM     54  C   UNL     1     -12.714   6.683  -7.449  1.00  0.00     0.031 C 
ATOM     55  C   UNL     1     -10.619  12.312  -8.329  1.00  0.00     0.029 A 
ATOM     56  C   UNL     1     -10.688  10.941  -8.141  1.00  0.00     0.049 A 
ATOM     57  H   UNL     1      -9.118   9.537  -8.002  1.00  0.00     0.167 HD
ATOM     58  C   UNL     1     -11.840   8.772  -7.812  1.00  0.00     0.074 A 
ATOM     59  C   UNL     1     -13.026   7.955  -7.655  1.00  0.00     0.031 C 
ATOM     60  C   UNL     1     -11.858  10.116  -7.984  1.00  0.00     0.031 A 
BRANCH  47  61
ATOM     61  C   UNL     1      -6.250  12.668  -8.456  1.00  0.00    -0.014 A 
ATOM     62  C   UNL     1      -5.502  12.932  -9.616  1.00  0.00     0.009 A 
ATOM     63  C   UNL     1      -6.251  13.616  -7.421  1.00  0.00     0.009 A 
ATOM     64  C   UNL     1      -4.742  14.099  -9.718  1.00  0.00     0.001 A 
ATOM     65  C   UNL     1      -5.516  14.797  -7.540  1.00  0.00     0.001 A 
ATOM     66  C   UNL     1      -4.754  15.032  -8.683  1.00  0.00     0.000 A 
ENDBRANCH  47  61
BRANCH  48  67
ATOM     67  C   UNL     1     -11.295   4.136  -7.253  1.00  0.00    -0.014 A 
ATOM     68  C   UNL     1     -12.114   3.626  -8.272  1.00  0.00     0.009 A 
ATOM     69  C   UNL     1     -11.213   3.438  -6.037  1.00  0.00     0.009 A 
ATOM     70  C   UNL     1     -12.858   2.461  -8.067  1.00  0.00     0.001 A 
ATOM     71  C   UNL     1     -11.934   2.257  -5.847  1.00  0.00     0.001 A 
ATOM     72  C   UNL     1     -12.764   1.776  -6.857  1.00  0.00     0.000 A 
ENDBRANCH  48  67
BRANCH  60  73
ATOM     73  C   UNL     1     -13.203  10.784  -8.052  1.00  0.00    -0.014 A 
ATOM     74  C   UNL     1     -14.013  10.917  -6.914  1.00  0.00     0.009 A 
ATOM     75  C   UNL     1     -13.646  11.324  -9.270  1.00  0.00     0.009 A 
ATOM     76  C   UNL     1     -15.256  11.547  -7.003  1.00  0.00     0.001 A 
ATOM     77  C   UNL     1     -14.874  11.982  -9.348  1.00  0.00     0.001 A 
ATOM     78  C   UNL     1     -15.682  12.084  -8.218  1.00  0.00     0.000 A 
ENDBRANCH  60  73
ENDBRANCH  34  35
ENDBRANCH  26  29
ENDBRANCH  24  25
ENDBRANCH  23  24
ENDBRANCH   1  23
TORSDOF 14
