REMARK SMILES Cc1ccc(C)c(Oc2cccc(F)c2C(=O)NCCCNC(=O)c2ccc(-c3c4nc(c(-c5ccccc5)c5ccc([nH]5)c(-c5ccccc5)c5nc(c(-c6ccccc6)c6ccc3[nH]6)C=C5)C=C4)cc2)c1
REMARK SMILES IDX 20 1 19 2 18 3 16 4 17 5 15 7 9 8 10 9 11 10 13 11 12 12
REMARK SMILES IDX 14 13 8 14 7 15 1 16 2 17 3 18 73 19 4 20 5 21 6 22 21 23
REMARK SMILES IDX 22 24 23 25 24 27 25 28 26 29 72 30 27 31 71 32 28 33 29 34
REMARK SMILES IDX 30 35 65 36 31 37 70 38 64 39 66 40 32 41 69 42 63 43 62 44
REMARK SMILES IDX 33 46 55 47 40 48 54 49 41 50 44 51 53 52 67 53 42 54 43 55
REMARK SMILES IDX 52 57 68 58 45 59 34 60 35 61 39 62 36 63 38 64 37 65 56 66
REMARK SMILES IDX 57 67 61 68 58 69 60 70 59 71 46 72 47 73 51 74 48 75 50 76
REMARK SMILES IDX 49 77
REMARK H PARENT 18 6 22 26 66 45 44 56
REMARK Flexibility Score: inf
ROOT
ATOM      1  C   UNL     1      -1.424   7.801   3.263  1.00  0.00     0.042 C 
ENDROOT
BRANCH   1   2
ATOM      2  C   UNL     1      -0.905   6.398   3.633  1.00  0.00     0.118 C 
BRANCH   2   3
ATOM      3  N   UNL     1      -1.706   5.316   3.075  1.00  0.00    -0.352 N 
ATOM      4  C   UNL     1      -1.683   4.567   1.924  1.00  0.00     0.258 C 
ATOM      5  O   UNL     1      -2.576   3.714   1.878  1.00  0.00    -0.269 OA
ATOM      6  H   UNL     1      -2.447   5.060   3.670  1.00  0.00     0.163 HD
BRANCH   4   7
ATOM      7  C   UNL     1      -0.728   4.700   0.776  1.00  0.00     0.118 A 
ATOM      8  C   UNL     1      -0.615   3.636  -0.154  1.00  0.00     0.143 A 
ATOM      9  C   UNL     1       0.117   3.781  -1.351  1.00  0.00     0.048 A 
ATOM     10  C   UNL     1       0.857   4.930  -1.589  1.00  0.00     0.007 A 
ATOM     11  C   UNL     1       0.017   5.846   0.486  1.00  0.00     0.139 A 
ATOM     12  C   UNL     1       0.820   5.953  -0.656  1.00  0.00     0.040 A 
ATOM     13  F   UNL     1      -0.010   6.938   1.249  1.00  0.00    -0.206 F 
BRANCH   8  14
ATOM     14  O   UNL     1      -1.282   2.447   0.065  1.00  0.00    -0.456 OA
BRANCH  14  15
ATOM     15  C   UNL     1      -0.585   1.251   0.057  1.00  0.00     0.130 A 
ATOM     16  C   UNL     1       2.962  -0.159   0.098  1.00  0.00     0.044 C 
ATOM     17  C   UNL     1       1.464  -0.078   0.077  1.00  0.00    -0.047 A 
ATOM     18  C   UNL     1       0.698  -1.243   0.002  1.00  0.00     0.004 A 
ATOM     19  C   UNL     1       0.814   1.161   0.136  1.00  0.00     0.050 A 
ATOM     20  C   UNL     1      -0.695  -1.167  -0.026  1.00  0.00     0.007 A 
ATOM     21  C   UNL     1      -1.351   0.075  -0.004  1.00  0.00    -0.008 A 
ATOM     22  C   UNL     1      -2.855   0.084  -0.024  1.00  0.00     0.048 C 
ENDBRANCH  14  15
ENDBRANCH   8  14
ENDBRANCH   4   7
ENDBRANCH   2   3
ENDBRANCH   1   2
BRANCH   1  23
ATOM     23  C   UNL     1      -2.486   8.442   4.162  1.00  0.00     0.118 C 
BRANCH  23  24
ATOM     24  N   UNL     1      -2.043   8.624   5.548  1.00  0.00    -0.352 N 
ATOM     25  C   UNL     1      -2.637   8.332   6.765  1.00  0.00     0.251 C 
ATOM     26  H   UNL     1      -1.151   9.033   5.630  1.00  0.00     0.163 HD
ATOM     27  O   UNL     1      -2.213   8.852   7.784  1.00  0.00    -0.269 OA
BRANCH  25  28
ATOM     28  C   UNL     1      -3.782   7.397   6.837  1.00  0.00     0.039 A 
ATOM     29  C   UNL     1      -4.697   7.422   7.894  1.00  0.00     0.014 A 
ATOM     30  C   UNL     1      -3.948   6.479   5.815  1.00  0.00     0.014 A 
ATOM     31  C   UNL     1      -5.784   6.546   7.863  1.00  0.00     0.010 A 
ATOM     32  C   UNL     1      -5.127   5.816   5.654  1.00  0.00     0.010 A 
ATOM     33  C   UNL     1      -5.994   5.752   6.724  1.00  0.00    -0.014 A 
BRANCH  33  34
ATOM     34  C   UNL     1      -7.168   4.912   6.557  1.00  0.00     0.031 A 
ATOM     35  C   UNL     1      -8.440   5.641   6.709  1.00  0.00     0.074 A 
ATOM     36  C   UNL     1      -7.141   3.655   6.064  1.00  0.00     0.049 A 
ATOM     37  N   UNL     1      -9.216   5.624   7.738  1.00  0.00    -0.248 NA
ATOM     38  C   UNL     1      -8.810   6.629   5.685  1.00  0.00     0.031 C 
ATOM     39  C   UNL     1      -6.000   2.904   5.525  1.00  0.00     0.029 A 
ATOM     40  N   UNL     1      -8.185   2.814   5.830  1.00  0.00    -0.354 N 
ATOM     41  C   UNL     1     -10.308   6.399   7.385  1.00  0.00     0.074 A 
ATOM     42  C   UNL     1      -9.895   7.174   6.240  1.00  0.00     0.031 C 
ATOM     43  C   UNL     1      -6.449   1.836   4.828  1.00  0.00     0.029 A 
ATOM     44  C   UNL     1      -7.885   1.733   5.011  1.00  0.00     0.049 A 
ATOM     45  H   UNL     1      -9.081   2.960   6.211  1.00  0.00     0.167 HD
ATOM     46  C   UNL     1     -11.550   6.094   7.852  1.00  0.00     0.031 A 
ATOM     47  C   UNL     1      -8.761   0.834   4.500  1.00  0.00     0.031 A 
ATOM     48  C   UNL     1     -11.492   5.129   8.930  1.00  0.00     0.049 A 
ATOM     49  C   UNL     1      -9.992   0.898   5.322  1.00  0.00     0.074 A 
ATOM     50  C   UNL     1     -10.805   5.045  10.127  1.00  0.00     0.029 A 
ATOM     51  N   UNL     1     -11.890   3.842   8.641  1.00  0.00    -0.354 N 
ATOM     52  N   UNL     1     -10.054   0.475   6.551  1.00  0.00    -0.248 NA
ATOM     53  C   UNL     1     -11.036   1.833   4.933  1.00  0.00     0.031 C 
ATOM     54  C   UNL     1     -10.404   3.678  10.228  1.00  0.00     0.029 A 
ATOM     55  C   UNL     1     -10.940   2.989   9.139  1.00  0.00     0.049 A 
ATOM     56  H   UNL     1     -12.710   3.582   8.162  1.00  0.00     0.167 HD
ATOM     57  C   UNL     1     -10.815   1.431   7.208  1.00  0.00     0.074 A 
ATOM     58  C   UNL     1     -11.497   2.166   6.143  1.00  0.00     0.031 C 
ATOM     59  C   UNL     1     -10.589   1.728   8.523  1.00  0.00     0.031 A 
BRANCH  46  60
ATOM     60  C   UNL     1     -12.804   6.290   7.036  1.00  0.00    -0.014 A 
ATOM     61  C   UNL     1     -14.040   5.993   7.634  1.00  0.00     0.009 A 
ATOM     62  C   UNL     1     -12.803   6.464   5.638  1.00  0.00     0.009 A 
ATOM     63  C   UNL     1     -15.189   5.787   6.863  1.00  0.00     0.001 A 
ATOM     64  C   UNL     1     -13.958   6.307   4.870  1.00  0.00     0.001 A 
ATOM     65  C   UNL     1     -15.145   5.935   5.481  1.00  0.00     0.000 A 
ENDBRANCH  46  60
BRANCH  47  66
ATOM     66  C   UNL     1      -8.695   0.044   3.252  1.00  0.00    -0.014 A 
ATOM     67  C   UNL     1      -9.561  -1.043   3.049  1.00  0.00     0.009 A 
ATOM     68  C   UNL     1      -7.973   0.520   2.143  1.00  0.00     0.009 A 
ATOM     69  C   UNL     1      -9.741  -1.596   1.774  1.00  0.00     0.001 A 
ATOM     70  C   UNL     1      -8.148  -0.036   0.870  1.00  0.00     0.001 A 
ATOM     71  C   UNL     1      -9.047  -1.081   0.683  1.00  0.00     0.000 A 
ENDBRANCH  47  66
BRANCH  59  72
ATOM     72  C   UNL     1      -9.699   0.801   9.320  1.00  0.00    -0.014 A 
ATOM     73  C   UNL     1      -8.385   0.467   8.944  1.00  0.00     0.009 A 
ATOM     74  C   UNL     1     -10.168   0.334  10.557  1.00  0.00     0.009 A 
ATOM     75  C   UNL     1      -7.591  -0.353   9.753  1.00  0.00     0.001 A 
ATOM     76  C   UNL     1      -9.367  -0.463  11.378  1.00  0.00     0.001 A 
ATOM     77  C   UNL     1      -8.083  -0.817  10.971  1.00  0.00     0.000 A 
ENDBRANCH  59  72
ENDBRANCH  33  34
ENDBRANCH  25  28
ENDBRANCH  23  24
ENDBRANCH   1  23
TORSDOF 12
