REMARK SMILES CCc1c(C(=O)NCCCNC(=O)c2ccc(-c3c4nc(c(-c5ccccc5)c5ccc([nH]5)c(-c5ccccc5)c5nc(c(-c6ccccc6)c6ccc3[nH]6)C=C5)C=C4)cc2)nnn1-c1ccc(OC)cc1
REMARK SMILES IDX 9 1 8 2 7 3 5 4 6 5 4 7 3 8 64 9 62 10 63 11 2 12 1 13 65 14
REMARK SMILES IDX 66 15 72 16 67 17 71 18 68 19 69 20 70 21 10 22 11 23 12 24
REMARK SMILES IDX 13 26 14 27 15 28 61 29 16 30 60 31 17 32 18 33 19 34 54 35
REMARK SMILES IDX 20 36 59 37 53 38 55 39 21 40 58 41 52 42 51 43 22 45 44 46
REMARK SMILES IDX 29 47 43 48 30 49 33 50 42 51 56 52 31 53 32 54 41 56 57 57
REMARK SMILES IDX 34 58 23 59 24 60 28 61 25 62 27 63 26 64 45 65 46 66 50 67
REMARK SMILES IDX 47 68 49 69 48 70 35 71 36 72 40 73 37 74 39 75 38 76
REMARK H PARENT 7 6 11 25 55 44 33 55
REMARK Flexibility Score: inf
ROOT
ATOM      1  C   UNL     1       2.046   2.789  -1.676  1.00  0.00     0.042 C 
ENDROOT
BRANCH   1   2
ATOM      2  C   UNL     1       1.230   2.786  -2.979  1.00  0.00     0.118 C 
BRANCH   2   3
ATOM      3  N   UNL     1       1.939   2.150  -4.055  1.00  0.00    -0.351 N 
ATOM      4  C   UNL     1       2.097   0.845  -4.433  1.00  0.00     0.273 C 
ATOM      5  O   UNL     1       2.725   0.720  -5.491  1.00  0.00    -0.267 OA
ATOM      6  H   UNL     1       2.409   2.786  -4.642  1.00  0.00     0.163 HD
BRANCH   4   7
ATOM      7  C   UNL     1       1.604  -0.343  -3.714  1.00  0.00     0.174 A 
ATOM      8  C   UNL     1       0.876  -0.651  -2.555  1.00  0.00     0.077 A 
ATOM      9  N   UNL     1       0.755  -2.044  -2.614  1.00  0.00    -0.217 N 
ATOM     10  N   UNL     1       1.996  -1.549  -4.283  1.00  0.00    -0.124 NA
ATOM     11  N   UNL     1       1.573  -2.550  -3.544  1.00  0.00    -0.061 NA
BRANCH   8  12
ATOM     12  C   UNL     1       0.354   0.068  -1.352  1.00  0.00     0.055 C 
ATOM     13  C   UNL     1       1.178  -0.191  -0.093  1.00  0.00     0.011 C 
ENDBRANCH   8  12
BRANCH   9  14
ATOM     14  C   UNL     1       0.018  -2.895  -1.762  1.00  0.00     0.067 A 
ATOM     15  C   UNL     1       0.631  -4.039  -1.249  1.00  0.00     0.032 A 
ATOM     16  C   UNL     1      -1.281  -2.555  -1.373  1.00  0.00     0.032 A 
ATOM     17  C   UNL     1      -0.027  -4.774  -0.261  1.00  0.00     0.048 A 
ATOM     18  C   UNL     1      -1.929  -3.292  -0.385  1.00  0.00     0.048 A 
ATOM     19  C   UNL     1      -1.296  -4.393   0.191  1.00  0.00     0.119 A 
BRANCH  19  20
ATOM     20  O   UNL     1      -1.811  -5.172   1.188  1.00  0.00    -0.497 OA
ATOM     21  C   UNL     1      -3.070  -4.773   1.717  1.00  0.00     0.278 C 
ENDBRANCH  19  20
ENDBRANCH   9  14
ENDBRANCH   4   7
ENDBRANCH   2   3
ENDBRANCH   1   2
BRANCH   1  22
ATOM     22  C   UNL     1       2.591   4.165  -1.382  1.00  0.00     0.118 C 
BRANCH  22  23
ATOM     23  N   UNL     1       1.512   5.114  -1.031  1.00  0.00    -0.352 N 
ATOM     24  C   UNL     1       1.580   6.484  -0.791  1.00  0.00     0.251 C 
ATOM     25  H   UNL     1       0.614   4.718  -0.956  1.00  0.00     0.163 HD
ATOM     26  O   UNL     1       0.683   7.081  -0.231  1.00  0.00    -0.269 OA
BRANCH  24  27
ATOM     27  C   UNL     1       2.777   7.186  -1.275  1.00  0.00     0.039 A 
ATOM     28  C   UNL     1       3.501   8.138  -0.553  1.00  0.00     0.014 A 
ATOM     29  C   UNL     1       3.263   6.691  -2.462  1.00  0.00     0.014 A 
ATOM     30  C   UNL     1       4.741   8.524  -1.064  1.00  0.00     0.010 A 
ATOM     31  C   UNL     1       4.608   6.649  -2.560  1.00  0.00     0.010 A 
ATOM     32  C   UNL     1       5.274   7.760  -2.105  1.00  0.00    -0.014 A 
BRANCH  32  33
ATOM     33  C   UNL     1       6.528   7.984  -2.792  1.00  0.00     0.031 A 
ATOM     34  C   UNL     1       7.724   7.891  -1.934  1.00  0.00     0.074 A 
ATOM     35  C   UNL     1       6.601   7.935  -4.145  1.00  0.00     0.049 A 
ATOM     36  N   UNL     1       8.485   8.862  -1.567  1.00  0.00    -0.248 NA
ATOM     37  C   UNL     1       8.030   6.605  -1.290  1.00  0.00     0.031 C 
ATOM     38  C   UNL     1       5.550   7.656  -5.143  1.00  0.00     0.029 A 
ATOM     39  N   UNL     1       7.708   7.994  -4.920  1.00  0.00    -0.354 N 
ATOM     40  C   UNL     1       9.494   8.285  -0.809  1.00  0.00     0.074 A 
ATOM     41  C   UNL     1       9.054   6.946  -0.505  1.00  0.00     0.031 C 
ATOM     42  C   UNL     1       6.116   7.327  -6.327  1.00  0.00     0.029 A 
ATOM     43  C   UNL     1       7.545   7.548  -6.223  1.00  0.00     0.049 A 
ATOM     44  H   UNL     1       8.570   8.331  -4.582  1.00  0.00     0.167 HD
ATOM     45  C   UNL     1      10.720   8.868  -0.708  1.00  0.00     0.031 A 
ATOM     46  C   UNL     1       8.534   7.347  -7.130  1.00  0.00     0.031 A 
ATOM     47  C   UNL     1      10.720  10.200  -1.263  1.00  0.00     0.049 A 
ATOM     48  C   UNL     1       9.705   8.137  -6.660  1.00  0.00     0.074 A 
ATOM     49  C   UNL     1      10.017  11.359  -0.993  1.00  0.00     0.029 A 
ATOM     50  N   UNL     1      11.188  10.341  -2.552  1.00  0.00    -0.354 N 
ATOM     51  N   UNL     1       9.691   9.440  -6.587  1.00  0.00    -0.248 NA
ATOM     52  C   UNL     1      10.658   7.477  -5.776  1.00  0.00     0.031 C 
ATOM     53  C   UNL     1       9.659  11.870  -2.277  1.00  0.00     0.029 A 
ATOM     54  C   UNL     1      10.243  11.055  -3.249  1.00  0.00     0.049 A 
ATOM     55  H   UNL     1      12.039   9.995  -2.906  1.00  0.00     0.167 HD
ATOM     56  C   UNL     1      10.291   9.740  -5.370  1.00  0.00     0.074 A 
ATOM     57  C   UNL     1      10.943   8.494  -4.955  1.00  0.00     0.031 C 
ATOM     58  C   UNL     1       9.949  10.855  -4.654  1.00  0.00     0.031 A 
BRANCH  45  59
ATOM     59  C   UNL     1      11.997   8.108  -0.488  1.00  0.00    -0.014 A 
ATOM     60  C   UNL     1      13.177   8.834  -0.254  1.00  0.00     0.009 A 
ATOM     61  C   UNL     1      12.135   6.736  -0.765  1.00  0.00     0.009 A 
ATOM     62  C   UNL     1      14.434   8.228  -0.361  1.00  0.00     0.001 A 
ATOM     63  C   UNL     1      13.386   6.119  -0.834  1.00  0.00     0.001 A 
ATOM     64  C   UNL     1      14.538   6.873  -0.660  1.00  0.00     0.000 A 
ENDBRANCH  45  59
BRANCH  46  65
ATOM     65  C   UNL     1       8.619   6.269  -8.143  1.00  0.00    -0.014 A 
ATOM     66  C   UNL     1       9.521   6.333  -9.215  1.00  0.00     0.009 A 
ATOM     67  C   UNL     1       7.972   5.037  -7.914  1.00  0.00     0.009 A 
ATOM     68  C   UNL     1       9.784   5.203 -10.008  1.00  0.00     0.001 A 
ATOM     69  C   UNL     1       8.233   3.911  -8.702  1.00  0.00     0.001 A 
ATOM     70  C   UNL     1       9.150   3.990  -9.743  1.00  0.00     0.000 A 
ENDBRANCH  46  65
BRANCH  58  71
ATOM     71  C   UNL     1       8.977  11.837  -5.278  1.00  0.00    -0.014 A 
ATOM     72  C   UNL     1       7.652  11.499  -5.615  1.00  0.00     0.009 A 
ATOM     73  C   UNL     1       9.345  13.188  -5.352  1.00  0.00     0.009 A 
ATOM     74  C   UNL     1       6.737  12.473  -6.035  1.00  0.00     0.001 A 
ATOM     75  C   UNL     1       8.428  14.164  -5.755  1.00  0.00     0.001 A 
ATOM     76  C   UNL     1       7.126  13.807  -6.101  1.00  0.00     0.000 A 
ENDBRANCH  58  71
ENDBRANCH  32  33
ENDBRANCH  24  27
ENDBRANCH  22  23
ENDBRANCH   1  22
TORSDOF 13
