REMARK SMILES COC(=O)[C@H]1Sc2nnc(CCC(=O)NCCCNC(=O)c3ccc(-c4c5nc(c(-c6ccccc6)c6ccc([nH]6)c(-c6ccccc6)c6nc(c(-c7ccccc7)c7ccc4[nH]7)C=C6)C=C5)cc3)c(=O)n2N=C1C
REMARK SMILES IDX 16 1 15 2 13 3 14 4 12 6 11 7 10 8 5 9 6 10 74 11 7 12 73 13
REMARK SMILES IDX 75 14 8 15 72 16 9 17 70 18 71 19 3 20 4 21 2 22 1 23 17 24
REMARK SMILES IDX 18 25 19 26 20 27 21 29 22 30 23 31 69 32 24 33 68 34 25 35
REMARK SMILES IDX 26 36 27 37 62 38 28 39 67 40 61 41 63 42 29 43 66 44 60 45
REMARK SMILES IDX 59 46 30 48 52 49 37 50 51 51 38 52 41 53 50 54 64 55 39 56
REMARK SMILES IDX 40 57 49 59 65 60 42 61 31 62 32 63 36 64 33 65 35 66 34 67
REMARK SMILES IDX 53 68 54 69 58 70 55 71 57 72 56 73 43 74 44 75 48 76 45 77
REMARK SMILES IDX 47 78 46 79
REMARK H PARENT 15 5 19 28 63 47 41 58
REMARK Flexibility Score: inf
ROOT
ATOM      1  C   UNL     1      -3.042   5.202  -5.506  1.00  0.00     0.117 C 
ENDROOT
BRANCH   1   2
ATOM      2  N   UNL     1      -4.159   5.902  -4.874  1.00  0.00    -0.356 N 
ATOM      3  C   UNL     1      -4.297   7.156  -4.348  1.00  0.00     0.220 C 
ATOM      4  O   UNL     1      -5.367   7.412  -3.789  1.00  0.00    -0.275 OA
ATOM      5  H   UNL     1      -4.979   5.360  -4.815  1.00  0.00     0.163 HD
BRANCH   3   6
ATOM      6  C   UNL     1      -3.225   8.234  -4.475  1.00  0.00     0.106 C 
BRANCH   6   7
ATOM      7  C   UNL     1      -2.747   8.793  -3.129  1.00  0.00     0.074 C 
BRANCH   7   8
ATOM      8  C   UNL     1      -1.524   8.054  -2.648  1.00  0.00     0.131 A 
ATOM      9  C   UNL     1       0.361   3.496  -2.172  1.00  0.00     0.210 C 
ATOM     10  S   UNL     1       1.458   4.922  -1.712  1.00  0.00    -0.063 SA
ATOM     11  C   UNL     1      -1.058   3.823  -1.687  1.00  0.00     0.061 C 
ATOM     12  C   UNL     1       0.330   6.196  -2.127  1.00  0.00     0.214 A 
ATOM     13  N   UNL     1      -1.500   4.944  -1.232  1.00  0.00    -0.171 NA
ATOM     14  C   UNL     1      -2.199   2.861  -1.601  1.00  0.00     0.065 C 
ATOM     15  N   UNL     1       0.650   7.196  -2.883  1.00  0.00    -0.123 NA
ATOM     16  N   UNL     1      -0.890   6.083  -1.534  1.00  0.00    -0.169 N 
ATOM     17  N   UNL     1      -0.392   8.084  -3.287  1.00  0.00    -0.147 NA
ATOM     18  C   UNL     1      -1.732   7.162  -1.470  1.00  0.00     0.296 A 
ATOM     19  O   UNL     1      -2.638   7.360  -0.688  1.00  0.00    -0.265 OA
BRANCH   9  20
ATOM     20  C   UNL     1       0.736   3.204  -3.637  1.00  0.00     0.325 C 
ATOM     21  O   UNL     1       0.616   3.977  -4.579  1.00  0.00    -0.250 OA
BRANCH  20  22
ATOM     22  O   UNL     1       1.399   2.013  -3.760  1.00  0.00    -0.468 OA
ATOM     23  C   UNL     1       1.843   1.643  -5.082  1.00  0.00     0.282 C 
ENDBRANCH  20  22
ENDBRANCH   9  20
ENDBRANCH   7   8
ENDBRANCH   6   7
ENDBRANCH   3   6
ENDBRANCH   1   2
BRANCH   1  24
ATOM     24  C   UNL     1      -2.492   4.064  -4.619  1.00  0.00     0.042 C 
BRANCH  24  25
ATOM     25  C   UNL     1      -2.796   2.547  -4.876  1.00  0.00     0.118 C 
BRANCH  25  26
ATOM     26  N   UNL     1      -1.579   1.637  -4.723  1.00  0.00    -0.352 N 
ATOM     27  C   UNL     1      -1.407   0.329  -4.216  1.00  0.00     0.251 C 
ATOM     28  H   UNL     1      -0.742   2.045  -5.044  1.00  0.00     0.163 HD
ATOM     29  O   UNL     1      -1.272  -0.589  -5.026  1.00  0.00    -0.269 OA
BRANCH  27  30
ATOM     30  C   UNL     1      -0.918   0.058  -2.795  1.00  0.00     0.039 A 
ATOM     31  C   UNL     1       0.419  -0.304  -2.541  1.00  0.00     0.014 A 
ATOM     32  C   UNL     1      -1.749   0.080  -1.682  1.00  0.00     0.014 A 
ATOM     33  C   UNL     1       0.958  -0.389  -1.226  1.00  0.00     0.010 A 
ATOM     34  C   UNL     1      -1.208   0.075  -0.368  1.00  0.00     0.010 A 
ATOM     35  C   UNL     1       0.158  -0.143  -0.107  1.00  0.00    -0.014 A 
BRANCH  35  36
ATOM     36  C   UNL     1       0.646  -0.311   1.313  1.00  0.00     0.031 A 
ATOM     37  C   UNL     1       0.073  -1.454   2.129  1.00  0.00     0.074 A 
ATOM     38  C   UNL     1       1.516   0.525   1.931  1.00  0.00     0.049 A 
ATOM     39  N   UNL     1       0.294  -1.793   3.376  1.00  0.00    -0.248 NA
ATOM     40  C   UNL     1      -0.917  -2.306   1.450  1.00  0.00     0.031 C 
ATOM     41  C   UNL     1       2.139   1.710   1.343  1.00  0.00     0.029 A 
ATOM     42  N   UNL     1       2.018   0.511   3.223  1.00  0.00    -0.354 N 
ATOM     43  C   UNL     1      -0.539  -2.880   3.622  1.00  0.00     0.074 A 
ATOM     44  C   UNL     1      -1.334  -3.082   2.434  1.00  0.00     0.031 C 
ATOM     45  C   UNL     1       2.930   2.303   2.259  1.00  0.00     0.029 A 
ATOM     46  C   UNL     1       2.885   1.546   3.510  1.00  0.00     0.049 A 
ATOM     47  H   UNL     1       1.776  -0.180   3.881  1.00  0.00     0.167 HD
ATOM     48  C   UNL     1      -0.616  -3.684   4.709  1.00  0.00     0.031 A 
ATOM     49  C   UNL     1       3.578   1.846   4.634  1.00  0.00     0.031 A 
ATOM     50  C   UNL     1       0.175  -3.527   5.894  1.00  0.00     0.049 A 
ATOM     51  C   UNL     1       3.485   0.945   5.846  1.00  0.00     0.074 A 
ATOM     52  C   UNL     1       0.217  -4.338   7.015  1.00  0.00     0.029 A 
ATOM     53  N   UNL     1       1.063  -2.488   6.113  1.00  0.00    -0.354 N 
ATOM     54  N   UNL     1       2.775  -0.145   6.010  1.00  0.00    -0.248 NA
ATOM     55  C   UNL     1       4.309   1.299   7.017  1.00  0.00     0.031 C 
ATOM     56  C   UNL     1       1.102  -3.765   7.932  1.00  0.00     0.029 A 
ATOM     57  C   UNL     1       1.646  -2.627   7.359  1.00  0.00     0.049 A 
ATOM     58  H   UNL     1       1.251  -1.760   5.477  1.00  0.00     0.167 HD
ATOM     59  C   UNL     1       3.092  -0.623   7.278  1.00  0.00     0.074 A 
ATOM     60  C   UNL     1       4.062   0.289   7.844  1.00  0.00     0.031 C 
ATOM     61  C   UNL     1       2.623  -1.725   7.910  1.00  0.00     0.031 A 
BRANCH  48  62
ATOM     62  C   UNL     1      -1.578  -4.840   4.639  1.00  0.00    -0.014 A 
ATOM     63  C   UNL     1      -1.349  -5.913   3.761  1.00  0.00     0.009 A 
ATOM     64  C   UNL     1      -2.712  -4.869   5.463  1.00  0.00     0.009 A 
ATOM     65  C   UNL     1      -2.260  -6.967   3.675  1.00  0.00     0.001 A 
ATOM     66  C   UNL     1      -3.603  -5.942   5.401  1.00  0.00     0.001 A 
ATOM     67  C   UNL     1      -3.383  -6.982   4.498  1.00  0.00     0.000 A 
ENDBRANCH  48  62
BRANCH  49  68
ATOM     68  C   UNL     1       4.497   3.024   4.664  1.00  0.00    -0.014 A 
ATOM     69  C   UNL     1       5.890   2.835   4.627  1.00  0.00     0.009 A 
ATOM     70  C   UNL     1       4.003   4.335   4.740  1.00  0.00     0.009 A 
ATOM     71  C   UNL     1       6.763   3.927   4.668  1.00  0.00     0.001 A 
ATOM     72  C   UNL     1       4.879   5.428   4.759  1.00  0.00     0.001 A 
ATOM     73  C   UNL     1       6.257   5.223   4.725  1.00  0.00     0.000 A 
ENDBRANCH  49  68
BRANCH  61  74
ATOM     74  C   UNL     1       3.157  -2.052   9.277  1.00  0.00    -0.014 A 
ATOM     75  C   UNL     1       2.728  -1.346  10.410  1.00  0.00     0.009 A 
ATOM     76  C   UNL     1       3.998  -3.165   9.445  1.00  0.00     0.009 A 
ATOM     77  C   UNL     1       3.135  -1.746  11.685  1.00  0.00     0.001 A 
ATOM     78  C   UNL     1       4.385  -3.575  10.722  1.00  0.00     0.001 A 
ATOM     79  C   UNL     1       3.954  -2.865  11.841  1.00  0.00     0.000 A 
ENDBRANCH  61  74
ENDBRANCH  35  36
ENDBRANCH  27  30
ENDBRANCH  25  26
ENDBRANCH  24  25
ENDBRANCH   1  24
TORSDOF 14
