REMARK SMILES COC(CNS(=O)(=O)c1ccc(Cl)c(C(=O)NCCCNC(=O)c2ccc(-c3c4nc(c(-c5ccccc5)c5ccc([nH]5)c(-c5ccccc5)c5nc(c(-c6ccccc6)c6ccc3[nH]6)C=C5)C=C4)cc2)c1Cl)OC
REMARK SMILES IDX 15 1 16 2 17 3 14 5 9 6 10 7 72 8 11 9 73 10 12 11 13 12
REMARK SMILES IDX 6 13 7 14 8 15 5 16 4 18 3 19 2 20 1 21 74 22 75 23 18 24
REMARK SMILES IDX 19 25 20 26 21 27 22 28 23 30 24 31 25 32 71 33 26 34 70 35
REMARK SMILES IDX 27 36 28 37 29 38 64 39 30 40 69 41 63 42 65 43 31 44 68 45
REMARK SMILES IDX 62 46 61 47 32 49 54 50 39 51 53 52 40 53 43 54 52 55 66 56
REMARK SMILES IDX 41 57 42 58 51 60 67 61 44 62 33 63 34 64 38 65 35 66 37 67
REMARK SMILES IDX 36 68 55 69 56 70 60 71 57 72 59 73 58 74 45 75 46 76 50 77
REMARK SMILES IDX 47 78 49 79 48 80
REMARK H PARENT 17 4 5 17 21 29 65 48 43 59
REMARK Flexibility Score: inf
ROOT
ATOM      1  C   UNL     1       3.662   6.442   3.808  1.00  0.00     0.254 C 
ATOM      2  O   UNL     1       4.238   5.726   4.628  1.00  0.00    -0.269 OA
ATOM      3  N   UNL     1       4.434   7.435   3.254  1.00  0.00    -0.352 N 
ATOM      4  H   UNL     1       5.387   7.199   3.183  1.00  0.00     0.163 HD
ENDROOT
BRANCH   1   5
ATOM      5  C   UNL     1       2.253   6.108   3.421  1.00  0.00     0.078 A 
ATOM      6  C   UNL     1       0.609   4.337   2.948  1.00  0.00     0.101 A 
ATOM      7  C   UNL     1      -0.397   5.292   2.803  1.00  0.00     0.025 A 
ATOM      8  C   UNL     1       1.940   4.731   3.191  1.00  0.00     0.075 A 
ATOM      9  C   UNL     1      -0.103   6.626   3.012  1.00  0.00     0.023 A 
ATOM     10  Cl  UNL     1       3.199   3.526   3.134  1.00  0.00    -0.082 Cl
ATOM     11  C   UNL     1       1.184   7.022   3.401  1.00  0.00     0.055 A 
ATOM     12  Cl  UNL     1       1.203   8.624   4.028  1.00  0.00    -0.083 Cl
BRANCH   6  13
ATOM     13  S   UNL     1       0.083   2.640   2.924  1.00  0.00     0.242 S 
ATOM     14  O   UNL     1      -1.349   2.614   2.704  1.00  0.00    -0.207 OA
ATOM     15  O   UNL     1       0.664   1.958   4.054  1.00  0.00    -0.207 OA
BRANCH  13  16
ATOM     16  N   UNL     1       0.789   2.031   1.545  1.00  0.00    -0.206 NA
ATOM     17  H   UNL     1       1.780   2.269   1.589  1.00  0.00     0.141 HD
BRANCH  16  18
ATOM     18  C   UNL     1       0.299   2.472   0.232  1.00  0.00     0.161 C 
BRANCH  18  19
ATOM     19  C   UNL     1       0.997   1.810  -0.984  1.00  0.00     0.263 C 
BRANCH  19  20
ATOM     20  O   UNL     1       0.615   0.480  -1.328  1.00  0.00    -0.355 OA
ATOM     21  C   UNL     1       0.511  -0.480  -0.298  1.00  0.00     0.198 C 
ENDBRANCH  19  20
BRANCH  19  22
ATOM     22  O   UNL     1       2.388   2.100  -1.133  1.00  0.00    -0.355 OA
ATOM     23  C   UNL     1       3.287   1.496  -0.228  1.00  0.00     0.198 C 
ENDBRANCH  19  22
ENDBRANCH  18  19
ENDBRANCH  16  18
ENDBRANCH  13  16
ENDBRANCH   6  13
ENDBRANCH   1   5
BRANCH   3  24
ATOM     24  C   UNL     1       4.125   8.762   2.753  1.00  0.00     0.118 C 
BRANCH  24  25
ATOM     25  C   UNL     1       4.080   9.757   3.921  1.00  0.00     0.042 C 
BRANCH  25  26
ATOM     26  C   UNL     1       5.440  10.242   4.402  1.00  0.00     0.118 C 
BRANCH  26  27
ATOM     27  N   UNL     1       6.018  11.213   3.489  1.00  0.00    -0.352 N 
ATOM     28  C   UNL     1       6.241  12.557   3.661  1.00  0.00     0.251 C 
ATOM     29  H   UNL     1       6.290  10.853   2.614  1.00  0.00     0.163 HD
ATOM     30  O   UNL     1       6.471  13.258   2.679  1.00  0.00    -0.269 OA
BRANCH  28  31
ATOM     31  C   UNL     1       6.208  13.171   5.009  1.00  0.00     0.039 A 
ATOM     32  C   UNL     1       5.699  14.467   5.147  1.00  0.00     0.014 A 
ATOM     33  C   UNL     1       6.728  12.511   6.125  1.00  0.00     0.014 A 
ATOM     34  C   UNL     1       5.674  15.078   6.404  1.00  0.00     0.010 A 
ATOM     35  C   UNL     1       6.619  13.082   7.391  1.00  0.00     0.010 A 
ATOM     36  C   UNL     1       6.108  14.379   7.542  1.00  0.00    -0.014 A 
BRANCH  36  37
ATOM     37  C   UNL     1       6.054  14.994   8.893  1.00  0.00     0.031 A 
ATOM     38  C   UNL     1       7.323  15.232   9.668  1.00  0.00     0.074 A 
ATOM     39  C   UNL     1       4.861  15.286   9.445  1.00  0.00     0.049 A 
ATOM     40  N   UNL     1       7.475  15.708  10.879  1.00  0.00    -0.248 NA
ATOM     41  C   UNL     1       8.586  14.864   9.007  1.00  0.00     0.031 C 
ATOM     42  C   UNL     1       3.558  15.069   8.811  1.00  0.00     0.029 A 
ATOM     43  N   UNL     1       4.549  15.826  10.668  1.00  0.00    -0.354 N 
ATOM     44  C   UNL     1       8.842  15.677  11.128  1.00  0.00     0.074 A 
ATOM     45  C   UNL     1       9.471  15.087   9.967  1.00  0.00     0.031 C 
ATOM     46  C   UNL     1       2.591  15.500   9.636  1.00  0.00     0.029 A 
ATOM     47  C   UNL     1       3.199  15.979  10.873  1.00  0.00     0.049 A 
ATOM     48  H   UNL     1       5.228  16.078  11.334  1.00  0.00     0.167 HD
ATOM     49  C   UNL     1       9.517  16.119  12.216  1.00  0.00     0.031 A 
ATOM     50  C   UNL     1       2.525  16.446  11.941  1.00  0.00     0.031 A 
ATOM     51  C   UNL     1       8.889  16.712  13.367  1.00  0.00     0.049 A 
ATOM     52  C   UNL     1       3.296  16.909  13.146  1.00  0.00     0.074 A 
ATOM     53  C   UNL     1       9.486  17.241  14.498  1.00  0.00     0.029 A 
ATOM     54  N   UNL     1       7.520  16.849  13.534  1.00  0.00    -0.354 N 
ATOM     55  N   UNL     1       4.593  16.938  13.337  1.00  0.00    -0.248 NA
ATOM     56  C   UNL     1       2.508  17.415  14.279  1.00  0.00     0.031 C 
ATOM     57  C   UNL     1       8.475  17.642  15.376  1.00  0.00     0.029 A 
ATOM     58  C   UNL     1       7.251  17.428  14.763  1.00  0.00     0.049 A 
ATOM     59  H   UNL     1       6.840  16.575  12.878  1.00  0.00     0.167 HD
ATOM     60  C   UNL     1       4.778  17.493  14.597  1.00  0.00     0.074 A 
ATOM     61  C   UNL     1       3.461  17.802  15.115  1.00  0.00     0.031 C 
ATOM     62  C   UNL     1       5.934  17.728  15.264  1.00  0.00     0.031 A 
BRANCH  49  63
ATOM     63  C   UNL     1      11.015  15.967  12.214  1.00  0.00    -0.014 A 
ATOM     64  C   UNL     1      11.825  16.715  11.344  1.00  0.00     0.009 A 
ATOM     65  C   UNL     1      11.628  15.087  13.120  1.00  0.00     0.009 A 
ATOM     66  C   UNL     1      13.212  16.553  11.352  1.00  0.00     0.001 A 
ATOM     67  C   UNL     1      13.018  14.953  13.149  1.00  0.00     0.001 A 
ATOM     68  C   UNL     1      13.808  15.677  12.258  1.00  0.00     0.000 A 
ENDBRANCH  49  63
BRANCH  50  69
ATOM     69  C   UNL     1       1.040  16.511  11.916  1.00  0.00    -0.014 A 
ATOM     70  C   UNL     1       0.380  17.749  11.887  1.00  0.00     0.009 A 
ATOM     71  C   UNL     1       0.272  15.335  11.928  1.00  0.00     0.009 A 
ATOM     72  C   UNL     1      -1.016  17.809  11.901  1.00  0.00     0.001 A 
ATOM     73  C   UNL     1      -1.123  15.398  11.909  1.00  0.00     0.001 A 
ATOM     74  C   UNL     1      -1.766  16.635  11.907  1.00  0.00     0.000 A 
ENDBRANCH  50  69
BRANCH  62  75
ATOM     75  C   UNL     1       5.829  18.387  16.611  1.00  0.00    -0.014 A 
ATOM     76  C   UNL     1       5.315  17.703  17.724  1.00  0.00     0.009 A 
ATOM     77  C   UNL     1       6.292  19.703  16.775  1.00  0.00     0.009 A 
ATOM     78  C   UNL     1       5.234  18.338  18.965  1.00  0.00     0.001 A 
ATOM     79  C   UNL     1       6.240  20.322  18.024  1.00  0.00     0.001 A 
ATOM     80  C   UNL     1       5.702  19.643  19.115  1.00  0.00     0.000 A 
ENDBRANCH  62  75
ENDBRANCH  36  37
ENDBRANCH  28  31
ENDBRANCH  26  27
ENDBRANCH  25  26
ENDBRANCH  24  25
ENDBRANCH   3  24
TORSDOF 16
