REMARK SMILES O=C(NCCCNC(=O)c1ccc(O)c(Br)n1)c1ccc(-c2c3nc(c(-c4ccccc4)c4ccc([nH]4)c(-c4ccccc4)c4nc(c(-c5ccccc5)c5ccc2[nH]5)C=C4)C=C3)cc1
REMARK SMILES IDX 4 1 3 2 1 3 2 4 18 6 19 7 65 8 20 9 64 10 21 11 22 12 23 13
REMARK SMILES IDX 58 14 24 15 63 16 57 17 59 18 25 19 62 20 56 21 55 22 26 24
REMARK SMILES IDX 48 25 33 26 47 27 34 28 37 29 46 30 60 31 35 32 36 33 45 35
REMARK SMILES IDX 61 36 38 37 27 38 28 39 32 40 29 41 31 42 30 43 49 44 50 45
REMARK SMILES IDX 54 46 51 47 53 48 52 49 39 50 40 51 44 52 41 53 43 54 42 55
REMARK SMILES IDX 5 56 6 57 7 58 8 59 9 61 10 62 11 63 17 64 12 65 15 66 13 67
REMARK SMILES IDX 16 68 14 69
REMARK H PARENT 3 5 59 23 37 34 7 60 14 70
REMARK Flexibility Score: inf
ROOT
ATOM      1  C   UNL     1       4.406   0.304  -1.397  1.00  0.00     0.118 C 
ENDROOT
BRANCH   1   2
ATOM      2  N   UNL     1       2.971   0.382  -1.163  1.00  0.00    -0.352 N 
ATOM      3  O   UNL     1       1.017   0.020  -0.107  1.00  0.00    -0.269 OA
ATOM      4  C   UNL     1       2.243   0.094  -0.038  1.00  0.00     0.251 C 
ATOM      5  H   UNL     1       2.441   0.690  -1.934  1.00  0.00     0.163 HD
BRANCH   4   6
ATOM      6  C   UNL     1       2.915  -0.140   1.256  1.00  0.00     0.039 A 
ATOM      7  C   UNL     1       3.920   0.718   1.711  1.00  0.00     0.014 A 
ATOM      8  C   UNL     1       2.486  -1.204   2.057  1.00  0.00     0.014 A 
ATOM      9  C   UNL     1       4.567   0.451   2.916  1.00  0.00     0.010 A 
ATOM     10  C   UNL     1       3.102  -1.443   3.287  1.00  0.00     0.010 A 
ATOM     11  C   UNL     1       4.165  -0.633   3.712  1.00  0.00    -0.014 A 
BRANCH  11  12
ATOM     12  C   UNL     1       4.842  -0.881   5.006  1.00  0.00     0.031 A 
ATOM     13  C   UNL     1       5.779  -2.041   5.173  1.00  0.00     0.074 A 
ATOM     14  C   UNL     1       4.629  -0.033   6.029  1.00  0.00     0.049 A 
ATOM     15  N   UNL     1       6.508  -2.361   6.212  1.00  0.00    -0.248 NA
ATOM     16  C   UNL     1       5.917  -2.961   4.033  1.00  0.00     0.031 C 
ATOM     17  C   UNL     1       3.736   1.125   5.991  1.00  0.00     0.029 A 
ATOM     18  N   UNL     1       5.160  -0.008   7.293  1.00  0.00    -0.354 N 
ATOM     19  C   UNL     1       7.189  -3.517   5.854  1.00  0.00     0.074 A 
ATOM     20  C   UNL     1       6.768  -3.858   4.512  1.00  0.00     0.031 C 
ATOM     21  C   UNL     1       3.806   1.768   7.167  1.00  0.00     0.029 A 
ATOM     22  C   UNL     1       4.724   1.052   8.048  1.00  0.00     0.049 A 
ATOM     23  H   UNL     1       5.793  -0.684   7.627  1.00  0.00     0.167 HD
ATOM     24  C   UNL     1       8.090  -4.221   6.576  1.00  0.00     0.031 A 
ATOM     25  C   UNL     1       5.028   1.413   9.309  1.00  0.00     0.031 A 
ATOM     26  C   UNL     1       8.514  -3.882   7.907  1.00  0.00     0.049 A 
ATOM     27  C   UNL     1       6.002   0.595  10.101  1.00  0.00     0.074 A 
ATOM     28  C   UNL     1       9.466  -4.511   8.691  1.00  0.00     0.029 A 
ATOM     29  N   UNL     1       8.007  -2.832   8.655  1.00  0.00    -0.354 N 
ATOM     30  N   UNL     1       6.675  -0.466   9.729  1.00  0.00    -0.248 NA
ATOM     31  C   UNL     1       6.260   1.020  11.485  1.00  0.00     0.031 C 
ATOM     32  C   UNL     1       9.504  -3.867   9.931  1.00  0.00     0.029 A 
ATOM     33  C   UNL     1       8.604  -2.814   9.903  1.00  0.00     0.049 A 
ATOM     34  H   UNL     1       7.325  -2.194   8.344  1.00  0.00     0.167 HD
ATOM     35  C   UNL     1       7.441  -0.832  10.827  1.00  0.00     0.074 A 
ATOM     36  C   UNL     1       7.157   0.124  11.877  1.00  0.00     0.031 C 
ATOM     37  C   UNL     1       8.304  -1.869  10.946  1.00  0.00     0.031 A 
BRANCH  24  38
ATOM     38  C   UNL     1       8.687  -5.444   5.946  1.00  0.00    -0.014 A 
ATOM     39  C   UNL     1       9.706  -5.337   4.988  1.00  0.00     0.009 A 
ATOM     40  C   UNL     1       8.285  -6.718   6.377  1.00  0.00     0.009 A 
ATOM     41  C   UNL     1      10.303  -6.484   4.463  1.00  0.00     0.001 A 
ATOM     42  C   UNL     1       8.895  -7.862   5.863  1.00  0.00     0.001 A 
ATOM     43  C   UNL     1       9.902  -7.745   4.905  1.00  0.00     0.000 A 
ENDBRANCH  24  38
BRANCH  25  44
ATOM     44  C   UNL     1       4.398   2.628   9.878  1.00  0.00    -0.014 A 
ATOM     45  C   UNL     1       5.114   3.831   9.944  1.00  0.00     0.009 A 
ATOM     46  C   UNL     1       3.054   2.606  10.283  1.00  0.00     0.009 A 
ATOM     47  C   UNL     1       4.492   4.995  10.403  1.00  0.00     0.001 A 
ATOM     48  C   UNL     1       2.432   3.775  10.727  1.00  0.00     0.001 A 
ATOM     49  C   UNL     1       3.152   4.967  10.787  1.00  0.00     0.000 A 
ENDBRANCH  25  44
BRANCH  37  50
ATOM     50  C   UNL     1       9.010  -2.043  12.257  1.00  0.00    -0.014 A 
ATOM     51  C   UNL     1       8.362  -2.648  13.343  1.00  0.00     0.009 A 
ATOM     52  C   UNL     1      10.366  -1.699  12.371  1.00  0.00     0.009 A 
ATOM     53  C   UNL     1       9.060  -2.902  14.525  1.00  0.00     0.001 A 
ATOM     54  C   UNL     1      11.065  -1.970  13.549  1.00  0.00     0.001 A 
ATOM     55  C   UNL     1      10.412  -2.571  14.624  1.00  0.00     0.000 A 
ENDBRANCH  37  50
ENDBRANCH  11  12
ENDBRANCH   4   6
ENDBRANCH   1   2
BRANCH   1  56
ATOM     56  C   UNL     1       4.768  -0.761  -2.428  1.00  0.00     0.042 C 
BRANCH  56  57
ATOM     57  C   UNL     1       4.242  -0.474  -3.832  1.00  0.00     0.118 C 
BRANCH  57  58
ATOM     58  N   UNL     1       4.871   0.702  -4.413  1.00  0.00    -0.351 N 
ATOM     59  C   UNL     1       5.791   0.781  -5.434  1.00  0.00     0.269 C 
ATOM     60  H   UNL     1       4.599   1.563  -4.022  1.00  0.00     0.163 HD
ATOM     61  O   UNL     1       6.378   1.843  -5.633  1.00  0.00    -0.268 OA
BRANCH  59  62
ATOM     62  C   UNL     1       6.104  -0.410  -6.274  1.00  0.00     0.129 A 
ATOM     63  C   UNL     1       7.423  -0.637  -6.649  1.00  0.00     0.038 A 
ATOM     64  N   UNL     1       5.064  -1.199  -6.649  1.00  0.00    -0.232 NA
ATOM     65  C   UNL     1       7.706  -1.764  -7.416  1.00  0.00     0.051 A 
ATOM     66  C   UNL     1       5.367  -2.277  -7.400  1.00  0.00     0.148 A 
ATOM     67  C   UNL     1       6.665  -2.602  -7.794  1.00  0.00     0.148 A 
ATOM     68  Br  UNL     1       3.921  -3.401  -7.906  1.00  0.00    -0.025 Br
BRANCH  67  69
ATOM     69  O   UNL     1       6.982  -3.706  -8.531  1.00  0.00    -0.505 OA
ATOM     70  H   UNL     1       7.873  -3.872  -8.766  1.00  0.00     0.293 HD
ENDBRANCH  67  69
ENDBRANCH  59  62
ENDBRANCH  57  58
ENDBRANCH  56  57
ENDBRANCH   1  56
TORSDOF 11
