REMARK SMILES Cc1nonc1-c1noc(CCC(=O)NCCCNC(=O)c2ccc(-c3c4nc(c(-c5ccccc5)c5ccc([nH]5)c(-c5ccccc5)c5nc(c(-c6ccccc6)c6ccc3[nH]6)C=C5)C=C4)cc2)n1
REMARK SMILES IDX 16 1 15 2 13 3 14 4 12 6 11 7 10 8 7 9 8 10 70 11 9 12 6 13
REMARK SMILES IDX 1 14 2 15 3 16 4 17 5 18 17 19 18 20 19 21 20 22 21 24 22 25
REMARK SMILES IDX 23 26 69 27 24 28 68 29 25 30 26 31 27 32 62 33 28 34 67 35
REMARK SMILES IDX 61 36 63 37 29 38 66 39 60 40 59 41 30 43 52 44 37 45 51 46
REMARK SMILES IDX 38 47 41 48 50 49 64 50 39 51 40 52 49 54 65 55 42 56 31 57
REMARK SMILES IDX 32 58 36 59 33 60 35 61 34 62 53 63 54 64 58 65 55 66 57 67
REMARK SMILES IDX 56 68 43 69 44 70 48 71 45 72 47 73 46 74
REMARK H PARENT 15 5 19 23 63 42 41 53
REMARK Flexibility Score: inf
ROOT
ATOM      1  C   UNL     1      -1.396   5.435   0.199  1.00  0.00     0.117 C 
ENDROOT
BRANCH   1   2
ATOM      2  N   UNL     1      -0.670   6.696   0.160  1.00  0.00    -0.356 N 
ATOM      3  C   UNL     1       0.246   7.159  -0.730  1.00  0.00     0.220 C 
ATOM      4  O   UNL     1       0.826   8.216  -0.474  1.00  0.00    -0.275 OA
ATOM      5  H   UNL     1      -0.877   7.314   0.898  1.00  0.00     0.163 HD
BRANCH   3   6
ATOM      6  C   UNL     1       0.561   6.399  -1.996  1.00  0.00     0.110 C 
BRANCH   6   7
ATOM      7  C   UNL     1       1.893   5.669  -1.884  1.00  0.00     0.110 C 
BRANCH   7   8
ATOM      8  C   UNL     1       1.761   4.334  -1.254  1.00  0.00     0.227 A 
ATOM      9  C   UNL     1       1.308   2.381  -0.641  1.00  0.00     0.226 A 
ATOM     10  N   UNL     1       2.412   2.677   0.060  1.00  0.00    -0.055 NA
ATOM     11  N   UNL     1       0.867   3.395  -1.460  1.00  0.00    -0.190 NA
ATOM     12  O   UNL     1       2.718   3.977  -0.349  1.00  0.00    -0.339 OA
BRANCH   9  13
ATOM     13  C   UNL     1       0.567   1.125  -0.543  1.00  0.00     0.178 A 
ATOM     14  C   UNL     1       2.463  -0.590   0.085  1.00  0.00     0.073 C 
ATOM     15  C   UNL     1       1.086  -0.140  -0.210  1.00  0.00     0.113 A 
ATOM     16  N   UNL     1       0.089  -1.033  -0.213  1.00  0.00    -0.054 NA
ATOM     17  O   UNL     1      -1.047  -0.312  -0.560  1.00  0.00    -0.244 OA
ATOM     18  N   UNL     1      -0.746   1.028  -0.773  1.00  0.00    -0.046 NA
ENDBRANCH   9  13
ENDBRANCH   7   8
ENDBRANCH   6   7
ENDBRANCH   3   6
ENDBRANCH   1   2
BRANCH   1  19
ATOM     19  C   UNL     1      -0.842   4.516   1.284  1.00  0.00     0.042 C 
BRANCH  19  20
ATOM     20  C   UNL     1      -1.217   4.938   2.701  1.00  0.00     0.118 C 
BRANCH  20  21
ATOM     21  N   UNL     1      -2.591   4.596   3.031  1.00  0.00    -0.352 N 
ATOM     22  C   UNL     1      -3.107   3.625   3.851  1.00  0.00     0.251 C 
ATOM     23  H   UNL     1      -3.268   5.158   2.589  1.00  0.00     0.163 HD
ATOM     24  O   UNL     1      -4.316   3.389   3.794  1.00  0.00    -0.269 OA
BRANCH  22  25
ATOM     25  C   UNL     1      -2.267   2.853   4.799  1.00  0.00     0.039 A 
ATOM     26  C   UNL     1      -2.613   1.521   5.056  1.00  0.00     0.014 A 
ATOM     27  C   UNL     1      -1.219   3.434   5.517  1.00  0.00     0.014 A 
ATOM     28  C   UNL     1      -1.902   0.775   6.003  1.00  0.00     0.010 A 
ATOM     29  C   UNL     1      -0.457   2.667   6.402  1.00  0.00     0.010 A 
ATOM     30  C   UNL     1      -0.806   1.337   6.676  1.00  0.00    -0.014 A 
BRANCH  30  31
ATOM     31  C   UNL     1      -0.059   0.558   7.700  1.00  0.00     0.031 A 
ATOM     32  C   UNL     1      -0.068   0.985   9.145  1.00  0.00     0.074 A 
ATOM     33  C   UNL     1       0.649  -0.529   7.336  1.00  0.00     0.049 A 
ATOM     34  N   UNL     1       0.524   0.430  10.175  1.00  0.00    -0.248 NA
ATOM     35  C   UNL     1      -0.819   2.206   9.474  1.00  0.00     0.031 C 
ATOM     36  C   UNL     1       0.775  -1.044   5.972  1.00  0.00     0.029 A 
ATOM     37  N   UNL     1       1.386  -1.406   8.093  1.00  0.00    -0.354 N 
ATOM     38  C   UNL     1       0.243   1.250  11.261  1.00  0.00     0.074 A 
ATOM     39  C   UNL     1      -0.541   2.358  10.760  1.00  0.00     0.031 C 
ATOM     40  C   UNL     1       1.502  -2.173   5.996  1.00  0.00     0.029 A 
ATOM     41  C   UNL     1       1.916  -2.445   7.369  1.00  0.00     0.049 A 
ATOM     42  H   UNL     1       1.522  -1.299   9.063  1.00  0.00     0.167 HD
ATOM     43  C   UNL     1       0.586   1.093  12.563  1.00  0.00     0.031 A 
ATOM     44  C   UNL     1       2.641  -3.507   7.765  1.00  0.00     0.031 A 
ATOM     45  C   UNL     1       1.331  -0.022  13.083  1.00  0.00     0.049 A 
ATOM     46  C   UNL     1       2.985  -3.678   9.216  1.00  0.00     0.074 A 
ATOM     47  C   UNL     1       1.666  -0.299  14.398  1.00  0.00     0.029 A 
ATOM     48  N   UNL     1       1.850  -1.049  12.313  1.00  0.00    -0.354 N 
ATOM     49  N   UNL     1       2.672  -2.917  10.234  1.00  0.00    -0.248 NA
ATOM     50  C   UNL     1       3.778  -4.865   9.569  1.00  0.00     0.031 C 
ATOM     51  C   UNL     1       2.415  -1.482  14.419  1.00  0.00     0.029 A 
ATOM     52  C   UNL     1       2.516  -1.956  13.121  1.00  0.00     0.049 A 
ATOM     53  H   UNL     1       1.759  -1.124  11.335  1.00  0.00     0.167 HD
ATOM     54  C   UNL     1       3.211  -3.540  11.351  1.00  0.00     0.074 A 
ATOM     55  C   UNL     1       3.862  -4.748  10.887  1.00  0.00     0.031 C 
ATOM     56  C   UNL     1       3.168  -3.147  12.647  1.00  0.00     0.031 A 
BRANCH  43  57
ATOM     57  C   UNL     1       0.158   2.173  13.516  1.00  0.00    -0.014 A 
ATOM     58  C   UNL     1      -1.185   2.310  13.904  1.00  0.00     0.009 A 
ATOM     59  C   UNL     1       1.111   3.063  14.034  1.00  0.00     0.009 A 
ATOM     60  C   UNL     1      -1.570   3.345  14.758  1.00  0.00     0.001 A 
ATOM     61  C   UNL     1       0.726   4.081  14.908  1.00  0.00     0.001 A 
ATOM     62  C   UNL     1      -0.615   4.229  15.260  1.00  0.00     0.000 A 
ENDBRANCH  43  57
BRANCH  44  63
ATOM     63  C   UNL     1       3.047  -4.530   6.771  1.00  0.00    -0.014 A 
ATOM     64  C   UNL     1       2.363  -5.753   6.704  1.00  0.00     0.009 A 
ATOM     65  C   UNL     1       4.104  -4.288   5.881  1.00  0.00     0.009 A 
ATOM     66  C   UNL     1       2.739  -6.722   5.773  1.00  0.00     0.001 A 
ATOM     67  C   UNL     1       4.465  -5.253   4.939  1.00  0.00     0.001 A 
ATOM     68  C   UNL     1       3.786  -6.470   4.888  1.00  0.00     0.000 A 
ENDBRANCH  44  63
BRANCH  56  69
ATOM     69  C   UNL     1       3.829  -4.044  13.652  1.00  0.00    -0.014 A 
ATOM     70  C   UNL     1       5.226  -4.083  13.778  1.00  0.00     0.009 A 
ATOM     71  C   UNL     1       3.044  -4.851  14.490  1.00  0.00     0.009 A 
ATOM     72  C   UNL     1       5.826  -4.939  14.705  1.00  0.00     0.001 A 
ATOM     73  C   UNL     1       3.646  -5.690  15.428  1.00  0.00     0.001 A 
ATOM     74  C   UNL     1       5.036  -5.740  15.529  1.00  0.00     0.000 A 
ENDBRANCH  56  69
ENDBRANCH  30  31
ENDBRANCH  22  25
ENDBRANCH  20  21
ENDBRANCH  19  20
ENDBRANCH   1  19
TORSDOF 13
