REMARK SMILES CC(C)(C)N(CC(=O)NCCCNC(=O)c1ccc(-c2c3nc(c(-c4ccccc4)c4ccc([nH]4)c(-c4ccccc4)c4nc(c(-c5ccccc5)c5ccc2[nH]5)C=C4)C=C3)cc1)C(=O)Nc1ccc([N+](=O)[O-])cc1
REMARK SMILES IDX 10 1 9 2 7 3 8 4 6 6 5 7 2 8 1 9 3 10 4 11 64 12 65 13 66 14
REMARK SMILES IDX 67 16 68 17 75 18 69 19 74 20 70 21 71 22 72 23 73 24 11 25
REMARK SMILES IDX 12 26 13 27 14 28 15 30 16 31 17 32 63 33 18 34 62 35 19 36
REMARK SMILES IDX 20 37 21 38 56 39 22 40 61 41 55 42 57 43 23 44 60 45 54 46
REMARK SMILES IDX 53 47 24 49 46 50 31 51 45 52 32 53 35 54 44 55 58 56 33 57
REMARK SMILES IDX 34 58 43 60 59 61 36 62 25 63 26 64 30 65 27 66 29 67 28 68
REMARK SMILES IDX 47 69 48 70 52 71 49 72 51 73 50 74 37 75 38 76 42 77 39 78
REMARK SMILES IDX 41 79 40 80
REMARK H PARENT 9 5 66 15 13 29 57 48 35 59
REMARK Flexibility Score: inf
ROOT
ATOM      1  C   UNL     1       3.850  -0.658   1.302  1.00  0.00     0.117 C 
ENDROOT
BRANCH   1   2
ATOM      2  N   UNL     1       4.240  -1.374   0.111  1.00  0.00    -0.354 N 
ATOM      3  C   UNL     1       3.514  -1.692  -0.993  1.00  0.00     0.239 C 
ATOM      4  O   UNL     1       4.165  -1.822  -2.038  1.00  0.00    -0.273 OA
ATOM      5  H   UNL     1       5.176  -1.679   0.096  1.00  0.00     0.163 HD
BRANCH   3   6
ATOM      6  C   UNL     1       1.974  -1.778  -1.039  1.00  0.00     0.221 C 
BRANCH   6   7
ATOM      7  N   UNL     1       1.185  -2.116   0.164  1.00  0.00    -0.310 N 
BRANCH   7   8
ATOM      8  C   UNL     1       0.220  -1.060   0.714  1.00  0.00     0.037 C 
ATOM      9  C   UNL     1       0.371   0.356   0.084  1.00  0.00     0.034 C 
ATOM     10  C   UNL     1       0.342  -0.853   2.244  1.00  0.00     0.034 C 
ATOM     11  C   UNL     1      -1.238  -1.480   0.389  1.00  0.00     0.034 C 
ENDBRANCH   7   8
BRANCH   7  12
ATOM     12  C   UNL     1       0.977  -3.428   0.604  1.00  0.00     0.322 C 
ATOM     13  O   UNL     1       0.387  -3.679   1.661  1.00  0.00    -0.248 OA
ATOM     14  N   UNL     1       1.128  -4.511  -0.204  1.00  0.00    -0.308 N 
ATOM     15  H   UNL     1       0.442  -5.195  -0.026  1.00  0.00     0.171 HD
BRANCH  14  16
ATOM     16  C   UNL     1       1.996  -4.909  -1.219  1.00  0.00     0.043 A 
ATOM     17  C   UNL     1       1.462  -5.651  -2.280  1.00  0.00     0.033 A 
ATOM     18  C   UNL     1       3.362  -4.652  -1.181  1.00  0.00     0.033 A 
ATOM     19  C   UNL     1       2.254  -5.968  -3.388  1.00  0.00     0.088 A 
ATOM     20  C   UNL     1       4.166  -4.958  -2.285  1.00  0.00     0.088 A 
ATOM     21  C   UNL     1       3.597  -5.576  -3.404  1.00  0.00     0.269 A 
BRANCH  21  22
ATOM     22  N   UNL     1       4.403  -5.787  -4.611  1.00  0.00     0.062 N 
ATOM     23  O   UNL     1       3.944  -6.540  -5.482  1.00  0.00    -0.258 OA
ATOM     24  O   UNL     1       5.488  -5.195  -4.692  1.00  0.00    -0.258 OA
ENDBRANCH  21  22
ENDBRANCH  14  16
ENDBRANCH   7  12
ENDBRANCH   6   7
ENDBRANCH   3   6
ENDBRANCH   1   2
BRANCH   1  25
ATOM     25  C   UNL     1       3.820  -1.502   2.568  1.00  0.00     0.042 C 
BRANCH  25  26
ATOM     26  C   UNL     1       5.146  -2.163   2.921  1.00  0.00     0.118 C 
BRANCH  26  27
ATOM     27  N   UNL     1       6.247  -1.215   3.011  1.00  0.00    -0.352 N 
ATOM     28  C   UNL     1       6.877  -0.636   4.083  1.00  0.00     0.251 C 
ATOM     29  H   UNL     1       6.607  -0.937   2.138  1.00  0.00     0.163 HD
ATOM     30  O   UNL     1       7.624   0.318   3.883  1.00  0.00    -0.269 OA
BRANCH  28  31
ATOM     31  C   UNL     1       6.681  -1.126   5.465  1.00  0.00     0.039 A 
ATOM     32  C   UNL     1       6.722  -0.202   6.516  1.00  0.00     0.014 A 
ATOM     33  C   UNL     1       6.550  -2.486   5.753  1.00  0.00     0.014 A 
ATOM     34  C   UNL     1       6.592  -0.635   7.838  1.00  0.00     0.010 A 
ATOM     35  C   UNL     1       6.324  -2.907   7.061  1.00  0.00     0.010 A 
ATOM     36  C   UNL     1       6.368  -1.991   8.121  1.00  0.00    -0.014 A 
BRANCH  36  37
ATOM     37  C   UNL     1       6.227  -2.475   9.517  1.00  0.00     0.031 A 
ATOM     38  C   UNL     1       7.227  -3.447  10.086  1.00  0.00     0.074 A 
ATOM     39  C   UNL     1       5.172  -2.083  10.258  1.00  0.00     0.049 A 
ATOM     40  N   UNL     1       7.245  -4.022  11.263  1.00  0.00    -0.248 NA
ATOM     41  C   UNL     1       8.337  -3.852   9.207  1.00  0.00     0.031 C 
ATOM     42  C   UNL     1       4.108  -1.183   9.810  1.00  0.00     0.029 A 
ATOM     43  N   UNL     1       4.822  -2.396  11.547  1.00  0.00    -0.354 N 
ATOM     44  C   UNL     1       8.345  -4.873  11.251  1.00  0.00     0.074 A 
ATOM     45  C   UNL     1       8.938  -4.779   9.936  1.00  0.00     0.031 C 
ATOM     46  C   UNL     1       3.244  -0.988  10.820  1.00  0.00     0.029 A 
ATOM     47  C   UNL     1       3.672  -1.776  11.971  1.00  0.00     0.049 A 
ATOM     48  H   UNL     1       5.346  -3.007  12.115  1.00  0.00     0.167 HD
ATOM     49  C   UNL     1       8.833  -5.646  12.250  1.00  0.00     0.031 A 
ATOM     50  C   UNL     1       3.035  -1.833  13.155  1.00  0.00     0.031 A 
ATOM     51  C   UNL     1       8.262  -5.716  13.568  1.00  0.00     0.049 A 
ATOM     52  C   UNL     1       3.608  -2.681  14.255  1.00  0.00     0.074 A 
ATOM     53  C   UNL     1       8.719  -6.416  14.671  1.00  0.00     0.029 A 
ATOM     54  N   UNL     1       7.109  -5.055  13.961  1.00  0.00    -0.354 N 
ATOM     55  N   UNL     1       4.686  -3.427  14.248  1.00  0.00    -0.248 NA
ATOM     56  C   UNL     1       2.881  -2.682  15.533  1.00  0.00     0.031 C 
ATOM     57  C   UNL     1       7.819  -6.210  15.722  1.00  0.00     0.029 A 
ATOM     58  C   UNL     1       6.829  -5.344  15.286  1.00  0.00     0.049 A 
ATOM     59  H   UNL     1       6.569  -4.468  13.384  1.00  0.00     0.167 HD
ATOM     60  C   UNL     1       4.780  -3.968  15.523  1.00  0.00     0.074 A 
ATOM     61  C   UNL     1       3.661  -3.448  16.283  1.00  0.00     0.031 C 
ATOM     62  C   UNL     1       5.709  -4.820  16.022  1.00  0.00     0.031 A 
BRANCH  49  63
ATOM     63  C   UNL     1      10.050  -6.477  11.949  1.00  0.00    -0.014 A 
ATOM     64  C   UNL     1      11.308  -5.883  11.756  1.00  0.00     0.009 A 
ATOM     65  C   UNL     1       9.942  -7.874  11.879  1.00  0.00     0.009 A 
ATOM     66  C   UNL     1      12.423  -6.668  11.456  1.00  0.00     0.001 A 
ATOM     67  C   UNL     1      11.066  -8.659  11.609  1.00  0.00     0.001 A 
ATOM     68  C   UNL     1      12.302  -8.055  11.387  1.00  0.00     0.000 A 
ENDBRANCH  49  63
BRANCH  50  69
ATOM     69  C   UNL     1       1.799  -1.039  13.373  1.00  0.00    -0.014 A 
ATOM     70  C   UNL     1       1.820   0.089  14.208  1.00  0.00     0.009 A 
ATOM     71  C   UNL     1       0.595  -1.401  12.751  1.00  0.00     0.009 A 
ATOM     72  C   UNL     1       0.654   0.823  14.435  1.00  0.00     0.001 A 
ATOM     73  C   UNL     1      -0.564  -0.649  12.959  1.00  0.00     0.001 A 
ATOM     74  C   UNL     1      -0.536   0.456  13.808  1.00  0.00     0.000 A 
ENDBRANCH  50  69
BRANCH  62  75
ATOM     75  C   UNL     1       5.566  -5.218  17.463  1.00  0.00    -0.014 A 
ATOM     76  C   UNL     1       4.561  -6.108  17.874  1.00  0.00     0.009 A 
ATOM     77  C   UNL     1       6.469  -4.721  18.415  1.00  0.00     0.009 A 
ATOM     78  C   UNL     1       4.444  -6.464  19.218  1.00  0.00     0.001 A 
ATOM     79  C   UNL     1       6.365  -5.100  19.753  1.00  0.00     0.001 A 
ATOM     80  C   UNL     1       5.348  -5.964  20.155  1.00  0.00     0.000 A 
ENDBRANCH  62  75
ENDBRANCH  36  37
ENDBRANCH  28  31
ENDBRANCH  26  27
ENDBRANCH  25  26
ENDBRANCH   1  25
TORSDOF 15
