REMARK SMILES CS(=O)(=O)c1ccc(-c2cc(Cl)cc3c2O[C@H](C(F)(F)F)C(C(=O)NCCCNC(=O)c2ccc(-c4c5nc(c(-c6ccccc6)c6ccc([nH]6)c(-c6ccccc6)c6nc(c(-c7ccccc7)c7ccc4[nH]7)C=C6)C=C5)cc2)=C3)cc1
REMARK SMILES IDX 27 1 26 2 25 3 23 4 24 5 22 7 9 8 10 9 15 10 11 11 14 12
REMARK SMILES IDX 16 13 12 14 13 15 80 16 17 17 8 18 5 19 6 20 82 21 7 22
REMARK SMILES IDX 81 23 2 24 1 25 3 26 4 27 18 28 19 29 20 30 21 31 28 32
REMARK SMILES IDX 29 33 30 34 31 36 32 37 33 38 79 39 34 40 78 41 35 42 36 43
REMARK SMILES IDX 37 44 72 45 38 46 77 47 71 48 73 49 39 50 76 51 70 52 69 53
REMARK SMILES IDX 40 55 62 56 47 57 61 58 48 59 51 60 60 61 74 62 49 63 50 64
REMARK SMILES IDX 59 66 75 67 52 68 41 69 42 70 46 71 43 72 45 73 44 74 63 75
REMARK SMILES IDX 64 76 68 77 65 78 67 79 66 80 53 81 54 82 58 83 55 84 57 85
REMARK SMILES IDX 56 86
REMARK H PARENT 25 6 29 35 73 54 51 65
REMARK Flexibility Score: inf
ROOT
ATOM      1  C   UNL     1       5.820  12.922  -5.214  1.00  0.00     0.042 C 
ENDROOT
BRANCH   1   2
ATOM      2  C   UNL     1       4.397  12.445  -4.919  1.00  0.00     0.118 C 
BRANCH   2   3
ATOM      3  N   UNL     1       4.055  11.333  -5.782  1.00  0.00    -0.352 N 
ATOM      4  C   UNL     1       3.807  10.060  -5.384  1.00  0.00     0.251 C 
ATOM      5  O   UNL     1       4.283   9.121  -6.010  1.00  0.00    -0.270 OA
ATOM      6  H   UNL     1       3.998  11.518  -6.747  1.00  0.00     0.163 HD
BRANCH   4   7
ATOM      7  C   UNL     1       2.813   9.889  -4.286  1.00  0.00     0.067 C 
ATOM      8  C   UNL     1       2.392   5.840  -4.264  1.00  0.00     0.026 A 
ATOM      9  C   UNL     1       2.319   5.432  -5.622  1.00  0.00     0.033 A 
ATOM     10  C   UNL     1       2.267   7.219  -4.023  1.00  0.00     0.135 A 
ATOM     11  C   UNL     1       1.943   6.301  -6.644  1.00  0.00     0.042 A 
ATOM     12  C   UNL     1       1.760   8.054  -5.048  1.00  0.00     0.019 A 
ATOM     13  O   UNL     1       2.660   7.827  -2.837  1.00  0.00    -0.475 OA
ATOM     14  Cl  UNL     1       1.887   5.739  -8.267  1.00  0.00    -0.084 Cl
ATOM     15  C   UNL     1       1.581   7.600  -6.350  1.00  0.00     0.032 A 
ATOM     16  C   UNL     1       1.610   9.495  -4.749  1.00  0.00     0.025 C 
ATOM     17  C   UNL     1       3.314   9.156  -3.050  1.00  0.00     0.314 C 
BRANCH   8  18
ATOM     18  C   UNL     1       2.301   4.733  -3.270  1.00  0.00    -0.015 A 
ATOM     19  C   UNL     1       1.375   2.264  -2.248  1.00  0.00     0.067 A 
ATOM     20  C   UNL     1       2.570   2.310  -2.966  1.00  0.00     0.021 A 
ATOM     21  C   UNL     1       0.694   3.443  -1.944  1.00  0.00     0.021 A 
ATOM     22  C   UNL     1       3.041   3.542  -3.446  1.00  0.00     0.010 A 
ATOM     23  C   UNL     1       1.167   4.670  -2.436  1.00  0.00     0.010 A 
BRANCH  19  24
ATOM     24  S   UNL     1       0.613   0.690  -1.897  1.00  0.00     0.175 S 
ATOM     25  C   UNL     1       1.076   0.353  -0.224  1.00  0.00     0.163 C 
ATOM     26  O   UNL     1       1.238  -0.304  -2.744  1.00  0.00    -0.224 OA
ATOM     27  O   UNL     1      -0.827   0.890  -1.932  1.00  0.00    -0.224 OA
ENDBRANCH  19  24
ENDBRANCH   8  18
BRANCH  17  28
ATOM     28  C   UNL     1       3.131  10.097  -1.836  1.00  0.00     0.429 C 
ATOM     29  F   UNL     1       2.260   9.613  -0.923  1.00  0.00    -0.167 F 
ATOM     30  F   UNL     1       4.310  10.313  -1.204  1.00  0.00    -0.167 F 
ATOM     31  F   UNL     1       2.669  11.325  -2.194  1.00  0.00    -0.167 F 
ENDBRANCH  17  28
ENDBRANCH   4   7
ENDBRANCH   2   3
ENDBRANCH   1   2
BRANCH   1  32
ATOM     32  C   UNL     1       6.048  13.394  -6.648  1.00  0.00     0.118 C 
BRANCH  32  33
ATOM     33  N   UNL     1       5.213  14.526  -7.018  1.00  0.00    -0.352 N 
ATOM     34  C   UNL     1       5.579  15.737  -7.553  1.00  0.00     0.251 C 
ATOM     35  H   UNL     1       4.248  14.407  -6.864  1.00  0.00     0.163 HD
ATOM     36  O   UNL     1       4.756  16.640  -7.662  1.00  0.00    -0.269 OA
BRANCH  34  37
ATOM     37  C   UNL     1       6.981  15.957  -7.967  1.00  0.00     0.039 A 
ATOM     38  C   UNL     1       7.624  17.132  -7.573  1.00  0.00     0.014 A 
ATOM     39  C   UNL     1       7.665  14.995  -8.714  1.00  0.00     0.014 A 
ATOM     40  C   UNL     1       8.977  17.308  -7.866  1.00  0.00     0.010 A 
ATOM     41  C   UNL     1       9.033  15.131  -8.924  1.00  0.00     0.010 A 
ATOM     42  C   UNL     1       9.704  16.289  -8.505  1.00  0.00    -0.014 A 
BRANCH  42  43
ATOM     43  C   UNL     1      11.166  16.415  -8.739  1.00  0.00     0.031 A 
ATOM     44  C   UNL     1      11.712  16.404 -10.141  1.00  0.00     0.074 A 
ATOM     45  C   UNL     1      12.009  16.475  -7.688  1.00  0.00     0.049 A 
ATOM     46  N   UNL     1      12.957  16.444 -10.543  1.00  0.00    -0.248 NA
ATOM     47  C   UNL     1      10.732  16.305 -11.235  1.00  0.00     0.031 C 
ATOM     48  C   UNL     1      11.612  16.453  -6.278  1.00  0.00     0.029 A 
ATOM     49  N   UNL     1      13.378  16.564  -7.644  1.00  0.00    -0.354 N 
ATOM     50  C   UNL     1      12.909  16.359 -11.928  1.00  0.00     0.074 A 
ATOM     51  C   UNL     1      11.519  16.205 -12.296  1.00  0.00     0.031 C 
ATOM     52  C   UNL     1      12.709  16.561  -5.511  1.00  0.00     0.029 A 
ATOM     53  C   UNL     1      13.887  16.611  -6.369  1.00  0.00     0.049 A 
ATOM     54  H   UNL     1      13.942  16.591  -8.451  1.00  0.00     0.167 HD
ATOM     55  C   UNL     1      13.927  16.425 -12.819  1.00  0.00     0.031 A 
ATOM     56  C   UNL     1      15.161  16.678  -5.937  1.00  0.00     0.031 A 
ATOM     57  C   UNL     1      15.309  16.585 -12.455  1.00  0.00     0.049 A 
ATOM     58  C   UNL     1      16.275  16.726  -6.946  1.00  0.00     0.074 A 
ATOM     59  C   UNL     1      16.409  16.718 -13.284  1.00  0.00     0.029 A 
ATOM     60  N   UNL     1      15.782  16.629 -11.152  1.00  0.00    -0.354 N 
ATOM     61  N   UNL     1      16.207  16.718  -8.255  1.00  0.00    -0.248 NA
ATOM     62  C   UNL     1      17.644  16.803  -6.415  1.00  0.00     0.031 C 
ATOM     63  C   UNL     1      17.554  16.780 -12.484  1.00  0.00     0.029 A 
ATOM     64  C   UNL     1      17.161  16.757 -11.156  1.00  0.00     0.049 A 
ATOM     65  H   UNL     1      15.221  16.577 -10.345  1.00  0.00     0.167 HD
ATOM     66  C   UNL     1      17.517  16.820  -8.704  1.00  0.00     0.074 A 
ATOM     67  C   UNL     1      18.357  16.908  -7.527  1.00  0.00     0.031 C 
ATOM     68  C   UNL     1      17.983  16.842  -9.976  1.00  0.00     0.031 A 
BRANCH  55  69
ATOM     69  C   UNL     1      13.579  16.315 -14.279  1.00  0.00    -0.014 A 
ATOM     70  C   UNL     1      12.864  17.328 -14.939  1.00  0.00     0.009 A 
ATOM     71  C   UNL     1      14.002  15.197 -15.015  1.00  0.00     0.009 A 
ATOM     72  C   UNL     1      12.544  17.204 -16.293  1.00  0.00     0.001 A 
ATOM     73  C   UNL     1      13.711  15.091 -16.377  1.00  0.00     0.001 A 
ATOM     74  C   UNL     1      12.973  16.089 -17.011  1.00  0.00     0.000 A 
ENDBRANCH  55  69
BRANCH  56  75
ATOM     75  C   UNL     1      15.457  16.716  -4.479  1.00  0.00    -0.014 A 
ATOM     76  C   UNL     1      15.982  17.875  -3.887  1.00  0.00     0.009 A 
ATOM     77  C   UNL     1      15.230  15.589  -3.674  1.00  0.00     0.009 A 
ATOM     78  C   UNL     1      16.304  17.893  -2.528  1.00  0.00     0.001 A 
ATOM     79  C   UNL     1      15.521  15.621  -2.308  1.00  0.00     0.001 A 
ATOM     80  C   UNL     1      16.069  16.769  -1.739  1.00  0.00     0.000 A 
ENDBRANCH  56  75
BRANCH  68  81
ATOM     81  C   UNL     1      19.466  17.008 -10.165  1.00  0.00    -0.014 A 
ATOM     82  C   UNL     1      20.366  15.981  -9.842  1.00  0.00     0.009 A 
ATOM     83  C   UNL     1      19.964  18.199 -10.717  1.00  0.00     0.009 A 
ATOM     84  C   UNL     1      21.738  16.159 -10.033  1.00  0.00     0.001 A 
ATOM     85  C   UNL     1      21.332  18.361 -10.938  1.00  0.00     0.001 A 
ATOM     86  C   UNL     1      22.219  17.345 -10.586  1.00  0.00     0.000 A 
ENDBRANCH  68  81
ENDBRANCH  42  43
ENDBRANCH  34  37
ENDBRANCH  32  33
ENDBRANCH   1  32
TORSDOF 13
