REMARK SMILES O=C(C[N@H+](C[C@@H]1COc2ccccc2O1)CC(F)(F)F)NCCCNC(=O)c1ccc(-c2c3nc(c(-c4ccccc4)c4ccc([nH]4)c(-c4ccccc4)c4nc(c(-c5ccccc5)c5ccc2[nH]5)C=C4)C=C3)cc1
REMARK SMILES IDX 22 1 21 2 1 3 2 4 3 6 4 7 5 9 6 10 7 11 15 12 8 13 14 14
REMARK SMILES IDX 9 15 13 16 10 17 12 18 11 19 16 20 17 21 18 22 19 23 20 24
REMARK SMILES IDX 23 25 24 26 25 27 26 28 27 30 28 31 29 32 75 33 30 34 74 35
REMARK SMILES IDX 31 36 32 37 33 38 68 39 34 40 73 41 67 42 69 43 35 44 72 45
REMARK SMILES IDX 66 46 65 47 36 49 58 50 43 51 57 52 44 53 47 54 56 55 70 56
REMARK SMILES IDX 45 57 46 58 55 60 71 61 48 62 37 63 38 64 42 65 39 66 41 67
REMARK SMILES IDX 40 68 59 69 60 70 64 71 61 72 63 73 62 74 49 75 50 76 54 77
REMARK SMILES IDX 51 78 53 79 52 80
REMARK H PARENT 21 5 4 8 25 29 69 48 47 59
REMARK Flexibility Score: inf
ROOT
ATOM      1  C   UNL     1       2.094   2.048   1.751  1.00  0.00     0.118 C 
ENDROOT
BRANCH   1   2
ATOM      2  N   UNL     1       2.981   1.281   0.902  1.00  0.00    -0.351 N 
ATOM      3  O   UNL     1       1.325   0.466  -0.437  1.00  0.00    -0.269 OA
ATOM      4  C   UNL     1       2.513   0.505  -0.135  1.00  0.00     0.275 C 
ATOM      5  H   UNL     1       3.950   1.315   1.072  1.00  0.00     0.163 HD
BRANCH   4   6
ATOM      6  C   UNL     1       3.634  -0.253  -0.875  1.00  0.00     0.363 C 
BRANCH   6   7
ATOM      7  N   UNL     1       3.347  -0.361  -2.308  1.00  0.00    -0.316 N 
ATOM      8  H   UNL     1       2.412  -0.765  -2.360  1.00  0.00     0.348 HD
BRANCH   7   9
ATOM      9  C   UNL     1       4.170  -1.350  -3.014  1.00  0.00     0.312 C 
BRANCH   9  10
ATOM     10  C   UNL     1       3.483  -2.713  -3.336  1.00  0.00     0.265 C 
ATOM     11  C   UNL     1       2.022  -2.629  -3.774  1.00  0.00     0.281 C 
ATOM     12  O   UNL     1       3.645  -3.675  -2.277  1.00  0.00    -0.477 OA
ATOM     13  O   UNL     1       1.157  -2.236  -2.708  1.00  0.00    -0.486 OA
ATOM     14  C   UNL     1       2.629  -3.628  -1.359  1.00  0.00     0.162 A 
ATOM     15  C   UNL     1       1.470  -2.871  -1.537  1.00  0.00     0.161 A 
ATOM     16  C   UNL     1       2.828  -4.331  -0.171  1.00  0.00     0.050 A 
ATOM     17  C   UNL     1       0.591  -2.690  -0.472  1.00  0.00     0.050 A 
ATOM     18  C   UNL     1       1.919  -4.190   0.878  1.00  0.00     0.004 A 
ATOM     19  C   UNL     1       0.821  -3.340   0.741  1.00  0.00     0.004 A 
ENDBRANCH   9  10
ENDBRANCH   7   9
BRANCH   7  20
ATOM     20  C   UNL     1       3.188   0.943  -2.989  1.00  0.00     0.379 C 
BRANCH  20  21
ATOM     21  C   UNL     1       1.998   1.059  -3.965  1.00  0.00     0.438 C 
ATOM     22  F   UNL     1       0.839   0.605  -3.454  1.00  0.00    -0.165 F 
ATOM     23  F   UNL     1       1.807   2.356  -4.309  1.00  0.00    -0.165 F 
ATOM     24  F   UNL     1       2.248   0.379  -5.110  1.00  0.00    -0.165 F 
ENDBRANCH  20  21
ENDBRANCH   7  20
ENDBRANCH   6   7
ENDBRANCH   4   6
ENDBRANCH   1   2
BRANCH   1  25
ATOM     25  C   UNL     1       2.358   1.774   3.225  1.00  0.00     0.042 C 
BRANCH  25  26
ATOM     26  C   UNL     1       3.821   1.897   3.631  1.00  0.00     0.118 C 
BRANCH  26  27
ATOM     27  N   UNL     1       4.425   3.160   3.235  1.00  0.00    -0.352 N 
ATOM     28  C   UNL     1       5.212   4.017   3.962  1.00  0.00     0.251 C 
ATOM     29  H   UNL     1       4.242   3.442   2.309  1.00  0.00     0.163 HD
ATOM     30  O   UNL     1       5.519   5.109   3.503  1.00  0.00    -0.269 OA
BRANCH  28  31
ATOM     31  C   UNL     1       5.661   3.626   5.313  1.00  0.00     0.039 A 
ATOM     32  C   UNL     1       5.565   4.561   6.344  1.00  0.00     0.014 A 
ATOM     33  C   UNL     1       6.162   2.345   5.563  1.00  0.00     0.014 A 
ATOM     34  C   UNL     1       5.925   4.194   7.639  1.00  0.00     0.010 A 
ATOM     35  C   UNL     1       6.437   1.955   6.870  1.00  0.00     0.010 A 
ATOM     36  C   UNL     1       6.333   2.878   7.919  1.00  0.00    -0.014 A 
BRANCH  36  37
ATOM     37  C   UNL     1       6.654   2.467   9.308  1.00  0.00     0.031 A 
ATOM     38  C   UNL     1       8.046   2.027   9.669  1.00  0.00     0.074 A 
ATOM     39  C   UNL     1       5.680   2.464  10.239  1.00  0.00     0.049 A 
ATOM     40  N   UNL     1       8.517   1.659  10.834  1.00  0.00    -0.248 NA
ATOM     41  C   UNL     1       9.034   1.971   8.579  1.00  0.00     0.031 C 
ATOM     42  C   UNL     1       4.279   2.820  10.002  1.00  0.00     0.029 A 
ATOM     43  N   UNL     1       5.724   2.160  11.576  1.00  0.00    -0.354 N 
ATOM     44  C   UNL     1       9.847   1.321  10.614  1.00  0.00     0.074 A 
ATOM     45  C   UNL     1      10.091   1.467   9.197  1.00  0.00     0.031 C 
ATOM     46  C   UNL     1       3.608   2.760  11.164  1.00  0.00     0.029 A 
ATOM     47  C   UNL     1       4.519   2.322  12.216  1.00  0.00     0.049 A 
ATOM     48  H   UNL     1       6.540   1.854  12.033  1.00  0.00     0.167 HD
ATOM     49  C   UNL     1      10.788   0.948  11.514  1.00  0.00     0.031 A 
ATOM     50  C   UNL     1       4.185   2.143  13.508  1.00  0.00     0.031 A 
ATOM     51  C   UNL     1      10.543   0.804  12.924  1.00  0.00     0.049 A 
ATOM     52  C   UNL     1       5.245   1.714  14.484  1.00  0.00     0.074 A 
ATOM     53  C   UNL     1      11.441   0.481  13.926  1.00  0.00     0.029 A 
ATOM     54  N   UNL     1       9.308   0.969  13.531  1.00  0.00    -0.354 N 
ATOM     55  N   UNL     1       6.518   1.478  14.273  1.00  0.00    -0.248 NA
ATOM     56  C   UNL     1       4.824   1.545  15.881  1.00  0.00     0.031 C 
ATOM     57  C   UNL     1      10.737   0.390  15.131  1.00  0.00     0.029 A 
ATOM     58  C   UNL     1       9.414   0.727  14.891  1.00  0.00     0.049 A 
ATOM     59  H   UNL     1       8.478   1.221  13.066  1.00  0.00     0.167 HD
ATOM     60  C   UNL     1       7.054   1.161  15.514  1.00  0.00     0.074 A 
ATOM     61  C   UNL     1       5.974   1.259  16.474  1.00  0.00     0.031 C 
ATOM     62  C   UNL     1       8.328   0.821  15.832  1.00  0.00     0.031 A 
BRANCH  49  63
ATOM     63  C   UNL     1      12.170   0.661  10.992  1.00  0.00    -0.014 A 
ATOM     64  C   UNL     1      12.985   1.685  10.481  1.00  0.00     0.009 A 
ATOM     65  C   UNL     1      12.679  -0.646  11.042  1.00  0.00     0.009 A 
ATOM     66  C   UNL     1      14.262   1.399   9.995  1.00  0.00     0.001 A 
ATOM     67  C   UNL     1      13.969  -0.924  10.587  1.00  0.00     0.001 A 
ATOM     68  C   UNL     1      14.756   0.097  10.054  1.00  0.00     0.000 A 
ENDBRANCH  49  63
BRANCH  50  69
ATOM     69  C   UNL     1       2.790   2.391  13.961  1.00  0.00    -0.014 A 
ATOM     70  C   UNL     1       2.494   3.470  14.808  1.00  0.00     0.009 A 
ATOM     71  C   UNL     1       1.748   1.541  13.558  1.00  0.00     0.009 A 
ATOM     72  C   UNL     1       1.191   3.673  15.269  1.00  0.00     0.001 A 
ATOM     73  C   UNL     1       0.441   1.766  13.993  1.00  0.00     0.001 A 
ATOM     74  C   UNL     1       0.165   2.824  14.857  1.00  0.00     0.000 A 
ENDBRANCH  50  69
BRANCH  62  75
ATOM     75  C   UNL     1       8.626   0.566  17.285  1.00  0.00    -0.014 A 
ATOM     76  C   UNL     1       8.122  -0.561  17.951  1.00  0.00     0.009 A 
ATOM     77  C   UNL     1       9.446   1.462  17.990  1.00  0.00     0.009 A 
ATOM     78  C   UNL     1       8.394  -0.761  19.306  1.00  0.00     0.001 A 
ATOM     79  C   UNL     1       9.746   1.240  19.335  1.00  0.00     0.001 A 
ATOM     80  C   UNL     1       9.208   0.137  19.995  1.00  0.00     0.000 A 
ENDBRANCH  62  75
ENDBRANCH  36  37
ENDBRANCH  28  31
ENDBRANCH  26  27
ENDBRANCH  25  26
ENDBRANCH   1  25
TORSDOF 15
