REMARK SMILES Nc1cc(Br)ccc1C(=O)NC1(C(=O)NCCCNC(=O)c2ccc(-c3c4nc(c(-c5ccccc5)c5ccc([nH]5)c(-c5ccccc5)c5nc(c(-c6ccccc6)c6ccc3[nH]6)C=C5)C=C4)cc2)CC1
REMARK SMILES IDX 16 1 15 2 13 3 14 4 12 6 70 7 71 8 11 9 9 10 10 11 8 13 2 14
REMARK SMILES IDX 3 15 4 16 7 17 5 18 6 19 1 20 17 23 18 24 19 25 20 26 21 28
REMARK SMILES IDX 22 29 23 30 69 31 24 32 68 33 25 34 26 35 27 36 62 37 28 38
REMARK SMILES IDX 67 39 61 40 63 41 29 42 66 43 60 44 59 45 30 47 52 48 37 49
REMARK SMILES IDX 51 50 38 51 41 52 50 53 64 54 39 55 40 56 49 58 65 59 42 60
REMARK SMILES IDX 31 61 32 62 36 63 33 64 35 65 34 66 53 67 54 68 58 69 55 70
REMARK SMILES IDX 57 71 56 72 43 73 44 74 48 75 45 76 47 77 46 78
REMARK H PARENT 15 5 11 12 1 21 1 22 19 27 63 46 41 57
REMARK Flexibility Score: inf
ROOT
ATOM      1  C   UNL     1       1.610   0.375   2.961  1.00  0.00     0.117 C 
ENDROOT
BRANCH   1   2
ATOM      2  N   UNL     1       0.457   1.192   2.655  1.00  0.00    -0.354 N 
ATOM      3  C   UNL     1       0.081   1.898   1.552  1.00  0.00     0.245 C 
ATOM      4  O   UNL     1      -0.788   2.756   1.729  1.00  0.00    -0.272 OA
ATOM      5  H   UNL     1      -0.188   1.252   3.396  1.00  0.00     0.163 HD
BRANCH   3   6
ATOM      6  C   UNL     1       0.550   1.655   0.123  1.00  0.00     0.119 C 
ATOM      7  C   UNL     1       1.843   1.040  -0.373  1.00  0.00     0.041 C 
ATOM      8  C   UNL     1       1.769   2.519  -0.241  1.00  0.00     0.041 C 
BRANCH   6   9
ATOM      9  N   UNL     1      -0.584   1.735  -0.780  1.00  0.00    -0.338 N 
ATOM     10  C   UNL     1      -1.334   0.762  -1.392  1.00  0.00     0.254 C 
ATOM     11  O   UNL     1      -2.421   1.072  -1.882  1.00  0.00    -0.269 OA
ATOM     12  H   UNL     1      -0.865   2.654  -0.993  1.00  0.00     0.164 HD
BRANCH  10  13
ATOM     13  C   UNL     1      -0.832  -0.614  -1.613  1.00  0.00     0.062 A 
ATOM     14  C   UNL     1      -0.372  -1.496  -0.620  1.00  0.00     0.045 A 
ATOM     15  C   UNL     1       0.174  -2.724  -1.030  1.00  0.00     0.042 A 
ATOM     16  C   UNL     1       0.123  -3.126  -2.367  1.00  0.00     0.020 A 
ATOM     17  C   UNL     1      -0.917  -1.049  -2.951  1.00  0.00     0.017 A 
ATOM     18  Br  UNL     1       0.824  -4.808  -2.870  1.00  0.00    -0.051 Br
ATOM     19  C   UNL     1      -0.453  -2.307  -3.327  1.00  0.00     0.016 A 
BRANCH  14  20
ATOM     20  N   UNL     1      -0.346  -1.196   0.738  1.00  0.00    -0.398 N 
ATOM     21  H   UNL     1      -0.011  -1.861   1.382  1.00  0.00     0.156 HD
ATOM     22  H   UNL     1      -0.664  -0.320   1.055  1.00  0.00     0.156 HD
ENDBRANCH  14  20
ENDBRANCH  10  13
ENDBRANCH   6   9
ENDBRANCH   3   6
ENDBRANCH   1   2
BRANCH   1  23
ATOM     23  C   UNL     1       2.647   1.185   3.733  1.00  0.00     0.042 C 
BRANCH  23  24
ATOM     24  C   UNL     1       2.149   1.690   5.088  1.00  0.00     0.118 C 
BRANCH  24  25
ATOM     25  N   UNL     1       1.938   0.622   6.059  1.00  0.00    -0.352 N 
ATOM     26  C   UNL     1       2.474   0.457   7.315  1.00  0.00     0.251 C 
ATOM     27  H   UNL     1       1.320  -0.088   5.771  1.00  0.00     0.163 HD
ATOM     28  O   UNL     1       2.285  -0.590   7.929  1.00  0.00    -0.269 OA
BRANCH  26  29
ATOM     29  C   UNL     1       3.311   1.521   7.909  1.00  0.00     0.039 A 
ATOM     30  C   UNL     1       2.919   2.858   7.842  1.00  0.00     0.014 A 
ATOM     31  C   UNL     1       4.522   1.176   8.515  1.00  0.00     0.014 A 
ATOM     32  C   UNL     1       3.818   3.857   8.201  1.00  0.00     0.010 A 
ATOM     33  C   UNL     1       5.388   2.180   8.959  1.00  0.00     0.010 A 
ATOM     34  C   UNL     1       5.070   3.531   8.748  1.00  0.00    -0.014 A 
BRANCH  34  35
ATOM     35  C   UNL     1       6.037   4.617   9.060  1.00  0.00     0.031 A 
ATOM     36  C   UNL     1       7.340   4.724   8.310  1.00  0.00     0.074 A 
ATOM     37  C   UNL     1       5.708   5.557   9.968  1.00  0.00     0.049 A 
ATOM     38  N   UNL     1       8.278   5.633   8.416  1.00  0.00    -0.248 NA
ATOM     39  C   UNL     1       7.631   3.684   7.309  1.00  0.00     0.031 C 
ATOM     40  C   UNL     1       4.465   5.583  10.740  1.00  0.00     0.029 A 
ATOM     41  N   UNL     1       6.372   6.690  10.367  1.00  0.00    -0.354 N 
ATOM     42  C   UNL     1       9.268   5.268   7.513  1.00  0.00     0.074 A 
ATOM     43  C   UNL     1       8.837   4.038   6.886  1.00  0.00     0.031 C 
ATOM     44  C   UNL     1       4.424   6.709  11.467  1.00  0.00     0.029 A 
ATOM     45  C   UNL     1       5.665   7.451  11.267  1.00  0.00     0.049 A 
ATOM     46  H   UNL     1       7.267   6.935  10.041  1.00  0.00     0.167 HD
ATOM     47  C   UNL     1      10.426   5.906   7.221  1.00  0.00     0.031 A 
ATOM     48  C   UNL     1       5.976   8.614  11.872  1.00  0.00     0.031 A 
ATOM     49  C   UNL     1      10.851   7.137   7.832  1.00  0.00     0.049 A 
ATOM     50  C   UNL     1       7.293   9.270  11.572  1.00  0.00     0.074 A 
ATOM     51  C   UNL     1      12.008   7.858   7.591  1.00  0.00     0.029 A 
ATOM     52  N   UNL     1      10.138   7.832   8.794  1.00  0.00    -0.354 N 
ATOM     53  N   UNL     1       8.218   8.906  10.717  1.00  0.00    -0.248 NA
ATOM     54  C   UNL     1       7.613  10.493  12.322  1.00  0.00     0.031 C 
ATOM     55  C   UNL     1      12.021   8.962   8.446  1.00  0.00     0.029 A 
ATOM     56  C   UNL     1      10.842   8.963   9.173  1.00  0.00     0.049 A 
ATOM     57  H   UNL     1       9.262   7.563   9.155  1.00  0.00     0.167 HD
ATOM     58  C   UNL     1       9.220   9.862  10.814  1.00  0.00     0.074 A 
ATOM     59  C   UNL     1       8.783  10.832  11.796  1.00  0.00     0.031 C 
ATOM     60  C   UNL     1      10.398   9.924  10.149  1.00  0.00     0.031 A 
BRANCH  47  61
ATOM     61  C   UNL     1      11.336   5.293   6.193  1.00  0.00    -0.014 A 
ATOM     62  C   UNL     1      12.570   4.752   6.588  1.00  0.00     0.009 A 
ATOM     63  C   UNL     1      11.026   5.349   4.825  1.00  0.00     0.009 A 
ATOM     64  C   UNL     1      13.483   4.296   5.635  1.00  0.00     0.001 A 
ATOM     65  C   UNL     1      11.930   4.868   3.876  1.00  0.00     0.001 A 
ATOM     66  C   UNL     1      13.161   4.352   4.280  1.00  0.00     0.000 A 
ENDBRANCH  47  61
BRANCH  48  67
ATOM     67  C   UNL     1       5.010   9.229  12.819  1.00  0.00    -0.014 A 
ATOM     68  C   UNL     1       4.716   8.609  14.045  1.00  0.00     0.009 A 
ATOM     69  C   UNL     1       4.347  10.420  12.488  1.00  0.00     0.009 A 
ATOM     70  C   UNL     1       3.761   9.153  14.906  1.00  0.00     0.001 A 
ATOM     71  C   UNL     1       3.415  10.979  13.366  1.00  0.00     0.001 A 
ATOM     72  C   UNL     1       3.116  10.340  14.568  1.00  0.00     0.000 A 
ENDBRANCH  48  67
BRANCH  60  73
ATOM     73  C   UNL     1      11.307  11.085  10.435  1.00  0.00    -0.014 A 
ATOM     74  C   UNL     1      11.515  12.065   9.451  1.00  0.00     0.009 A 
ATOM     75  C   UNL     1      12.039  11.153  11.629  1.00  0.00     0.009 A 
ATOM     76  C   UNL     1      12.450  13.081   9.650  1.00  0.00     0.001 A 
ATOM     77  C   UNL     1      12.954  12.187  11.837  1.00  0.00     0.001 A 
ATOM     78  C   UNL     1      13.166  13.143  10.844  1.00  0.00     0.000 A 
ENDBRANCH  60  73
ENDBRANCH  34  35
ENDBRANCH  26  29
ENDBRANCH  24  25
ENDBRANCH  23  24
ENDBRANCH   1  23
TORSDOF 13
