REMARK SMILES CC(C)(Cn1ccnc1C(N)=S)C(=O)NCCCNC(=O)c1ccc(-c2c3nc(c(-c4ccccc4)c4ccc([nH]4)c(-c4ccccc4)c4nc(c(-c5ccccc5)c5ccc2[nH]5)C=C4)C=C3)cc1
REMARK SMILES IDX 16 1 15 2 13 3 14 4 2 6 1 7 3 8 4 9 5 10 6 11 9 12 7 13 8 14
REMARK SMILES IDX 10 15 12 16 11 17 17 20 18 21 19 22 20 23 21 25 22 26 23 27
REMARK SMILES IDX 69 28 24 29 68 30 25 31 26 32 27 33 62 34 28 35 67 36 61 37
REMARK SMILES IDX 63 38 29 39 66 40 60 41 59 42 30 44 52 45 37 46 51 47 38 48
REMARK SMILES IDX 41 49 50 50 64 51 39 52 40 53 49 55 65 56 42 57 31 58 32 59
REMARK SMILES IDX 36 60 33 61 35 62 34 63 53 64 54 65 58 66 55 67 57 68 56 69
REMARK SMILES IDX 43 70 44 71 48 72 45 73 47 74 46 75
REMARK H PARENT 15 5 11 18 11 19 19 24 63 43 41 54
REMARK Flexibility Score: inf
ROOT
ATOM      1  C   UNL     1      -0.196   1.067   4.211  1.00  0.00     0.117 C 
ENDROOT
BRANCH   1   2
ATOM      2  N   UNL     1       0.646   0.014   3.660  1.00  0.00    -0.356 N 
ATOM      3  C   UNL     1       1.096  -0.268   2.406  1.00  0.00     0.227 C 
ATOM      4  O   UNL     1       1.934  -1.173   2.331  1.00  0.00    -0.274 OA
ATOM      5  H   UNL     1       0.956  -0.630   4.338  1.00  0.00     0.163 HD
BRANCH   3   6
ATOM      6  C   UNL     1       0.601   0.456   1.143  1.00  0.00     0.061 C 
ATOM      7  C   UNL     1       1.251  -0.166  -0.121  1.00  0.00     0.023 C 
ATOM      8  C   UNL     1       1.100   1.918   1.172  1.00  0.00     0.023 C 
BRANCH   6   9
ATOM      9  C   UNL     1      -0.941   0.397   0.985  1.00  0.00     0.140 C 
BRANCH   9  10
ATOM     10  N   UNL     1      -1.595  -0.888   0.754  1.00  0.00    -0.328 N 
ATOM     11  C   UNL     1      -1.177  -2.110   1.219  1.00  0.00     0.108 A 
ATOM     12  C   UNL     1      -2.757  -1.115   0.020  1.00  0.00     0.167 A 
ATOM     13  C   UNL     1      -1.987  -3.040   0.624  1.00  0.00     0.131 A 
ATOM     14  N   UNL     1      -2.945  -2.425  -0.120  1.00  0.00    -0.235 NA
BRANCH  12  15
ATOM     15  C   UNL     1      -3.728  -0.213  -0.580  1.00  0.00     0.140 C 
ATOM     16  S   UNL     1      -3.933   1.390  -0.189  1.00  0.00    -0.057 S 
BRANCH  15  17
ATOM     17  N   UNL     1      -4.572  -0.801  -1.484  1.00  0.00    -0.387 N 
ATOM     18  H   UNL     1      -4.456  -1.750  -1.720  1.00  0.00     0.157 HD
ATOM     19  H   UNL     1      -5.293  -0.275  -1.899  1.00  0.00     0.157 HD
ENDBRANCH  15  17
ENDBRANCH  12  15
ENDBRANCH   9  10
ENDBRANCH   6   9
ENDBRANCH   3   6
ENDBRANCH   1   2
BRANCH   1  20
ATOM     20  C   UNL     1      -1.568   0.592   4.692  1.00  0.00     0.042 C 
BRANCH  20  21
ATOM     21  C   UNL     1      -1.513  -0.293   5.925  1.00  0.00     0.118 C 
BRANCH  21  22
ATOM     22  N   UNL     1      -1.015   0.392   7.117  1.00  0.00    -0.352 N 
ATOM     23  C   UNL     1      -0.805  -0.142   8.375  1.00  0.00     0.251 C 
ATOM     24  H   UNL     1      -0.804   1.348   7.011  1.00  0.00     0.163 HD
ATOM     25  O   UNL     1      -0.663   0.579   9.352  1.00  0.00    -0.269 OA
BRANCH  23  26
ATOM     26  C   UNL     1      -0.797  -1.609   8.519  1.00  0.00     0.039 A 
ATOM     27  C   UNL     1      -1.556  -2.232   9.511  1.00  0.00     0.014 A 
ATOM     28  C   UNL     1      -0.102  -2.361   7.580  1.00  0.00     0.014 A 
ATOM     29  C   UNL     1      -1.701  -3.619   9.478  1.00  0.00     0.010 A 
ATOM     30  C   UNL     1      -0.372  -3.706   7.459  1.00  0.00     0.010 A 
ATOM     31  C   UNL     1      -1.141  -4.358   8.422  1.00  0.00    -0.014 A 
BRANCH  31  32
ATOM     32  C   UNL     1      -1.431  -5.790   8.288  1.00  0.00     0.031 A 
ATOM     33  C   UNL     1      -2.856  -6.212   8.438  1.00  0.00     0.074 A 
ATOM     34  C   UNL     1      -0.539  -6.710   7.859  1.00  0.00     0.049 A 
ATOM     35  N   UNL     1      -3.351  -7.010   9.328  1.00  0.00    -0.248 NA
ATOM     36  C   UNL     1      -3.856  -5.658   7.513  1.00  0.00     0.031 C 
ATOM     37  C   UNL     1       0.827  -6.510   7.363  1.00  0.00     0.029 A 
ATOM     38  N   UNL     1      -0.738  -8.044   7.660  1.00  0.00    -0.354 N 
ATOM     39  C   UNL     1      -4.694  -7.185   9.002  1.00  0.00     0.074 A 
ATOM     40  C   UNL     1      -4.975  -6.251   7.938  1.00  0.00     0.031 C 
ATOM     41  C   UNL     1       1.222  -7.606   6.681  1.00  0.00     0.029 A 
ATOM     42  C   UNL     1       0.226  -8.644   6.866  1.00  0.00     0.049 A 
ATOM     43  H   UNL     1      -1.498  -8.537   8.045  1.00  0.00     0.167 HD
ATOM     44  C   UNL     1      -5.437  -8.210   9.509  1.00  0.00     0.031 A 
ATOM     45  C   UNL     1       0.212  -9.902   6.373  1.00  0.00     0.031 A 
ATOM     46  C   UNL     1      -4.803  -8.838  10.637  1.00  0.00     0.049 A 
ATOM     47  C   UNL     1      -0.701 -10.703   7.217  1.00  0.00     0.074 A 
ATOM     48  C   UNL     1      -4.352  -8.404  11.869  1.00  0.00     0.029 A 
ATOM     49  N   UNL     1      -4.213 -10.064  10.443  1.00  0.00    -0.354 N 
ATOM     50  N   UNL     1      -0.449 -11.004   8.459  1.00  0.00    -0.248 NA
ATOM     51  C   UNL     1      -2.091 -10.836   6.814  1.00  0.00     0.031 C 
ATOM     52  C   UNL     1      -3.138  -9.123  12.084  1.00  0.00     0.029 A 
ATOM     53  C   UNL     1      -2.962  -9.984  10.999  1.00  0.00     0.049 A 
ATOM     54  H   UNL     1      -4.609 -10.845   9.993  1.00  0.00     0.167 HD
ATOM     55  C   UNL     1      -1.679 -10.929   9.097  1.00  0.00     0.074 A 
ATOM     56  C   UNL     1      -2.662 -10.953   8.016  1.00  0.00     0.031 C 
ATOM     57  C   UNL     1      -1.777 -10.570  10.412  1.00  0.00     0.031 A 
BRANCH  44  58
ATOM     58  C   UNL     1      -6.581  -8.871   8.781  1.00  0.00    -0.014 A 
ATOM     59  C   UNL     1      -7.357  -9.834   9.454  1.00  0.00     0.009 A 
ATOM     60  C   UNL     1      -6.747  -8.785   7.387  1.00  0.00     0.009 A 
ATOM     61  C   UNL     1      -8.207 -10.704   8.758  1.00  0.00     0.001 A 
ATOM     62  C   UNL     1      -7.627  -9.623   6.694  1.00  0.00     0.001 A 
ATOM     63  C   UNL     1      -8.338 -10.600   7.377  1.00  0.00     0.000 A 
ENDBRANCH  44  58
BRANCH  45  64
ATOM     64  C   UNL     1       0.800 -10.396   5.114  1.00  0.00    -0.014 A 
ATOM     65  C   UNL     1       1.014 -11.765   4.906  1.00  0.00     0.009 A 
ATOM     66  C   UNL     1       0.932  -9.534   4.008  1.00  0.00     0.009 A 
ATOM     67  C   UNL     1       1.314 -12.258   3.629  1.00  0.00     0.001 A 
ATOM     68  C   UNL     1       1.238 -10.024   2.736  1.00  0.00     0.001 A 
ATOM     69  C   UNL     1       1.414 -11.389   2.544  1.00  0.00     0.000 A 
ENDBRANCH  45  64
BRANCH  57  70
ATOM     70  C   UNL     1      -0.508 -10.476  11.229  1.00  0.00    -0.014 A 
ATOM     71  C   UNL     1       0.563  -9.634  10.878  1.00  0.00     0.009 A 
ATOM     72  C   UNL     1      -0.456 -11.125  12.472  1.00  0.00     0.009 A 
ATOM     73  C   UNL     1       1.665  -9.477  11.724  1.00  0.00     0.001 A 
ATOM     74  C   UNL     1       0.634 -10.950  13.329  1.00  0.00     0.001 A 
ATOM     75  C   UNL     1       1.697 -10.132  12.953  1.00  0.00     0.000 A 
ENDBRANCH  57  70
ENDBRANCH  31  32
ENDBRANCH  23  26
ENDBRANCH  21  22
ENDBRANCH  20  21
ENDBRANCH   1  20
TORSDOF 14
