REMARK SMILES CC[C@@](C)(NC(=O)NCCc1cscn1)C(=O)NCCCNC(=O)c1ccc(-c2c3nc(c(-c4ccccc4)c4ccc([nH]4)c(-c4ccccc4)c4nc(c(-c5ccccc5)c5ccc2[nH]5)C=C4)C=C3)cc1
REMARK SMILES IDX 19 1 18 2 16 3 17 4 3 6 4 7 2 8 1 9 5 10 6 11 7 13 8 14 9 16
REMARK SMILES IDX 10 17 11 18 12 19 15 20 13 21 14 22 20 23 21 24 22 25 23 26
REMARK SMILES IDX 24 28 25 29 26 30 72 31 27 32 71 33 28 34 29 35 30 36 65 37
REMARK SMILES IDX 31 38 70 39 64 40 66 41 32 42 69 43 63 44 62 45 33 47 55 48
REMARK SMILES IDX 40 49 54 50 41 51 44 52 53 53 67 54 42 55 43 56 52 58 68 59
REMARK SMILES IDX 45 60 34 61 35 62 39 63 36 64 38 65 37 66 56 67 57 68 61 69
REMARK SMILES IDX 58 70 60 71 59 72 46 73 47 74 51 75 48 76 50 77 49 78
REMARK H PARENT 18 5 5 12 8 15 22 27 66 46 44 57
REMARK Flexibility Score: inf
ROOT
ATOM      1  C   UNL     1       1.768  -3.416  -4.079  1.00  0.00     0.117 C 
ENDROOT
BRANCH   1   2
ATOM      2  N   UNL     1       2.437  -2.814  -2.933  1.00  0.00    -0.354 N 
ATOM      3  C   UNL     1       2.120  -1.800  -2.062  1.00  0.00     0.245 C 
ATOM      4  O   UNL     1       2.826  -1.730  -1.049  1.00  0.00    -0.272 OA
ATOM      5  H   UNL     1       3.310  -3.225  -2.740  1.00  0.00     0.163 HD
BRANCH   3   6
ATOM      6  C   UNL     1       0.898  -0.864  -2.258  1.00  0.00     0.117 C 
ATOM      7  C   UNL     1      -0.357  -1.723  -1.943  1.00  0.00     0.045 C 
BRANCH   6   8
ATOM      8  C   UNL     1       0.804   0.397  -1.348  1.00  0.00     0.035 C 
ATOM      9  C   UNL     1       0.882   0.195   0.162  1.00  0.00     0.007 C 
ENDBRANCH   6   8
BRANCH   6  10
ATOM     10  N   UNL     1       0.851  -0.411  -3.661  1.00  0.00    -0.324 N 
ATOM     11  C   UNL     1       1.676   0.227  -4.498  1.00  0.00     0.315 C 
ATOM     12  H   UNL     1      -0.006  -0.635  -4.090  1.00  0.00     0.166 HD
ATOM     13  O   UNL     1       1.188   0.573  -5.579  1.00  0.00    -0.249 OA
ATOM     14  N   UNL     1       2.985   0.440  -4.327  1.00  0.00    -0.338 N 
ATOM     15  H   UNL     1       3.429   0.624  -5.186  1.00  0.00     0.165 HD
BRANCH  14  16
ATOM     16  C   UNL     1       3.942   0.475  -3.221  1.00  0.00     0.124 C 
BRANCH  16  17
ATOM     17  C   UNL     1       4.949  -0.678  -3.150  1.00  0.00     0.078 C 
BRANCH  17  18
ATOM     18  C   UNL     1       6.150  -0.656  -4.048  1.00  0.00     0.053 A 
ATOM     19  C   UNL     1       7.046  -1.710  -4.167  1.00  0.00     0.090 A 
ATOM     20  N   UNL     1       6.461   0.451  -4.816  1.00  0.00    -0.250 NA
ATOM     21  S   UNL     1       8.342  -1.281  -5.198  1.00  0.00    -0.130 S 
ATOM     22  C   UNL     1       7.597   0.242  -5.449  1.00  0.00     0.175 A 
ENDBRANCH  17  18
ENDBRANCH  16  17
ENDBRANCH  14  16
ENDBRANCH   6  10
ENDBRANCH   3   6
ENDBRANCH   1   2
BRANCH   1  23
ATOM     23  C   UNL     1       2.132  -2.958  -5.493  1.00  0.00     0.042 C 
BRANCH  23  24
ATOM     24  C   UNL     1       3.592  -2.908  -5.918  1.00  0.00     0.118 C 
BRANCH  24  25
ATOM     25  N   UNL     1       4.328  -4.139  -5.693  1.00  0.00    -0.352 N 
ATOM     26  C   UNL     1       5.197  -4.795  -6.536  1.00  0.00     0.251 C 
ATOM     27  H   UNL     1       4.186  -4.564  -4.816  1.00  0.00     0.163 HD
ATOM     28  O   UNL     1       5.670  -5.875  -6.208  1.00  0.00    -0.269 OA
BRANCH  26  29
ATOM     29  C   UNL     1       5.541  -4.210  -7.853  1.00  0.00     0.039 A 
ATOM     30  C   UNL     1       5.416  -5.003  -8.998  1.00  0.00     0.014 A 
ATOM     31  C   UNL     1       5.992  -2.893  -7.961  1.00  0.00     0.014 A 
ATOM     32  C   UNL     1       5.676  -4.452 -10.257  1.00  0.00     0.010 A 
ATOM     33  C   UNL     1       6.221  -2.335  -9.218  1.00  0.00     0.010 A 
ATOM     34  C   UNL     1       6.050  -3.104 -10.379  1.00  0.00    -0.014 A 
BRANCH  34  35
ATOM     35  C   UNL     1       6.207  -2.459 -11.707  1.00  0.00     0.031 A 
ATOM     36  C   UNL     1       7.556  -2.002 -12.183  1.00  0.00     0.074 A 
ATOM     37  C   UNL     1       5.109  -2.199 -12.444  1.00  0.00     0.049 A 
ATOM     38  N   UNL     1       7.868  -1.347 -13.274  1.00  0.00    -0.248 NA
ATOM     39  C   UNL     1       8.702  -2.303 -11.312  1.00  0.00     0.031 C 
ATOM     40  C   UNL     1       3.740  -2.562 -12.076  1.00  0.00     0.029 A 
ATOM     41  N   UNL     1       4.970  -1.551 -13.647  1.00  0.00    -0.354 N 
ATOM     42  C   UNL     1       9.242  -1.152 -13.219  1.00  0.00     0.074 A 
ATOM     43  C   UNL     1       9.697  -1.721 -11.968  1.00  0.00     0.031 C 
ATOM     44  C   UNL     1       2.901  -2.138 -13.035  1.00  0.00     0.029 A 
ATOM     45  C   UNL     1       3.665  -1.438 -14.062  1.00  0.00     0.049 A 
ATOM     46  H   UNL     1       5.733  -1.201 -14.162  1.00  0.00     0.167 HD
ATOM     47  C   UNL     1      10.051  -0.562 -14.132  1.00  0.00     0.031 A 
ATOM     48  C   UNL     1       3.139  -0.825 -15.140  1.00  0.00     0.031 A 
ATOM     49  C   UNL     1       9.591   0.019 -15.367  1.00  0.00     0.049 A 
ATOM     50  C   UNL     1       4.053  -0.135 -16.114  1.00  0.00     0.074 A 
ATOM     51  C   UNL     1      10.340   0.597 -16.378  1.00  0.00     0.029 A 
ATOM     52  N   UNL     1       8.263   0.108 -15.753  1.00  0.00    -0.354 N 
ATOM     53  N   UNL     1       5.360  -0.027 -16.087  1.00  0.00    -0.248 NA
ATOM     54  C   UNL     1       3.422   0.507 -17.276  1.00  0.00     0.031 C 
ATOM     55  C   UNL     1       9.461   1.093 -17.345  1.00  0.00     0.029 A 
ATOM     56  C   UNL     1       8.169   0.759 -16.972  1.00  0.00     0.049 A 
ATOM     57  H   UNL     1       7.499  -0.239 -15.238  1.00  0.00     0.167 HD
ATOM     58  C   UNL     1       5.708   0.660 -17.242  1.00  0.00     0.074 A 
ATOM     59  C   UNL     1       4.478   0.937 -17.953  1.00  0.00     0.031 C 
ATOM     60  C   UNL     1       6.940   1.022 -17.676  1.00  0.00     0.031 A 
BRANCH  47  61
ATOM     61  C   UNL     1      11.522  -0.498 -13.822  1.00  0.00    -0.014 A 
ATOM     62  C   UNL     1      12.316  -1.656 -13.811  1.00  0.00     0.009 A 
ATOM     63  C   UNL     1      12.134   0.744 -13.588  1.00  0.00     0.009 A 
ATOM     64  C   UNL     1      13.683  -1.576 -13.535  1.00  0.00     0.001 A 
ATOM     65  C   UNL     1      13.507   0.825 -13.344  1.00  0.00     0.001 A 
ATOM     66  C   UNL     1      14.278  -0.336 -13.308  1.00  0.00     0.000 A 
ENDBRANCH  47  61
BRANCH  48  67
ATOM     67  C   UNL     1       1.668  -0.840 -15.360  1.00  0.00    -0.014 A 
ATOM     68  C   UNL     1       1.114  -1.577 -16.417  1.00  0.00     0.009 A 
ATOM     69  C   UNL     1       0.811  -0.115 -14.517  1.00  0.00     0.009 A 
ATOM     70  C   UNL     1      -0.265  -1.565 -16.643  1.00  0.00     0.001 A 
ATOM     71  C   UNL     1      -0.570  -0.131 -14.726  1.00  0.00     0.001 A 
ATOM     72  C   UNL     1      -1.106  -0.847 -15.795  1.00  0.00     0.000 A 
ENDBRANCH  48  67
BRANCH  60  73
ATOM     73  C   UNL     1       7.033   1.712 -19.010  1.00  0.00    -0.014 A 
ATOM     74  C   UNL     1       6.610   3.038 -19.183  1.00  0.00     0.009 A 
ATOM     75  C   UNL     1       7.618   1.037 -20.094  1.00  0.00     0.009 A 
ATOM     76  C   UNL     1       6.750   3.666 -20.423  1.00  0.00     0.001 A 
ATOM     77  C   UNL     1       7.784   1.678 -21.322  1.00  0.00     0.001 A 
ATOM     78  C   UNL     1       7.344   2.989 -21.488  1.00  0.00     0.000 A 
ENDBRANCH  60  73
ENDBRANCH  34  35
ENDBRANCH  26  29
ENDBRANCH  24  25
ENDBRANCH  23  24
ENDBRANCH   1  23
TORSDOF 15
