REMARK SMILES O=C(CSCc1ccc(Cl)s1)Nc1ccsc1C(=O)NCCCNC(=O)c1ccc(-c2c3nc(c(-c4ccccc4)c4ccc([nH]4)c(-c4ccccc4)c4nc(c(-c5ccccc5)c5ccc2[nH]5)C=C4)C=C3)cc1
REMARK SMILES IDX 18 1 19 2 20 3 17 5 13 6 14 7 15 8 16 9 12 10 1 11 2 12 3 14
REMARK SMILES IDX 4 15 5 16 6 17 7 18 11 19 8 20 9 21 10 22 21 23 22 24 23 25
REMARK SMILES IDX 24 26 25 27 26 29 27 30 28 31 74 32 29 33 73 34 30 35 31 36
REMARK SMILES IDX 32 37 67 38 33 39 72 40 66 41 68 42 34 43 71 44 65 45 64 46
REMARK SMILES IDX 35 48 57 49 42 50 56 51 43 52 46 53 55 54 69 55 44 56 45 57
REMARK SMILES IDX 54 59 70 60 47 61 36 62 37 63 41 64 38 65 40 66 39 67 58 68
REMARK SMILES IDX 59 69 63 70 60 71 62 72 61 73 48 74 49 75 53 76 50 77 52 78
REMARK SMILES IDX 51 79
REMARK H PARENT 20 4 12 13 24 28 68 47 46 58
REMARK Flexibility Score: inf
ROOT
ATOM      1  C   UNL     1       3.702  -3.210   2.509  1.00  0.00     0.263 C 
ATOM      2  O   UNL     1       3.627  -3.938   3.514  1.00  0.00    -0.268 OA
ATOM      3  N   UNL     1       4.860  -2.480   2.507  1.00  0.00    -0.351 N 
ATOM      4  H   UNL     1       5.380  -2.587   3.336  1.00  0.00     0.163 HD
ENDROOT
BRANCH   1   5
ATOM      5  C   UNL     1       2.649  -3.193   1.486  1.00  0.00     0.115 A 
ATOM      6  C   UNL     1       2.047  -2.273   0.619  1.00  0.00     0.065 A 
ATOM      7  C   UNL     1       0.837  -2.814   0.045  1.00  0.00     0.038 A 
ATOM      8  C   UNL     1       0.574  -4.108   0.406  1.00  0.00     0.068 A 
ATOM      9  S   UNL     1       1.776  -4.715   1.424  1.00  0.00    -0.137 S 
BRANCH   6  10
ATOM     10  N   UNL     1       2.479  -0.986   0.282  1.00  0.00    -0.324 N 
ATOM     11  O   UNL     1       0.409   0.024   0.006  1.00  0.00    -0.274 OA
ATOM     12  C   UNL     1       1.632   0.024  -0.153  1.00  0.00     0.234 C 
ATOM     13  H   UNL     1       3.440  -0.785   0.358  1.00  0.00     0.170 HD
BRANCH  12  14
ATOM     14  C   UNL     1       2.300   1.176  -0.879  1.00  0.00     0.170 C 
BRANCH  14  15
ATOM     15  S   UNL     1       3.325   2.267   0.147  1.00  0.00    -0.146 SA
BRANCH  15  16
ATOM     16  C   UNL     1       2.365   2.391   1.687  1.00  0.00     0.116 C 
BRANCH  16  17
ATOM     17  C   UNL     1       1.235   3.358   1.595  1.00  0.00     0.016 A 
ATOM     18  C   UNL     1      -0.097   3.106   1.320  1.00  0.00     0.018 A 
ATOM     19  S   UNL     1       1.496   5.023   1.934  1.00  0.00    -0.128 S 
ATOM     20  C   UNL     1      -0.897   4.285   1.386  1.00  0.00     0.033 A 
ATOM     21  C   UNL     1      -0.140   5.378   1.713  1.00  0.00     0.093 A 
ATOM     22  Cl  UNL     1      -0.702   6.985   1.921  1.00  0.00    -0.072 Cl
ENDBRANCH  16  17
ENDBRANCH  15  16
ENDBRANCH  14  15
ENDBRANCH  12  14
ENDBRANCH   6  10
ENDBRANCH   1   5
BRANCH   3  23
ATOM     23  C   UNL     1       5.487  -1.590   1.566  1.00  0.00     0.118 C 
BRANCH  23  24
ATOM     24  C   UNL     1       5.123  -0.140   1.861  1.00  0.00     0.042 C 
BRANCH  24  25
ATOM     25  C   UNL     1       6.047   0.617   2.807  1.00  0.00     0.118 C 
BRANCH  25  26
ATOM     26  N   UNL     1       7.234   1.078   2.107  1.00  0.00    -0.352 N 
ATOM     27  C   UNL     1       7.602   2.309   1.626  1.00  0.00     0.251 C 
ATOM     28  H   UNL     1       7.901   0.372   1.946  1.00  0.00     0.163 HD
ATOM     29  O   UNL     1       8.499   2.330   0.778  1.00  0.00    -0.269 OA
BRANCH  27  30
ATOM     30  C   UNL     1       7.014   3.603   2.079  1.00  0.00     0.039 A 
ATOM     31  C   UNL     1       7.151   4.710   1.226  1.00  0.00     0.014 A 
ATOM     32  C   UNL     1       6.476   3.812   3.351  1.00  0.00     0.014 A 
ATOM     33  C   UNL     1       6.767   5.993   1.639  1.00  0.00     0.010 A 
ATOM     34  C   UNL     1       6.019   5.083   3.736  1.00  0.00     0.010 A 
ATOM     35  C   UNL     1       6.188   6.196   2.899  1.00  0.00    -0.014 A 
BRANCH  35  36
ATOM     36  C   UNL     1       5.807   7.566   3.353  1.00  0.00     0.031 A 
ATOM     37  C   UNL     1       6.493   8.212   4.533  1.00  0.00     0.074 A 
ATOM     38  C   UNL     1       4.832   8.245   2.716  1.00  0.00     0.049 A 
ATOM     39  N   UNL     1       6.278   9.388   5.074  1.00  0.00    -0.248 NA
ATOM     40  C   UNL     1       7.545   7.433   5.203  1.00  0.00     0.031 C 
ATOM     41  C   UNL     1       4.059   7.752   1.576  1.00  0.00     0.029 A 
ATOM     42  N   UNL     1       4.324   9.502   2.944  1.00  0.00    -0.354 N 
ATOM     43  C   UNL     1       7.149   9.479   6.153  1.00  0.00     0.074 A 
ATOM     44  C   UNL     1       7.871   8.226   6.214  1.00  0.00     0.031 C 
ATOM     45  C   UNL     1       3.183   8.697   1.197  1.00  0.00     0.029 A 
ATOM     46  C   UNL     1       3.324   9.856   2.072  1.00  0.00     0.049 A 
ATOM     47  H   UNL     1       4.647  10.091   3.663  1.00  0.00     0.167 HD
ATOM     48  C   UNL     1       7.351  10.513   7.006  1.00  0.00     0.031 A 
ATOM     49  C   UNL     1       2.598  10.986   1.980  1.00  0.00     0.031 A 
ATOM     50  C   UNL     1       6.668  11.779   6.945  1.00  0.00     0.049 A 
ATOM     51  C   UNL     1       2.843  12.119   2.930  1.00  0.00     0.074 A 
ATOM     52  C   UNL     1       6.862  12.903   7.731  1.00  0.00     0.029 A 
ATOM     53  N   UNL     1       5.663  12.091   6.045  1.00  0.00    -0.354 N 
ATOM     54  N   UNL     1       3.698  12.197   3.919  1.00  0.00    -0.248 NA
ATOM     55  C   UNL     1       2.027  13.328   2.739  1.00  0.00     0.031 C 
ATOM     56  C   UNL     1       5.951  13.886   7.327  1.00  0.00     0.029 A 
ATOM     57  C   UNL     1       5.218  13.385   6.265  1.00  0.00     0.049 A 
ATOM     58  H   UNL     1       5.316  11.484   5.352  1.00  0.00     0.167 HD
ATOM     59  C   UNL     1       3.534  13.466   4.457  1.00  0.00     0.074 A 
ATOM     60  C   UNL     1       2.508  14.128   3.680  1.00  0.00     0.031 C 
ATOM     61  C   UNL     1       4.186  14.032   5.501  1.00  0.00     0.031 A 
BRANCH  48  62
ATOM     62  C   UNL     1       8.368  10.320   8.096  1.00  0.00    -0.014 A 
ATOM     63  C   UNL     1       9.743  10.338   7.814  1.00  0.00     0.009 A 
ATOM     64  C   UNL     1       7.948  10.165   9.426  1.00  0.00     0.009 A 
ATOM     65  C   UNL     1      10.677  10.172   8.839  1.00  0.00     0.001 A 
ATOM     66  C   UNL     1       8.884  10.022  10.452  1.00  0.00     0.001 A 
ATOM     67  C   UNL     1      10.247  10.018  10.156  1.00  0.00     0.000 A 
ENDBRANCH  48  62
BRANCH  49  68
ATOM     68  C   UNL     1       1.565  11.112   0.925  1.00  0.00    -0.014 A 
ATOM     69  C   UNL     1       1.829  11.836  -0.247  1.00  0.00     0.009 A 
ATOM     70  C   UNL     1       0.309  10.513   1.092  1.00  0.00     0.009 A 
ATOM     71  C   UNL     1       0.846  11.965  -1.230  1.00  0.00     0.001 A 
ATOM     72  C   UNL     1      -0.664  10.627   0.098  1.00  0.00     0.001 A 
ATOM     73  C   UNL     1      -0.397  11.357  -1.059  1.00  0.00     0.000 A 
ENDBRANCH  49  68
BRANCH  61  74
ATOM     74  C   UNL     1       3.817  15.445   5.847  1.00  0.00    -0.014 A 
ATOM     75  C   UNL     1       2.622  15.737   6.522  1.00  0.00     0.009 A 
ATOM     76  C   UNL     1       4.680  16.495   5.500  1.00  0.00     0.009 A 
ATOM     77  C   UNL     1       2.283  17.060   6.814  1.00  0.00     0.001 A 
ATOM     78  C   UNL     1       4.348  17.814   5.810  1.00  0.00     0.001 A 
ATOM     79  C   UNL     1       3.146  18.096   6.459  1.00  0.00     0.000 A 
ENDBRANCH  61  74
ENDBRANCH  35  36
ENDBRANCH  27  30
ENDBRANCH  25  26
ENDBRANCH  24  25
ENDBRANCH  23  24
ENDBRANCH   3  23
TORSDOF 15
