REMARK SMILES CN(C)c1cc(C(F)(F)F)cc(-c2cccc(/C=C/C(=O)NCCCNC(=O)c3ccc(-c4c5nc(c(-c6ccccc6)c6ccc([nH]6)c(-c6ccccc6)c6nc(c(-c7ccccc7)c7ccc4[nH]7)C=C6)C=C5)cc3)c2)n1
REMARK SMILES IDX 23 1 22 2 20 3 21 4 19 6 18 7 17 8 13 9 14 10 77 11 15 12
REMARK SMILES IDX 16 13 12 14 4 15 5 16 78 17 6 18 11 19 2 20 1 21 3 22 7 23
REMARK SMILES IDX 8 24 9 25 10 26 24 27 25 28 26 29 27 30 28 32 29 33 30 34
REMARK SMILES IDX 76 35 31 36 75 37 32 38 33 39 34 40 69 41 35 42 74 43 68 44
REMARK SMILES IDX 70 45 36 46 73 47 67 48 66 49 37 51 59 52 44 53 58 54 45 55
REMARK SMILES IDX 48 56 57 57 71 58 46 59 47 60 56 62 72 63 49 64 38 65 39 66
REMARK SMILES IDX 43 67 40 68 42 69 41 70 60 71 61 72 65 73 62 74 64 75 63 76
REMARK SMILES IDX 50 77 51 78 55 79 52 80 54 81 53 82
REMARK H PARENT 22 5 26 31 70 50 48 61
REMARK Flexibility Score: inf
ROOT
ATOM      1  C   UNL     1       0.369   9.521   5.718  1.00  0.00     0.118 C 
ENDROOT
BRANCH   1   2
ATOM      2  N   UNL     1      -0.963  10.033   5.989  1.00  0.00    -0.352 N 
ATOM      3  C   UNL     1      -2.143   9.387   6.185  1.00  0.00     0.244 C 
ATOM      4  O   UNL     1      -3.139  10.034   6.503  1.00  0.00    -0.270 OA
ATOM      5  H   UNL     1      -1.021  11.014   6.040  1.00  0.00     0.163 HD
BRANCH   3   6
ATOM      6  C   UNL     1      -2.233   7.912   6.109  1.00  0.00     0.072 C 
ATOM      7  C   UNL     1      -1.696   7.172   5.129  1.00  0.00     0.014 C 
BRANCH   7   8
ATOM      8  C   UNL     1      -1.794   5.709   5.028  1.00  0.00    -0.025 A 
ATOM      9  C   UNL     1      -0.794   3.626   4.208  1.00  0.00     0.001 A 
ATOM     10  C   UNL     1      -1.954   2.943   4.601  1.00  0.00     0.010 A 
ATOM     11  C   UNL     1      -0.731   5.012   4.433  1.00  0.00     0.018 A 
ATOM     12  C   UNL     1      -3.012   3.621   5.209  1.00  0.00     0.001 A 
ATOM     13  C   UNL     1      -2.935   4.999   5.416  1.00  0.00     0.008 A 
BRANCH   9  14
ATOM     14  C   UNL     1       0.304   2.924   3.538  1.00  0.00     0.073 A 
ATOM     15  C   UNL     1       0.960   1.784   1.603  1.00  0.00     0.129 A 
ATOM     16  C   UNL     1       2.236   1.612   2.129  1.00  0.00     0.060 A 
ATOM     17  N   UNL     1       0.013   2.438   2.308  1.00  0.00    -0.231 NA
ATOM     18  C   UNL     1       2.557   2.134   3.388  1.00  0.00     0.061 A 
ATOM     19  C   UNL     1       1.562   2.799   4.106  1.00  0.00     0.042 A 
BRANCH  15  20
ATOM     20  N   UNL     1       0.651   1.329   0.326  1.00  0.00    -0.363 N 
ATOM     21  C   UNL     1       0.980  -0.045  -0.013  1.00  0.00     0.144 C 
ATOM     22  C   UNL     1      -0.508   1.939  -0.307  1.00  0.00     0.144 C 
ENDBRANCH  15  20
BRANCH  18  23
ATOM     23  C   UNL     1       3.950   2.027   3.940  1.00  0.00     0.416 C 
ATOM     24  F   UNL     1       4.535   3.246   4.102  1.00  0.00    -0.166 F 
ATOM     25  F   UNL     1       3.982   1.432   5.164  1.00  0.00    -0.166 F 
ATOM     26  F   UNL     1       4.798   1.308   3.153  1.00  0.00    -0.166 F 
ENDBRANCH  18  23
ENDBRANCH   9  14
ENDBRANCH   7   8
ENDBRANCH   3   6
ENDBRANCH   1   2
BRANCH   1  27
ATOM     27  C   UNL     1       0.791   9.805   4.277  1.00  0.00     0.042 C 
BRANCH  27  28
ATOM     28  C   UNL     1       1.135  11.271   4.026  1.00  0.00     0.118 C 
BRANCH  28  29
ATOM     29  N   UNL     1       2.349  11.676   4.722  1.00  0.00    -0.352 N 
ATOM     30  C   UNL     1       3.526  12.178   4.226  1.00  0.00     0.251 C 
ATOM     31  H   UNL     1       2.320  11.575   5.701  1.00  0.00     0.163 HD
ATOM     32  O   UNL     1       4.512  12.247   4.953  1.00  0.00    -0.269 OA
BRANCH  30  33
ATOM     33  C   UNL     1       3.616  12.627   2.821  1.00  0.00     0.039 A 
ATOM     34  C   UNL     1       4.768  12.325   2.087  1.00  0.00     0.014 A 
ATOM     35  C   UNL     1       2.592  13.377   2.237  1.00  0.00     0.014 A 
ATOM     36  C   UNL     1       4.865  12.723   0.752  1.00  0.00     0.010 A 
ATOM     37  C   UNL     1       2.657  13.708   0.887  1.00  0.00     0.010 A 
ATOM     38  C   UNL     1       3.796  13.389   0.132  1.00  0.00    -0.014 A 
BRANCH  38  39
ATOM     39  C   UNL     1       3.844  13.757  -1.305  1.00  0.00     0.031 A 
ATOM     40  C   UNL     1       3.808  15.202  -1.719  1.00  0.00     0.074 A 
ATOM     41  C   UNL     1       3.848  12.786  -2.239  1.00  0.00     0.049 A 
ATOM     42  N   UNL     1       3.765  15.716  -2.923  1.00  0.00    -0.248 NA
ATOM     43  C   UNL     1       3.792  16.202  -0.639  1.00  0.00     0.031 C 
ATOM     44  C   UNL     1       3.848  11.347  -1.968  1.00  0.00     0.029 A 
ATOM     45  N   UNL     1       3.842  12.865  -3.609  1.00  0.00    -0.354 N 
ATOM     46  C   UNL     1       3.694  17.092  -2.744  1.00  0.00     0.074 A 
ATOM     47  C   UNL     1       3.653  17.331  -1.318  1.00  0.00     0.031 C 
ATOM     48  C   UNL     1       3.872  10.680  -3.133  1.00  0.00     0.029 A 
ATOM     49  C   UNL     1       3.841  11.639  -4.231  1.00  0.00     0.049 A 
ATOM     50  H   UNL     1       3.839  13.718  -4.100  1.00  0.00     0.167 HD
ATOM     51  C   UNL     1       3.681  18.069  -3.681  1.00  0.00     0.031 A 
ATOM     52  C   UNL     1       3.810  11.324  -5.539  1.00  0.00     0.031 A 
ATOM     53  C   UNL     1       3.733  17.829  -5.099  1.00  0.00     0.049 A 
ATOM     54  C   UNL     1       3.777  12.427  -6.559  1.00  0.00     0.074 A 
ATOM     55  C   UNL     1       3.783  18.754  -6.128  1.00  0.00     0.029 A 
ATOM     56  N   UNL     1       3.736  16.574  -5.687  1.00  0.00    -0.354 N 
ATOM     57  N   UNL     1       3.778  13.725  -6.373  1.00  0.00    -0.248 NA
ATOM     58  C   UNL     1       3.749  12.020  -7.971  1.00  0.00     0.031 C 
ATOM     59  C   UNL     1       3.763  18.057  -7.341  1.00  0.00     0.029 A 
ATOM     60  C   UNL     1       3.761  16.699  -7.066  1.00  0.00     0.049 A 
ATOM     61  H   UNL     1       3.722  15.720  -5.197  1.00  0.00     0.167 HD
ATOM     62  C   UNL     1       3.784  14.289  -7.643  1.00  0.00     0.074 A 
ATOM     63  C   UNL     1       3.799  13.192  -8.588  1.00  0.00     0.031 C 
ATOM     64  C   UNL     1       3.779  15.598  -7.993  1.00  0.00     0.031 A 
BRANCH  51  65
ATOM     65  C   UNL     1       3.596  19.492  -3.199  1.00  0.00    -0.014 A 
ATOM     66  C   UNL     1       4.669  20.101  -2.528  1.00  0.00     0.009 A 
ATOM     67  C   UNL     1       2.440  20.246  -3.451  1.00  0.00     0.009 A 
ATOM     68  C   UNL     1       4.569  21.421  -2.083  1.00  0.00     0.001 A 
ATOM     69  C   UNL     1       2.355  21.576  -3.033  1.00  0.00     0.001 A 
ATOM     70  C   UNL     1       3.415  22.159  -2.341  1.00  0.00     0.000 A 
ENDBRANCH  51  65
BRANCH  52  71
ATOM     71  C   UNL     1       3.826   9.899  -5.963  1.00  0.00    -0.014 A 
ATOM     72  C   UNL     1       4.957   9.359  -6.595  1.00  0.00     0.009 A 
ATOM     73  C   UNL     1       2.712   9.073  -5.745  1.00  0.00     0.009 A 
ATOM     74  C   UNL     1       4.961   8.030  -7.025  1.00  0.00     0.001 A 
ATOM     75  C   UNL     1       2.731   7.736  -6.149  1.00  0.00     0.001 A 
ATOM     76  C   UNL     1       3.851   7.219  -6.798  1.00  0.00     0.000 A 
ENDBRANCH  52  71
BRANCH  64  77
ATOM     77  C   UNL     1       3.834  15.917  -9.461  1.00  0.00    -0.014 A 
ATOM     78  C   UNL     1       2.731  15.698 -10.300  1.00  0.00     0.009 A 
ATOM     79  C   UNL     1       4.999  16.485 -10.002  1.00  0.00     0.009 A 
ATOM     80  C   UNL     1       2.805  16.012 -11.658  1.00  0.00     0.001 A 
ATOM     81  C   UNL     1       5.059  16.826 -11.353  1.00  0.00     0.001 A 
ATOM     82  C   UNL     1       3.966  16.580 -12.182  1.00  0.00     0.000 A 
ENDBRANCH  64  77
ENDBRANCH  38  39
ENDBRANCH  30  33
ENDBRANCH  28  29
ENDBRANCH  27  28
ENDBRANCH   1  27
TORSDOF 14
