REMARK SMILES CSCC[NH2+]CC(C)(C)C(=O)NCCCNC(=O)c1ccc(-c2c3nc(c(-c4ccccc4)c4ccc([nH]4)c(-c4ccccc4)c4nc(c(-c5ccccc5)c5ccc2[nH]5)C=C4)C=C3)cc1
REMARK SMILES IDX 10 1 11 2 12 3 7 5 8 6 9 7 6 8 5 9 4 12 3 13 2 14 1 15 13 16
REMARK SMILES IDX 14 17 15 18 16 19 17 20 18 22 19 23 20 24 66 25 21 26 65 27
REMARK SMILES IDX 22 28 23 29 24 30 59 31 25 32 64 33 58 34 60 35 26 36 63 37
REMARK SMILES IDX 57 38 56 39 27 41 49 42 34 43 48 44 35 45 38 46 47 47 61 48
REMARK SMILES IDX 36 49 37 50 46 52 62 53 39 54 28 55 29 56 33 57 30 58 32 59
REMARK SMILES IDX 31 60 50 61 51 62 55 63 52 64 54 65 53 66 40 67 41 68 45 69
REMARK SMILES IDX 42 70 44 71 43 72
REMARK H PARENT 12 4 5 10 5 11 16 21 60 40 38 51
REMARK Flexibility Score: inf
ROOT
ATOM      1  C   UNL     1      -1.789   4.396   0.368  1.00  0.00     0.231 C 
ATOM      2  O   UNL     1      -1.263   5.175  -0.433  1.00  0.00    -0.274 OA
ATOM      3  N   UNL     1      -3.088   4.103   0.112  1.00  0.00    -0.355 N 
ATOM      4  H   UNL     1      -3.332   4.147  -0.841  1.00  0.00     0.163 HD
ENDROOT
BRANCH   1   5
ATOM      5  C   UNL     1      -1.027   3.828   1.580  1.00  0.00     0.092 C 
ATOM      6  C   UNL     1      -1.357   2.358   1.896  1.00  0.00     0.027 C 
ATOM      7  C   UNL     1      -1.356   4.715   2.795  1.00  0.00     0.027 C 
BRANCH   5   8
ATOM      8  C   UNL     1       0.515   3.945   1.299  1.00  0.00     0.276 C 
BRANCH   8   9
ATOM      9  N   UNL     1       1.142   2.913   0.448  1.00  0.00    -0.345 N 
ATOM     10  H   UNL     1       2.155   3.022   0.503  1.00  0.00     0.346 HD
ATOM     11  H   UNL     1       0.831   2.007   0.797  1.00  0.00     0.346 HD
BRANCH   9  12
ATOM     12  C   UNL     1       0.742   2.993  -0.961  1.00  0.00     0.271 C 
BRANCH  12  13
ATOM     13  C   UNL     1       1.347   1.886  -1.836  1.00  0.00     0.130 C 
BRANCH  13  14
ATOM     14  S   UNL     1       0.460   0.283  -1.730  1.00  0.00    -0.160 SA
ATOM     15  C   UNL     1       1.149  -0.384  -0.198  1.00  0.00     0.085 C 
ENDBRANCH  13  14
ENDBRANCH  12  13
ENDBRANCH   9  12
ENDBRANCH   8   9
ENDBRANCH   5   8
ENDBRANCH   1   5
BRANCH   3  16
ATOM     16  C   UNL     1      -4.180   3.737   0.990  1.00  0.00     0.117 C 
BRANCH  16  17
ATOM     17  C   UNL     1      -5.069   4.944   1.270  1.00  0.00     0.042 C 
BRANCH  17  18
ATOM     18  C   UNL     1      -5.726   5.525   0.024  1.00  0.00     0.118 C 
BRANCH  18  19
ATOM     19  N   UNL     1      -6.631   4.583  -0.620  1.00  0.00    -0.352 N 
ATOM     20  C   UNL     1      -7.988   4.652  -0.799  1.00  0.00     0.251 C 
ATOM     21  H   UNL     1      -6.203   3.774  -0.982  1.00  0.00     0.163 HD
ATOM     22  O   UNL     1      -8.607   3.656  -1.174  1.00  0.00    -0.269 OA
BRANCH  20  23
ATOM     23  C   UNL     1      -8.715   5.908  -0.523  1.00  0.00     0.039 A 
ATOM     24  C   UNL     1      -9.943   5.845   0.140  1.00  0.00     0.014 A 
ATOM     25  C   UNL     1      -8.197   7.143  -0.922  1.00  0.00     0.014 A 
ATOM     26  C   UNL     1     -10.614   7.024   0.464  1.00  0.00     0.010 A 
ATOM     27  C   UNL     1      -8.821   8.320  -0.519  1.00  0.00     0.010 A 
ATOM     28  C   UNL     1     -10.038   8.273   0.175  1.00  0.00    -0.014 A 
BRANCH  28  29
ATOM     29  C   UNL     1     -10.694   9.534   0.604  1.00  0.00     0.031 A 
ATOM     30  C   UNL     1     -11.161  10.536  -0.416  1.00  0.00     0.074 A 
ATOM     31  C   UNL     1     -10.824   9.798   1.919  1.00  0.00     0.049 A 
ATOM     32  N   UNL     1     -11.728  11.701  -0.226  1.00  0.00    -0.248 NA
ATOM     33  C   UNL     1     -10.945  10.199  -1.833  1.00  0.00     0.031 C 
ATOM     34  C   UNL     1     -10.368   8.930   3.008  1.00  0.00     0.029 A 
ATOM     35  N   UNL     1     -11.378  10.874   2.565  1.00  0.00    -0.354 N 
ATOM     36  C   UNL     1     -11.927  12.235  -1.493  1.00  0.00     0.074 A 
ATOM     37  C   UNL     1     -11.371  11.296  -2.442  1.00  0.00     0.031 C 
ATOM     38  C   UNL     1     -10.692   9.492   4.184  1.00  0.00     0.029 A 
ATOM     39  C   UNL     1     -11.337  10.776   3.935  1.00  0.00     0.049 A 
ATOM     40  H   UNL     1     -11.769  11.644   2.091  1.00  0.00     0.167 HD
ATOM     41  C   UNL     1     -12.540  13.392  -1.839  1.00  0.00     0.031 A 
ATOM     42  C   UNL     1     -11.765  11.627   4.886  1.00  0.00     0.031 A 
ATOM     43  C   UNL     1     -13.098  14.326  -0.897  1.00  0.00     0.049 A 
ATOM     44  C   UNL     1     -12.425  12.913   4.473  1.00  0.00     0.074 A 
ATOM     45  C   UNL     1     -13.780  15.504  -1.152  1.00  0.00     0.029 A 
ATOM     46  N   UNL     1     -13.037  14.188   0.480  1.00  0.00    -0.354 N 
ATOM     47  N   UNL     1     -12.669  13.368   3.268  1.00  0.00    -0.248 NA
ATOM     48  C   UNL     1     -12.879  13.798   5.554  1.00  0.00     0.031 C 
ATOM     49  C   UNL     1     -14.084  16.105   0.073  1.00  0.00     0.029 A 
ATOM     50  C   UNL     1     -13.647  15.272   1.090  1.00  0.00     0.049 A 
ATOM     51  H   UNL     1     -12.621  13.433   0.955  1.00  0.00     0.167 HD
ATOM     52  C   UNL     1     -13.327  14.577   3.446  1.00  0.00     0.074 A 
ATOM     53  C   UNL     1     -13.467  14.772   4.875  1.00  0.00     0.031 C 
ATOM     54  C   UNL     1     -13.774  15.452   2.512  1.00  0.00     0.031 A 
BRANCH  41  55
ATOM     55  C   UNL     1     -12.643  13.714  -3.305  1.00  0.00    -0.014 A 
ATOM     56  C   UNL     1     -13.493  12.981  -4.150  1.00  0.00     0.009 A 
ATOM     57  C   UNL     1     -11.924  14.794  -3.839  1.00  0.00     0.009 A 
ATOM     58  C   UNL     1     -13.597  13.306  -5.504  1.00  0.00     0.001 A 
ATOM     59  C   UNL     1     -12.053  15.135  -5.186  1.00  0.00     0.001 A 
ATOM     60  C   UNL     1     -12.883  14.386  -6.019  1.00  0.00     0.000 A 
ENDBRANCH  41  55
BRANCH  42  61
ATOM     61  C   UNL     1     -11.590  11.295   6.325  1.00  0.00    -0.014 A 
ATOM     62  C   UNL     1     -12.701  11.019   7.136  1.00  0.00     0.009 A 
ATOM     63  C   UNL     1     -10.310  11.278   6.901  1.00  0.00     0.009 A 
ATOM     64  C   UNL     1     -12.538  10.771   8.501  1.00  0.00     0.001 A 
ATOM     65  C   UNL     1     -10.147  10.996   8.259  1.00  0.00     0.001 A 
ATOM     66  C   UNL     1     -11.261  10.756   9.060  1.00  0.00     0.000 A 
ENDBRANCH  42  61
BRANCH  54  67
ATOM     67  C   UNL     1     -14.483  16.681   3.010  1.00  0.00    -0.014 A 
ATOM     68  C   UNL     1     -13.788  17.709   3.666  1.00  0.00     0.009 A 
ATOM     69  C   UNL     1     -15.863  16.821   2.796  1.00  0.00     0.009 A 
ATOM     70  C   UNL     1     -14.470  18.833   4.137  1.00  0.00     0.001 A 
ATOM     71  C   UNL     1     -16.536  17.960   3.238  1.00  0.00     0.001 A 
ATOM     72  C   UNL     1     -15.842  18.959   3.918  1.00  0.00     0.000 A 
ENDBRANCH  54  67
ENDBRANCH  28  29
ENDBRANCH  20  23
ENDBRANCH  18  19
ENDBRANCH  17  18
ENDBRANCH  16  17
ENDBRANCH   3  16
TORSDOF 15
