REMARK SMILES CCCc1cc(S(F)(F)(F)(F)F)cc2c1O[C@@H](C(F)(F)F)C(C(=O)NCCCNC(=O)c1ccc(-c3c4nc(c(-c5ccccc5)c5ccc([nH]5)c(-c5ccccc5)c5nc(c(-c6ccccc6)c6ccc3[nH]6)C=C5)C=C4)cc1)=C2
REMARK SMILES IDX 27 1 26 2 25 3 23 4 24 5 22 7 4 8 5 9 15 10 6 11 14 12 16 13
REMARK SMILES IDX 13 14 80 15 17 16 3 17 2 18 1 19 7 20 8 21 9 22 10 23 11 24
REMARK SMILES IDX 12 25 18 26 19 27 20 28 21 29 28 30 29 31 30 32 31 34 32 35
REMARK SMILES IDX 33 36 79 37 34 38 78 39 35 40 36 41 37 42 72 43 38 44 77 45
REMARK SMILES IDX 71 46 73 47 39 48 76 49 70 50 69 51 40 53 62 54 47 55 61 56
REMARK SMILES IDX 48 57 51 58 60 59 74 60 49 61 50 62 59 64 75 65 52 66 41 67
REMARK SMILES IDX 42 68 46 69 43 70 45 71 44 72 63 73 64 74 68 75 65 76 67 77
REMARK SMILES IDX 66 78 53 79 54 80 58 81 55 82 57 83 56 84
REMARK H PARENT 25 6 29 33 73 52 51 63
REMARK Flexibility Score: inf
ROOT
ATOM      1  C   UNL     1      -1.886  -6.176   7.201  1.00  0.00     0.042 C 
ENDROOT
BRANCH   1   2
ATOM      2  C   UNL     1      -0.552  -6.233   6.475  1.00  0.00     0.118 C 
BRANCH   2   3
ATOM      3  N   UNL     1      -0.463  -7.486   5.711  1.00  0.00    -0.352 N 
ATOM      4  C   UNL     1      -0.293  -7.446   4.251  1.00  0.00     0.251 C 
ATOM      5  O   UNL     1      -0.216  -8.529   3.591  1.00  0.00    -0.270 OA
ATOM      6  H   UNL     1      -0.518  -8.351   6.177  1.00  0.00     0.163 HD
BRANCH   4   7
ATOM      7  C   UNL     1      -0.209  -6.110   3.532  1.00  0.00     0.067 C 
ATOM      8  C   UNL     1       0.530  -2.504   1.556  1.00  0.00    -0.004 A 
ATOM      9  C   UNL     1       0.264  -1.304   2.189  1.00  0.00     0.032 A 
ATOM     10  C   UNL     1       0.328  -3.674   2.248  1.00  0.00     0.131 A 
ATOM     11  C   UNL     1      -0.188  -1.274   3.482  1.00  0.00     0.108 A 
ATOM     12  C   UNL     1      -0.144  -3.683   3.548  1.00  0.00     0.019 A 
ATOM     13  O   UNL     1       0.704  -4.851   1.648  1.00  0.00    -0.475 OA
ATOM     14  C   UNL     1      -0.398  -2.458   4.156  1.00  0.00     0.036 A 
ATOM     15  C   UNL     1      -0.287  -4.970   4.208  1.00  0.00     0.025 C 
ATOM     16  C   UNL     1      -0.032  -6.050   2.021  1.00  0.00     0.314 C 
BRANCH   8  17
ATOM     17  C   UNL     1       1.037  -2.530   0.123  1.00  0.00     0.039 C 
BRANCH  17  18
ATOM     18  C   UNL     1       0.530  -1.301  -0.615  1.00  0.00     0.001 C 
ATOM     19  C   UNL     1       1.037  -0.048   0.080  1.00  0.00     0.004 C 
ENDBRANCH  17  18
ENDBRANCH   8  17
BRANCH  11  20
ATOM     20  S   UNL     1      -0.508   0.309   4.300  1.00  0.00     0.310 S 
ATOM     21  F   UNL     1       0.864   0.096   5.067  1.00  0.00    -0.094 F 
ATOM     22  F   UNL     1      -1.217  -0.406   5.511  1.00  0.00    -0.094 F 
ATOM     23  F   UNL     1      -0.621   1.687   5.011  1.00  0.00    -0.094 F 
ATOM     24  F   UNL     1       0.328   0.985   3.142  1.00  0.00    -0.094 F 
ATOM     25  F   UNL     1      -0.285  -1.099   3.618  1.00  0.00    -0.094 F 
ENDBRANCH  11  20
BRANCH  16  26
ATOM     26  C   UNL     1       0.747  -7.272   1.563  1.00  0.00     0.429 C 
ATOM     27  F   UNL     1       0.080  -8.373   1.896  1.00  0.00    -0.167 F 
ATOM     28  F   UNL     1       0.902  -7.230   0.243  1.00  0.00    -0.167 F 
ATOM     29  F   UNL     1       1.940  -7.282   2.150  1.00  0.00    -0.167 F 
ENDBRANCH  16  26
ENDBRANCH   4   7
ENDBRANCH   2   3
ENDBRANCH   1   2
BRANCH   1  30
ATOM     30  C   UNL     1      -1.997  -7.357   8.150  1.00  0.00     0.118 C 
BRANCH  30  31
ATOM     31  N   UNL     1      -0.903  -7.302   9.131  1.00  0.00    -0.352 N 
ATOM     32  C   UNL     1      -1.207  -7.207  10.566  1.00  0.00     0.251 C 
ATOM     33  H   UNL     1       0.033  -7.329   8.826  1.00  0.00     0.163 HD
ATOM     34  O   UNL     1      -0.261  -7.160  11.414  1.00  0.00    -0.269 OA
BRANCH  32  35
ATOM     35  C   UNL     1      -2.651  -7.166  11.037  1.00  0.00     0.039 A 
ATOM     36  C   UNL     1      -3.026  -6.245  12.002  1.00  0.00     0.014 A 
ATOM     37  C   UNL     1      -3.531  -8.013  10.514  1.00  0.00     0.014 A 
ATOM     38  C   UNL     1      -4.300  -6.492  12.565  1.00  0.00     0.010 A 
ATOM     39  C   UNL     1      -4.803  -8.105  11.027  1.00  0.00     0.010 A 
ATOM     40  C   UNL     1      -5.222  -7.266  12.022  1.00  0.00    -0.014 A 
BRANCH  40  41
ATOM     41  C   UNL     1      -6.671  -7.228  12.480  1.00  0.00     0.031 A 
ATOM     42  C   UNL     1      -7.229  -8.402  12.988  1.00  0.00     0.074 A 
ATOM     43  C   UNL     1      -7.357  -6.031  12.366  1.00  0.00     0.049 A 
ATOM     44  N   UNL     1      -8.460  -8.575  13.471  1.00  0.00    -0.248 NA
ATOM     45  C   UNL     1      -6.513  -9.683  13.078  1.00  0.00     0.031 C 
ATOM     46  C   UNL     1      -6.798  -4.840  11.862  1.00  0.00     0.029 A 
ATOM     47  N   UNL     1      -8.666  -5.771  12.707  1.00  0.00    -0.354 N 
ATOM     48  C   UNL     1      -8.621  -9.834  13.884  1.00  0.00     0.074 A 
ATOM     49  C   UNL     1      -7.373 -10.566  13.631  1.00  0.00     0.031 C 
ATOM     50  C   UNL     1      -7.760  -3.880  11.887  1.00  0.00     0.029 A 
ATOM     51  C   UNL     1      -8.935  -4.454  12.409  1.00  0.00     0.049 A 
ATOM     52  H   UNL     1      -9.300  -6.416  13.097  1.00  0.00     0.167 HD
ATOM     53  C   UNL     1      -9.759 -10.399  14.462  1.00  0.00     0.031 A 
ATOM     54  C   UNL     1     -10.131  -3.773  12.573  1.00  0.00     0.031 A 
ATOM     55  C   UNL     1     -10.942  -9.707  14.666  1.00  0.00     0.049 A 
ATOM     56  C   UNL     1     -11.288  -4.355  13.098  1.00  0.00     0.074 A 
ATOM     57  C   UNL     1     -12.095 -10.259  15.255  1.00  0.00     0.029 A 
ATOM     58  N   UNL     1     -11.218  -8.396  14.345  1.00  0.00    -0.354 N 
ATOM     59  N   UNL     1     -11.436  -5.602  13.546  1.00  0.00    -0.248 NA
ATOM     60  C   UNL     1     -12.569  -3.653  13.246  1.00  0.00     0.031 C 
ATOM     61  C   UNL     1     -13.057  -9.299  15.280  1.00  0.00     0.029 A 
ATOM     62  C   UNL     1     -12.520  -8.130  14.707  1.00  0.00     0.049 A 
ATOM     63  H   UNL     1     -10.593  -7.760  13.929  1.00  0.00     0.167 HD
ATOM     64  C   UNL     1     -12.681  -5.786  13.991  1.00  0.00     0.074 A 
ATOM     65  C   UNL     1     -13.430  -4.537  13.797  1.00  0.00     0.031 C 
ATOM     66  C   UNL     1     -13.221  -6.944  14.553  1.00  0.00     0.031 A 
BRANCH  53  67
ATOM     67  C   UNL     1      -9.696 -11.856  14.893  1.00  0.00    -0.014 A 
ATOM     68  C   UNL     1      -8.762 -12.276  15.825  1.00  0.00     0.009 A 
ATOM     69  C   UNL     1     -10.550 -12.709  14.339  1.00  0.00     0.009 A 
ATOM     70  C   UNL     1      -8.615 -13.681  15.896  1.00  0.00     0.001 A 
ATOM     71  C   UNL     1     -10.430 -14.060  14.560  1.00  0.00     0.001 A 
ATOM     72  C   UNL     1      -9.490 -14.551  15.424  1.00  0.00     0.000 A 
ENDBRANCH  53  67
BRANCH  54  73
ATOM     73  C   UNL     1     -10.188  -2.312  12.158  1.00  0.00    -0.014 A 
ATOM     74  C   UNL     1     -10.496  -1.370  13.125  1.00  0.00     0.009 A 
ATOM     75  C   UNL     1      -9.943  -1.956  10.902  1.00  0.00     0.009 A 
ATOM     76  C   UNL     1     -10.807  -0.092  12.602  1.00  0.00     0.001 A 
ATOM     77  C   UNL     1     -10.139  -0.660  10.492  1.00  0.00     0.001 A 
ATOM     78  C   UNL     1     -10.501   0.312  11.383  1.00  0.00     0.000 A 
ENDBRANCH  54  73
BRANCH  66  79
ATOM     79  C   UNL     1     -14.665  -6.901  15.027  1.00  0.00    -0.014 A 
ATOM     80  C   UNL     1     -15.670  -6.616  14.117  1.00  0.00     0.009 A 
ATOM     81  C   UNL     1     -14.939  -7.137  16.304  1.00  0.00     0.009 A 
ATOM     82  C   UNL     1     -16.916  -6.317  14.715  1.00  0.00     0.001 A 
ATOM     83  C   UNL     1     -16.210  -6.954  16.792  1.00  0.00     0.001 A 
ATOM     84  C   UNL     1     -17.241  -6.615  15.960  1.00  0.00     0.000 A 
ENDBRANCH  66  79
ENDBRANCH  40  41
ENDBRANCH  32  35
ENDBRANCH  30  31
ENDBRANCH   1  30
TORSDOF 14
