REMARK SMILES C[C@H](C(=O)NCCCNC(=O)c1ccc(-c2c3nc(c(-c4ccccc4)c4ccc([nH]4)c(-c4ccccc4)c4nc(c(-c5ccccc5)c5ccc2[nH]5)C=C4)C=C3)cc1)c1ccc(C[C@H]2CCC[C@@H]2O)cc1
REMARK SMILES IDX 6 1 5 2 3 3 4 4 2 6 1 7 60 8 61 9 72 10 62 11 71 12 63 13
REMARK SMILES IDX 64 14 65 15 66 16 69 17 67 18 68 19 70 20 7 22 8 23 9 24
REMARK SMILES IDX 10 25 11 27 12 28 13 29 59 30 14 31 58 32 15 33 16 34 17 35
REMARK SMILES IDX 52 36 18 37 57 38 51 39 53 40 19 41 56 42 50 43 49 44 20 46
REMARK SMILES IDX 42 47 27 48 41 49 28 50 31 51 40 52 54 53 29 54 30 55 39 57
REMARK SMILES IDX 55 58 32 59 21 60 22 61 26 62 23 63 25 64 24 65 43 66 44 67
REMARK SMILES IDX 48 68 45 69 47 70 46 71 33 72 34 73 38 74 35 75 37 76 36 77
REMARK H PARENT 5 5 70 21 9 26 53 45 31 56
REMARK Flexibility Score: inf
ROOT
ATOM      1  C   UNL     1      -1.043   1.144   0.259  1.00  0.00     0.117 C 
ENDROOT
BRANCH   1   2
ATOM      2  N   UNL     1       0.361   0.797   0.273  1.00  0.00    -0.356 N 
ATOM      3  C   UNL     1       1.053  -0.231  -0.281  1.00  0.00     0.227 C 
ATOM      4  O   UNL     1       2.286  -0.081  -0.239  1.00  0.00    -0.274 OA
ATOM      5  H   UNL     1       0.921   1.426   0.782  1.00  0.00     0.163 HD
BRANCH   3   6
ATOM      6  C   UNL     1       0.484  -1.528  -0.910  1.00  0.00     0.105 C 
ATOM      7  C   UNL     1       1.196  -2.687  -0.178  1.00  0.00     0.023 C 
BRANCH   6   8
ATOM      8  C   UNL     1      -1.026  -1.722  -1.010  1.00  0.00    -0.036 A 
ATOM      9  C   UNL     1      -1.796  -0.920  -1.874  1.00  0.00     0.005 A 
ATOM     10  C   UNL     1      -1.712  -2.658  -0.224  1.00  0.00     0.005 A 
ATOM     11  C   UNL     1      -3.197  -0.867  -1.743  1.00  0.00     0.004 A 
ATOM     12  C   UNL     1      -3.106  -2.667  -0.168  1.00  0.00     0.004 A 
ATOM     13  C   UNL     1      -3.858  -1.692  -0.825  1.00  0.00    -0.048 A 
BRANCH  13  14
ATOM     14  C   UNL     1      -5.333  -1.549  -0.522  1.00  0.00     0.041 C 
BRANCH  14  15
ATOM     15  C   UNL     1      -5.727  -0.868   0.816  1.00  0.00     0.022 C 
ATOM     16  C   UNL     1      -5.129  -1.447   2.113  1.00  0.00     0.007 C 
ATOM     17  C   UNL     1      -5.436   0.633   0.898  1.00  0.00     0.117 C 
ATOM     18  C   UNL     1      -4.856  -0.264   3.044  1.00  0.00     0.003 C 
ATOM     19  C   UNL     1      -5.523   0.931   2.391  1.00  0.00     0.032 C 
BRANCH  17  20
ATOM     20  O   UNL     1      -6.409   1.404   0.215  1.00  0.00    -0.393 OA
ATOM     21  H   UNL     1      -7.286   1.218   0.585  1.00  0.00     0.210 HD
ENDBRANCH  17  20
ENDBRANCH  14  15
ENDBRANCH  13  14
ENDBRANCH   6   8
ENDBRANCH   3   6
ENDBRANCH   1   2
BRANCH   1  22
ATOM     22  C   UNL     1      -1.569   1.725   1.552  1.00  0.00     0.042 C 
BRANCH  22  23
ATOM     23  C   UNL     1      -1.134   3.144   1.840  1.00  0.00     0.118 C 
BRANCH  23  24
ATOM     24  N   UNL     1      -1.667   4.117   0.891  1.00  0.00    -0.352 N 
ATOM     25  C   UNL     1      -2.731   4.984   0.943  1.00  0.00     0.251 C 
ATOM     26  H   UNL     1      -1.165   4.160   0.046  1.00  0.00     0.163 HD
ATOM     27  O   UNL     1      -3.044   5.591  -0.088  1.00  0.00    -0.269 OA
BRANCH  25  28
ATOM     28  C   UNL     1      -3.524   5.201   2.175  1.00  0.00     0.039 A 
ATOM     29  C   UNL     1      -4.875   5.556   2.069  1.00  0.00     0.014 A 
ATOM     30  C   UNL     1      -2.951   5.118   3.441  1.00  0.00     0.014 A 
ATOM     31  C   UNL     1      -5.641   5.765   3.222  1.00  0.00     0.010 A 
ATOM     32  C   UNL     1      -3.744   5.165   4.580  1.00  0.00     0.010 A 
ATOM     33  C   UNL     1      -5.090   5.535   4.492  1.00  0.00    -0.014 A 
BRANCH  33  34
ATOM     34  C   UNL     1      -5.862   5.742   5.745  1.00  0.00     0.031 A 
ATOM     35  C   UNL     1      -5.356   6.709   6.790  1.00  0.00     0.074 A 
ATOM     36  C   UNL     1      -6.972   5.016   5.983  1.00  0.00     0.049 A 
ATOM     37  N   UNL     1      -5.828   6.960   7.986  1.00  0.00    -0.248 NA
ATOM     38  C   UNL     1      -4.130   7.461   6.467  1.00  0.00     0.031 C 
ATOM     39  C   UNL     1      -7.539   4.007   5.085  1.00  0.00     0.029 A 
ATOM     40  N   UNL     1      -7.821   5.016   7.061  1.00  0.00    -0.354 N 
ATOM     41  C   UNL     1      -4.939   7.862   8.561  1.00  0.00     0.074 A 
ATOM     42  C   UNL     1      -3.863   8.058   7.617  1.00  0.00     0.031 C 
ATOM     43  C   UNL     1      -8.665   3.518   5.630  1.00  0.00     0.029 A 
ATOM     44  C   UNL     1      -8.874   4.144   6.931  1.00  0.00     0.049 A 
ATOM     45  H   UNL     1      -7.688   5.587   7.852  1.00  0.00     0.167 HD
ATOM     46  C   UNL     1      -5.022   8.502   9.752  1.00  0.00     0.031 A 
ATOM     47  C   UNL     1      -9.895   3.879   7.768  1.00  0.00     0.031 A 
ATOM     48  C   UNL     1      -6.112   8.340  10.674  1.00  0.00     0.049 A 
ATOM     49  C   UNL     1      -9.984   4.621   9.072  1.00  0.00     0.074 A 
ATOM     50  C   UNL     1      -6.329   8.987  11.877  1.00  0.00     0.029 A 
ATOM     51  N   UNL     1      -7.177   7.473  10.486  1.00  0.00    -0.354 N 
ATOM     52  N   UNL     1      -9.168   5.517   9.572  1.00  0.00    -0.248 NA
ATOM     53  C   UNL     1     -11.148   4.326   9.920  1.00  0.00     0.031 C 
ATOM     54  C   UNL     1      -7.504   8.478  12.439  1.00  0.00     0.029 A 
ATOM     55  C   UNL     1      -8.048   7.558  11.557  1.00  0.00     0.049 A 
ATOM     56  H   UNL     1      -7.296   6.884   9.705  1.00  0.00     0.167 HD
ATOM     57  C   UNL     1      -9.735   5.917  10.776  1.00  0.00     0.074 A 
ATOM     58  C   UNL     1     -10.973   5.177  10.921  1.00  0.00     0.031 C 
ATOM     59  C   UNL     1      -9.275   6.815  11.681  1.00  0.00     0.031 A 
BRANCH  46  60
ATOM     60  C   UNL     1      -3.902   9.442  10.113  1.00  0.00    -0.014 A 
ATOM     61  C   UNL     1      -3.699  10.640   9.407  1.00  0.00     0.009 A 
ATOM     62  C   UNL     1      -3.048   9.135  11.183  1.00  0.00     0.009 A 
ATOM     63  C   UNL     1      -2.635  11.484   9.733  1.00  0.00     0.001 A 
ATOM     64  C   UNL     1      -2.006   9.999  11.530  1.00  0.00     0.001 A 
ATOM     65  C   UNL     1      -1.793  11.165  10.797  1.00  0.00     0.000 A 
ENDBRANCH  46  60
BRANCH  47  66
ATOM     66  C   UNL     1     -10.936   2.889   7.382  1.00  0.00    -0.014 A 
ATOM     67  C   UNL     1     -12.235   3.312   7.058  1.00  0.00     0.009 A 
ATOM     68  C   UNL     1     -10.639   1.519   7.333  1.00  0.00     0.009 A 
ATOM     69  C   UNL     1     -13.221   2.381   6.724  1.00  0.00     0.001 A 
ATOM     70  C   UNL     1     -11.619   0.593   6.969  1.00  0.00     0.001 A 
ATOM     71  C   UNL     1     -12.911   1.024   6.675  1.00  0.00     0.000 A 
ENDBRANCH  47  66
BRANCH  59  72
ATOM     72  C   UNL     1     -10.136   7.078  12.884  1.00  0.00    -0.014 A 
ATOM     73  C   UNL     1     -10.284   6.124  13.902  1.00  0.00     0.009 A 
ATOM     74  C   UNL     1     -10.781   8.319  13.014  1.00  0.00     0.009 A 
ATOM     75  C   UNL     1     -11.095   6.392  15.006  1.00  0.00     0.001 A 
ATOM     76  C   UNL     1     -11.564   8.596  14.134  1.00  0.00     0.001 A 
ATOM     77  C   UNL     1     -11.730   7.628  15.124  1.00  0.00     0.000 A 
ENDBRANCH  59  72
ENDBRANCH  33  34
ENDBRANCH  25  28
ENDBRANCH  23  24
ENDBRANCH  22  23
ENDBRANCH   1  22
TORSDOF 14
