REMARK SMILES O=C(CCCCCN1C(=O)/C(=C2\C(=O)Nc3ccccc32)SC1=S)NCCCNC(=O)c1ccc(-c2c3nc(c(-c4ccccc4)c4ccc([nH]4)c(-c4ccccc4)c4nc(c(-c5ccccc5)c5ccc2[nH]5)C=C4)C=C3)cc1
REMARK SMILES IDX 1 1 2 2 25 3 3 5 4 6 5 7 6 8 7 9 8 10 9 11 23 12 10 13 11 14
REMARK SMILES IDX 22 15 24 16 12 17 13 18 21 19 14 20 15 21 16 22 20 23 17 25
REMARK SMILES IDX 19 26 18 27 26 28 27 29 28 30 29 31 30 32 31 34 32 35 33 36
REMARK SMILES IDX 79 37 34 38 78 39 35 40 36 41 37 42 72 43 38 44 77 45 71 46
REMARK SMILES IDX 73 47 39 48 76 49 70 50 69 51 40 53 62 54 47 55 61 56 48 57
REMARK SMILES IDX 51 58 60 59 74 60 49 61 50 62 59 64 75 65 52 66 41 67 42 68
REMARK SMILES IDX 46 69 43 70 45 71 44 72 63 73 64 74 68 75 65 76 67 77 66 78
REMARK SMILES IDX 53 79 54 80 58 81 55 82 57 83 56 84
REMARK H PARENT 25 4 15 24 29 33 73 52 51 63
REMARK Flexibility Score: inf
ROOT
ATOM      1  O   UNL     1       0.664   0.003  -0.377  1.00  0.00    -0.275 OA
ATOM      2  C   UNL     1       1.836  -0.030  -0.024  1.00  0.00     0.219 C 
ATOM      3  N   UNL     1       2.486   1.015   0.587  1.00  0.00    -0.356 N 
ATOM      4  H   UNL     1       3.388   0.856   0.949  1.00  0.00     0.163 HD
ENDROOT
BRANCH   2   5
ATOM      5  C   UNL     1       2.721  -1.244  -0.244  1.00  0.00     0.100 C 
BRANCH   5   6
ATOM      6  C   UNL     1       3.674  -1.075  -1.430  1.00  0.00     0.010 C 
BRANCH   6   7
ATOM      7  C   UNL     1       4.771  -0.016  -1.278  1.00  0.00     0.002 C 
BRANCH   7   8
ATOM      8  C   UNL     1       5.750  -0.214  -0.109  1.00  0.00     0.022 C 
BRANCH   8   9
ATOM      9  C   UNL     1       6.774  -1.345  -0.287  1.00  0.00     0.127 C 
BRANCH   9  10
ATOM     10  N   UNL     1       7.484  -1.341  -1.564  1.00  0.00    -0.293 N 
ATOM     11  C   UNL     1       7.915  -0.150  -2.128  1.00  0.00     0.267 C 
ATOM     12  C   UNL     1       7.919  -2.474  -2.216  1.00  0.00     0.148 C 
ATOM     13  O   UNL     1       8.177   0.878  -1.527  1.00  0.00    -0.268 OA
ATOM     14  C   UNL     1       8.128  -0.381  -3.581  1.00  0.00     0.093 C 
ATOM     15  S   UNL     1       8.674  -2.014  -3.736  1.00  0.00    -0.053 SA
ATOM     16  S   UNL     1       7.784  -4.066  -1.740  1.00  0.00    -0.052 S 
ATOM     17  C   UNL     1       7.700   0.420  -4.568  1.00  0.00     0.069 C 
ATOM     18  C   UNL     1       6.988   1.735  -4.344  1.00  0.00     0.257 C 
ATOM     19  C   UNL     1       7.647   0.169  -6.023  1.00  0.00     0.012 A 
ATOM     20  O   UNL     1       6.687   2.276  -3.295  1.00  0.00    -0.269 OA
ATOM     21  N   UNL     1       6.631   2.180  -5.602  1.00  0.00    -0.321 N 
ATOM     22  C   UNL     1       6.984   1.265  -6.585  1.00  0.00     0.049 A 
ATOM     23  C   UNL     1       8.030  -0.882  -6.841  1.00  0.00     0.011 A 
ATOM     24  H   UNL     1       6.182   3.038  -5.780  1.00  0.00     0.170 HD
ATOM     25  C   UNL     1       6.685   1.358  -7.930  1.00  0.00     0.027 A 
ATOM     26  C   UNL     1       7.725  -0.820  -8.206  1.00  0.00     0.001 A 
ATOM     27  C   UNL     1       7.059   0.290  -8.746  1.00  0.00     0.002 A 
ENDBRANCH   9  10
ENDBRANCH   8   9
ENDBRANCH   7   8
ENDBRANCH   6   7
ENDBRANCH   5   6
ENDBRANCH   2   5
BRANCH   3  28
ATOM     28  C   UNL     1       1.914   2.337   0.729  1.00  0.00     0.117 C 
BRANCH  28  29
ATOM     29  C   UNL     1       2.294   2.975   2.056  1.00  0.00     0.042 C 
BRANCH  29  30
ATOM     30  C   UNL     1       3.792   3.185   2.259  1.00  0.00     0.118 C 
BRANCH  30  31
ATOM     31  N   UNL     1       4.362   4.245   1.438  1.00  0.00    -0.352 N 
ATOM     32  C   UNL     1       5.068   5.365   1.823  1.00  0.00     0.251 C 
ATOM     33  H   UNL     1       4.224   4.147   0.469  1.00  0.00     0.163 HD
ATOM     34  O   UNL     1       5.368   6.222   0.998  1.00  0.00    -0.269 OA
BRANCH  32  35
ATOM     35  C   UNL     1       5.416   5.564   3.248  1.00  0.00     0.039 A 
ATOM     36  C   UNL     1       5.911   4.511   4.019  1.00  0.00     0.014 A 
ATOM     37  C   UNL     1       5.196   6.813   3.834  1.00  0.00     0.014 A 
ATOM     38  C   UNL     1       5.968   4.642   5.403  1.00  0.00     0.010 A 
ATOM     39  C   UNL     1       5.360   6.973   5.213  1.00  0.00     0.010 A 
ATOM     40  C   UNL     1       5.680   5.870   6.021  1.00  0.00    -0.014 A 
BRANCH  40  41
ATOM     41  C   UNL     1       5.701   5.972   7.505  1.00  0.00     0.031 A 
ATOM     42  C   UNL     1       4.451   6.316   8.275  1.00  0.00     0.074 A 
ATOM     43  C   UNL     1       6.839   5.695   8.172  1.00  0.00     0.049 A 
ATOM     44  N   UNL     1       4.285   6.418   9.571  1.00  0.00    -0.248 NA
ATOM     45  C   UNL     1       3.229   6.581   7.498  1.00  0.00     0.031 C 
ATOM     46  C   UNL     1       8.110   5.325   7.546  1.00  0.00     0.029 A 
ATOM     47  N   UNL     1       7.108   5.654   9.518  1.00  0.00    -0.354 N 
ATOM     48  C   UNL     1       2.954   6.773   9.760  1.00  0.00     0.074 A 
ATOM     49  C   UNL     1       2.363   6.906   8.448  1.00  0.00     0.031 C 
ATOM     50  C   UNL     1       9.002   5.037   8.502  1.00  0.00     0.029 A 
ATOM     51  C   UNL     1       8.397   5.277   9.809  1.00  0.00     0.049 A 
ATOM     52  H   UNL     1       6.441   5.872  10.208  1.00  0.00     0.167 HD
ATOM     53  C   UNL     1       2.283   6.956  10.922  1.00  0.00     0.031 A 
ATOM     54  C   UNL     1       9.036   5.153  10.988  1.00  0.00     0.031 A 
ATOM     55  C   UNL     1       2.872   6.809  12.229  1.00  0.00     0.049 A 
ATOM     56  C   UNL     1       8.285   5.424  12.261  1.00  0.00     0.074 A 
ATOM     57  C   UNL     1       2.259   6.948  13.463  1.00  0.00     0.029 A 
ATOM     58  N   UNL     1       4.199   6.494  12.474  1.00  0.00    -0.354 N 
ATOM     59  N   UNL     1       7.022   5.734  12.421  1.00  0.00    -0.248 NA
ATOM     60  C   UNL     1       9.043   5.325  13.517  1.00  0.00     0.031 C 
ATOM     61  C   UNL     1       3.232   6.797  14.452  1.00  0.00     0.029 A 
ATOM     62  C   UNL     1       4.431   6.472  13.840  1.00  0.00     0.049 A 
ATOM     63  H   UNL     1       4.875   6.312  11.782  1.00  0.00     0.167 HD
ATOM     64  C   UNL     1       6.828   5.848  13.791  1.00  0.00     0.074 A 
ATOM     65  C   UNL     1       8.098   5.551  14.420  1.00  0.00     0.031 C 
ATOM     66  C   UNL     1       5.697   6.173  14.463  1.00  0.00     0.031 A 
BRANCH  53  67
ATOM     67  C   UNL     1       0.829   7.344  10.858  1.00  0.00    -0.014 A 
ATOM     68  C   UNL     1       0.421   8.598  11.344  1.00  0.00     0.009 A 
ATOM     69  C   UNL     1      -0.152   6.432  10.437  1.00  0.00     0.009 A 
ATOM     70  C   UNL     1      -0.935   8.922  11.431  1.00  0.00     0.001 A 
ATOM     71  C   UNL     1      -1.506   6.772  10.493  1.00  0.00     0.001 A 
ATOM     72  C   UNL     1      -1.897   8.010  11.003  1.00  0.00     0.000 A 
ENDBRANCH  53  67
BRANCH  54  73
ATOM     73  C   UNL     1      10.466   4.742  11.000  1.00  0.00    -0.014 A 
ATOM     74  C   UNL     1      11.452   5.571  10.438  1.00  0.00     0.009 A 
ATOM     75  C   UNL     1      10.848   3.493  11.512  1.00  0.00     0.009 A 
ATOM     76  C   UNL     1      12.778   5.144  10.349  1.00  0.00     0.001 A 
ATOM     77  C   UNL     1      12.183   3.084  11.458  1.00  0.00     0.001 A 
ATOM     78  C   UNL     1      13.143   3.902  10.864  1.00  0.00     0.000 A 
ENDBRANCH  54  73
BRANCH  66  79
ATOM     79  C   UNL     1       5.750   6.218  15.966  1.00  0.00    -0.014 A 
ATOM     80  C   UNL     1       4.996   5.300  16.717  1.00  0.00     0.009 A 
ATOM     81  C   UNL     1       6.438   7.238  16.640  1.00  0.00     0.009 A 
ATOM     82  C   UNL     1       4.908   5.418  18.105  1.00  0.00     0.001 A 
ATOM     83  C   UNL     1       6.378   7.332  18.032  1.00  0.00     0.001 A 
ATOM     84  C   UNL     1       5.602   6.431  18.761  1.00  0.00     0.000 A 
ENDBRANCH  66  79
ENDBRANCH  40  41
ENDBRANCH  32  35
ENDBRANCH  30  31
ENDBRANCH  29  30
ENDBRANCH  28  29
ENDBRANCH   3  28
TORSDOF 15
