REMARK SMILES Cc1nsc(NC(=O)c2ccc(N)cc2)c1C(=O)NCCCNC(=O)c1ccc(-c2c3nc(c(-c4ccccc4)c4ccc([nH]4)c(-c4ccccc4)c4nc(c(-c5ccccc5)c5ccc2[nH]5)C=C4)C=C3)cc1
REMARK SMILES IDX 20 1 19 2 17 3 18 4 16 6 1 7 2 8 3 9 4 10 5 11 6 12 7 13
REMARK SMILES IDX 8 15 9 16 10 17 15 18 11 19 14 20 12 21 13 22 21 25 22 26
REMARK SMILES IDX 23 27 24 28 25 30 26 31 27 32 73 33 28 34 72 35 29 36 30 37
REMARK SMILES IDX 31 38 66 39 32 40 71 41 65 42 67 43 33 44 70 45 64 46 63 47
REMARK SMILES IDX 34 49 56 50 41 51 55 52 42 53 45 54 54 55 68 56 43 57 44 58
REMARK SMILES IDX 53 60 69 61 46 62 35 63 36 64 40 65 37 66 39 67 38 68 57 69
REMARK SMILES IDX 58 70 62 71 59 72 61 73 60 74 47 75 48 76 52 77 49 78 51 79
REMARK SMILES IDX 50 80
REMARK H PARENT 19 5 6 14 13 23 13 24 23 29 67 48 45 59
REMARK Flexibility Score: inf
ROOT
ATOM      1  C   UNL     1       1.230   1.415   1.606  1.00  0.00     0.118 C 
ENDROOT
BRANCH   1   2
ATOM      2  N   UNL     1       1.416   2.554   0.742  1.00  0.00    -0.352 N 
ATOM      3  C   UNL     1       1.183   2.813  -0.579  1.00  0.00     0.256 C 
ATOM      4  O   UNL     1       1.285   4.018  -0.851  1.00  0.00    -0.269 OA
ATOM      5  H   UNL     1       1.801   3.327   1.215  1.00  0.00     0.163 HD
BRANCH   3   6
ATOM      6  C   UNL     1       0.906   1.840  -1.651  1.00  0.00     0.097 A 
ATOM      7  C   UNL     1       0.679  -0.691  -0.720  1.00  0.00     0.069 C 
ATOM      8  C   UNL     1       0.771   0.382  -1.742  1.00  0.00     0.066 A 
ATOM      9  N   UNL     1       0.739  -0.124  -2.977  1.00  0.00    -0.195 NA
ATOM     10  S   UNL     1       0.822   1.079  -4.066  1.00  0.00    -0.017 S 
ATOM     11  C   UNL     1       0.684   2.345  -2.947  1.00  0.00     0.129 A 
BRANCH  11  12
ATOM     12  N   UNL     1       0.523   3.667  -3.350  1.00  0.00    -0.312 N 
ATOM     13  C   UNL     1       0.073   4.207  -4.539  1.00  0.00     0.256 C 
ATOM     14  H   UNL     1       0.774   4.333  -2.669  1.00  0.00     0.171 HD
ATOM     15  O   UNL     1       0.181   5.411  -4.766  1.00  0.00    -0.269 OA
BRANCH  13  16
ATOM     16  C   UNL     1      -0.595   3.367  -5.551  1.00  0.00     0.040 A 
ATOM     17  C   UNL     1      -1.756   2.655  -5.229  1.00  0.00     0.016 A 
ATOM     18  C   UNL     1       0.015   3.204  -6.795  1.00  0.00     0.016 A 
ATOM     19  C   UNL     1      -2.216   1.670  -6.105  1.00  0.00     0.026 A 
ATOM     20  C   UNL     1      -0.463   2.222  -7.665  1.00  0.00     0.026 A 
ATOM     21  C   UNL     1      -1.531   1.398  -7.295  1.00  0.00     0.031 A 
BRANCH  21  22
ATOM     22  N   UNL     1      -1.974   0.397  -8.145  1.00  0.00    -0.399 N 
ATOM     23  H   UNL     1      -2.726  -0.179  -7.878  1.00  0.00     0.156 HD
ATOM     24  H   UNL     1      -1.536   0.263  -9.017  1.00  0.00     0.156 HD
ENDBRANCH  21  22
ENDBRANCH  13  16
ENDBRANCH  11  12
ENDBRANCH   3   6
ENDBRANCH   1   2
BRANCH   1  25
ATOM     25  C   UNL     1       2.440   0.483   1.643  1.00  0.00     0.042 C 
BRANCH  25  26
ATOM     26  C   UNL     1       3.439   0.846   2.725  1.00  0.00     0.118 C 
BRANCH  26  27
ATOM     27  N   UNL     1       2.893   0.622   4.061  1.00  0.00    -0.352 N 
ATOM     28  C   UNL     1       3.425   0.973   5.285  1.00  0.00     0.251 C 
ATOM     29  H   UNL     1       2.026   0.157   4.093  1.00  0.00     0.163 HD
ATOM     30  O   UNL     1       3.043   0.428   6.306  1.00  0.00    -0.269 OA
BRANCH  28  31
ATOM     31  C   UNL     1       4.484   1.996   5.330  1.00  0.00     0.039 A 
ATOM     32  C   UNL     1       5.590   1.818   6.160  1.00  0.00     0.014 A 
ATOM     33  C   UNL     1       4.391   3.106   4.493  1.00  0.00     0.014 A 
ATOM     34  C   UNL     1       6.650   2.712   6.056  1.00  0.00     0.010 A 
ATOM     35  C   UNL     1       5.496   3.899   4.283  1.00  0.00     0.010 A 
ATOM     36  C   UNL     1       6.622   3.725   5.077  1.00  0.00    -0.014 A 
BRANCH  36  37
ATOM     37  C   UNL     1       7.843   4.473   4.780  1.00  0.00     0.031 A 
ATOM     38  C   UNL     1       9.042   3.608   4.628  1.00  0.00     0.074 A 
ATOM     39  C   UNL     1       7.914   5.793   4.506  1.00  0.00     0.049 A 
ATOM     40  N   UNL     1       9.981   3.446   5.498  1.00  0.00    -0.248 NA
ATOM     41  C   UNL     1       9.121   2.688   3.481  1.00  0.00     0.031 C 
ATOM     42  C   UNL     1       6.813   6.745   4.329  1.00  0.00     0.029 A 
ATOM     43  N   UNL     1       9.013   6.556   4.233  1.00  0.00    -0.354 N 
ATOM     44  C   UNL     1      10.903   2.596   4.903  1.00  0.00     0.074 A 
ATOM     45  C   UNL     1      10.231   2.004   3.773  1.00  0.00     0.031 C 
ATOM     46  C   UNL     1       7.277   7.877   3.754  1.00  0.00     0.029 A 
ATOM     47  C   UNL     1       8.725   7.804   3.690  1.00  0.00     0.049 A 
ATOM     48  H   UNL     1       9.932   6.249   4.406  1.00  0.00     0.167 HD
ATOM     49  C   UNL     1      12.227   2.708   5.202  1.00  0.00     0.031 A 
ATOM     50  C   UNL     1       9.610   8.716   3.217  1.00  0.00     0.031 A 
ATOM     51  C   UNL     1      12.430   3.495   6.398  1.00  0.00     0.049 A 
ATOM     52  C   UNL     1      10.918   8.422   3.837  1.00  0.00     0.074 A 
ATOM     53  C   UNL     1      11.995   3.434   7.707  1.00  0.00     0.029 A 
ATOM     54  N   UNL     1      12.872   4.782   6.206  1.00  0.00    -0.354 N 
ATOM     55  N   UNL     1      11.170   8.607   5.099  1.00  0.00    -0.248 NA
ATOM     56  C   UNL     1      11.840   7.547   3.137  1.00  0.00     0.031 C 
ATOM     57  C   UNL     1      11.784   4.793   8.094  1.00  0.00     0.029 A 
ATOM     58  C   UNL     1      12.178   5.615   7.037  1.00  0.00     0.049 A 
ATOM     59  H   UNL     1      13.573   5.058   5.573  1.00  0.00     0.167 HD
ATOM     60  C   UNL     1      11.954   7.522   5.454  1.00  0.00     0.074 A 
ATOM     61  C   UNL     1      12.452   6.992   4.186  1.00  0.00     0.031 C 
ATOM     62  C   UNL     1      11.877   6.993   6.712  1.00  0.00     0.031 A 
BRANCH  49  63
ATOM     63  C   UNL     1      13.315   2.587   4.152  1.00  0.00    -0.014 A 
ATOM     64  C   UNL     1      14.649   2.793   4.552  1.00  0.00     0.009 A 
ATOM     65  C   UNL     1      13.063   2.617   2.767  1.00  0.00     0.009 A 
ATOM     66  C   UNL     1      15.643   3.131   3.626  1.00  0.00     0.001 A 
ATOM     67  C   UNL     1      14.062   2.909   1.837  1.00  0.00     0.001 A 
ATOM     68  C   UNL     1      15.346   3.203   2.270  1.00  0.00     0.000 A 
ENDBRANCH  49  63
BRANCH  50  69
ATOM     69  C   UNL     1       9.479   9.714   2.135  1.00  0.00    -0.014 A 
ATOM     70  C   UNL     1      10.430  10.740   1.995  1.00  0.00     0.009 A 
ATOM     71  C   UNL     1       8.605   9.482   1.059  1.00  0.00     0.009 A 
ATOM     72  C   UNL     1      10.545  11.462   0.800  1.00  0.00     0.001 A 
ATOM     73  C   UNL     1       8.715  10.208  -0.133  1.00  0.00     0.001 A 
ATOM     74  C   UNL     1       9.700  11.182  -0.270  1.00  0.00     0.000 A 
ENDBRANCH  50  69
BRANCH  62  75
ATOM     75  C   UNL     1      11.235   7.827   7.794  1.00  0.00    -0.014 A 
ATOM     76  C   UNL     1       9.924   8.330   7.732  1.00  0.00     0.009 A 
ATOM     77  C   UNL     1      11.968   8.033   8.973  1.00  0.00     0.009 A 
ATOM     78  C   UNL     1       9.387   9.060   8.799  1.00  0.00     0.001 A 
ATOM     79  C   UNL     1      11.423   8.736  10.047  1.00  0.00     0.001 A 
ATOM     80  C   UNL     1      10.136   9.260   9.956  1.00  0.00     0.000 A 
ENDBRANCH  62  75
ENDBRANCH  36  37
ENDBRANCH  28  31
ENDBRANCH  26  27
ENDBRANCH  25  26
ENDBRANCH   1  25
TORSDOF 13
