REMARK SMILES CC(C)Cc1cc2c(cc1Cl)C=C(C(=O)NCCCNC(=O)c1ccc(-c3c4nc(c(-c5ccccc5)c5ccc([nH]5)c(-c5ccccc5)c5nc(c(-c6ccccc6)c6ccc3[nH]6)C=C5)C=C4)cc1)[C@H](C(F)(F)F)O2
REMARK SMILES IDX 18 1 17 2 16 3 14 4 15 5 13 7 5 8 6 9 10 10 7 11 9 12 11 13
REMARK SMILES IDX 8 14 76 15 12 16 71 17 4 18 2 19 1 20 3 21 72 22 73 23 74 24
REMARK SMILES IDX 75 25 19 26 20 27 21 28 22 30 23 31 24 32 70 33 25 34 69 35
REMARK SMILES IDX 26 36 27 37 28 38 63 39 29 40 68 41 62 42 64 43 30 44 67 45
REMARK SMILES IDX 61 46 60 47 31 49 53 50 38 51 52 52 39 53 42 54 51 55 65 56
REMARK SMILES IDX 40 57 41 58 50 60 66 61 43 62 32 63 33 64 37 65 34 66 36 67
REMARK SMILES IDX 35 68 54 69 55 70 59 71 56 72 58 73 57 74 44 75 45 76 49 77
REMARK SMILES IDX 46 78 48 79 47 80
REMARK H PARENT 16 6 20 29 64 48 42 59
REMARK Flexibility Score: inf
ROOT
ATOM      1  C   UNL     1      -7.983   5.896   0.321  1.00  0.00     0.042 C 
ENDROOT
BRANCH   1   2
ATOM      2  C   UNL     1      -7.259   5.948  -1.019  1.00  0.00     0.118 C 
BRANCH   2   3
ATOM      3  N   UNL     1      -5.987   6.637  -0.897  1.00  0.00    -0.352 N 
ATOM      4  C   UNL     1      -4.682   6.294  -0.834  1.00  0.00     0.251 C 
ATOM      5  O   UNL     1      -3.894   7.240  -0.741  1.00  0.00    -0.270 OA
ATOM      6  H   UNL     1      -6.107   7.613  -0.848  1.00  0.00     0.163 HD
BRANCH   4   7
ATOM      7  C   UNL     1      -4.159   4.900  -0.884  1.00  0.00     0.067 C 
ATOM      8  C   UNL     1      -1.039   0.940  -1.467  1.00  0.00    -0.025 A 
ATOM      9  C   UNL     1      -2.408   1.105  -1.155  1.00  0.00     0.052 A 
ATOM     10  C   UNL     1      -0.306   2.101  -1.764  1.00  0.00     0.045 A 
ATOM     11  C   UNL     1      -3.001   2.365  -1.089  1.00  0.00     0.128 A 
ATOM     12  C   UNL     1      -0.900   3.369  -1.665  1.00  0.00     0.032 A 
ATOM     13  Cl  UNL     1       1.323   2.099  -2.330  1.00  0.00    -0.084 Cl
ATOM     14  C   UNL     1      -2.247   3.503  -1.329  1.00  0.00     0.019 A 
ATOM     15  O   UNL     1      -4.341   2.397  -0.839  1.00  0.00    -0.475 OA
ATOM     16  C   UNL     1      -2.879   4.809  -1.286  1.00  0.00     0.025 C 
ATOM     17  C   UNL     1      -4.921   3.675  -0.452  1.00  0.00     0.314 C 
BRANCH   8  18
ATOM     18  C   UNL     1      -0.554  -0.497  -1.539  1.00  0.00     0.040 C 
BRANCH  18  19
ATOM     19  C   UNL     1       0.898  -0.875  -1.187  1.00  0.00    -0.013 C 
ATOM     20  C   UNL     1       1.314  -0.414   0.210  1.00  0.00     0.008 C 
ATOM     21  C   UNL     1       1.075  -2.395  -1.296  1.00  0.00     0.008 C 
ENDBRANCH  18  19
ENDBRANCH   8  18
BRANCH  17  22
ATOM     22  C   UNL     1      -5.248   3.638   1.050  1.00  0.00     0.429 C 
ATOM     23  F   UNL     1      -4.431   2.814   1.745  1.00  0.00    -0.167 F 
ATOM     24  F   UNL     1      -5.175   4.854   1.637  1.00  0.00    -0.167 F 
ATOM     25  F   UNL     1      -6.518   3.192   1.237  1.00  0.00    -0.167 F 
ENDBRANCH  17  22
ENDBRANCH   4   7
ENDBRANCH   2   3
ENDBRANCH   1   2
BRANCH   1  26
ATOM     26  C   UNL     1      -8.550   7.250   0.731  1.00  0.00     0.118 C 
BRANCH  26  27
ATOM     27  N   UNL     1      -9.735   7.603  -0.042  1.00  0.00    -0.352 N 
ATOM     28  C   UNL     1     -11.054   7.663   0.342  1.00  0.00     0.251 C 
ATOM     29  H   UNL     1      -9.565   7.835  -0.984  1.00  0.00     0.163 HD
ATOM     30  O   UNL     1     -11.935   7.741  -0.511  1.00  0.00    -0.269 OA
BRANCH  28  31
ATOM     31  C   UNL     1     -11.414   7.609   1.774  1.00  0.00     0.039 A 
ATOM     32  C   UNL     1     -10.655   8.297   2.721  1.00  0.00     0.014 A 
ATOM     33  C   UNL     1     -12.525   6.864   2.180  1.00  0.00     0.014 A 
ATOM     34  C   UNL     1     -10.877   8.076   4.073  1.00  0.00     0.010 A 
ATOM     35  C   UNL     1     -12.819   6.739   3.541  1.00  0.00     0.010 A 
ATOM     36  C   UNL     1     -11.966   7.301   4.503  1.00  0.00    -0.014 A 
BRANCH  36  37
ATOM     37  C   UNL     1     -12.186   7.109   5.961  1.00  0.00     0.031 A 
ATOM     38  C   UNL     1     -12.133   5.738   6.580  1.00  0.00     0.074 A 
ATOM     39  C   UNL     1     -12.368   8.193   6.742  1.00  0.00     0.049 A 
ATOM     40  N   UNL     1     -12.261   5.401   7.839  1.00  0.00    -0.248 NA
ATOM     41  C   UNL     1     -11.912   4.596   5.677  1.00  0.00     0.031 C 
ATOM     42  C   UNL     1     -12.419   9.576   6.261  1.00  0.00     0.029 A 
ATOM     43  N   UNL     1     -12.502   8.312   8.103  1.00  0.00    -0.354 N 
ATOM     44  C   UNL     1     -12.157   4.016   7.876  1.00  0.00     0.074 A 
ATOM     45  C   UNL     1     -11.988   3.568   6.512  1.00  0.00     0.031 C 
ATOM     46  C   UNL     1     -12.495  10.405   7.312  1.00  0.00     0.029 A 
ATOM     47  C   UNL     1     -12.585   9.614   8.534  1.00  0.00     0.049 A 
ATOM     48  H   UNL     1     -12.536   7.538   8.711  1.00  0.00     0.167 HD
ATOM     49  C   UNL     1     -12.185   3.194   8.952  1.00  0.00     0.031 A 
ATOM     50  C   UNL     1     -12.729  10.125   9.771  1.00  0.00     0.031 A 
ATOM     51  C   UNL     1     -12.337   3.647  10.311  1.00  0.00     0.049 A 
ATOM     52  C   UNL     1     -12.805   9.189  10.942  1.00  0.00     0.074 A 
ATOM     53  C   UNL     1     -12.360   2.888  11.468  1.00  0.00     0.029 A 
ATOM     54  N   UNL     1     -12.487   4.970  10.695  1.00  0.00    -0.354 N 
ATOM     55  N   UNL     1     -12.698   7.883  10.957  1.00  0.00    -0.248 NA
ATOM     56  C   UNL     1     -13.020   9.793  12.264  1.00  0.00     0.031 C 
ATOM     57  C   UNL     1     -12.592   3.744  12.546  1.00  0.00     0.029 A 
ATOM     58  C   UNL     1     -12.632   5.045  12.071  1.00  0.00     0.049 A 
ATOM     59  H   UNL     1     -12.489   5.741  10.083  1.00  0.00     0.167 HD
ATOM     60  C   UNL     1     -12.817   7.508  12.289  1.00  0.00     0.074 A 
ATOM     61  C   UNL     1     -12.980   8.727  13.054  1.00  0.00     0.031 C 
ATOM     62  C   UNL     1     -12.796   6.263  12.824  1.00  0.00     0.031 A 
BRANCH  49  63
ATOM     63  C   UNL     1     -12.061   1.711   8.721  1.00  0.00    -0.014 A 
ATOM     64  C   UNL     1     -13.148   0.869   9.008  1.00  0.00     0.009 A 
ATOM     65  C   UNL     1     -10.845   1.134   8.324  1.00  0.00     0.009 A 
ATOM     66  C   UNL     1     -13.016  -0.518   8.921  1.00  0.00     0.001 A 
ATOM     67  C   UNL     1     -10.724  -0.253   8.207  1.00  0.00     0.001 A 
ATOM     68  C   UNL     1     -11.805  -1.078   8.517  1.00  0.00     0.000 A 
ENDBRANCH  49  63
BRANCH  50  69
ATOM     69  C   UNL     1     -12.803  11.601   9.945  1.00  0.00    -0.014 A 
ATOM     70  C   UNL     1     -13.884  12.329   9.420  1.00  0.00     0.009 A 
ATOM     71  C   UNL     1     -11.763  12.300  10.576  1.00  0.00     0.009 A 
ATOM     72  C   UNL     1     -13.905  13.723   9.487  1.00  0.00     0.001 A 
ATOM     73  C   UNL     1     -11.805  13.693  10.675  1.00  0.00     0.001 A 
ATOM     74  C   UNL     1     -12.867  14.404  10.118  1.00  0.00     0.000 A 
ENDBRANCH  50  69
BRANCH  62  75
ATOM     75  C   UNL     1     -12.937   6.137  14.316  1.00  0.00    -0.014 A 
ATOM     76  C   UNL     1     -11.857   5.664  15.079  1.00  0.00     0.009 A 
ATOM     77  C   UNL     1     -14.164   6.378  14.952  1.00  0.00     0.009 A 
ATOM     78  C   UNL     1     -12.007   5.417  16.444  1.00  0.00     0.001 A 
ATOM     79  C   UNL     1     -14.302   6.162  16.325  1.00  0.00     0.001 A 
ATOM     80  C   UNL     1     -13.227   5.671  17.067  1.00  0.00     0.000 A 
ENDBRANCH  62  75
ENDBRANCH  36  37
ENDBRANCH  28  31
ENDBRANCH  26  27
ENDBRANCH   1  26
TORSDOF 13
