REMARK SMILES COc1ccc(S(=O)(=O)N2CCC[C@H](C(=O)N3CCC[C@H](C(=O)NCCCNC(=O)c4ccc(-c5c6nc(c(-c7ccccc7)c7ccc([nH]7)c(-c7ccccc7)c7nc(c(-c8ccccc8)c8ccc5[nH]8)C=C7)C=C6)cc4)C3)C2)cc1
REMARK SMILES IDX 22 1 23 2 24 3 21 5 17 6 18 7 79 8 19 9 20 10 15 11 16 12
REMARK SMILES IDX 14 13 10 14 11 15 80 16 12 17 13 18 7 19 8 20 9 21 6 22 3 23
REMARK SMILES IDX 4 24 82 25 5 26 81 27 2 28 1 29 25 30 26 31 27 32 28 33
REMARK SMILES IDX 29 34 30 36 31 37 32 38 78 39 33 40 77 41 34 42 35 43 36 44
REMARK SMILES IDX 71 45 37 46 76 47 70 48 72 49 38 50 75 51 69 52 68 53 39 55
REMARK SMILES IDX 61 56 46 57 60 58 47 59 50 60 59 61 73 62 48 63 49 64 58 66
REMARK SMILES IDX 74 67 51 68 40 69 41 70 45 71 42 72 44 73 43 74 62 75 63 76
REMARK SMILES IDX 67 77 64 78 66 79 65 80 52 81 53 82 57 83 54 84 56 85 55 86
REMARK H PARENT 24 4 28 35 72 54 50 65
REMARK Flexibility Score: inf
ROOT
ATOM      1  C   UNL     1       7.555  -2.088 -10.784  1.00  0.00     0.224 C 
ATOM      2  O   UNL     1       8.247  -1.214 -11.317  1.00  0.00    -0.275 OA
ATOM      3  N   UNL     1       8.151  -3.293 -10.585  1.00  0.00    -0.356 N 
ATOM      4  H   UNL     1       9.029  -3.405 -11.015  1.00  0.00     0.163 HD
ENDROOT
BRANCH   1   5
ATOM      5  C   UNL     1       6.099  -1.775 -10.406  1.00  0.00     0.098 C 
ATOM      6  N   UNL     1       5.091  -2.939  -8.400  1.00  0.00    -0.342 N 
ATOM      7  C   UNL     1       3.975  -3.433  -9.199  1.00  0.00     0.119 C 
ATOM      8  C   UNL     1       5.786  -1.759  -8.903  1.00  0.00     0.133 C 
ATOM      9  C   UNL     1       4.354  -3.667 -10.654  1.00  0.00     0.022 C 
ATOM     10  C   UNL     1       5.049  -2.465 -11.284  1.00  0.00     0.017 C 
BRANCH   6  11
ATOM     11  C   UNL     1       5.554  -3.731  -7.365  1.00  0.00     0.227 C 
ATOM     12  O   UNL     1       5.648  -4.957  -7.504  1.00  0.00    -0.275 OA
BRANCH  11  13
ATOM     13  C   UNL     1       5.721  -3.155  -5.963  1.00  0.00     0.094 C 
ATOM     14  N   UNL     1       3.370  -2.478  -5.758  1.00  0.00    -0.197 NA
ATOM     15  C   UNL     1       3.664  -1.041  -5.892  1.00  0.00     0.102 C 
ATOM     16  C   UNL     1       4.402  -3.394  -5.242  1.00  0.00     0.116 C 
ATOM     17  C   UNL     1       5.138  -0.645  -5.862  1.00  0.00     0.018 C 
ATOM     18  C   UNL     1       6.189  -1.736  -5.705  1.00  0.00     0.016 C 
BRANCH  14  19
ATOM     19  S   UNL     1       1.742  -2.920  -5.559  1.00  0.00     0.243 S 
ATOM     20  O   UNL     1       1.639  -4.355  -5.642  1.00  0.00    -0.207 OA
ATOM     21  O   UNL     1       0.962  -2.053  -6.426  1.00  0.00    -0.207 OA
BRANCH  19  22
ATOM     22  C   UNL     1       1.316  -2.466  -3.891  1.00  0.00     0.082 A 
ATOM     23  C   UNL     1       0.510  -1.602  -1.364  1.00  0.00     0.118 A 
ATOM     24  C   UNL     1      -0.426  -2.134  -2.252  1.00  0.00     0.048 A 
ATOM     25  C   UNL     1       1.857  -1.562  -1.715  1.00  0.00     0.048 A 
ATOM     26  C   UNL     1      -0.029  -2.558  -3.522  1.00  0.00     0.025 A 
ATOM     27  C   UNL     1       2.259  -1.985  -2.980  1.00  0.00     0.025 A 
BRANCH  23  28
ATOM     28  O   UNL     1       0.030  -1.163  -0.161  1.00  0.00    -0.497 OA
ATOM     29  C   UNL     1       0.653   0.036   0.299  1.00  0.00     0.278 C 
ENDBRANCH  23  28
ENDBRANCH  19  22
ENDBRANCH  14  19
ENDBRANCH  11  13
ENDBRANCH   6  11
ENDBRANCH   1   5
BRANCH   3  30
ATOM     30  C   UNL     1       7.680  -4.428  -9.835  1.00  0.00     0.117 C 
BRANCH  30  31
ATOM     31  C   UNL     1       7.452  -5.677 -10.660  1.00  0.00     0.042 C 
BRANCH  31  32
ATOM     32  C   UNL     1       8.566  -6.690 -10.507  1.00  0.00     0.118 C 
BRANCH  32  33
ATOM     33  N   UNL     1       8.617  -7.298  -9.178  1.00  0.00    -0.352 N 
ATOM     34  C   UNL     1       8.652  -8.624  -8.812  1.00  0.00     0.251 C 
ATOM     35  H   UNL     1       8.629  -6.659  -8.429  1.00  0.00     0.163 HD
ATOM     36  O   UNL     1       8.630  -8.944  -7.628  1.00  0.00    -0.269 OA
BRANCH  34  37
ATOM     37  C   UNL     1       8.661  -9.669  -9.856  1.00  0.00     0.039 A 
ATOM     38  C   UNL     1       7.814 -10.773  -9.723  1.00  0.00     0.014 A 
ATOM     39  C   UNL     1       9.448  -9.524 -10.997  1.00  0.00     0.014 A 
ATOM     40  C   UNL     1       7.683 -11.674 -10.782  1.00  0.00     0.010 A 
ATOM     41  C   UNL     1       9.220 -10.342 -12.092  1.00  0.00     0.010 A 
ATOM     42  C   UNL     1       8.342 -11.432 -11.997  1.00  0.00    -0.014 A 
BRANCH  42  43
ATOM     43  C   UNL     1       8.168 -12.305 -13.185  1.00  0.00     0.031 A 
ATOM     44  C   UNL     1       9.377 -12.955 -13.803  1.00  0.00     0.074 A 
ATOM     45  C   UNL     1       6.961 -12.423 -13.772  1.00  0.00     0.049 A 
ATOM     46  N   UNL     1       9.485 -13.592 -14.941  1.00  0.00    -0.248 NA
ATOM     47  C   UNL     1      10.646 -12.823 -13.067  1.00  0.00     0.031 C 
ATOM     48  C   UNL     1       5.717 -11.805 -13.306  1.00  0.00     0.029 A 
ATOM     49  N   UNL     1       6.588 -13.098 -14.908  1.00  0.00    -0.354 N 
ATOM     50  C   UNL     1      10.836 -13.881 -15.080  1.00  0.00     0.074 A 
ATOM     51  C   UNL     1      11.515 -13.311 -13.938  1.00  0.00     0.031 C 
ATOM     52  C   UNL     1       4.715 -12.157 -14.128  1.00  0.00     0.029 A 
ATOM     53  C   UNL     1       5.251 -12.983 -15.204  1.00  0.00     0.049 A 
ATOM     54  H   UNL     1       7.219 -13.617 -15.458  1.00  0.00     0.167 HD
ATOM     55  C   UNL     1      11.457 -14.580 -16.058  1.00  0.00     0.031 A 
ATOM     56  C   UNL     1       4.540 -13.482 -16.233  1.00  0.00     0.031 A 
ATOM     57  C   UNL     1      10.774 -15.202 -17.157  1.00  0.00     0.049 A 
ATOM     58  C   UNL     1       5.242 -14.304 -17.277  1.00  0.00     0.074 A 
ATOM     59  C   UNL     1      11.297 -15.999 -18.159  1.00  0.00     0.029 A 
ATOM     60  N   UNL     1       9.410 -15.111 -17.384  1.00  0.00    -0.354 N 
ATOM     61  N   UNL     1       6.514 -14.607 -17.372  1.00  0.00    -0.248 NA
ATOM     62  C   UNL     1       4.407 -14.860 -18.352  1.00  0.00     0.031 C 
ATOM     63  C   UNL     1      10.250 -16.371 -19.009  1.00  0.00     0.029 A 
ATOM     64  C   UNL     1       9.072 -15.836 -18.512  1.00  0.00     0.049 A 
ATOM     65  H   UNL     1       8.776 -14.605 -16.826  1.00  0.00     0.167 HD
ATOM     66  C   UNL     1       6.628 -15.411 -18.498  1.00  0.00     0.074 A 
ATOM     67  C   UNL     1       5.296 -15.557 -19.047  1.00  0.00     0.031 C 
ATOM     68  C   UNL     1       7.737 -15.979 -19.030  1.00  0.00     0.031 A 
BRANCH  55  69
ATOM     69  C   UNL     1      12.952 -14.710 -15.969  1.00  0.00    -0.014 A 
ATOM     70  C   UNL     1      13.557 -15.498 -14.976  1.00  0.00     0.009 A 
ATOM     71  C   UNL     1      13.766 -14.040 -16.894  1.00  0.00     0.009 A 
ATOM     72  C   UNL     1      14.947 -15.575 -14.884  1.00  0.00     0.001 A 
ATOM     73  C   UNL     1      15.156 -14.144 -16.819  1.00  0.00     0.001 A 
ATOM     74  C   UNL     1      15.746 -14.901 -15.807  1.00  0.00     0.000 A 
ENDBRANCH  55  69
BRANCH  56  75
ATOM     75  C   UNL     1       3.075 -13.247 -16.311  1.00  0.00    -0.014 A 
ATOM     76  C   UNL     1       2.178 -14.290 -16.038  1.00  0.00     0.009 A 
ATOM     77  C   UNL     1       2.566 -11.986 -16.656  1.00  0.00     0.009 A 
ATOM     78  C   UNL     1       0.800 -14.084 -16.133  1.00  0.00     0.001 A 
ATOM     79  C   UNL     1       1.187 -11.775 -16.727  1.00  0.00     0.001 A 
ATOM     80  C   UNL     1       0.305 -12.826 -16.474  1.00  0.00     0.000 A 
ENDBRANCH  56  75
BRANCH  68  81
ATOM     81  C   UNL     1       7.551 -16.847 -20.239  1.00  0.00    -0.014 A 
ATOM     82  C   UNL     1       7.319 -16.290 -21.505  1.00  0.00     0.009 A 
ATOM     83  C   UNL     1       7.668 -18.240 -20.113  1.00  0.00     0.009 A 
ATOM     84  C   UNL     1       7.183 -17.117 -22.621  1.00  0.00     0.001 A 
ATOM     85  C   UNL     1       7.554 -19.062 -21.235  1.00  0.00     0.001 A 
ATOM     86  C   UNL     1       7.306 -18.500 -22.486  1.00  0.00     0.000 A 
ENDBRANCH  68  81
ENDBRANCH  42  43
ENDBRANCH  34  37
ENDBRANCH  32  33
ENDBRANCH  31  32
ENDBRANCH  30  31
ENDBRANCH   3  30
TORSDOF 15
