REMARK SMILES Cc1ccc(N2C(=O)/C(=C\c3ccccc3O[C@H](C)C(=O)NCCCNC(=O)c3ccc(-c4c5nc(c(-c6ccccc6)c6ccc([nH]6)c(-c6ccccc6)c6nc(c(-c7ccccc7)c7ccc4[nH]7)C=C6)C=C5)cc3)SC2=S)c(C)c1
REMARK SMILES IDX 23 1 22 2 20 3 21 4 18 6 19 7 17 8 16 9 11 10 12 11 13 12
REMARK SMILES IDX 15 13 14 14 10 15 6 16 7 17 78 18 8 19 9 20 77 21 79 22 5 23
REMARK SMILES IDX 1 24 2 25 3 26 82 27 4 28 80 29 81 30 24 31 25 32 26 33
REMARK SMILES IDX 27 34 28 36 29 37 30 38 76 39 31 40 75 41 32 42 33 43 34 44
REMARK SMILES IDX 69 45 35 46 74 47 68 48 70 49 36 50 73 51 67 52 66 53 37 55
REMARK SMILES IDX 59 56 44 57 58 58 45 59 48 60 57 61 71 62 46 63 47 64 56 66
REMARK SMILES IDX 72 67 49 68 38 69 39 70 43 71 40 72 42 73 41 74 60 75 61 76
REMARK SMILES IDX 65 77 62 78 64 79 63 80 50 81 51 82 55 83 52 84 54 85 53 86
REMARK H PARENT 22 5 26 35 70 54 48 65
REMARK Flexibility Score: inf
ROOT
ATOM      1  C   UNL     1      -6.275  -2.164  -2.025  1.00  0.00     0.118 C 
ENDROOT
BRANCH   1   2
ATOM      2  N   UNL     1      -5.828  -3.546  -1.922  1.00  0.00    -0.353 N 
ATOM      3  C   UNL     1      -4.572  -4.081  -2.067  1.00  0.00     0.260 C 
ATOM      4  O   UNL     1      -4.440  -5.292  -1.869  1.00  0.00    -0.271 OA
ATOM      5  H   UNL     1      -6.536  -4.199  -1.716  1.00  0.00     0.163 HD
BRANCH   3   6
ATOM      6  C   UNL     1      -3.387  -3.205  -2.515  1.00  0.00     0.258 C 
ATOM      7  C   UNL     1      -3.606  -2.820  -3.974  1.00  0.00     0.064 C 
BRANCH   6   8
ATOM      8  O   UNL     1      -3.371  -2.160  -1.554  1.00  0.00    -0.480 OA
BRANCH   8   9
ATOM      9  C   UNL     1      -2.583  -1.054  -1.587  1.00  0.00     0.127 A 
ATOM     10  C   UNL     1      -2.717  -0.210  -0.460  1.00  0.00     0.018 A 
ATOM     11  C   UNL     1      -2.064   1.026  -0.429  1.00  0.00     0.012 A 
ATOM     12  C   UNL     1      -1.241   1.403  -1.488  1.00  0.00     0.001 A 
ATOM     13  C   UNL     1      -1.713  -0.694  -2.609  1.00  0.00     0.047 A 
ATOM     14  C   UNL     1      -1.051   0.537  -2.563  1.00  0.00     0.004 A 
BRANCH  10  15
ATOM     15  C   UNL     1      -3.526  -0.609   0.707  1.00  0.00     0.033 C 
ATOM     16  N   UNL     1      -2.313  -3.704   2.256  1.00  0.00    -0.261 N 
ATOM     17  C   UNL     1      -2.160  -2.664   1.343  1.00  0.00     0.270 C 
ATOM     18  C   UNL     1      -3.400  -3.622   3.111  1.00  0.00     0.152 C 
ATOM     19  O   UNL     1      -1.249  -2.541   0.532  1.00  0.00    -0.268 OA
ATOM     20  C   UNL     1      -3.289  -1.690   1.469  1.00  0.00     0.081 C 
ATOM     21  S   UNL     1      -4.334  -2.168   2.752  1.00  0.00    -0.054 SA
ATOM     22  S   UNL     1      -3.828  -4.609   4.394  1.00  0.00    -0.051 S 
BRANCH  16  23
ATOM     23  C   UNL     1      -1.396  -4.800   2.221  1.00  0.00     0.054 A 
ATOM     24  C   UNL     1       1.276  -8.159   1.677  1.00  0.00     0.044 C 
ATOM     25  C   UNL     1       0.338  -7.009   1.890  1.00  0.00    -0.051 A 
ATOM     26  C   UNL     1      -1.044  -7.187   1.846  1.00  0.00     0.005 A 
ATOM     27  C   UNL     1       0.849  -5.727   2.121  1.00  0.00     0.009 A 
ATOM     28  C   UNL     1      -1.901  -6.094   2.005  1.00  0.00     0.027 A 
ATOM     29  C   UNL     1       0.001  -4.619   2.306  1.00  0.00    -0.027 A 
ATOM     30  C   UNL     1       0.659  -3.293   2.585  1.00  0.00     0.046 C 
ENDBRANCH  16  23
ENDBRANCH  10  15
ENDBRANCH   8   9
ENDBRANCH   6   8
ENDBRANCH   3   6
ENDBRANCH   1   2
BRANCH   1  31
ATOM     31  C   UNL     1      -7.020  -1.875  -3.321  1.00  0.00     0.042 C 
BRANCH  31  32
ATOM     32  C   UNL     1      -8.371  -2.567  -3.423  1.00  0.00     0.118 C 
BRANCH  32  33
ATOM     33  N   UNL     1      -9.325  -2.078  -2.437  1.00  0.00    -0.352 N 
ATOM     34  C   UNL     1     -10.508  -1.400  -2.595  1.00  0.00     0.251 C 
ATOM     35  H   UNL     1      -9.082  -2.266  -1.502  1.00  0.00     0.163 HD
ATOM     36  O   UNL     1     -11.059  -0.912  -1.611  1.00  0.00    -0.269 OA
BRANCH  34  37
ATOM     37  C   UNL     1     -11.119  -1.232  -3.932  1.00  0.00     0.039 A 
ATOM     38  C   UNL     1     -11.734  -0.014  -4.242  1.00  0.00     0.014 A 
ATOM     39  C   UNL     1     -11.133  -2.272  -4.864  1.00  0.00     0.014 A 
ATOM     40  C   UNL     1     -12.301   0.181  -5.504  1.00  0.00     0.010 A 
ATOM     41  C   UNL     1     -11.625  -2.050  -6.148  1.00  0.00     0.010 A 
ATOM     42  C   UNL     1     -12.220  -0.824  -6.480  1.00  0.00    -0.014 A 
BRANCH  42  43
ATOM     43  C   UNL     1     -12.754  -0.619  -7.850  1.00  0.00     0.031 A 
ATOM     44  C   UNL     1     -13.890  -1.466  -8.355  1.00  0.00     0.074 A 
ATOM     45  C   UNL     1     -12.171   0.282  -8.665  1.00  0.00     0.049 A 
ATOM     46  N   UNL     1     -14.436  -1.489  -9.545  1.00  0.00    -0.248 NA
ATOM     47  C   UNL     1     -14.470  -2.433  -7.409  1.00  0.00     0.031 C 
ATOM     48  C   UNL     1     -11.041   1.143  -8.311  1.00  0.00     0.029 A 
ATOM     49  N   UNL     1     -12.448   0.616  -9.967  1.00  0.00    -0.354 N 
ATOM     50  C   UNL     1     -15.401  -2.488  -9.498  1.00  0.00     0.074 A 
ATOM     51  C   UNL     1     -15.341  -3.073  -8.176  1.00  0.00     0.031 C 
ATOM     52  C   UNL     1     -10.739   1.925  -9.360  1.00  0.00     0.029 A 
ATOM     53  C   UNL     1     -11.624   1.593 -10.471  1.00  0.00     0.049 A 
ATOM     54  H   UNL     1     -13.168   0.195 -10.491  1.00  0.00     0.167 HD
ATOM     55  C   UNL     1     -16.269  -2.875 -10.462  1.00  0.00     0.031 A 
ATOM     56  C   UNL     1     -11.583   2.156 -11.694  1.00  0.00     0.031 A 
ATOM     57  C   UNL     1     -16.352  -2.276 -11.767  1.00  0.00     0.049 A 
ATOM     58  C   UNL     1     -12.557   1.707 -12.745  1.00  0.00     0.074 A 
ATOM     59  C   UNL     1     -17.249  -2.549 -12.785  1.00  0.00     0.029 A 
ATOM     60  N   UNL     1     -15.507  -1.282 -12.233  1.00  0.00    -0.354 N 
ATOM     61  N   UNL     1     -13.506   0.807 -12.662  1.00  0.00    -0.248 NA
ATOM     62  C   UNL     1     -12.458   2.360 -14.059  1.00  0.00     0.031 C 
ATOM     63  C   UNL     1     -16.918  -1.750 -13.884  1.00  0.00     0.029 A 
ATOM     64  C   UNL     1     -15.846  -0.947 -13.533  1.00  0.00     0.049 A 
ATOM     65  H   UNL     1     -14.774  -0.874 -11.716  1.00  0.00     0.167 HD
ATOM     66  C   UNL     1     -14.135   0.807 -13.900  1.00  0.00     0.074 A 
ATOM     67  C   UNL     1     -13.468   1.803 -14.712  1.00  0.00     0.031 C 
ATOM     68  C   UNL     1     -15.175   0.049 -14.325  1.00  0.00     0.031 A 
BRANCH  55  69
ATOM     69  C   UNL     1     -17.201  -4.010 -10.142  1.00  0.00    -0.014 A 
ATOM     70  C   UNL     1     -18.275  -3.842  -9.254  1.00  0.00     0.009 A 
ATOM     71  C   UNL     1     -17.026  -5.252 -10.771  1.00  0.00     0.009 A 
ATOM     72  C   UNL     1     -19.135  -4.907  -8.977  1.00  0.00     0.001 A 
ATOM     73  C   UNL     1     -17.903  -6.307 -10.513  1.00  0.00     0.001 A 
ATOM     74  C   UNL     1     -18.951  -6.136  -9.609  1.00  0.00     0.000 A 
ENDBRANCH  55  69
BRANCH  56  75
ATOM     75  C   UNL     1     -10.594   3.224 -11.990  1.00  0.00    -0.014 A 
ATOM     76  C   UNL     1     -11.015   4.554 -12.145  1.00  0.00     0.009 A 
ATOM     77  C   UNL     1      -9.231   2.921 -12.133  1.00  0.00     0.009 A 
ATOM     78  C   UNL     1     -10.094   5.554 -12.464  1.00  0.00     0.001 A 
ATOM     79  C   UNL     1      -8.310   3.928 -12.426  1.00  0.00     0.001 A 
ATOM     80  C   UNL     1      -8.743   5.242 -12.601  1.00  0.00     0.000 A 
ENDBRANCH  56  75
BRANCH  68  81
ATOM     81  C   UNL     1     -15.679   0.296 -15.718  1.00  0.00    -0.014 A 
ATOM     82  C   UNL     1     -14.958  -0.139 -16.840  1.00  0.00     0.009 A 
ATOM     83  C   UNL     1     -16.911   0.941 -15.905  1.00  0.00     0.009 A 
ATOM     84  C   UNL     1     -15.450   0.094 -18.126  1.00  0.00     0.001 A 
ATOM     85  C   UNL     1     -17.412   1.149 -17.191  1.00  0.00     0.001 A 
ATOM     86  C   UNL     1     -16.677   0.734 -18.300  1.00  0.00     0.000 A 
ENDBRANCH  68  81
ENDBRANCH  42  43
ENDBRANCH  34  37
ENDBRANCH  32  33
ENDBRANCH  31  32
ENDBRANCH   1  31
TORSDOF 14
