REMARK SMILES Cc1nc(-c2ccccc2Cl)nc2sc(C(=O)NCCCNC(=O)c3ccc(-c4c5nc(c(-c6ccccc6)c6ccc([nH]6)c(-c6ccccc6)c6nc(c(-c7ccccc7)c7ccc4[nH]7)C=C6)C=C5)cc3)c(N)c12
REMARK SMILES IDX 20 1 19 2 18 3 16 4 17 5 15 7 1 8 2 9 3 10 75 11 4 12 13 13
REMARK SMILES IDX 73 14 12 15 14 16 5 17 6 18 10 19 7 20 9 21 11 22 8 23 74 24
REMARK SMILES IDX 21 27 22 28 23 29 24 31 25 32 26 33 72 34 27 35 71 36 28 37
REMARK SMILES IDX 29 38 30 39 65 40 31 41 70 42 64 43 66 44 32 45 69 46 63 47
REMARK SMILES IDX 62 48 33 50 55 51 40 52 54 53 41 54 44 55 53 56 67 57 42 58
REMARK SMILES IDX 43 59 52 61 68 62 45 63 34 64 35 65 39 66 36 67 38 68 37 69
REMARK SMILES IDX 56 70 57 71 61 72 58 73 60 74 59 75 46 76 47 77 51 78 48 79
REMARK SMILES IDX 50 80 49 81
REMARK H PARENT 18 6 74 25 74 26 22 30 66 49 44 60
REMARK Flexibility Score: inf
ROOT
ATOM      1  C   UNL     1       0.588   8.064  -1.258  1.00  0.00     0.042 C 
ENDROOT
BRANCH   1   2
ATOM      2  C   UNL     1       1.967   7.404  -1.086  1.00  0.00     0.118 C 
BRANCH   2   3
ATOM      3  N   UNL     1       2.224   6.942   0.279  1.00  0.00    -0.351 N 
ATOM      4  C   UNL     1       2.050   5.700   0.870  1.00  0.00     0.263 C 
ATOM      5  O   UNL     1       2.575   5.558   1.979  1.00  0.00    -0.268 OA
ATOM      6  H   UNL     1       2.584   7.633   0.881  1.00  0.00     0.163 HD
BRANCH   4   7
ATOM      7  C   UNL     1       1.340   4.617   0.201  1.00  0.00     0.118 A 
ATOM      8  C   UNL     1       1.074  -0.024  -0.133  1.00  0.00     0.067 C 
ATOM      9  C   UNL     1       0.575   1.122  -0.957  1.00  0.00     0.052 A 
ATOM     10  N   UNL     1      -0.080   0.805  -2.119  1.00  0.00    -0.233 NA
ATOM     11  C   UNL     1       0.734   2.482  -0.619  1.00  0.00     0.056 A 
ATOM     12  C   UNL     1      -0.616   1.792  -2.861  1.00  0.00     0.162 A 
ATOM     13  C   UNL     1       0.057   3.358  -1.444  1.00  0.00     0.130 A 
ATOM     14  C   UNL     1       1.449   3.240   0.388  1.00  0.00     0.067 A 
ATOM     15  N   UNL     1      -0.612   3.086  -2.561  1.00  0.00    -0.217 NA
ATOM     16  S   UNL     1       0.057   4.931  -0.874  1.00  0.00    -0.108 S 
BRANCH  12  17
ATOM     17  C   UNL     1      -1.272   1.496  -4.128  1.00  0.00     0.038 A 
ATOM     18  C   UNL     1      -0.660   1.919  -5.329  1.00  0.00     0.013 A 
ATOM     19  C   UNL     1      -2.576   0.988  -4.194  1.00  0.00     0.052 A 
ATOM     20  C   UNL     1      -1.336   1.852  -6.549  1.00  0.00     0.001 A 
ATOM     21  C   UNL     1      -3.252   0.922  -5.418  1.00  0.00     0.021 A 
ATOM     22  Cl  UNL     1      -3.442   0.503  -2.775  1.00  0.00    -0.084 Cl
ATOM     23  C   UNL     1      -2.636   1.361  -6.590  1.00  0.00     0.002 A 
ENDBRANCH  12  17
BRANCH  14  24
ATOM     24  N   UNL     1       2.213   2.696   1.361  1.00  0.00    -0.397 N 
ATOM     25  H   UNL     1       2.669   3.277   2.011  1.00  0.00     0.156 HD
ATOM     26  H   UNL     1       2.314   1.718   1.419  1.00  0.00     0.156 HD
ENDBRANCH  14  24
ENDBRANCH   4   7
ENDBRANCH   2   3
ENDBRANCH   1   2
BRANCH   1  27
ATOM     27  C   UNL     1       0.601   9.546  -0.951  1.00  0.00     0.118 C 
BRANCH  27  28
ATOM     28  N   UNL     1       1.279  10.333  -1.979  1.00  0.00    -0.352 N 
ATOM     29  C   UNL     1       1.494  11.700  -1.999  1.00  0.00     0.251 C 
ATOM     30  H   UNL     1       1.624   9.829  -2.751  1.00  0.00     0.163 HD
ATOM     31  O   UNL     1       1.753  12.283  -3.036  1.00  0.00    -0.269 OA
BRANCH  29  32
ATOM     32  C   UNL     1       1.385  12.439  -0.727  1.00  0.00     0.039 A 
ATOM     33  C   UNL     1       0.743  13.676  -0.660  1.00  0.00     0.014 A 
ATOM     34  C   UNL     1       1.883  11.832   0.421  1.00  0.00     0.014 A 
ATOM     35  C   UNL     1       0.524  14.245   0.592  1.00  0.00     0.010 A 
ATOM     36  C   UNL     1       1.499  12.294   1.652  1.00  0.00     0.010 A 
ATOM     37  C   UNL     1       0.876  13.530   1.750  1.00  0.00    -0.014 A 
BRANCH  37  38
ATOM     38  C   UNL     1       0.503  14.018   3.073  1.00  0.00     0.031 A 
ATOM     39  C   UNL     1      -0.933  14.363   3.213  1.00  0.00     0.074 A 
ATOM     40  C   UNL     1       1.322  13.993   4.148  1.00  0.00     0.049 A 
ATOM     41  N   UNL     1      -1.445  15.545   3.279  1.00  0.00    -0.248 NA
ATOM     42  C   UNL     1      -1.930  13.282   3.134  1.00  0.00     0.031 C 
ATOM     43  C   UNL     1       2.651  13.375   4.261  1.00  0.00     0.029 A 
ATOM     44  N   UNL     1       1.092  14.433   5.417  1.00  0.00    -0.354 N 
ATOM     45  C   UNL     1      -2.807  15.355   3.488  1.00  0.00     0.074 A 
ATOM     46  C   UNL     1      -3.073  13.971   3.195  1.00  0.00     0.031 C 
ATOM     47  C   UNL     1       2.994  13.261   5.564  1.00  0.00     0.029 A 
ATOM     48  C   UNL     1       2.020  13.988   6.352  1.00  0.00     0.049 A 
ATOM     49  H   UNL     1       0.334  15.015   5.652  1.00  0.00     0.167 HD
ATOM     50  C   UNL     1      -3.531  16.274   4.186  1.00  0.00     0.031 A 
ATOM     51  C   UNL     1       2.004  14.226   7.683  1.00  0.00     0.031 A 
ATOM     52  C   UNL     1      -2.776  17.485   4.392  1.00  0.00     0.049 A 
ATOM     53  C   UNL     1       1.217  15.455   7.899  1.00  0.00     0.074 A 
ATOM     54  C   UNL     1      -2.424  18.598   3.664  1.00  0.00     0.029 A 
ATOM     55  N   UNL     1      -1.929  17.414   5.466  1.00  0.00    -0.354 N 
ATOM     56  N   UNL     1       1.594  16.626   7.472  1.00  0.00    -0.248 NA
ATOM     57  C   UNL     1      -0.170  15.357   8.334  1.00  0.00     0.031 C 
ATOM     58  C   UNL     1      -1.222  19.098   4.254  1.00  0.00     0.029 A 
ATOM     59  C   UNL     1      -0.896  18.305   5.351  1.00  0.00     0.049 A 
ATOM     60  H   UNL     1      -2.048  16.799   6.226  1.00  0.00     0.167 HD
ATOM     61  C   UNL     1       0.410  17.267   7.174  1.00  0.00     0.074 A 
ATOM     62  C   UNL     1      -0.622  16.535   7.896  1.00  0.00     0.031 C 
ATOM     63  C   UNL     1       0.320  18.116   6.111  1.00  0.00     0.031 A 
BRANCH  50  64
ATOM     64  C   UNL     1      -4.667  15.921   5.120  1.00  0.00    -0.014 A 
ATOM     65  C   UNL     1      -5.360  16.966   5.761  1.00  0.00     0.009 A 
ATOM     66  C   UNL     1      -4.890  14.623   5.618  1.00  0.00     0.009 A 
ATOM     67  C   UNL     1      -6.192  16.727   6.863  1.00  0.00     0.001 A 
ATOM     68  C   UNL     1      -5.747  14.376   6.696  1.00  0.00     0.001 A 
ATOM     69  C   UNL     1      -6.382  15.432   7.332  1.00  0.00     0.000 A 
ENDBRANCH  50  64
BRANCH  51  70
ATOM     70  C   UNL     1       2.431  13.386   8.818  1.00  0.00    -0.014 A 
ATOM     71  C   UNL     1       2.607  13.966  10.086  1.00  0.00     0.009 A 
ATOM     72  C   UNL     1       2.317  11.988   8.741  1.00  0.00     0.009 A 
ATOM     73  C   UNL     1       2.570  13.184  11.245  1.00  0.00     0.001 A 
ATOM     74  C   UNL     1       2.288  11.206   9.901  1.00  0.00     0.001 A 
ATOM     75  C   UNL     1       2.385  11.808  11.153  1.00  0.00     0.000 A 
ENDBRANCH  51  70
BRANCH  63  76
ATOM     76  C   UNL     1       1.587  18.735   5.600  1.00  0.00    -0.014 A 
ATOM     77  C   UNL     1       2.620  18.010   4.981  1.00  0.00     0.009 A 
ATOM     78  C   UNL     1       1.709  20.129   5.690  1.00  0.00     0.009 A 
ATOM     79  C   UNL     1       3.749  18.669   4.481  1.00  0.00     0.001 A 
ATOM     80  C   UNL     1       2.826  20.786   5.176  1.00  0.00     0.001 A 
ATOM     81  C   UNL     1       3.848  20.056   4.573  1.00  0.00     0.000 A 
ENDBRANCH  63  76
ENDBRANCH  37  38
ENDBRANCH  29  32
ENDBRANCH  27  28
ENDBRANCH   1  27
TORSDOF 12
