REMARK SMILES O=C(CCn1cc(/C=C2/[NH+]=C(S)N(c3ccccc3)C2=O)c(-c2ccc(Br)cc2)n1)NCCCNC(=O)c1ccc(-c2c3nc(c(-c4ccccc4)c4ccc([nH]4)c(-c4ccccc4)c4nc(c(-c5ccccc5)c5ccc2[nH]5)C=C4)C=C3)cc1
REMARK SMILES IDX 32 1 31 2 1 3 2 4 3 6 4 7 5 8 6 9 30 10 7 11 22 12 8 13 9 14
REMARK SMILES IDX 10 15 20 16 11 17 13 19 21 20 12 21 14 23 15 24 19 25 16 26
REMARK SMILES IDX 18 27 17 28 23 29 24 30 29 31 25 32 28 33 26 34 27 35 33 36
REMARK SMILES IDX 34 37 35 38 36 39 37 41 38 42 39 43 85 44 40 45 84 46 41 47
REMARK SMILES IDX 42 48 43 49 78 50 44 51 83 52 77 53 79 54 45 55 82 56 76 57
REMARK SMILES IDX 75 58 46 60 68 61 53 62 67 63 54 64 57 65 66 66 80 67 55 68
REMARK SMILES IDX 56 69 65 71 81 72 58 73 47 74 48 75 52 76 49 77 51 78 50 79
REMARK SMILES IDX 69 80 70 81 74 82 71 83 73 84 72 85 59 86 60 87 64 88 61 89
REMARK SMILES IDX 63 90 62 91
REMARK H PARENT 31 5 10 18 12 22 35 40 79 59 57 70
REMARK Flexibility Score: inf
ROOT
ATOM      1  C   UNL     1       1.635   0.990  -2.359  1.00  0.00     0.117 C 
ENDROOT
BRANCH   1   2
ATOM      2  N   UNL     1       2.482   0.364  -1.343  1.00  0.00    -0.356 N 
ATOM      3  O   UNL     1       0.867   0.167   0.251  1.00  0.00    -0.275 OA
ATOM      4  C   UNL     1       2.029  -0.018  -0.105  1.00  0.00     0.221 C 
ATOM      5  H   UNL     1       3.430   0.209  -1.560  1.00  0.00     0.163 HD
BRANCH   4   6
ATOM      6  C   UNL     1       3.050  -0.576   0.882  1.00  0.00     0.123 C 
BRANCH   6   7
ATOM      7  C   UNL     1       3.992  -1.663   0.371  1.00  0.00     0.154 C 
BRANCH   7   8
ATOM      8  N   UNL     1       5.138  -1.230  -0.409  1.00  0.00    -0.271 N 
ATOM      9  C   UNL     1       5.614   0.038  -0.569  1.00  0.00     0.117 A 
ATOM     10  N   UNL     1       5.855  -2.157  -1.087  1.00  0.00    -0.172 NA
ATOM     11  C   UNL     1       6.560  -0.057  -1.556  1.00  0.00     0.025 A 
ATOM     12  C   UNL     1       6.775  -1.446  -1.758  1.00  0.00     0.100 A 
BRANCH  11  13
ATOM     13  C   UNL     1       7.294   1.029  -2.081  1.00  0.00     0.072 C 
ATOM     14  C   UNL     1       7.744   1.234  -3.327  1.00  0.00     0.217 C 
ATOM     15  N   UNL     1       8.699   2.170  -3.622  1.00  0.00    -0.228 N 
ATOM     16  C   UNL     1       7.378   0.506  -4.576  1.00  0.00     0.386 C 
ATOM     17  C   UNL     1       8.975   1.967  -4.870  1.00  0.00     0.321 C 
ATOM     18  H   UNL     1       9.089   2.845  -3.020  1.00  0.00     0.313 HD
ATOM     19  N   UNL     1       8.344   0.914  -5.468  1.00  0.00    -0.149 N 
ATOM     20  O   UNL     1       6.396  -0.209  -4.706  1.00  0.00    -0.236 OA
BRANCH  17  21
ATOM     21  S   UNL     1       9.999   3.096  -5.701  1.00  0.00    -0.055 SA
ATOM     22  H   UNL     1      10.467   4.018  -4.818  1.00  0.00     0.116 HD
ENDBRANCH  17  21
BRANCH  19  23
ATOM     23  C   UNL     1       8.643   0.244  -6.684  1.00  0.00     0.137 A 
ATOM     24  C   UNL     1       9.929   0.292  -7.247  1.00  0.00     0.052 A 
ATOM     25  C   UNL     1       7.707  -0.599  -7.300  1.00  0.00     0.052 A 
ATOM     26  C   UNL     1      10.259  -0.438  -8.392  1.00  0.00     0.004 A 
ATOM     27  C   UNL     1       8.040  -1.351  -8.431  1.00  0.00     0.004 A 
ATOM     28  C   UNL     1       9.315  -1.267  -8.980  1.00  0.00     0.000 A 
ENDBRANCH  19  23
ENDBRANCH  11  13
BRANCH  12  29
ATOM     29  C   UNL     1       7.848  -2.030  -2.565  1.00  0.00     0.003 A 
ATOM     30  C   UNL     1       9.169  -1.568  -2.405  1.00  0.00     0.011 A 
ATOM     31  C   UNL     1       7.546  -2.874  -3.636  1.00  0.00     0.011 A 
ATOM     32  C   UNL     1      10.153  -1.880  -3.345  1.00  0.00     0.016 A 
ATOM     33  C   UNL     1       8.536  -3.199  -4.571  1.00  0.00     0.016 A 
ATOM     34  C   UNL     1       9.828  -2.691  -4.428  1.00  0.00     0.018 A 
ATOM     35  Br  UNL     1      11.145  -3.084  -5.724  1.00  0.00    -0.051 Br
ENDBRANCH  12  29
ENDBRANCH   7   8
ENDBRANCH   6   7
ENDBRANCH   4   6
ENDBRANCH   1   2
BRANCH   1  36
ATOM     36  C   UNL     1       1.763   2.516  -2.428  1.00  0.00     0.042 C 
BRANCH  36  37
ATOM     37  C   UNL     1       3.191   2.986  -2.621  1.00  0.00     0.118 C 
BRANCH  37  38
ATOM     38  N   UNL     1       3.782   2.900  -3.945  1.00  0.00    -0.352 N 
ATOM     39  C   UNL     1       4.977   3.441  -4.404  1.00  0.00     0.251 C 
ATOM     40  H   UNL     1       3.266   2.388  -4.608  1.00  0.00     0.163 HD
ATOM     41  O   UNL     1       5.274   3.303  -5.590  1.00  0.00    -0.269 OA
BRANCH  39  42
ATOM     42  C   UNL     1       5.963   4.108  -3.492  1.00  0.00     0.039 A 
ATOM     43  C   UNL     1       7.084   4.783  -4.005  1.00  0.00     0.014 A 
ATOM     44  C   UNL     1       5.909   3.922  -2.116  1.00  0.00     0.014 A 
ATOM     45  C   UNL     1       8.169   5.096  -3.160  1.00  0.00     0.010 A 
ATOM     46  C   UNL     1       6.934   4.270  -1.281  1.00  0.00     0.010 A 
ATOM     47  C   UNL     1       8.121   4.731  -1.811  1.00  0.00    -0.014 A 
BRANCH  47  48
ATOM     48  C   UNL     1       9.134   5.021  -0.801  1.00  0.00     0.031 A 
ATOM     49  C   UNL     1       9.011   6.432  -0.382  1.00  0.00     0.074 A 
ATOM     50  C   UNL     1       9.772   4.101  -0.037  1.00  0.00     0.049 A 
ATOM     51  N   UNL     1       9.727   7.418  -0.811  1.00  0.00    -0.248 NA
ATOM     52  C   UNL     1       7.790   6.843   0.345  1.00  0.00     0.031 C 
ATOM     53  C   UNL     1       9.738   2.641  -0.133  1.00  0.00     0.029 A 
ATOM     54  N   UNL     1      10.512   4.283   1.097  1.00  0.00    -0.354 N 
ATOM     55  C   UNL     1       9.190   8.520  -0.168  1.00  0.00     0.074 A 
ATOM     56  C   UNL     1       7.839   8.163   0.167  1.00  0.00     0.031 C 
ATOM     57  C   UNL     1      10.180   2.075   1.015  1.00  0.00     0.029 A 
ATOM     58  C   UNL     1      10.726   3.127   1.851  1.00  0.00     0.049 A 
ATOM     59  H   UNL     1      10.867   5.162   1.362  1.00  0.00     0.167 HD
ATOM     60  C   UNL     1      10.000   9.395   0.488  1.00  0.00     0.031 A 
ATOM     61  C   UNL     1      11.348   3.036   3.055  1.00  0.00     0.031 A 
ATOM     62  C   UNL     1      11.388   9.128   0.191  1.00  0.00     0.049 A 
ATOM     63  C   UNL     1      12.180   4.248   3.194  1.00  0.00     0.074 A 
ATOM     64  C   UNL     1      12.216   9.226  -0.905  1.00  0.00     0.029 A 
ATOM     65  N   UNL     1      11.976   8.250   1.069  1.00  0.00    -0.354 N 
ATOM     66  N   UNL     1      13.224   4.477   2.452  1.00  0.00    -0.248 NA
ATOM     67  C   UNL     1      11.659   5.399   3.919  1.00  0.00     0.031 C 
ATOM     68  C   UNL     1      13.234   8.243  -0.725  1.00  0.00     0.029 A 
ATOM     69  C   UNL     1      13.035   7.601   0.495  1.00  0.00     0.049 A 
ATOM     70  H   UNL     1      11.673   8.107   1.995  1.00  0.00     0.167 HD
ATOM     71  C   UNL     1      13.191   5.842   2.246  1.00  0.00     0.074 A 
ATOM     72  C   UNL     1      12.350   6.370   3.314  1.00  0.00     0.031 C 
ATOM     73  C   UNL     1      13.559   6.368   1.044  1.00  0.00     0.031 A 
BRANCH  60  74
ATOM     74  C   UNL     1       9.615  10.088   1.780  1.00  0.00    -0.014 A 
ATOM     75  C   UNL     1      10.514  11.027   2.311  1.00  0.00     0.009 A 
ATOM     76  C   UNL     1       8.559   9.688   2.625  1.00  0.00     0.009 A 
ATOM     77  C   UNL     1      10.388  11.496   3.624  1.00  0.00     0.001 A 
ATOM     78  C   UNL     1       8.407  10.180   3.922  1.00  0.00     0.001 A 
ATOM     79  C   UNL     1       9.338  11.069   4.431  1.00  0.00     0.000 A 
ENDBRANCH  60  74
BRANCH  61  80
ATOM     80  C   UNL     1      11.244   2.070   4.171  1.00  0.00    -0.014 A 
ATOM     81  C   UNL     1      12.293   1.935   5.101  1.00  0.00     0.009 A 
ATOM     82  C   UNL     1       9.996   1.524   4.512  1.00  0.00     0.009 A 
ATOM     83  C   UNL     1      12.081   1.343   6.354  1.00  0.00     0.001 A 
ATOM     84  C   UNL     1       9.784   0.934   5.766  1.00  0.00     0.001 A 
ATOM     85  C   UNL     1      10.820   0.863   6.695  1.00  0.00     0.000 A 
ENDBRANCH  61  80
BRANCH  73  86
ATOM     86  C   UNL     1      14.433   5.519   0.162  1.00  0.00    -0.014 A 
ATOM     87  C   UNL     1      14.015   4.316  -0.432  1.00  0.00     0.009 A 
ATOM     88  C   UNL     1      15.718   5.999  -0.130  1.00  0.00     0.009 A 
ATOM     89  C   UNL     1      14.875   3.603  -1.276  1.00  0.00     0.001 A 
ATOM     90  C   UNL     1      16.566   5.298  -0.987  1.00  0.00     0.001 A 
ATOM     91  C   UNL     1      16.148   4.098  -1.555  1.00  0.00     0.000 A 
ENDBRANCH  73  86
ENDBRANCH  47  48
ENDBRANCH  39  42
ENDBRANCH  37  38
ENDBRANCH  36  37
ENDBRANCH   1  36
TORSDOF 16
