REMARK SMILES O=C(NCCCNC(=O)c1nn(Cc2ccc(F)cc2)c2c1CN(C(=O)[C@H]1CC1(F)F)CC2)c1ccc(-c2c3nc(c(-c4ccccc4)c4ccc([nH]4)c(-c4ccccc4)c4nc(c(-c5ccccc5)c5ccc2[nH]5)C=C4)C=C3)cc1
REMARK SMILES IDX 5 1 4 2 3 3 1 4 2 5 34 7 35 8 81 9 36 10 80 11 37 12 38 13
REMARK SMILES IDX 39 14 74 15 40 16 79 17 73 18 75 19 41 20 78 21 72 22 71 23
REMARK SMILES IDX 42 25 64 26 49 27 63 28 50 29 53 30 62 31 76 32 51 33 52 34
REMARK SMILES IDX 61 36 77 37 54 38 43 39 44 40 48 41 45 42 47 43 46 44 65 45
REMARK SMILES IDX 66 46 70 47 67 48 69 49 68 50 55 51 56 52 60 53 57 54 59 55
REMARK SMILES IDX 58 56 6 57 7 58 8 59 9 61 10 62 11 63 22 64 12 65 21 66
REMARK SMILES IDX 23 67 33 68 24 69 32 70 13 71 14 72 15 73 20 74 16 75 19 76
REMARK SMILES IDX 17 77 18 78 25 79 26 80 27 81 28 82 29 83 30 84 31 85
REMARK H PARENT 3 6 75 24 53 35 7 60
REMARK Flexibility Score: inf
ROOT
ATOM      1  C   UNL     1      15.740 -13.665   8.010  1.00  0.00     0.042 C 
ENDROOT
BRANCH   1   2
ATOM      2  C   UNL     1      17.195 -13.903   7.612  1.00  0.00     0.118 C 
BRANCH   2   3
ATOM      3  N   UNL     1      17.960 -14.746   8.508  1.00  0.00    -0.352 N 
ATOM      4  O   UNL     1      19.134 -16.433   9.320  1.00  0.00    -0.269 OA
ATOM      5  C   UNL     1      18.192 -16.090   8.600  1.00  0.00     0.251 C 
ATOM      6  H   UNL     1      18.419 -14.233   9.213  1.00  0.00     0.163 HD
BRANCH   5   7
ATOM      7  C   UNL     1      17.343 -17.153   7.999  1.00  0.00     0.039 A 
ATOM      8  C   UNL     1      16.470 -17.008   6.920  1.00  0.00     0.014 A 
ATOM      9  C   UNL     1      17.433 -18.410   8.629  1.00  0.00     0.014 A 
ATOM     10  C   UNL     1      15.637 -18.068   6.546  1.00  0.00     0.010 A 
ATOM     11  C   UNL     1      16.607 -19.464   8.264  1.00  0.00     0.010 A 
ATOM     12  C   UNL     1      15.678 -19.279   7.247  1.00  0.00    -0.014 A 
BRANCH  12  13
ATOM     13  C   UNL     1      14.864 -20.407   6.793  1.00  0.00     0.031 A 
ATOM     14  C   UNL     1      15.304 -20.998   5.496  1.00  0.00     0.074 A 
ATOM     15  C   UNL     1      13.914 -21.001   7.547  1.00  0.00     0.049 A 
ATOM     16  N   UNL     1      14.639 -21.064   4.390  1.00  0.00    -0.248 NA
ATOM     17  C   UNL     1      16.690 -21.485   5.388  1.00  0.00     0.031 C 
ATOM     18  C   UNL     1      13.575 -20.731   8.947  1.00  0.00     0.029 A 
ATOM     19  N   UNL     1      13.113 -22.065   7.245  1.00  0.00    -0.354 N 
ATOM     20  C   UNL     1      15.450 -21.750   3.489  1.00  0.00     0.074 A 
ATOM     21  C   UNL     1      16.745 -21.861   4.109  1.00  0.00     0.031 C 
ATOM     22  C   UNL     1      12.822 -21.747   9.431  1.00  0.00     0.029 A 
ATOM     23  C   UNL     1      12.514 -22.667   8.349  1.00  0.00     0.049 A 
ATOM     24  H   UNL     1      12.971 -22.381   6.323  1.00  0.00     0.167 HD
ATOM     25  C   UNL     1      14.937 -22.369   2.389  1.00  0.00     0.031 A 
ATOM     26  C   UNL     1      11.858 -23.857   8.381  1.00  0.00     0.031 A 
ATOM     27  C   UNL     1      13.597 -21.935   2.106  1.00  0.00     0.049 A 
ATOM     28  C   UNL     1      11.476 -24.198   6.993  1.00  0.00     0.074 A 
ATOM     29  C   UNL     1      13.005 -20.733   1.775  1.00  0.00     0.029 A 
ATOM     30  N   UNL     1      12.578 -22.759   2.517  1.00  0.00    -0.354 N 
ATOM     31  N   UNL     1      10.582 -23.541   6.315  1.00  0.00    -0.248 NA
ATOM     32  C   UNL     1      12.407 -24.989   6.205  1.00  0.00     0.031 C 
ATOM     33  C   UNL     1      11.757 -20.741   2.464  1.00  0.00     0.029 A 
ATOM     34  C   UNL     1      11.630 -21.972   3.111  1.00  0.00     0.049 A 
ATOM     35  H   UNL     1      12.538 -23.737   2.405  1.00  0.00     0.167 HD
ATOM     36  C   UNL     1      11.112 -23.456   5.037  1.00  0.00     0.074 A 
ATOM     37  C   UNL     1      12.186 -24.448   5.004  1.00  0.00     0.031 C 
ATOM     38  C   UNL     1      10.819 -22.397   4.228  1.00  0.00     0.031 A 
BRANCH  25  39
ATOM     39  C   UNL     1      15.475 -23.661   1.824  1.00  0.00    -0.014 A 
ATOM     40  C   UNL     1      14.880 -24.187   0.661  1.00  0.00     0.009 A 
ATOM     41  C   UNL     1      16.316 -24.524   2.550  1.00  0.00     0.009 A 
ATOM     42  C   UNL     1      15.051 -25.527   0.296  1.00  0.00     0.001 A 
ATOM     43  C   UNL     1      16.521 -25.852   2.165  1.00  0.00     0.001 A 
ATOM     44  C   UNL     1      15.864 -26.362   1.055  1.00  0.00     0.000 A 
ENDBRANCH  25  39
BRANCH  26  45
ATOM     45  C   UNL     1      11.773 -24.865   9.465  1.00  0.00    -0.014 A 
ATOM     46  C   UNL     1      10.804 -25.884   9.435  1.00  0.00     0.009 A 
ATOM     47  C   UNL     1      12.834 -25.005  10.377  1.00  0.00     0.009 A 
ATOM     48  C   UNL     1      10.918 -27.017  10.256  1.00  0.00     0.001 A 
ATOM     49  C   UNL     1      12.947 -26.134  11.197  1.00  0.00     0.001 A 
ATOM     50  C   UNL     1      11.997 -27.148  11.126  1.00  0.00     0.000 A 
ENDBRANCH  26  45
BRANCH  38  51
ATOM     51  C   UNL     1       9.726 -21.454   4.661  1.00  0.00    -0.014 A 
ATOM     52  C   UNL     1       9.775 -20.703   5.849  1.00  0.00     0.009 A 
ATOM     53  C   UNL     1       8.682 -21.203   3.758  1.00  0.00     0.009 A 
ATOM     54  C   UNL     1       8.791 -19.750   6.135  1.00  0.00     0.001 A 
ATOM     55  C   UNL     1       7.713 -20.238   4.033  1.00  0.00     0.001 A 
ATOM     56  C   UNL     1       7.764 -19.515   5.223  1.00  0.00     0.000 A 
ENDBRANCH  38  51
ENDBRANCH  12  13
ENDBRANCH   5   7
ENDBRANCH   2   3
ENDBRANCH   1   2
BRANCH   1  57
ATOM     57  C   UNL     1      15.535 -12.929   9.339  1.00  0.00     0.118 C 
BRANCH  57  58
ATOM     58  N   UNL     1      16.064 -11.572   9.316  1.00  0.00    -0.351 N 
ATOM     59  C   UNL     1      15.435 -10.350   9.435  1.00  0.00     0.272 C 
ATOM     60  H   UNL     1      17.039 -11.517   9.195  1.00  0.00     0.163 HD
ATOM     61  O   UNL     1      16.111  -9.347   9.195  1.00  0.00    -0.267 OA
BRANCH  59  62
ATOM     62  C   UNL     1      14.012 -10.240   9.807  1.00  0.00     0.155 A 
ATOM     63  N   UNL     1      13.373 -11.144  10.578  1.00  0.00    -0.167 NA
ATOM     64  C   UNL     1      13.138  -9.155   9.499  1.00  0.00     0.026 A 
ATOM     65  N   UNL     1      12.104 -10.691  10.685  1.00  0.00    -0.264 N 
ATOM     66  C   UNL     1      11.914  -9.515  10.026  1.00  0.00     0.046 A 
ATOM     67  C   UNL     1      13.382  -7.882   8.753  1.00  0.00     0.159 C 
ATOM     68  C   UNL     1      10.672  -8.708   9.917  1.00  0.00     0.078 C 
ATOM     69  N   UNL     1      12.189  -7.011   8.883  1.00  0.00    -0.337 N 
ATOM     70  C   UNL     1      10.870  -7.669   8.793  1.00  0.00     0.126 C 
BRANCH  65  71
ATOM     71  C   UNL     1      11.156 -11.399  11.539  1.00  0.00     0.180 C 
BRANCH  71  72
ATOM     72  C   UNL     1      10.724 -12.716  10.941  1.00  0.00    -0.026 A 
ATOM     73  C   UNL     1      11.574 -13.833  11.015  1.00  0.00     0.008 A 
ATOM     74  C   UNL     1       9.481 -12.846  10.302  1.00  0.00     0.008 A 
ATOM     75  C   UNL     1      11.189 -15.056  10.466  1.00  0.00     0.039 A 
ATOM     76  C   UNL     1       9.095 -14.073   9.758  1.00  0.00     0.039 A 
ATOM     77  C   UNL     1       9.952 -15.165   9.845  1.00  0.00     0.123 A 
ATOM     78  F   UNL     1       9.578 -16.339   9.322  1.00  0.00    -0.207 F 
ENDBRANCH  71  72
ENDBRANCH  65  71
BRANCH  69  79
ATOM     79  C   UNL     1      12.390  -5.640   9.007  1.00  0.00     0.232 C 
ATOM     80  O   UNL     1      13.488  -5.116   8.972  1.00  0.00    -0.274 OA
BRANCH  79  81
ATOM     81  C   UNL     1      11.183  -4.793   9.152  1.00  0.00     0.154 C 
ATOM     82  C   UNL     1      10.504  -4.644  10.504  1.00  0.00     0.097 C 
ATOM     83  C   UNL     1      11.251  -3.515   9.901  1.00  0.00     0.260 C 
ATOM     84  F   UNL     1      12.380  -3.056  10.535  1.00  0.00    -0.206 F 
ATOM     85  F   UNL     1      10.549  -2.412   9.467  1.00  0.00    -0.206 F 
ENDBRANCH  79  81
ENDBRANCH  69  79
ENDBRANCH  59  62
ENDBRANCH  57  58
ENDBRANCH   1  57
TORSDOF 14
