REMARK SMILES Cc1cc(C)c2c(CCCC(=O)NCCCNC(=O)c3ccc(-c4c5nc(c(-c6ccccc6)c6ccc([nH]6)c(-c6ccccc6)c6nc(c(-c7ccccc7)c7ccc4[nH]7)C=C6)C=C5)cc3)c(-c3ccccn3)[nH]c2c1
REMARK SMILES IDX 14 1 13 2 11 3 12 4 10 6 9 7 8 8 7 9 1 10 2 11 3 12 77 13
REMARK SMILES IDX 4 14 76 15 5 16 6 17 75 18 68 19 69 21 70 22 74 23 71 24
REMARK SMILES IDX 73 25 72 26 15 27 16 28 17 29 18 30 19 32 20 33 21 34 67 35
REMARK SMILES IDX 22 36 66 37 23 38 24 39 25 40 60 41 26 42 65 43 59 44 61 45
REMARK SMILES IDX 27 46 64 47 58 48 57 49 28 51 50 52 35 53 49 54 36 55 39 56
REMARK SMILES IDX 48 57 62 58 37 59 38 60 47 62 63 63 40 64 29 65 30 66 34 67
REMARK SMILES IDX 31 68 33 69 32 70 51 71 52 72 56 73 53 74 55 75 54 76 41 77
REMARK SMILES IDX 42 78 46 79 43 80 45 81 44 82
REMARK H PARENT 13 5 75 20 17 31 61 50 39 61
REMARK Flexibility Score: inf
ROOT
ATOM      1  C   UNL     1       0.675   3.005  -7.310  1.00  0.00     0.117 C 
ENDROOT
BRANCH   1   2
ATOM      2  N   UNL     1      -0.113   3.308  -8.486  1.00  0.00    -0.356 N 
ATOM      3  C   UNL     1      -1.420   3.657  -8.622  1.00  0.00     0.220 C 
ATOM      4  O   UNL     1      -1.765   4.039  -9.747  1.00  0.00    -0.275 OA
ATOM      5  H   UNL     1       0.384   3.253  -9.334  1.00  0.00     0.163 HD
BRANCH   3   6
ATOM      6  C   UNL     1      -2.414   3.727  -7.475  1.00  0.00     0.100 C 
BRANCH   6   7
ATOM      7  C   UNL     1      -2.845   2.534  -6.654  1.00  0.00     0.015 C 
BRANCH   7   8
ATOM      8  C   UNL     1      -1.920   1.863  -5.661  1.00  0.00     0.039 C 
BRANCH   8   9
ATOM      9  C   UNL     1      -1.213   2.479  -4.465  1.00  0.00    -0.013 A 
ATOM     10  C   UNL     1       1.094  -0.102   0.147  1.00  0.00     0.044 C 
ATOM     11  C   UNL     1       0.512   0.484  -1.106  1.00  0.00    -0.049 A 
ATOM     12  C   UNL     1       0.001  -0.349  -2.099  1.00  0.00     0.007 A 
ATOM     13  C   UNL     1       0.522   1.866  -1.302  1.00  0.00     0.030 A 
ATOM     14  C   UNL     1      -0.570   0.157  -3.289  1.00  0.00    -0.041 A 
ATOM     15  C   UNL     1      -0.075   2.373  -2.462  1.00  0.00     0.047 A 
ATOM     16  C   UNL     1      -1.017  -0.864  -4.309  1.00  0.00     0.045 C 
ATOM     17  C   UNL     1      -0.658   1.577  -3.442  1.00  0.00     0.006 A 
ATOM     18  N   UNL     1      -0.190   3.672  -2.873  1.00  0.00    -0.353 N 
ATOM     19  C   UNL     1      -0.771   3.773  -4.117  1.00  0.00     0.068 A 
ATOM     20  H   UNL     1       0.107   4.445  -2.340  1.00  0.00     0.167 HD
BRANCH  19  21
ATOM     21  C   UNL     1      -0.642   5.069  -4.803  1.00  0.00     0.087 A 
ATOM     22  C   UNL     1       0.612   5.506  -5.247  1.00  0.00     0.030 A 
ATOM     23  N   UNL     1      -1.774   5.755  -5.045  1.00  0.00    -0.255 NA
ATOM     24  C   UNL     1       0.685   6.591  -6.118  1.00  0.00     0.004 A 
ATOM     25  C   UNL     1      -1.670   6.816  -5.892  1.00  0.00     0.112 A 
ATOM     26  C   UNL     1      -0.486   7.239  -6.479  1.00  0.00     0.020 A 
ENDBRANCH  19  21
ENDBRANCH   8   9
ENDBRANCH   7   8
ENDBRANCH   6   7
ENDBRANCH   3   6
ENDBRANCH   1   2
BRANCH   1  27
ATOM     27  C   UNL     1       1.046   1.530  -7.151  1.00  0.00     0.042 C 
BRANCH  27  28
ATOM     28  C   UNL     1       2.347   1.175  -7.824  1.00  0.00     0.118 C 
BRANCH  28  29
ATOM     29  N   UNL     1       3.542   1.609  -7.087  1.00  0.00    -0.352 N 
ATOM     30  C   UNL     1       4.864   1.514  -7.520  1.00  0.00     0.251 C 
ATOM     31  H   UNL     1       3.395   2.006  -6.198  1.00  0.00     0.163 HD
ATOM     32  O   UNL     1       5.804   1.528  -6.756  1.00  0.00    -0.269 OA
BRANCH  30  33
ATOM     33  C   UNL     1       5.062   1.414  -8.979  1.00  0.00     0.039 A 
ATOM     34  C   UNL     1       5.859   0.438  -9.579  1.00  0.00     0.014 A 
ATOM     35  C   UNL     1       4.231   2.231  -9.730  1.00  0.00     0.014 A 
ATOM     36  C   UNL     1       5.721   0.241 -10.952  1.00  0.00     0.010 A 
ATOM     37  C   UNL     1       3.868   1.798 -10.969  1.00  0.00     0.010 A 
ATOM     38  C   UNL     1       4.688   0.908 -11.633  1.00  0.00    -0.014 A 
BRANCH  38  39
ATOM     39  C   UNL     1       4.373   0.675 -13.033  1.00  0.00     0.031 A 
ATOM     40  C   UNL     1       4.255  -0.750 -13.408  1.00  0.00     0.074 A 
ATOM     41  C   UNL     1       4.060   1.670 -13.894  1.00  0.00     0.049 A 
ATOM     42  N   UNL     1       5.156  -1.455 -14.001  1.00  0.00    -0.248 NA
ATOM     43  C   UNL     1       3.102  -1.529 -12.934  1.00  0.00     0.031 C 
ATOM     44  C   UNL     1       3.834   3.103 -13.640  1.00  0.00     0.029 A 
ATOM     45  N   UNL     1       3.803   1.575 -15.223  1.00  0.00    -0.354 N 
ATOM     46  C   UNL     1       4.606  -2.716 -14.181  1.00  0.00     0.074 A 
ATOM     47  C   UNL     1       3.430  -2.757 -13.346  1.00  0.00     0.031 C 
ATOM     48  C   UNL     1       3.258   3.679 -14.720  1.00  0.00     0.029 A 
ATOM     49  C   UNL     1       3.267   2.718 -15.803  1.00  0.00     0.049 A 
ATOM     50  H   UNL     1       3.982   0.756 -15.738  1.00  0.00     0.167 HD
ATOM     51  C   UNL     1       5.037  -3.516 -15.195  1.00  0.00     0.031 A 
ATOM     52  C   UNL     1       2.881   2.861 -17.094  1.00  0.00     0.031 A 
ATOM     53  C   UNL     1       6.245  -2.993 -15.792  1.00  0.00     0.049 A 
ATOM     54  C   UNL     1       3.603   1.824 -17.868  1.00  0.00     0.074 A 
ATOM     55  C   UNL     1       7.523  -2.736 -15.338  1.00  0.00     0.029 A 
ATOM     56  N   UNL     1       6.090  -2.245 -16.937  1.00  0.00    -0.354 N 
ATOM     57  N   UNL     1       4.896   1.828 -18.026  1.00  0.00    -0.248 NA
ATOM     58  C   UNL     1       2.952   0.536 -18.044  1.00  0.00     0.031 C 
ATOM     59  C   UNL     1       7.885  -1.498 -15.950  1.00  0.00     0.029 A 
ATOM     60  C   UNL     1       6.851  -1.113 -16.807  1.00  0.00     0.049 A 
ATOM     61  H   UNL     1       5.532  -2.482 -17.713  1.00  0.00     0.167 HD
ATOM     62  C   UNL     1       5.272   0.501 -17.871  1.00  0.00     0.074 A 
ATOM     63  C   UNL     1       4.025  -0.259 -17.976  1.00  0.00     0.031 C 
ATOM     64  C   UNL     1       6.505   0.168 -17.386  1.00  0.00     0.031 A 
BRANCH  51  65
ATOM     65  C   UNL     1       4.163  -4.498 -15.933  1.00  0.00    -0.014 A 
ATOM     66  C   UNL     1       4.736  -5.226 -16.994  1.00  0.00     0.009 A 
ATOM     67  C   UNL     1       2.761  -4.532 -15.828  1.00  0.00     0.009 A 
ATOM     68  C   UNL     1       3.943  -5.863 -17.954  1.00  0.00     0.001 A 
ATOM     69  C   UNL     1       1.968  -5.200 -16.764  1.00  0.00     0.001 A 
ATOM     70  C   UNL     1       2.558  -5.838 -17.846  1.00  0.00     0.000 A 
ENDBRANCH  51  65
BRANCH  52  71
ATOM     71  C   UNL     1       1.719   3.590 -17.646  1.00  0.00    -0.014 A 
ATOM     72  C   UNL     1       1.616   3.825 -19.028  1.00  0.00     0.009 A 
ATOM     73  C   UNL     1       0.564   3.775 -16.864  1.00  0.00     0.009 A 
ATOM     74  C   UNL     1       0.389   4.169 -19.613  1.00  0.00     0.001 A 
ATOM     75  C   UNL     1      -0.661   4.119 -17.449  1.00  0.00     0.001 A 
ATOM     76  C   UNL     1      -0.752   4.296 -18.826  1.00  0.00     0.000 A 
ENDBRANCH  52  71
BRANCH  64  77
ATOM     77  C   UNL     1       7.526   1.270 -17.218  1.00  0.00    -0.014 A 
ATOM     78  C   UNL     1       7.363   2.349 -16.329  1.00  0.00     0.009 A 
ATOM     79  C   UNL     1       8.770   1.113 -17.847  1.00  0.00     0.009 A 
ATOM     80  C   UNL     1       8.412   3.246 -16.089  1.00  0.00     0.001 A 
ATOM     81  C   UNL     1       9.822   1.996 -17.593  1.00  0.00     0.001 A 
ATOM     82  C   UNL     1       9.643   3.063 -16.716  1.00  0.00     0.000 A 
ENDBRANCH  64  77
ENDBRANCH  38  39
ENDBRANCH  30  33
ENDBRANCH  28  29
ENDBRANCH  27  28
ENDBRANCH   1  27
TORSDOF 14
