REMARK SMILES CCN(c1ncc([N+](=O)[O-])cc1Br)[C@@H](C)CC(=O)NCCCNC(=O)c1ccc(-c2c3nc(c(-c4ccccc4)c4ccc([nH]4)c(-c4ccccc4)c4nc(c(-c5ccccc5)c5ccc2[nH]5)C=C4)C=C3)cc1
REMARK SMILES IDX 20 1 19 2 17 3 18 4 16 6 14 7 15 8 3 9 2 10 1 11 4 12 5 13
REMARK SMILES IDX 12 14 6 15 11 16 13 17 7 18 8 19 9 20 10 21 21 22 22 23
REMARK SMILES IDX 23 24 24 25 25 27 26 28 27 29 73 30 28 31 72 32 29 33 30 34
REMARK SMILES IDX 31 35 66 36 32 37 71 38 65 39 67 40 33 41 70 42 64 43 63 44
REMARK SMILES IDX 34 46 56 47 41 48 55 49 42 50 45 51 54 52 68 53 43 54 44 55
REMARK SMILES IDX 53 57 69 58 46 59 35 60 36 61 40 62 37 63 39 64 38 65 57 66
REMARK SMILES IDX 58 67 62 68 59 69 61 70 60 71 47 72 48 73 52 74 49 75 51 76
REMARK SMILES IDX 50 77
REMARK H PARENT 19 5 23 26 67 45 45 56
REMARK Flexibility Score: inf
ROOT
ATOM      1  C   UNL     1       0.209   0.578  -2.322  1.00  0.00     0.117 C 
ENDROOT
BRANCH   1   2
ATOM      2  N   UNL     1       1.222   1.437  -2.911  1.00  0.00    -0.356 N 
ATOM      3  C   UNL     1       2.342   1.985  -2.354  1.00  0.00     0.222 C 
ATOM      4  O   UNL     1       3.006   2.763  -3.045  1.00  0.00    -0.275 OA
ATOM      5  H   UNL     1       1.078   1.658  -3.860  1.00  0.00     0.163 HD
BRANCH   3   6
ATOM      6  C   UNL     1       2.808   1.592  -0.964  1.00  0.00     0.124 C 
BRANCH   6   7
ATOM      7  C   UNL     1       2.466   2.632   0.114  1.00  0.00     0.090 C 
ATOM      8  C   UNL     1       3.476   2.640   1.270  1.00  0.00     0.031 C 
BRANCH   7   9
ATOM      9  N   UNL     1       1.074   2.522   0.637  1.00  0.00    -0.353 N 
BRANCH   9  10
ATOM     10  C   UNL     1       0.647   1.477   1.580  1.00  0.00     0.115 C 
ATOM     11  C   UNL     1       1.263   0.090   1.471  1.00  0.00     0.027 C 
ENDBRANCH   9  10
BRANCH   9  12
ATOM     12  C   UNL     1       0.219   3.576   0.287  1.00  0.00     0.143 A 
ATOM     13  N   UNL     1       0.549   4.213  -0.875  1.00  0.00    -0.231 NA
ATOM     14  C   UNL     1      -0.979   3.964   0.929  1.00  0.00     0.067 A 
ATOM     15  C   UNL     1      -0.293   5.095  -1.466  1.00  0.00     0.199 A 
ATOM     16  C   UNL     1      -1.864   4.857   0.294  1.00  0.00     0.107 A 
ATOM     17  Br  UNL     1      -1.534   3.475   2.686  1.00  0.00    -0.047 Br
ATOM     18  C   UNL     1      -1.522   5.398  -0.937  1.00  0.00     0.288 A 
BRANCH  18  19
ATOM     19  N   UNL     1      -2.447   6.236  -1.678  1.00  0.00     0.064 N 
ATOM     20  O   UNL     1      -2.221   6.412  -2.883  1.00  0.00    -0.258 OA
ATOM     21  O   UNL     1      -3.423   6.690  -1.067  1.00  0.00    -0.258 OA
ENDBRANCH  18  19
ENDBRANCH   9  12
ENDBRANCH   7   9
ENDBRANCH   6   7
ENDBRANCH   3   6
ENDBRANCH   1   2
BRANCH   1  22
ATOM     22  C   UNL     1      -1.075   1.337  -2.014  1.00  0.00     0.042 C 
BRANCH  22  23
ATOM     23  C   UNL     1      -1.978   1.535  -3.221  1.00  0.00     0.118 C 
BRANCH  23  24
ATOM     24  N   UNL     1      -3.002   0.507  -3.291  1.00  0.00    -0.352 N 
ATOM     25  C   UNL     1      -4.342   0.547  -2.988  1.00  0.00     0.251 C 
ATOM     26  H   UNL     1      -2.682  -0.367  -3.610  1.00  0.00     0.163 HD
ATOM     27  O   UNL     1      -4.948  -0.516  -2.872  1.00  0.00    -0.269 OA
BRANCH  25  28
ATOM     28  C   UNL     1      -5.074   1.826  -2.787  1.00  0.00     0.039 A 
ATOM     29  C   UNL     1      -6.161   1.837  -1.904  1.00  0.00     0.014 A 
ATOM     30  C   UNL     1      -4.779   2.984  -3.509  1.00  0.00     0.014 A 
ATOM     31  C   UNL     1      -6.921   3.000  -1.729  1.00  0.00     0.010 A 
ATOM     32  C   UNL     1      -5.469   4.171  -3.257  1.00  0.00     0.010 A 
ATOM     33  C   UNL     1      -6.570   4.188  -2.389  1.00  0.00    -0.014 A 
BRANCH  33  34
ATOM     34  C   UNL     1      -7.373   5.431  -2.231  1.00  0.00     0.031 A 
ATOM     35  C   UNL     1      -8.054   6.054  -3.426  1.00  0.00     0.074 A 
ATOM     36  C   UNL     1      -7.464   6.032  -1.028  1.00  0.00     0.049 A 
ATOM     37  N   UNL     1      -8.740   7.168  -3.502  1.00  0.00    -0.248 NA
ATOM     38  C   UNL     1      -7.926   5.344  -4.709  1.00  0.00     0.031 C 
ATOM     39  C   UNL     1      -6.833   5.562   0.206  1.00  0.00     0.029 A 
ATOM     40  N   UNL     1      -8.123   7.176  -0.649  1.00  0.00    -0.354 N 
ATOM     41  C   UNL     1      -9.090   7.307  -4.841  1.00  0.00     0.074 A 
ATOM     42  C   UNL     1      -8.507   6.189  -5.548  1.00  0.00     0.031 C 
ATOM     43  C   UNL     1      -7.158   6.394   1.210  1.00  0.00     0.029 A 
ATOM     44  C   UNL     1      -7.983   7.477   0.683  1.00  0.00     0.049 A 
ATOM     45  H   UNL     1      -8.647   7.728  -1.274  1.00  0.00     0.167 HD
ATOM     46  C   UNL     1      -9.844   8.265  -5.431  1.00  0.00     0.031 A 
ATOM     47  C   UNL     1      -8.458   8.511   1.403  1.00  0.00     0.031 A 
ATOM     48  C   UNL     1     -10.455   9.363  -4.731  1.00  0.00     0.049 A 
ATOM     49  C   UNL     1      -9.299   9.559   0.729  1.00  0.00     0.074 A 
ATOM     50  C   UNL     1     -11.291  10.347  -5.231  1.00  0.00     0.029 A 
ATOM     51  N   UNL     1     -10.299   9.618  -3.378  1.00  0.00    -0.354 N 
ATOM     52  N   UNL     1      -9.668   9.641  -0.526  1.00  0.00    -0.248 NA
ATOM     53  C   UNL     1      -9.798  10.652   1.576  1.00  0.00     0.031 C 
ATOM     54  C   UNL     1     -11.608  11.222  -4.187  1.00  0.00     0.029 A 
ATOM     55  C   UNL     1     -11.010  10.754  -3.028  1.00  0.00     0.049 A 
ATOM     56  H   UNL     1      -9.763   9.073  -2.758  1.00  0.00     0.167 HD
ATOM     57  C   UNL     1     -10.462  10.777  -0.613  1.00  0.00     0.074 A 
ATOM     58  C   UNL     1     -10.534  11.343   0.718  1.00  0.00     0.031 C 
ATOM     59  C   UNL     1     -11.077  11.303  -1.700  1.00  0.00     0.031 A 
BRANCH  46  60
ATOM     60  C   UNL     1     -10.050   8.168  -6.918  1.00  0.00    -0.014 A 
ATOM     61  C   UNL     1     -10.857   7.165  -7.478  1.00  0.00     0.009 A 
ATOM     62  C   UNL     1      -9.452   9.111  -7.769  1.00  0.00     0.009 A 
ATOM     63  C   UNL     1     -11.029   7.084  -8.861  1.00  0.00     0.001 A 
ATOM     64  C   UNL     1      -9.649   9.045  -9.150  1.00  0.00     0.001 A 
ATOM     65  C   UNL     1     -10.428   8.026  -9.696  1.00  0.00     0.000 A 
ENDBRANCH  46  60
BRANCH  47  66
ATOM     66  C   UNL     1      -8.166   8.599   2.857  1.00  0.00    -0.014 A 
ATOM     67  C   UNL     1      -9.178   8.366   3.800  1.00  0.00     0.009 A 
ATOM     68  C   UNL     1      -6.877   8.921   3.310  1.00  0.00     0.009 A 
ATOM     69  C   UNL     1      -8.912   8.475   5.167  1.00  0.00     0.001 A 
ATOM     70  C   UNL     1      -6.607   9.003   4.678  1.00  0.00     0.001 A 
ATOM     71  C   UNL     1      -7.627   8.789   5.604  1.00  0.00     0.000 A 
ENDBRANCH  47  66
BRANCH  59  72
ATOM     72  C   UNL     1     -11.913  12.533  -1.489  1.00  0.00    -0.014 A 
ATOM     73  C   UNL     1     -11.323  13.785  -1.262  1.00  0.00     0.009 A 
ATOM     74  C   UNL     1     -13.312  12.441  -1.562  1.00  0.00     0.009 A 
ATOM     75  C   UNL     1     -12.121  14.917  -1.082  1.00  0.00     0.001 A 
ATOM     76  C   UNL     1     -14.105  13.578  -1.407  1.00  0.00     0.001 A 
ATOM     77  C   UNL     1     -13.510  14.813  -1.159  1.00  0.00     0.000 A 
ENDBRANCH  59  72
ENDBRANCH  33  34
ENDBRANCH  25  28
ENDBRANCH  23  24
ENDBRANCH  22  23
ENDBRANCH   1  22
TORSDOF 15
