REMARK SMILES COCc1cc(SCC(=O)NCCCNC(=O)c2ccc(-c3c4nc(c(-c5ccccc5)c5ccc([nH]5)c(-c5ccccc5)c5nc(c(-c6ccccc6)c6ccc3[nH]6)C=C5)C=C4)cc2)nc(-c2cccnc2)n1
REMARK SMILES IDX 12 1 11 2 9 3 10 4 8 6 7 7 6 8 4 9 5 10 74 11 67 12 66 13
REMARK SMILES IDX 3 14 2 15 1 16 68 17 69 18 73 19 70 20 72 21 71 22 13 23
REMARK SMILES IDX 14 24 15 25 16 26 17 28 18 29 19 30 65 31 20 32 64 33 21 34
REMARK SMILES IDX 22 35 23 36 58 37 24 38 63 39 57 40 59 41 25 42 62 43 56 44
REMARK SMILES IDX 55 45 26 47 48 48 33 49 47 50 34 51 37 52 46 53 60 54 35 55
REMARK SMILES IDX 36 56 45 58 61 59 38 60 27 61 28 62 32 63 29 64 31 65 30 66
REMARK SMILES IDX 49 67 50 68 54 69 51 70 53 71 52 72 39 73 40 74 44 75 41 76
REMARK SMILES IDX 43 77 42 78
REMARK H PARENT 11 5 15 27 59 46 37 57
REMARK Flexibility Score: inf
ROOT
ATOM      1  C   UNL     1       3.549  -7.534  -2.245  1.00  0.00     0.117 C 
ENDROOT
BRANCH   1   2
ATOM      2  N   UNL     1       3.540  -6.810  -0.988  1.00  0.00    -0.355 N 
ATOM      3  C   UNL     1       2.513  -6.557  -0.134  1.00  0.00     0.230 C 
ATOM      4  O   UNL     1       2.752  -5.848   0.848  1.00  0.00    -0.274 OA
ATOM      5  H   UNL     1       4.412  -6.446  -0.711  1.00  0.00     0.163 HD
BRANCH   3   6
ATOM      6  C   UNL     1       1.142  -7.174  -0.332  1.00  0.00     0.176 C 
BRANCH   6   7
ATOM      7  S   UNL     1       0.191  -6.493  -1.723  1.00  0.00    -0.096 SA
BRANCH   7   8
ATOM      8  C   UNL     1       0.090  -4.740  -1.430  1.00  0.00     0.101 A 
ATOM      9  C   UNL     1       0.396  -2.727  -0.243  1.00  0.00     0.071 A 
ATOM     10  C   UNL     1       0.409  -4.111  -0.247  1.00  0.00     0.062 A 
ATOM     11  N   UNL     1       0.049  -2.023  -1.337  1.00  0.00    -0.230 NA
ATOM     12  C   UNL     1      -0.347  -2.715  -2.414  1.00  0.00     0.162 A 
ATOM     13  N   UNL     1      -0.328  -4.052  -2.511  1.00  0.00    -0.222 NA
BRANCH   9  14
ATOM     14  C   UNL     1       0.878  -1.983   0.989  1.00  0.00     0.215 C 
BRANCH  14  15
ATOM     15  O   UNL     1       0.371  -0.653   1.127  1.00  0.00    -0.378 OA
ATOM     16  C   UNL     1       1.102   0.308   0.376  1.00  0.00     0.195 C 
ENDBRANCH  14  15
ENDBRANCH   9  14
BRANCH  12  17
ATOM     17  C   UNL     1      -0.845  -1.947  -3.548  1.00  0.00     0.038 A 
ATOM     18  C   UNL     1      -2.067  -2.232  -4.170  1.00  0.00     0.015 A 
ATOM     19  C   UNL     1      -0.138  -0.854  -4.045  1.00  0.00     0.123 A 
ATOM     20  C   UNL     1      -2.525  -1.434  -5.218  1.00  0.00     0.021 A 
ATOM     21  N   UNL     1      -0.542  -0.070  -5.076  1.00  0.00    -0.264 NA
ATOM     22  C   UNL     1      -1.732  -0.377  -5.634  1.00  0.00     0.111 A 
ENDBRANCH  12  17
ENDBRANCH   7   8
ENDBRANCH   6   7
ENDBRANCH   3   6
ENDBRANCH   1   2
BRANCH   1  23
ATOM     23  C   UNL     1       3.688  -6.593  -3.440  1.00  0.00     0.042 C 
BRANCH  23  24
ATOM     24  C   UNL     1       4.980  -5.775  -3.460  1.00  0.00     0.118 C 
BRANCH  24  25
ATOM     25  N   UNL     1       6.175  -6.598  -3.581  1.00  0.00    -0.352 N 
ATOM     26  C   UNL     1       7.181  -6.568  -4.512  1.00  0.00     0.251 C 
ATOM     27  H   UNL     1       6.277  -7.286  -2.883  1.00  0.00     0.163 HD
ATOM     28  O   UNL     1       8.025  -7.467  -4.517  1.00  0.00    -0.269 OA
BRANCH  26  29
ATOM     29  C   UNL     1       7.259  -5.491  -5.522  1.00  0.00     0.039 A 
ATOM     30  C   UNL     1       7.580  -5.831  -6.841  1.00  0.00     0.014 A 
ATOM     31  C   UNL     1       7.058  -4.152  -5.179  1.00  0.00     0.014 A 
ATOM     32  C   UNL     1       7.631  -4.840  -7.825  1.00  0.00     0.010 A 
ATOM     33  C   UNL     1       7.047  -3.173  -6.172  1.00  0.00     0.010 A 
ATOM     34  C   UNL     1       7.330  -3.507  -7.505  1.00  0.00    -0.014 A 
BRANCH  34  35
ATOM     35  C   UNL     1       7.285  -2.456  -8.553  1.00  0.00     0.031 A 
ATOM     36  C   UNL     1       8.264  -1.315  -8.536  1.00  0.00     0.074 A 
ATOM     37  C   UNL     1       6.312  -2.488  -9.484  1.00  0.00     0.049 A 
ATOM     38  N   UNL     1       8.328  -0.270  -9.323  1.00  0.00    -0.248 NA
ATOM     39  C   UNL     1       9.292  -1.339  -7.484  1.00  0.00     0.031 C 
ATOM     40  C   UNL     1       5.275  -3.517  -9.591  1.00  0.00     0.029 A 
ATOM     41  N   UNL     1       6.029  -1.622 -10.511  1.00  0.00    -0.354 N 
ATOM     42  C   UNL     1       9.385   0.497  -8.848  1.00  0.00     0.074 A 
ATOM     43  C   UNL     1       9.910  -0.184  -7.684  1.00  0.00     0.031 C 
ATOM     44  C   UNL     1       4.479  -3.230 -10.634  1.00  0.00     0.029 A 
ATOM     45  C   UNL     1       4.924  -1.981 -11.244  1.00  0.00     0.049 A 
ATOM     46  H   UNL     1       6.566  -0.820 -10.704  1.00  0.00     0.167 HD
ATOM     47  C   UNL     1       9.881   1.657  -9.342  1.00  0.00     0.031 A 
ATOM     48  C   UNL     1       4.325  -1.369 -12.283  1.00  0.00     0.031 A 
ATOM     49  C   UNL     1       9.370   2.331 -10.506  1.00  0.00     0.049 A 
ATOM     50  C   UNL     1       4.889  -0.080 -12.807  1.00  0.00     0.074 A 
ATOM     51  C   UNL     1       9.851   3.473 -11.122  1.00  0.00     0.029 A 
ATOM     52  N   UNL     1       8.256   1.928 -11.226  1.00  0.00    -0.354 N 
ATOM     53  N   UNL     1       5.933   0.594 -12.391  1.00  0.00    -0.248 NA
ATOM     54  C   UNL     1       4.195   0.528 -13.951  1.00  0.00     0.031 C 
ATOM     55  C   UNL     1       9.000   3.789 -12.187  1.00  0.00     0.029 A 
ATOM     56  C   UNL     1       8.019   2.814 -12.264  1.00  0.00     0.049 A 
ATOM     57  H   UNL     1       7.714   1.130 -11.029  1.00  0.00     0.167 HD
ATOM     58  C   UNL     1       6.033   1.694 -13.232  1.00  0.00     0.074 A 
ATOM     59  C   UNL     1       4.955   1.587 -14.194  1.00  0.00     0.031 C 
ATOM     60  C   UNL     1       6.939   2.702 -13.209  1.00  0.00     0.031 A 
BRANCH  47  61
ATOM     61  C   UNL     1      11.037   2.280  -8.611  1.00  0.00    -0.014 A 
ATOM     62  C   UNL     1      12.319   1.707  -8.652  1.00  0.00     0.009 A 
ATOM     63  C   UNL     1      10.850   3.474  -7.898  1.00  0.00     0.009 A 
ATOM     64  C   UNL     1      13.380   2.299  -7.963  1.00  0.00     0.001 A 
ATOM     65  C   UNL     1      11.918   4.077  -7.233  1.00  0.00     0.001 A 
ATOM     66  C   UNL     1      13.179   3.484  -7.257  1.00  0.00     0.000 A 
ENDBRANCH  47  61
BRANCH  48  67
ATOM     67  C   UNL     1       3.119  -1.976 -12.903  1.00  0.00    -0.014 A 
ATOM     68  C   UNL     1       3.197  -2.575 -14.169  1.00  0.00     0.009 A 
ATOM     69  C   UNL     1       1.888  -1.964 -12.230  1.00  0.00     0.009 A 
ATOM     70  C   UNL     1       2.060  -3.131 -14.759  1.00  0.00     0.001 A 
ATOM     71  C   UNL     1       0.759  -2.545 -12.812  1.00  0.00     0.001 A 
ATOM     72  C   UNL     1       0.844  -3.120 -14.078  1.00  0.00     0.000 A 
ENDBRANCH  48  67
BRANCH  60  73
ATOM     73  C   UNL     1       6.815   3.758 -14.270  1.00  0.00    -0.014 A 
ATOM     74  C   UNL     1       5.793   4.718 -14.224  1.00  0.00     0.009 A 
ATOM     75  C   UNL     1       7.756   3.813 -15.310  1.00  0.00     0.009 A 
ATOM     76  C   UNL     1       5.698   5.695 -15.216  1.00  0.00     0.001 A 
ATOM     77  C   UNL     1       7.674   4.808 -16.286  1.00  0.00     0.001 A 
ATOM     78  C   UNL     1       6.640   5.742 -16.243  1.00  0.00     0.000 A 
ENDBRANCH  60  73
ENDBRANCH  34  35
ENDBRANCH  26  29
ENDBRANCH  24  25
ENDBRANCH  23  24
ENDBRANCH   1  23
TORSDOF 15
