REMARK SMILES COCc1cccc(C(=O)N2C[C@@H](O)C[C@@H]2C(=O)NCCCNC(=O)c2ccc(-c3c4nc(c(-c5ccccc5)c5ccc([nH]5)c(-c5ccccc5)c5nc(c(-c6ccccc6)c6ccc3[nH]6)C=C5)C=C4)cc2)c1
REMARK SMILES IDX 20 1 19 2 17 3 18 4 16 6 11 7 12 8 13 9 15 10 9 11 10 12
REMARK SMILES IDX 8 13 4 14 5 15 74 16 6 17 7 18 3 19 2 20 1 21 14 22 21 24
REMARK SMILES IDX 22 25 23 26 24 27 25 29 26 30 27 31 73 32 28 33 72 34 29 35
REMARK SMILES IDX 30 36 31 37 66 38 32 39 71 40 65 41 67 42 33 43 70 44 64 45
REMARK SMILES IDX 63 46 34 48 56 49 41 50 55 51 42 52 45 53 54 54 68 55 43 56
REMARK SMILES IDX 44 57 53 59 69 60 46 61 35 62 36 63 40 64 37 65 39 66 38 67
REMARK SMILES IDX 57 68 58 69 62 70 59 71 61 72 60 73 47 74 48 75 52 76 49 77
REMARK SMILES IDX 51 78 50 79
REMARK H PARENT 19 5 14 23 23 28 67 47 45 58
REMARK Flexibility Score: inf
ROOT
ATOM      1  C   UNL     1      -1.396  -6.441  -0.728  1.00  0.00     0.117 C 
ENDROOT
BRANCH   1   2
ATOM      2  N   UNL     1      -1.527  -5.000  -0.636  1.00  0.00    -0.354 N 
ATOM      3  C   UNL     1      -0.586  -4.082  -0.264  1.00  0.00     0.242 C 
ATOM      4  O   UNL     1      -0.895  -2.888  -0.276  1.00  0.00    -0.273 OA
ATOM      5  H   UNL     1      -2.410  -4.635  -0.872  1.00  0.00     0.163 HD
BRANCH   3   6
ATOM      6  C   UNL     1       0.847  -4.561   0.048  1.00  0.00     0.177 C 
ATOM      7  N   UNL     1       1.474  -3.689   1.036  1.00  0.00    -0.324 N 
ATOM      8  C   UNL     1       2.691  -3.096   0.506  1.00  0.00     0.152 C 
ATOM      9  C   UNL     1       2.425  -3.064  -0.996  1.00  0.00     0.136 C 
ATOM     10  C   UNL     1       1.698  -4.395  -1.220  1.00  0.00     0.069 C 
BRANCH   7  11
ATOM     11  C   UNL     1       0.913  -3.591   2.294  1.00  0.00     0.254 C 
ATOM     12  O   UNL     1       0.341  -4.551   2.809  1.00  0.00    -0.269 OA
BRANCH  11  13
ATOM     13  C   UNL     1       0.811  -2.248   2.944  1.00  0.00     0.040 A 
ATOM     14  C   UNL     1       0.711   0.196   2.760  1.00  0.00    -0.022 A 
ATOM     15  C   UNL     1       0.288   0.260   4.092  1.00  0.00     0.006 A 
ATOM     16  C   UNL     1       0.944  -1.067   2.203  1.00  0.00     0.020 A 
ATOM     17  C   UNL     1       0.118  -0.909   4.840  1.00  0.00     0.001 A 
ATOM     18  C   UNL     1       0.384  -2.159   4.271  1.00  0.00     0.014 A 
BRANCH  14  19
ATOM     19  C   UNL     1       0.957   1.449   1.948  1.00  0.00     0.195 C 
BRANCH  19  20
ATOM     20  O   UNL     1       0.138   1.565   0.785  1.00  0.00    -0.380 OA
ATOM     21  C   UNL     1       0.641   0.902  -0.369  1.00  0.00     0.195 C 
ENDBRANCH  19  20
ENDBRANCH  14  19
ENDBRANCH  11  13
ENDBRANCH   7  11
BRANCH   9  22
ATOM     22  O   UNL     1       3.600  -2.958  -1.777  1.00  0.00    -0.391 OA
ATOM     23  H   UNL     1       4.189  -3.703  -1.577  1.00  0.00     0.211 HD
ENDBRANCH   9  22
ENDBRANCH   3   6
ENDBRANCH   1   2
BRANCH   1  24
ATOM     24  C   UNL     1      -1.949  -7.155   0.501  1.00  0.00     0.042 C 
BRANCH  24  25
ATOM     25  C   UNL     1      -3.462  -7.019   0.670  1.00  0.00     0.118 C 
BRANCH  25  26
ATOM     26  N   UNL     1      -4.205  -7.585  -0.450  1.00  0.00    -0.352 N 
ATOM     27  C   UNL     1      -5.145  -8.583  -0.491  1.00  0.00     0.251 C 
ATOM     28  H   UNL     1      -3.996  -7.183  -1.325  1.00  0.00     0.163 HD
ATOM     29  O   UNL     1      -5.504  -9.028  -1.577  1.00  0.00    -0.269 OA
BRANCH  27  30
ATOM     30  C   UNL     1      -5.721  -9.138   0.752  1.00  0.00     0.039 A 
ATOM     31  C   UNL     1      -5.947 -10.517   0.829  1.00  0.00     0.014 A 
ATOM     32  C   UNL     1      -6.084  -8.314   1.820  1.00  0.00     0.014 A 
ATOM     33  C   UNL     1      -6.472 -11.073   1.998  1.00  0.00     0.010 A 
ATOM     34  C   UNL     1      -6.540  -8.876   3.010  1.00  0.00     0.010 A 
ATOM     35  C   UNL     1      -6.738 -10.261   3.112  1.00  0.00    -0.014 A 
BRANCH  35  36
ATOM     36  C   UNL     1      -7.209 -10.845   4.394  1.00  0.00     0.031 A 
ATOM     37  C   UNL     1      -8.568 -10.496   4.937  1.00  0.00     0.074 A 
ATOM     38  C   UNL     1      -6.385 -11.639   5.104  1.00  0.00     0.049 A 
ATOM     39  N   UNL     1      -9.121 -10.856   6.068  1.00  0.00    -0.248 NA
ATOM     40  C   UNL     1      -9.406  -9.612   4.112  1.00  0.00     0.031 C 
ATOM     41  C   UNL     1      -5.029 -12.025   4.707  1.00  0.00     0.029 A 
ATOM     42  N   UNL     1      -6.564 -12.257   6.317  1.00  0.00    -0.354 N 
ATOM     43  C   UNL     1     -10.360 -10.228   6.099  1.00  0.00     0.074 A 
ATOM     44  C   UNL     1     -10.460  -9.431   4.896  1.00  0.00     0.031 C 
ATOM     45  C   UNL     1      -4.510 -12.833   5.646  1.00  0.00     0.029 A 
ATOM     46  C   UNL     1      -5.476 -12.986   6.729  1.00  0.00     0.049 A 
ATOM     47  H   UNL     1      -7.394 -12.184   6.841  1.00  0.00     0.167 HD
ATOM     48  C   UNL     1     -11.334 -10.319   7.036  1.00  0.00     0.031 A 
ATOM     49  C   UNL     1      -5.272 -13.693   7.857  1.00  0.00     0.031 A 
ATOM     50  C   UNL     1     -11.240 -11.116   8.231  1.00  0.00     0.049 A 
ATOM     51  C   UNL     1      -6.361 -13.761   8.890  1.00  0.00     0.074 A 
ATOM     52  C   UNL     1     -12.196 -11.314   9.212  1.00  0.00     0.029 A 
ATOM     53  N   UNL     1     -10.122 -11.843   8.608  1.00  0.00    -0.354 N 
ATOM     54  N   UNL     1      -7.552 -13.214   8.872  1.00  0.00    -0.248 NA
ATOM     55  C   UNL     1      -6.079 -14.553  10.095  1.00  0.00     0.031 C 
ATOM     56  C   UNL     1     -11.638 -12.120  10.210  1.00  0.00     0.029 A 
ATOM     57  C   UNL     1     -10.355 -12.471   9.820  1.00  0.00     0.049 A 
ATOM     58  H   UNL     1      -9.286 -11.904   8.091  1.00  0.00     0.167 HD
ATOM     59  C   UNL     1      -8.171 -13.619  10.048  1.00  0.00     0.074 A 
ATOM     60  C   UNL     1      -7.230 -14.469  10.747  1.00  0.00     0.031 C 
ATOM     61  C   UNL     1      -9.410 -13.314  10.505  1.00  0.00     0.031 A 
BRANCH  48  62
ATOM     62  C   UNL     1     -12.590  -9.524   6.808  1.00  0.00    -0.014 A 
ATOM     63  C   UNL     1     -13.499  -9.873   5.796  1.00  0.00     0.009 A 
ATOM     64  C   UNL     1     -12.887  -8.433   7.639  1.00  0.00     0.009 A 
ATOM     65  C   UNL     1     -14.660  -9.123   5.598  1.00  0.00     0.001 A 
ATOM     66  C   UNL     1     -14.064  -7.703   7.458  1.00  0.00     0.001 A 
ATOM     67  C   UNL     1     -14.944  -8.042   6.431  1.00  0.00     0.000 A 
ENDBRANCH  48  62
BRANCH  49  68
ATOM     68  C   UNL     1      -3.985 -14.405   8.066  1.00  0.00    -0.014 A 
ATOM     69  C   UNL     1      -3.933 -15.807   8.019  1.00  0.00     0.009 A 
ATOM     70  C   UNL     1      -2.804 -13.690   8.318  1.00  0.00     0.009 A 
ATOM     71  C   UNL     1      -2.730 -16.478   8.248  1.00  0.00     0.001 A 
ATOM     72  C   UNL     1      -1.597 -14.363   8.518  1.00  0.00     0.001 A 
ATOM     73  C   UNL     1      -1.563 -15.756   8.493  1.00  0.00     0.000 A 
ENDBRANCH  49  68
BRANCH  61  74
ATOM     74  C   UNL     1      -9.833 -13.934  11.807  1.00  0.00    -0.014 A 
ATOM     75  C   UNL     1      -9.293 -13.506  13.030  1.00  0.00     0.009 A 
ATOM     76  C   UNL     1     -10.816 -14.936  11.811  1.00  0.00     0.009 A 
ATOM     77  C   UNL     1      -9.705 -14.094  14.227  1.00  0.00     0.001 A 
ATOM     78  C   UNL     1     -11.247 -15.502  13.011  1.00  0.00     0.001 A 
ATOM     79  C   UNL     1     -10.685 -15.087  14.217  1.00  0.00     0.000 A 
ENDBRANCH  61  74
ENDBRANCH  35  36
ENDBRANCH  27  30
ENDBRANCH  25  26
ENDBRANCH  24  25
ENDBRANCH   1  24
TORSDOF 15
