REMARK SMILES Cc1[nH]c2ccccc2c1[C@H](C(=O)NCCCNC(=O)c1ccc(-c2c3nc(c(-c4ccccc4)c4ccc([nH]4)c(-c4ccccc4)c4nc(c(-c5ccccc5)c5ccc2[nH]5)C=C4)C=C3)cc1)[NH+]1CCN(C(=O)c2ccco2)CC1
REMARK SMILES IDX 16 1 15 2 14 3 12 4 13 5 11 7 10 8 1 9 2 10 3 11 4 12 9 14
REMARK SMILES IDX 5 15 8 16 6 17 7 18 69 19 70 20 81 21 71 23 80 24 72 25
REMARK SMILES IDX 73 26 74 27 75 28 76 29 79 30 77 31 78 32 17 33 18 34 19 35
REMARK SMILES IDX 20 37 21 38 22 39 68 40 23 41 67 42 24 43 25 44 26 45 61 46
REMARK SMILES IDX 27 47 66 48 60 49 62 50 28 51 65 52 59 53 58 54 29 56 51 57
REMARK SMILES IDX 36 58 50 59 37 60 40 61 49 62 63 63 38 64 39 65 48 67 64 68
REMARK SMILES IDX 41 69 30 70 31 71 35 72 32 73 34 74 33 75 52 76 53 77 57 78
REMARK SMILES IDX 54 79 56 80 55 81 42 82 43 83 47 84 44 85 46 86 45 87
REMARK H PARENT 14 6 3 13 69 22 18 36 62 55 40 66
REMARK Flexibility Score: inf
ROOT
ATOM      1  C   UNL     1       1.564  -2.945  -2.483  1.00  0.00     0.042 C 
ENDROOT
BRANCH   1   2
ATOM      2  C   UNL     1       1.154  -2.897  -1.029  1.00  0.00     0.118 C 
BRANCH   2   3
ATOM      3  N   UNL     1       0.570  -1.613  -0.671  1.00  0.00    -0.351 N 
ATOM      4  C   UNL     1      -0.677  -1.310  -0.198  1.00  0.00     0.283 C 
ATOM      5  O   UNL     1      -0.905  -0.118   0.039  1.00  0.00    -0.268 OA
ATOM      6  H   UNL     1       1.167  -0.840  -0.787  1.00  0.00     0.163 HD
BRANCH   4   7
ATOM      7  C   UNL     1      -1.756  -2.393   0.047  1.00  0.00     0.308 C 
BRANCH   7   8
ATOM      8  C   UNL     1      -1.947  -3.280  -1.187  1.00  0.00     0.047 A 
ATOM      9  C   UNL     1      -2.082  -1.396  -3.029  1.00  0.00     0.065 C 
ATOM     10  C   UNL     1      -2.046  -2.789  -2.495  1.00  0.00     0.022 A 
ATOM     11  N   UNL     1      -2.029  -3.853  -3.354  1.00  0.00    -0.358 N 
ATOM     12  C   UNL     1      -1.996  -5.033  -2.659  1.00  0.00     0.046 A 
ATOM     13  H   UNL     1      -2.039  -3.781  -4.336  1.00  0.00     0.166 HD
ATOM     14  C   UNL     1      -2.037  -4.715  -1.299  1.00  0.00     0.009 A 
ATOM     15  C   UNL     1      -1.937  -6.345  -3.144  1.00  0.00     0.027 A 
ATOM     16  C   UNL     1      -2.100  -5.788  -0.385  1.00  0.00     0.011 A 
ATOM     17  C   UNL     1      -1.972  -7.381  -2.212  1.00  0.00     0.002 A 
ATOM     18  C   UNL     1      -2.073  -7.109  -0.851  1.00  0.00     0.001 A 
ENDBRANCH   7   8
BRANCH   7  19
ATOM     19  N   UNL     1      -1.634  -3.103   1.356  1.00  0.00    -0.318 N 
ATOM     20  C   UNL     1      -0.308  -3.550   1.818  1.00  0.00     0.285 C 
ATOM     21  C   UNL     1      -2.256  -2.358   2.470  1.00  0.00     0.285 C 
ATOM     22  H   UNL     1      -2.135  -3.958   1.114  1.00  0.00     0.349 HD
ATOM     23  C   UNL     1       0.626  -2.480   2.421  1.00  0.00     0.181 C 
ATOM     24  C   UNL     1      -1.422  -1.208   3.068  1.00  0.00     0.181 C 
ATOM     25  N   UNL     1      -0.024  -1.560   3.347  1.00  0.00    -0.325 N 
ATOM     26  C   UNL     1       0.835  -0.682   4.039  1.00  0.00     0.289 C 
ATOM     27  O   UNL     1       2.035  -0.637   3.763  1.00  0.00    -0.265 OA
BRANCH  26  28
ATOM     28  C   UNL     1       0.265   0.113   5.109  1.00  0.00     0.191 A 
ATOM     29  C   UNL     1      -0.616  -0.202   6.128  1.00  0.00     0.056 A 
ATOM     30  O   UNL     1       0.682   1.409   5.259  1.00  0.00    -0.459 OA
ATOM     31  C   UNL     1      -0.761   0.961   6.920  1.00  0.00     0.043 A 
ATOM     32  C   UNL     1       0.046   1.914   6.347  1.00  0.00     0.196 A 
ENDBRANCH  26  28
ENDBRANCH   7  19
ENDBRANCH   4   7
ENDBRANCH   2   3
ENDBRANCH   1   2
BRANCH   1  33
ATOM     33  C   UNL     1       2.759  -2.050  -2.733  1.00  0.00     0.118 C 
BRANCH  33  34
ATOM     34  N   UNL     1       4.004  -2.711  -2.362  1.00  0.00    -0.352 N 
ATOM     35  C   UNL     1       4.915  -3.336  -3.179  1.00  0.00     0.251 C 
ATOM     36  H   UNL     1       4.220  -2.710  -1.401  1.00  0.00     0.163 HD
ATOM     37  O   UNL     1       5.766  -4.083  -2.716  1.00  0.00    -0.269 OA
BRANCH  35  38
ATOM     38  C   UNL     1       4.841  -3.097  -4.635  1.00  0.00     0.039 A 
ATOM     39  C   UNL     1       4.979  -4.163  -5.525  1.00  0.00     0.014 A 
ATOM     40  C   UNL     1       4.619  -1.804  -5.111  1.00  0.00     0.014 A 
ATOM     41  C   UNL     1       4.855  -3.930  -6.896  1.00  0.00     0.010 A 
ATOM     42  C   UNL     1       4.359  -1.600  -6.454  1.00  0.00     0.010 A 
ATOM     43  C   UNL     1       4.527  -2.649  -7.368  1.00  0.00    -0.014 A 
BRANCH  43  44
ATOM     44  C   UNL     1       4.479  -2.324  -8.813  1.00  0.00     0.031 A 
ATOM     45  C   UNL     1       5.429  -1.280  -9.345  1.00  0.00     0.074 A 
ATOM     46  C   UNL     1       3.565  -2.892  -9.620  1.00  0.00     0.049 A 
ATOM     47  N   UNL     1       5.458  -0.706 -10.521  1.00  0.00    -0.248 NA
ATOM     48  C   UNL     1       6.452  -0.775  -8.410  1.00  0.00     0.031 C 
ATOM     49  C   UNL     1       2.572  -3.892  -9.222  1.00  0.00     0.029 A 
ATOM     50  N   UNL     1       3.322  -2.697 -10.956  1.00  0.00    -0.354 N 
ATOM     51  C   UNL     1       6.465   0.249 -10.444  1.00  0.00     0.074 A 
ATOM     52  C   UNL     1       6.976   0.229  -9.094  1.00  0.00     0.031 C 
ATOM     53  C   UNL     1       1.851  -4.248 -10.299  1.00  0.00     0.029 A 
ATOM     54  C   UNL     1       2.301  -3.472 -11.450  1.00  0.00     0.049 A 
ATOM     55  H   UNL     1       3.832  -2.062 -11.509  1.00  0.00     0.167 HD
ATOM     56  C   UNL     1       6.951   1.049 -11.419  1.00  0.00     0.031 A 
ATOM     57  C   UNL     1       1.790  -3.542 -12.693  1.00  0.00     0.031 A 
ATOM     58  C   UNL     1       6.490   1.021 -12.777  1.00  0.00     0.049 A 
ATOM     59  C   UNL     1       2.372  -2.666 -13.770  1.00  0.00     0.074 A 
ATOM     60  C   UNL     1       6.940   1.755 -13.859  1.00  0.00     0.029 A 
ATOM     61  N   UNL     1       5.489   0.183 -13.243  1.00  0.00    -0.354 N 
ATOM     62  N   UNL     1       3.337  -1.782 -13.686  1.00  0.00    -0.248 NA
ATOM     63  C   UNL     1       1.801  -2.808 -15.117  1.00  0.00     0.031 C 
ATOM     64  C   UNL     1       6.198   1.371 -14.980  1.00  0.00     0.029 A 
ATOM     65  C   UNL     1       5.314   0.373 -14.601  1.00  0.00     0.049 A 
ATOM     66  H   UNL     1       4.979  -0.452 -12.690  1.00  0.00     0.167 HD
ATOM     67  C   UNL     1       3.514  -1.292 -14.974  1.00  0.00     0.074 A 
ATOM     68  C   UNL     1       2.564  -1.984 -15.820  1.00  0.00     0.031 C 
ATOM     69  C   UNL     1       4.382  -0.353 -15.419  1.00  0.00     0.031 A 
BRANCH  56  70
ATOM     70  C   UNL     1       8.059   1.995 -11.051  1.00  0.00    -0.014 A 
ATOM     71  C   UNL     1       9.347   1.519 -10.758  1.00  0.00     0.009 A 
ATOM     72  C   UNL     1       7.820   3.377 -11.012  1.00  0.00     0.009 A 
ATOM     73  C   UNL     1      10.364   2.404 -10.399  1.00  0.00     0.001 A 
ATOM     74  C   UNL     1       8.847   4.262 -10.682  1.00  0.00     0.001 A 
ATOM     75  C   UNL     1      10.115   3.775 -10.366  1.00  0.00     0.000 A 
ENDBRANCH  56  70
BRANCH  57  76
ATOM     76  C   UNL     1       0.688  -4.489 -13.005  1.00  0.00    -0.014 A 
ATOM     77  C   UNL     1       0.930  -5.617 -13.805  1.00  0.00     0.009 A 
ATOM     78  C   UNL     1      -0.613  -4.258 -12.536  1.00  0.00     0.009 A 
ATOM     79  C   UNL     1      -0.115  -6.471 -14.162  1.00  0.00     0.001 A 
ATOM     80  C   UNL     1      -1.652  -5.130 -12.871  1.00  0.00     0.001 A 
ATOM     81  C   UNL     1      -1.405  -6.228 -13.693  1.00  0.00     0.000 A 
ENDBRANCH  57  76
BRANCH  69  82
ATOM     82  C   UNL     1       4.388  -0.066 -16.891  1.00  0.00    -0.014 A 
ATOM     83  C   UNL     1       3.371   0.691 -17.489  1.00  0.00     0.009 A 
ATOM     84  C   UNL     1       5.463  -0.513 -17.675  1.00  0.00     0.009 A 
ATOM     85  C   UNL     1       3.417   0.972 -18.855  1.00  0.00     0.001 A 
ATOM     86  C   UNL     1       5.518  -0.209 -19.035  1.00  0.00     0.001 A 
ATOM     87  C   UNL     1       4.492   0.527 -19.625  1.00  0.00     0.000 A 
ENDBRANCH  69  82
ENDBRANCH  43  44
ENDBRANCH  35  38
ENDBRANCH  33  34
ENDBRANCH   1  33
TORSDOF 13
