REMARK SMILES Cc1cc(C)cc(OCC(=O)Nc2ccc(O)cc2C(=O)NCCCNC(=O)c2ccc(-c3c4nc(c(-c5ccccc5)c5ccc([nH]5)c(-c5ccccc5)c5nc(c(-c6ccccc6)c6ccc3[nH]6)C=C5)C=C4)cc2)c1
REMARK SMILES IDX 23 1 22 2 20 3 21 4 19 6 13 7 14 8 15 9 18 10 16 11 12 12
REMARK SMILES IDX 10 13 11 14 9 16 8 17 7 18 1 19 2 20 3 21 77 22 4 23 5 24
REMARK SMILES IDX 6 25 17 26 24 28 25 29 26 30 27 31 28 33 29 34 30 35 76 36
REMARK SMILES IDX 31 37 75 38 32 39 33 40 34 41 69 42 35 43 74 44 68 45 70 46
REMARK SMILES IDX 36 47 73 48 67 49 66 50 37 52 59 53 44 54 58 55 45 56 48 57
REMARK SMILES IDX 57 58 71 59 46 60 47 61 56 63 72 64 49 65 38 66 39 67 43 68
REMARK SMILES IDX 40 69 42 70 41 71 60 72 61 73 65 74 62 75 64 76 63 77 50 78
REMARK SMILES IDX 51 79 55 80 52 81 54 82 53 83
REMARK H PARENT 22 5 12 15 17 27 26 32 70 51 48 62
REMARK Flexibility Score: inf
ROOT
ATOM      1  C   UNL     1       2.831  -4.866  -3.111  1.00  0.00     0.118 C 
ENDROOT
BRANCH   1   2
ATOM      2  N   UNL     1       2.195  -5.501  -4.237  1.00  0.00    -0.352 N 
ATOM      3  C   UNL     1       0.863  -5.576  -4.582  1.00  0.00     0.253 C 
ATOM      4  O   UNL     1       0.616  -6.089  -5.676  1.00  0.00    -0.269 OA
ATOM      5  H   UNL     1       2.810  -5.954  -4.858  1.00  0.00     0.163 HD
BRANCH   3   6
ATOM      6  C   UNL     1      -0.293  -5.158  -3.713  1.00  0.00     0.067 A 
ATOM      7  C   UNL     1      -0.371  -4.089  -2.795  1.00  0.00     0.054 A 
ATOM      8  C   UNL     1      -1.549  -3.873  -2.060  1.00  0.00     0.031 A 
ATOM      9  C   UNL     1      -2.662  -4.691  -2.222  1.00  0.00     0.048 A 
ATOM     10  C   UNL     1      -1.436  -5.973  -3.860  1.00  0.00     0.062 A 
ATOM     11  C   UNL     1      -2.597  -5.734  -3.130  1.00  0.00     0.116 A 
BRANCH   7  12
ATOM     12  N   UNL     1       0.638  -3.129  -2.659  1.00  0.00    -0.322 N 
ATOM     13  C   UNL     1       1.305  -2.783  -1.508  1.00  0.00     0.262 C 
ATOM     14  O   UNL     1       2.318  -2.083  -1.629  1.00  0.00    -0.271 OA
ATOM     15  H   UNL     1       0.897  -2.647  -3.478  1.00  0.00     0.170 HD
BRANCH  13  16
ATOM     16  C   UNL     1       0.937  -3.420  -0.136  1.00  0.00     0.329 C 
BRANCH  16  17
ATOM     17  O   UNL     1      -0.056  -2.819   0.685  1.00  0.00    -0.484 OA
BRANCH  17  18
ATOM     18  C   UNL     1      -0.024  -1.451   0.651  1.00  0.00     0.120 A 
ATOM     19  C   UNL     1       2.428   1.396   0.198  1.00  0.00     0.044 C 
ATOM     20  C   UNL     1       1.139   0.644   0.354  1.00  0.00    -0.047 A 
ATOM     21  C   UNL     1      -0.092   1.275   0.141  1.00  0.00     0.007 A 
ATOM     22  C   UNL     1       1.158  -0.713   0.678  1.00  0.00     0.049 A 
ATOM     23  C   UNL     1      -1.293   0.555   0.221  1.00  0.00    -0.047 A 
ATOM     24  C   UNL     1      -2.604   1.243  -0.007  1.00  0.00     0.044 C 
ATOM     25  C   UNL     1      -1.250  -0.815   0.489  1.00  0.00     0.049 A 
ENDBRANCH  17  18
ENDBRANCH  16  17
ENDBRANCH  13  16
ENDBRANCH   7  12
BRANCH  11  26
ATOM     26  O   UNL     1      -3.668  -6.547  -3.347  1.00  0.00    -0.508 OA
ATOM     27  H   UNL     1      -4.464  -6.411  -2.871  1.00  0.00     0.293 HD
ENDBRANCH  11  26
ENDBRANCH   3   6
ENDBRANCH   1   2
BRANCH   1  28
ATOM     28  C   UNL     1       4.124  -5.449  -2.589  1.00  0.00     0.042 C 
BRANCH  28  29
ATOM     29  C   UNL     1       5.284  -5.449  -3.563  1.00  0.00     0.118 C 
BRANCH  29  30
ATOM     30  N   UNL     1       5.766  -4.126  -3.942  1.00  0.00    -0.352 N 
ATOM     31  C   UNL     1       6.866  -3.386  -3.575  1.00  0.00     0.251 C 
ATOM     32  H   UNL     1       5.185  -3.668  -4.592  1.00  0.00     0.163 HD
ATOM     33  O   UNL     1       6.991  -2.247  -4.031  1.00  0.00    -0.269 OA
BRANCH  31  34
ATOM     34  C   UNL     1       7.881  -3.890  -2.619  1.00  0.00     0.039 A 
ATOM     35  C   UNL     1       8.517  -2.982  -1.763  1.00  0.00     0.014 A 
ATOM     36  C   UNL     1       8.242  -5.232  -2.557  1.00  0.00     0.014 A 
ATOM     37  C   UNL     1       9.428  -3.437  -0.804  1.00  0.00     0.010 A 
ATOM     38  C   UNL     1       9.023  -5.704  -1.507  1.00  0.00     0.010 A 
ATOM     39  C   UNL     1       9.646  -4.813  -0.627  1.00  0.00    -0.014 A 
BRANCH  39  40
ATOM     40  C   UNL     1      10.540  -5.338   0.441  1.00  0.00     0.031 A 
ATOM     41  C   UNL     1      11.717  -6.215   0.086  1.00  0.00     0.074 A 
ATOM     42  C   UNL     1      10.265  -5.073   1.734  1.00  0.00     0.049 A 
ATOM     43  N   UNL     1      12.574  -6.808   0.880  1.00  0.00    -0.248 NA
ATOM     44  C   UNL     1      11.943  -6.493  -1.343  1.00  0.00     0.031 C 
ATOM     45  C   UNL     1       9.130  -4.284   2.221  1.00  0.00     0.029 A 
ATOM     46  N   UNL     1      10.926  -5.437   2.882  1.00  0.00    -0.354 N 
ATOM     47  C   UNL     1      13.421  -7.534   0.049  1.00  0.00     0.074 A 
ATOM     48  C   UNL     1      12.932  -7.372  -1.301  1.00  0.00     0.031 C 
ATOM     49  C   UNL     1       9.205  -4.179   3.557  1.00  0.00     0.029 A 
ATOM     50  C   UNL     1      10.360  -4.934   4.029  1.00  0.00     0.049 A 
ATOM     51  H   UNL     1      11.730  -6.006   2.883  1.00  0.00     0.167 HD
ATOM     52  C   UNL     1      14.529  -8.243   0.369  1.00  0.00     0.031 A 
ATOM     53  C   UNL     1      10.729  -5.065   5.317  1.00  0.00     0.031 A 
ATOM     54  C   UNL     1      15.033  -8.388   1.708  1.00  0.00     0.049 A 
ATOM     55  C   UNL     1      11.955  -5.873   5.646  1.00  0.00     0.074 A 
ATOM     56  C   UNL     1      16.174  -9.047   2.132  1.00  0.00     0.029 A 
ATOM     57  N   UNL     1      14.430  -7.859   2.837  1.00  0.00    -0.354 N 
ATOM     58  N   UNL     1      12.780  -6.495   4.838  1.00  0.00    -0.248 NA
ATOM     59  C   UNL     1      12.307  -5.985   7.068  1.00  0.00     0.031 C 
ATOM     60  C   UNL     1      16.233  -8.960   3.526  1.00  0.00     0.029 A 
ATOM     61  C   UNL     1      15.164  -8.193   3.962  1.00  0.00     0.049 A 
ATOM     62  H   UNL     1      13.602  -7.326   2.840  1.00  0.00     0.167 HD
ATOM     63  C   UNL     1      13.765  -7.040   5.650  1.00  0.00     0.074 A 
ATOM     64  C   UNL     1      13.448  -6.655   7.010  1.00  0.00     0.031 C 
ATOM     65  C   UNL     1      14.836  -7.795   5.305  1.00  0.00     0.031 A 
BRANCH  52  66
ATOM     66  C   UNL     1      15.284  -8.902  -0.754  1.00  0.00    -0.014 A 
ATOM     67  C   UNL     1      15.989  -8.139  -1.699  1.00  0.00     0.009 A 
ATOM     68  C   UNL     1      15.334 -10.302  -0.842  1.00  0.00     0.009 A 
ATOM     69  C   UNL     1      16.699  -8.762  -2.727  1.00  0.00     0.001 A 
ATOM     70  C   UNL     1      16.072 -10.923  -1.851  1.00  0.00     0.001 A 
ATOM     71  C   UNL     1      16.747 -10.153  -2.798  1.00  0.00     0.000 A 
ENDBRANCH  52  66
BRANCH  53  72
ATOM     72  C   UNL     1       9.949  -4.408   6.401  1.00  0.00    -0.014 A 
ATOM     73  C   UNL     1      10.514  -3.368   7.157  1.00  0.00     0.009 A 
ATOM     74  C   UNL     1       8.652  -4.842   6.716  1.00  0.00     0.009 A 
ATOM     75  C   UNL     1       9.817  -2.810   8.232  1.00  0.00     0.001 A 
ATOM     76  C   UNL     1       7.942  -4.258   7.768  1.00  0.00     0.001 A 
ATOM     77  C   UNL     1       8.531  -3.254   8.534  1.00  0.00     0.000 A 
ENDBRANCH  53  72
BRANCH  65  78
ATOM     78  C   UNL     1      15.766  -8.211   6.411  1.00  0.00    -0.014 A 
ATOM     79  C   UNL     1      15.379  -9.152   7.379  1.00  0.00     0.009 A 
ATOM     80  C   UNL     1      17.058  -7.667   6.470  1.00  0.00     0.009 A 
ATOM     81  C   UNL     1      16.252  -9.503   8.410  1.00  0.00     0.001 A 
ATOM     82  C   UNL     1      17.942  -8.047   7.481  1.00  0.00     0.001 A 
ATOM     83  C   UNL     1      17.533  -8.954   8.457  1.00  0.00     0.000 A 
ENDBRANCH  65  78
ENDBRANCH  39  40
ENDBRANCH  31  34
ENDBRANCH  29  30
ENDBRANCH  28  29
ENDBRANCH   1  28
TORSDOF 15
