REMARK SMILES C[C@H](NC(=O)c1ccncc1/C=C/C(=O)NCCCNC(=O)c1ccc(-c2c3nc(c(-c4ccccc4)c4ccc([nH]4)c(-c4ccccc4)c4nc(c(-c5ccccc5)c5ccc2[nH]5)C=C4)C=C3)cc1)c1ccco1
REMARK SMILES IDX 17 1 16 2 14 3 15 4 13 6 12 7 11 8 6 9 7 10 8 11 10 12 9 13
REMARK SMILES IDX 4 14 3 15 5 17 2 18 1 19 71 20 72 21 75 22 73 23 74 24 18 25
REMARK SMILES IDX 19 26 20 27 21 28 22 30 23 31 24 32 70 33 25 34 69 35 26 36
REMARK SMILES IDX 27 37 28 38 63 39 29 40 68 41 62 42 64 43 30 44 67 45 61 46
REMARK SMILES IDX 60 47 31 49 53 50 38 51 52 52 39 53 42 54 51 55 65 56 40 57
REMARK SMILES IDX 41 58 50 60 66 61 43 62 32 63 33 64 37 65 34 66 36 67 35 68
REMARK SMILES IDX 54 69 55 70 59 71 56 72 58 73 57 74 44 75 45 76 49 77 46 78
REMARK SMILES IDX 48 79 47 80
REMARK H PARENT 16 5 3 16 20 29 64 48 42 59
REMARK Flexibility Score: inf
ROOT
ATOM      1  C   UNL     1       5.452   2.470  -0.320  1.00  0.00     0.118 C 
ENDROOT
BRANCH   1   2
ATOM      2  N   UNL     1       6.634   2.202   0.482  1.00  0.00    -0.352 N 
ATOM      3  C   UNL     1       7.105   1.036   0.992  1.00  0.00     0.244 C 
ATOM      4  O   UNL     1       8.172   1.024   1.602  1.00  0.00    -0.270 OA
ATOM      5  H   UNL     1       7.181   2.994   0.688  1.00  0.00     0.163 HD
BRANCH   3   6
ATOM      6  C   UNL     1       6.408  -0.243   0.733  1.00  0.00     0.072 C 
ATOM      7  C   UNL     1       5.092  -0.463   0.887  1.00  0.00     0.016 C 
BRANCH   7   8
ATOM      8  C   UNL     1       4.458  -1.752   0.565  1.00  0.00     0.006 A 
ATOM      9  C   UNL     1       3.207  -1.866  -0.060  1.00  0.00     0.050 A 
ATOM     10  C   UNL     1       2.692  -3.122  -0.404  1.00  0.00     0.034 A 
ATOM     11  C   UNL     1       3.399  -4.243  -0.023  1.00  0.00     0.112 A 
ATOM     12  C   UNL     1       5.068  -2.957   0.911  1.00  0.00     0.119 A 
ATOM     13  N   UNL     1       4.565  -4.188   0.646  1.00  0.00    -0.264 NA
BRANCH   9  14
ATOM     14  C   UNL     1       2.397  -0.680  -0.423  1.00  0.00     0.252 C 
ATOM     15  N   UNL     1       1.134  -0.551   0.101  1.00  0.00    -0.342 N 
ATOM     16  H   UNL     1       0.563   0.131  -0.321  1.00  0.00     0.164 HD
ATOM     17  O   UNL     1       2.851   0.164  -1.188  1.00  0.00    -0.269 OA
BRANCH  15  18
ATOM     18  C   UNL     1       0.529  -1.292   1.201  1.00  0.00     0.145 C 
ATOM     19  C   UNL     1       0.940  -0.701   2.545  1.00  0.00     0.039 C 
BRANCH  18  20
ATOM     20  C   UNL     1      -0.953  -1.292   1.029  1.00  0.00     0.125 A 
ATOM     21  C   UNL     1      -1.881  -2.308   0.916  1.00  0.00     0.048 A 
ATOM     22  O   UNL     1      -1.584  -0.081   0.985  1.00  0.00    -0.467 OA
ATOM     23  C   UNL     1      -3.148  -1.685   0.817  1.00  0.00     0.042 A 
ATOM     24  C   UNL     1      -2.913  -0.331   0.862  1.00  0.00     0.195 A 
ENDBRANCH  18  20
ENDBRANCH  15  18
ENDBRANCH   9  14
ENDBRANCH   7   8
ENDBRANCH   3   6
ENDBRANCH   1   2
BRANCH   1  25
ATOM     25  C   UNL     1       4.383   3.170   0.513  1.00  0.00     0.042 C 
BRANCH  25  26
ATOM     26  C   UNL     1       4.715   4.634   0.783  1.00  0.00     0.118 C 
BRANCH  26  27
ATOM     27  N   UNL     1       4.639   5.445  -0.427  1.00  0.00    -0.352 N 
ATOM     28  C   UNL     1       3.855   6.538  -0.699  1.00  0.00     0.251 C 
ATOM     29  H   UNL     1       5.239   5.167  -1.157  1.00  0.00     0.163 HD
ATOM     30  O   UNL     1       3.761   6.966  -1.843  1.00  0.00    -0.269 OA
BRANCH  28  31
ATOM     31  C   UNL     1       3.116   7.195   0.397  1.00  0.00     0.039 A 
ATOM     32  C   UNL     1       1.783   7.564   0.197  1.00  0.00     0.014 A 
ATOM     33  C   UNL     1       3.747   7.451   1.616  1.00  0.00     0.014 A 
ATOM     34  C   UNL     1       1.062   8.137   1.245  1.00  0.00     0.010 A 
ATOM     35  C   UNL     1       3.006   7.946   2.681  1.00  0.00     0.010 A 
ATOM     36  C   UNL     1       1.660   8.302   2.504  1.00  0.00    -0.014 A 
BRANCH  36  37
ATOM     37  C   UNL     1       0.920   8.862   3.660  1.00  0.00     0.031 A 
ATOM     38  C   UNL     1       1.390  10.143   4.289  1.00  0.00     0.074 A 
ATOM     39  C   UNL     1      -0.093   8.168   4.210  1.00  0.00     0.049 A 
ATOM     40  N   UNL     1       0.998  10.713   5.399  1.00  0.00    -0.248 NA
ATOM     41  C   UNL     1       2.475  10.854   3.594  1.00  0.00     0.031 C 
ATOM     42  C   UNL     1      -0.621   6.898   3.710  1.00  0.00     0.029 A 
ATOM     43  N   UNL     1      -0.839   8.421   5.334  1.00  0.00    -0.354 N 
ATOM     44  C   UNL     1       1.809  11.831   5.550  1.00  0.00     0.074 A 
ATOM     45  C   UNL     1       2.747  11.827   4.450  1.00  0.00     0.031 C 
ATOM     46  C   UNL     1      -1.607   6.484   4.521  1.00  0.00     0.029 A 
ATOM     47  C   UNL     1      -1.744   7.430   5.625  1.00  0.00     0.049 A 
ATOM     48  H   UNL     1      -0.735   9.234   5.879  1.00  0.00     0.167 HD
ATOM     49  C   UNL     1       1.767  12.783   6.512  1.00  0.00     0.031 A 
ATOM     50  C   UNL     1      -2.572   7.283   6.676  1.00  0.00     0.031 A 
ATOM     51  C   UNL     1       0.832  12.777   7.605  1.00  0.00     0.049 A 
ATOM     52  C   UNL     1      -2.590   8.335   7.749  1.00  0.00     0.074 A 
ATOM     53  C   UNL     1       0.667  13.720   8.603  1.00  0.00     0.029 A 
ATOM     54  N   UNL     1      -0.091  11.770   7.845  1.00  0.00    -0.354 N 
ATOM     55  N   UNL     1      -1.862   9.421   7.850  1.00  0.00    -0.248 NA
ATOM     56  C   UNL     1      -3.548   8.149   8.848  1.00  0.00     0.031 C 
ATOM     57  C   UNL     1      -0.313  13.252   9.484  1.00  0.00     0.029 A 
ATOM     58  C   UNL     1      -0.810  12.054   8.993  1.00  0.00     0.049 A 
ATOM     59  H   UNL     1      -0.216  10.972   7.283  1.00  0.00     0.167 HD
ATOM     60  C   UNL     1      -2.295  10.065   9.002  1.00  0.00     0.074 A 
ATOM     61  C   UNL     1      -3.351   9.248   9.565  1.00  0.00     0.031 C 
ATOM     62  C   UNL     1      -1.862  11.232   9.538  1.00  0.00     0.031 A 
BRANCH  49  63
ATOM     63  C   UNL     1       2.788  13.886   6.432  1.00  0.00    -0.014 A 
ATOM     64  C   UNL     1       2.783  14.816   5.379  1.00  0.00     0.009 A 
ATOM     65  C   UNL     1       3.779  13.991   7.420  1.00  0.00     0.009 A 
ATOM     66  C   UNL     1       3.784  15.786   5.284  1.00  0.00     0.001 A 
ATOM     67  C   UNL     1       4.755  14.986   7.345  1.00  0.00     0.001 A 
ATOM     68  C   UNL     1       4.767  15.871   6.268  1.00  0.00     0.000 A 
ENDBRANCH  49  63
BRANCH  50  69
ATOM     69  C   UNL     1      -3.448   6.085   6.754  1.00  0.00    -0.014 A 
ATOM     70  C   UNL     1      -4.830   6.196   6.542  1.00  0.00     0.009 A 
ATOM     71  C   UNL     1      -2.899   4.815   6.995  1.00  0.00     0.009 A 
ATOM     72  C   UNL     1      -5.646   5.062   6.583  1.00  0.00     0.001 A 
ATOM     73  C   UNL     1      -3.712   3.680   7.006  1.00  0.00     0.001 A 
ATOM     74  C   UNL     1      -5.085   3.805   6.807  1.00  0.00     0.000 A 
ENDBRANCH  50  69
BRANCH  62  75
ATOM     75  C   UNL     1      -2.556  11.736  10.772  1.00  0.00    -0.014 A 
ATOM     76  C   UNL     1      -2.345  11.145  12.027  1.00  0.00     0.009 A 
ATOM     77  C   UNL     1      -3.362  12.883  10.687  1.00  0.00     0.009 A 
ATOM     78  C   UNL     1      -2.939  11.687  13.169  1.00  0.00     0.001 A 
ATOM     79  C   UNL     1      -3.930  13.439  11.833  1.00  0.00     0.001 A 
ATOM     80  C   UNL     1      -3.721  12.838  13.073  1.00  0.00     0.000 A 
ENDBRANCH  62  75
ENDBRANCH  36  37
ENDBRANCH  28  31
ENDBRANCH  26  27
ENDBRANCH  25  26
ENDBRANCH   1  25
TORSDOF 14
