REMARK SMILES Cc1ccc(C#N)cc1Nc1cc(C)c(N)c(C(=O)NCCCNC(=O)c2ccc(-c3c4nc(c(-c5ccccc5)c5ccc([nH]5)c(-c5ccccc5)c5nc(c(-c6ccccc6)c6ccc3[nH]6)C=C5)C=C4)cc2)c1
REMARK SMILES IDX 21 1 20 2 18 3 19 4 17 6 11 7 12 8 75 9 13 10 14 11 15 12
REMARK SMILES IDX 10 13 9 15 1 16 2 17 3 18 4 19 8 20 5 21 6 22 7 23 16 24
REMARK SMILES IDX 22 27 23 28 24 29 25 30 26 32 27 33 28 34 74 35 29 36 73 37
REMARK SMILES IDX 30 38 31 39 32 40 67 41 33 42 72 43 66 44 68 45 34 46 71 47
REMARK SMILES IDX 65 48 64 49 35 51 57 52 42 53 56 54 43 55 46 56 55 57 69 58
REMARK SMILES IDX 44 59 45 60 54 62 70 63 47 64 36 65 37 66 41 67 38 68 40 69
REMARK SMILES IDX 39 70 58 71 59 72 63 73 60 74 62 75 61 76 48 77 49 78 53 79
REMARK SMILES IDX 50 80 52 81 51 82
REMARK H PARENT 20 5 10 14 16 25 16 26 24 31 68 50 46 61
REMARK Flexibility Score: inf
ROOT
ATOM      1  C   UNL     1      -3.553   1.190  -4.651  1.00  0.00     0.118 C 
ENDROOT
BRANCH   1   2
ATOM      2  N   UNL     1      -3.642   2.466  -5.336  1.00  0.00    -0.352 N 
ATOM      3  C   UNL     1      -2.853   3.588  -5.381  1.00  0.00     0.253 C 
ATOM      4  O   UNL     1      -3.297   4.508  -6.074  1.00  0.00    -0.269 OA
ATOM      5  H   UNL     1      -4.449   2.544  -5.894  1.00  0.00     0.163 HD
BRANCH   3   6
ATOM      6  C   UNL     1      -1.509   3.718  -4.713  1.00  0.00     0.065 A 
ATOM      7  C   UNL     1       0.167   2.877  -3.141  1.00  0.00     0.040 A 
ATOM      8  C   UNL     1       1.067   3.830  -3.604  1.00  0.00     0.031 A 
ATOM      9  C   UNL     1      -1.128   2.881  -3.657  1.00  0.00     0.042 A 
ATOM     10  C   UNL     1       0.699   4.764  -4.592  1.00  0.00    -0.025 A 
ATOM     11  C   UNL     1       1.736   5.791  -4.967  1.00  0.00     0.047 C 
ATOM     12  C   UNL     1      -0.582   4.691  -5.185  1.00  0.00     0.047 A 
BRANCH   7  13
ATOM     13  N   UNL     1       0.589   1.863  -2.261  1.00  0.00    -0.355 N 
ATOM     14  H   UNL     1       0.976   2.170  -1.410  1.00  0.00     0.167 HD
BRANCH  13  15
ATOM     15  C   UNL     1       0.529   0.460  -2.438  1.00  0.00     0.043 A 
ATOM     16  C   UNL     1       1.015   0.081   0.041  1.00  0.00     0.046 C 
ATOM     17  C   UNL     1       0.701  -0.415  -1.345  1.00  0.00    -0.027 A 
ATOM     18  C   UNL     1       0.647  -1.808  -1.547  1.00  0.00     0.007 A 
ATOM     19  C   UNL     1       0.404  -2.341  -2.812  1.00  0.00     0.020 A 
ATOM     20  C   UNL     1       0.261  -0.100  -3.702  1.00  0.00     0.045 A 
ATOM     21  C   UNL     1       0.212  -1.486  -3.894  1.00  0.00     0.054 A 
BRANCH  21  22
ATOM     22  C   UNL     1      -0.008  -2.025  -5.206  1.00  0.00     0.099 C 
ATOM     23  N   UNL     1      -0.182  -2.461  -6.264  1.00  0.00    -0.192 NA
ENDBRANCH  21  22
ENDBRANCH  13  15
ENDBRANCH   7  13
BRANCH  12  24
ATOM     24  N   UNL     1      -0.955   5.622  -6.152  1.00  0.00    -0.398 N 
ATOM     25  H   UNL     1      -0.304   6.290  -6.470  1.00  0.00     0.156 HD
ATOM     26  H   UNL     1      -1.869   5.613  -6.518  1.00  0.00     0.156 HD
ENDBRANCH  12  24
ENDBRANCH   3   6
ENDBRANCH   1   2
BRANCH   1  27
ATOM     27  C   UNL     1      -4.347   1.233  -3.348  1.00  0.00     0.042 C 
BRANCH  27  28
ATOM     28  C   UNL     1      -5.851   1.165  -3.590  1.00  0.00     0.118 C 
BRANCH  28  29
ATOM     29  N   UNL     1      -6.261  -0.125  -4.140  1.00  0.00    -0.352 N 
ATOM     30  C   UNL     1      -7.110  -1.077  -3.632  1.00  0.00     0.251 C 
ATOM     31  H   UNL     1      -5.866  -0.346  -5.014  1.00  0.00     0.163 HD
ATOM     32  O   UNL     1      -7.150  -2.196  -4.133  1.00  0.00    -0.269 OA
BRANCH  30  33
ATOM     33  C   UNL     1      -7.956  -0.756  -2.467  1.00  0.00     0.039 A 
ATOM     34  C   UNL     1      -8.560   0.495  -2.364  1.00  0.00     0.014 A 
ATOM     35  C   UNL     1      -8.132  -1.708  -1.460  1.00  0.00     0.014 A 
ATOM     36  C   UNL     1      -9.153   0.871  -1.169  1.00  0.00     0.010 A 
ATOM     37  C   UNL     1      -8.842  -1.368  -0.306  1.00  0.00     0.010 A 
ATOM     38  C   UNL     1      -9.306  -0.057  -0.125  1.00  0.00    -0.014 A 
BRANCH  38  39
ATOM     39  C   UNL     1      -9.961   0.380   1.134  1.00  0.00     0.031 A 
ATOM     40  C   UNL     1      -9.219   0.358   2.442  1.00  0.00     0.074 A 
ATOM     41  C   UNL     1     -11.216   0.870   1.077  1.00  0.00     0.049 A 
ATOM     42  N   UNL     1      -9.621   0.767   3.620  1.00  0.00    -0.248 NA
ATOM     43  C   UNL     1      -7.854  -0.196   2.438  1.00  0.00     0.031 C 
ATOM     44  C   UNL     1     -12.027   0.957  -0.139  1.00  0.00     0.029 A 
ATOM     45  N   UNL     1     -12.013   1.422   2.047  1.00  0.00    -0.354 N 
ATOM     46  C   UNL     1      -8.571   0.509   4.492  1.00  0.00     0.074 A 
ATOM     47  C   UNL     1      -7.530  -0.134   3.723  1.00  0.00     0.031 C 
ATOM     48  C   UNL     1     -13.170   1.597   0.140  1.00  0.00     0.029 A 
ATOM     49  C   UNL     1     -13.216   1.883   1.569  1.00  0.00     0.049 A 
ATOM     50  H   UNL     1     -11.749   1.483   2.994  1.00  0.00     0.167 HD
ATOM     51  C   UNL     1      -8.479   0.800   5.811  1.00  0.00     0.031 A 
ATOM     52  C   UNL     1     -14.252   2.463   2.204  1.00  0.00     0.031 A 
ATOM     53  C   UNL     1      -9.521   1.449   6.567  1.00  0.00     0.049 A 
ATOM     54  C   UNL     1     -14.147   2.720   3.679  1.00  0.00     0.074 A 
ATOM     55  C   UNL     1      -9.509   1.809   7.904  1.00  0.00     0.029 A 
ATOM     56  N   UNL     1     -10.754   1.833   6.061  1.00  0.00    -0.354 N 
ATOM     57  N   UNL     1     -13.133   2.502   4.483  1.00  0.00    -0.248 NA
ATOM     58  C   UNL     1     -15.320   3.310   4.335  1.00  0.00     0.031 C 
ATOM     59  C   UNL     1     -10.765   2.323   8.227  1.00  0.00     0.029 A 
ATOM     60  C   UNL     1     -11.526   2.386   7.071  1.00  0.00     0.049 A 
ATOM     61  H   UNL     1     -11.038   1.729   5.124  1.00  0.00     0.167 HD
ATOM     62  C   UNL     1     -13.539   2.945   5.735  1.00  0.00     0.074 A 
ATOM     63  C   UNL     1     -14.877   3.475   5.575  1.00  0.00     0.031 C 
ATOM     64  C   UNL     1     -12.862   2.907   6.909  1.00  0.00     0.031 A 
BRANCH  51  65
ATOM     65  C   UNL     1      -7.216   0.423   6.544  1.00  0.00    -0.014 A 
ATOM     66  C   UNL     1      -7.274  -0.507   7.597  1.00  0.00     0.009 A 
ATOM     67  C   UNL     1      -5.997   1.066   6.281  1.00  0.00     0.009 A 
ATOM     68  C   UNL     1      -6.151  -0.760   8.388  1.00  0.00     0.001 A 
ATOM     69  C   UNL     1      -4.864   0.781   7.048  1.00  0.00     0.001 A 
ATOM     70  C   UNL     1      -4.946  -0.118   8.110  1.00  0.00     0.000 A 
ENDBRANCH  51  65
BRANCH  52  71
ATOM     71  C   UNL     1     -15.460   2.848   1.422  1.00  0.00    -0.014 A 
ATOM     72  C   UNL     1     -16.232   1.868   0.773  1.00  0.00     0.009 A 
ATOM     73  C   UNL     1     -15.804   4.196   1.252  1.00  0.00     0.009 A 
ATOM     74  C   UNL     1     -17.288   2.230  -0.064  1.00  0.00     0.001 A 
ATOM     75  C   UNL     1     -16.890   4.554   0.449  1.00  0.00     0.001 A 
ATOM     76  C   UNL     1     -17.620   3.574  -0.222  1.00  0.00     0.000 A 
ENDBRANCH  52  71
BRANCH  64  77
ATOM     77  C   UNL     1     -13.544   3.461   8.134  1.00  0.00    -0.014 A 
ATOM     78  C   UNL     1     -12.993   4.569   8.800  1.00  0.00     0.009 A 
ATOM     79  C   UNL     1     -14.670   2.833   8.689  1.00  0.00     0.009 A 
ATOM     80  C   UNL     1     -13.538   5.021  10.003  1.00  0.00     0.001 A 
ATOM     81  C   UNL     1     -15.242   3.317   9.868  1.00  0.00     0.001 A 
ATOM     82  C   UNL     1     -14.668   4.400  10.531  1.00  0.00     0.000 A 
ENDBRANCH  64  77
ENDBRANCH  38  39
ENDBRANCH  30  33
ENDBRANCH  28  29
ENDBRANCH  27  28
ENDBRANCH   1  27
TORSDOF 14
