REMARK SMILES [NH3+][C@]1(C(=O)NCCCNC(=O)c2ccc(-c3c4nc(c(-c5ccccc5)c5ccc([nH]5)c(-c5ccccc5)c5nc(c(-c6ccccc6)c6ccc3[nH]6)C=C5)C=C4)cc2)CCC[C@@H](Oc2ccc3c(c2)CCC3)C1
REMARK SMILES IDX 7 1 6 2 5 3 3 4 4 5 2 7 60 8 74 9 61 10 63 11 62 12 1 13
REMARK SMILES IDX 64 17 65 18 66 19 70 20 67 21 69 22 68 23 71 24 73 25 72 26
REMARK SMILES IDX 8 27 9 28 10 29 11 31 12 32 13 33 59 34 14 35 58 36 15 37
REMARK SMILES IDX 16 38 17 39 52 40 18 41 57 42 51 43 53 44 19 45 56 46 50 47
REMARK SMILES IDX 49 48 20 50 42 51 27 52 41 53 28 54 31 55 40 56 54 57 29 58
REMARK SMILES IDX 30 59 39 61 55 62 32 63 21 64 22 65 26 66 23 67 25 68 24 69
REMARK SMILES IDX 43 70 44 71 48 72 45 73 47 74 46 75 33 76 34 77 38 78 35 79
REMARK SMILES IDX 37 80 36 81
REMARK H PARENT 5 6 1 14 1 15 1 16 9 30 53 49 31 60
REMARK Flexibility Score: inf
ROOT
ATOM      1  C   UNL     1      -1.956   3.472  -1.958  1.00  0.00     0.042 C 
ENDROOT
BRANCH   1   2
ATOM      2  C   UNL     1      -2.821   2.487  -1.152  1.00  0.00     0.118 C 
BRANCH   2   3
ATOM      3  N   UNL     1      -2.642   1.055  -1.373  1.00  0.00    -0.351 N 
ATOM      4  C   UNL     1      -1.969   0.035  -0.735  1.00  0.00     0.281 C 
ATOM      5  O   UNL     1      -2.252  -1.108  -1.112  1.00  0.00    -0.268 OA
ATOM      6  H   UNL     1      -3.117   0.740  -2.176  1.00  0.00     0.163 HD
BRANCH   4   7
ATOM      7  C   UNL     1      -0.984   0.268   0.463  1.00  0.00     0.177 C 
ATOM      8  C   UNL     1      -0.314  -1.055   0.934  1.00  0.00     0.079 C 
ATOM      9  C   UNL     1       0.093   1.344   0.213  1.00  0.00     0.124 C 
ATOM     10  C   UNL     1       0.927  -1.485   0.151  1.00  0.00     0.011 C 
ATOM     11  C   UNL     1       1.399   0.915  -0.505  1.00  0.00     0.180 C 
ATOM     12  C   UNL     1       1.969  -0.379   0.063  1.00  0.00     0.046 C 
BRANCH   7  13
ATOM     13  N   UNL     1      -1.865   0.646   1.607  1.00  0.00    -0.345 N 
ATOM     14  H   UNL     1      -2.567  -0.080   1.750  1.00  0.00     0.345 HD
ATOM     15  H   UNL     1      -2.329   1.531   1.401  1.00  0.00     0.345 HD
ATOM     16  H   UNL     1      -1.301   0.746   2.451  1.00  0.00     0.345 HD
ENDBRANCH   7  13
BRANCH  11  17
ATOM     17  O   UNL     1       1.472   1.078  -1.938  1.00  0.00    -0.490 OA
BRANCH  17  18
ATOM     18  C   UNL     1       0.958   0.110  -2.747  1.00  0.00     0.120 A 
ATOM     19  C   UNL     1       1.698  -0.982  -3.204  1.00  0.00     0.047 A 
ATOM     20  C   UNL     1      -0.323   0.303  -3.231  1.00  0.00     0.050 A 
ATOM     21  C   UNL     1       1.092  -1.960  -4.016  1.00  0.00     0.008 A 
ATOM     22  C   UNL     1      -0.940  -0.668  -3.996  1.00  0.00    -0.041 A 
ATOM     23  C   UNL     1      -0.240  -1.806  -4.376  1.00  0.00    -0.045 A 
ATOM     24  C   UNL     1      -2.383  -0.753  -4.382  1.00  0.00     0.036 C 
ATOM     25  C   UNL     1      -1.152  -2.767  -5.075  1.00  0.00     0.036 C 
ATOM     26  C   UNL     1      -2.354  -1.871  -5.425  1.00  0.00     0.010 C 
ENDBRANCH  17  18
ENDBRANCH  11  17
ENDBRANCH   4   7
ENDBRANCH   2   3
ENDBRANCH   1   2
BRANCH   1  27
ATOM     27  C   UNL     1      -2.036   3.518  -3.483  1.00  0.00     0.118 C 
BRANCH  27  28
ATOM     28  N   UNL     1      -3.334   3.825  -4.033  1.00  0.00    -0.352 N 
ATOM     29  C   UNL     1      -3.739   4.852  -4.853  1.00  0.00     0.251 C 
ATOM     30  H   UNL     1      -4.048   3.196  -3.779  1.00  0.00     0.163 HD
ATOM     31  O   UNL     1      -4.911   4.892  -5.215  1.00  0.00    -0.269 OA
BRANCH  29  32
ATOM     32  C   UNL     1      -2.819   5.944  -5.262  1.00  0.00     0.039 A 
ATOM     33  C   UNL     1      -3.306   7.253  -5.186  1.00  0.00     0.014 A 
ATOM     34  C   UNL     1      -1.532   5.722  -5.758  1.00  0.00     0.014 A 
ATOM     35  C   UNL     1      -2.491   8.334  -5.539  1.00  0.00     0.010 A 
ATOM     36  C   UNL     1      -0.693   6.807  -6.048  1.00  0.00     0.010 A 
ATOM     37  C   UNL     1      -1.162   8.126  -5.937  1.00  0.00    -0.014 A 
BRANCH  37  38
ATOM     38  C   UNL     1      -0.263   9.282  -6.219  1.00  0.00     0.031 A 
ATOM     39  C   UNL     1       0.292   9.511  -7.600  1.00  0.00     0.074 A 
ATOM     40  C   UNL     1       0.084  10.119  -5.220  1.00  0.00     0.049 A 
ATOM     41  N   UNL     1       1.118  10.441  -8.015  1.00  0.00    -0.248 NA
ATOM     42  C   UNL     1      -0.123   8.567  -8.649  1.00  0.00     0.031 C 
ATOM     43  C   UNL     1      -0.363  10.011  -3.830  1.00  0.00     0.029 A 
ATOM     44  N   UNL     1       0.898  11.227  -5.219  1.00  0.00    -0.354 N 
ATOM     45  C   UNL     1       1.328  10.189  -9.366  1.00  0.00     0.074 A 
ATOM     46  C   UNL     1       0.579   8.993  -9.690  1.00  0.00     0.031 C 
ATOM     47  C   UNL     1       0.165  11.019  -3.118  1.00  0.00     0.029 A 
ATOM     48  C   UNL     1       1.025  11.819  -3.985  1.00  0.00     0.049 A 
ATOM     49  H   UNL     1       1.349  11.565  -6.027  1.00  0.00     0.167 HD
ATOM     50  C   UNL     1       2.061  10.895 -10.261  1.00  0.00     0.031 A 
ATOM     51  C   UNL     1       1.760  12.875  -3.586  1.00  0.00     0.031 A 
ATOM     52  C   UNL     1       2.812  12.083  -9.946  1.00  0.00     0.049 A 
ATOM     53  C   UNL     1       2.604  13.613  -4.590  1.00  0.00     0.074 A 
ATOM     54  C   UNL     1       3.557  12.882 -10.798  1.00  0.00     0.029 A 
ATOM     55  N   UNL     1       2.920  12.640  -8.682  1.00  0.00    -0.354 N 
ATOM     56  N   UNL     1       2.744  13.391  -5.873  1.00  0.00    -0.248 NA
ATOM     57  C   UNL     1       3.382  14.755  -4.088  1.00  0.00     0.031 C 
ATOM     58  C   UNL     1       4.163  13.888 -10.039  1.00  0.00     0.029 A 
ATOM     59  C   UNL     1       3.739  13.757  -8.727  1.00  0.00     0.049 A 
ATOM     60  H   UNL     1       2.480  12.294  -7.872  1.00  0.00     0.167 HD
ATOM     61  C   UNL     1       3.597  14.385  -6.338  1.00  0.00     0.074 A 
ATOM     62  C   UNL     1       3.929  15.219  -5.203  1.00  0.00     0.031 C 
ATOM     63  C   UNL     1       4.061  14.587  -7.595  1.00  0.00     0.031 A 
BRANCH  50  64
ATOM     64  C   UNL     1       2.099  10.393 -11.680  1.00  0.00    -0.014 A 
ATOM     65  C   UNL     1       0.967  10.468 -12.508  1.00  0.00     0.009 A 
ATOM     66  C   UNL     1       3.296   9.889 -12.213  1.00  0.00     0.009 A 
ATOM     67  C   UNL     1       1.024  10.016 -13.828  1.00  0.00     0.001 A 
ATOM     68  C   UNL     1       3.358   9.467 -13.543  1.00  0.00     0.001 A 
ATOM     69  C   UNL     1       2.221   9.522 -14.346  1.00  0.00     0.000 A 
ENDBRANCH  50  64
BRANCH  51  70
ATOM     70  C   UNL     1       1.746  13.301  -2.160  1.00  0.00    -0.014 A 
ATOM     71  C   UNL     1       1.177  14.527  -1.782  1.00  0.00     0.009 A 
ATOM     72  C   UNL     1       2.329  12.493  -1.170  1.00  0.00     0.009 A 
ATOM     73  C   UNL     1       1.226  14.952  -0.452  1.00  0.00     0.001 A 
ATOM     74  C   UNL     1       2.345  12.904   0.164  1.00  0.00     0.001 A 
ATOM     75  C   UNL     1       1.805  14.138   0.520  1.00  0.00     0.000 A 
ENDBRANCH  51  70
BRANCH  63  76
ATOM     76  C   UNL     1       4.939  15.787  -7.826  1.00  0.00    -0.014 A 
ATOM     77  C   UNL     1       6.251  15.845  -7.329  1.00  0.00     0.009 A 
ATOM     78  C   UNL     1       4.456  16.861  -8.591  1.00  0.00     0.009 A 
ATOM     79  C   UNL     1       7.047  16.969  -7.565  1.00  0.00     0.001 A 
ATOM     80  C   UNL     1       5.264  17.968  -8.853  1.00  0.00     0.001 A 
ATOM     81  C   UNL     1       6.555  18.025  -8.331  1.00  0.00     0.000 A 
ENDBRANCH  63  76
ENDBRANCH  37  38
ENDBRANCH  29  32
ENDBRANCH  27  28
ENDBRANCH   1  27
TORSDOF 13
