REMARK SMILES CCN1C[C@@H](C(=O)NCCCNC(=O)c2ccc(-c3c4nc(c(-c5ccccc5)c5ccc([nH]5)c(-c5ccccc5)c5nc(c(-c6ccccc6)c6ccc3[nH]6)C=C5)C=C4)cc2)CC1=O
REMARK SMILES IDX 10 1 9 2 8 3 6 4 7 5 5 7 3 8 4 9 64 10 63 11 65 12 2 13 1 14
REMARK SMILES IDX 11 15 12 16 13 17 14 19 15 20 16 21 62 22 17 23 61 24 18 25
REMARK SMILES IDX 19 26 20 27 55 28 21 29 60 30 54 31 56 32 22 33 59 34 53 35
REMARK SMILES IDX 52 36 23 38 45 39 30 40 44 41 31 42 34 43 43 44 57 45 32 46
REMARK SMILES IDX 33 47 42 49 58 50 35 51 24 52 25 53 29 54 26 55 28 56 27 57
REMARK SMILES IDX 46 58 47 59 51 60 48 61 50 62 49 63 36 64 37 65 41 66 38 67
REMARK SMILES IDX 40 68 39 69
REMARK H PARENT 8 6 12 18 56 37 34 48
REMARK Flexibility Score: inf
ROOT
ATOM      1  C   UNL     1      -1.318   3.308   5.556  1.00  0.00     0.042 C 
ENDROOT
BRANCH   1   2
ATOM      2  C   UNL     1      -1.272   3.312   4.034  1.00  0.00     0.117 C 
BRANCH   2   3
ATOM      3  N   UNL     1      -0.582   4.479   3.510  1.00  0.00    -0.356 N 
ATOM      4  C   UNL     1       0.572   4.606   2.807  1.00  0.00     0.225 C 
ATOM      5  O   UNL     1       0.925   5.749   2.506  1.00  0.00    -0.275 OA
ATOM      6  H   UNL     1      -1.033   5.333   3.700  1.00  0.00     0.163 HD
BRANCH   4   7
ATOM      7  C   UNL     1       1.406   3.420   2.376  1.00  0.00     0.107 C 
ATOM      8  N   UNL     1       0.995   1.153   1.928  1.00  0.00    -0.342 N 
ATOM      9  C   UNL     1       0.647   2.473   1.464  1.00  0.00     0.133 C 
ATOM     10  C   UNL     1       1.729   1.158   3.098  1.00  0.00     0.223 C 
ATOM     11  C   UNL     1       1.961   2.582   3.522  1.00  0.00     0.115 C 
ATOM     12  O   UNL     1       2.111   0.180   3.724  1.00  0.00    -0.275 OA
BRANCH   8  13
ATOM     13  C   UNL     1       0.510  -0.055   1.280  1.00  0.00     0.116 C 
ATOM     14  C   UNL     1       0.996  -0.186  -0.152  1.00  0.00     0.027 C 
ENDBRANCH   8  13
ENDBRANCH   4   7
ENDBRANCH   2   3
ENDBRANCH   1   2
BRANCH   1  15
ATOM     15  C   UNL     1      -2.087   4.478   6.158  1.00  0.00     0.118 C 
BRANCH  15  16
ATOM     16  N   UNL     1      -3.501   4.467   5.806  1.00  0.00    -0.352 N 
ATOM     17  C   UNL     1      -4.611   4.358   6.606  1.00  0.00     0.251 C 
ATOM     18  H   UNL     1      -3.689   4.551   4.843  1.00  0.00     0.163 HD
ATOM     19  O   UNL     1      -5.713   4.181   6.096  1.00  0.00    -0.269 OA
BRANCH  17  20
ATOM     20  C   UNL     1      -4.485   4.429   8.078  1.00  0.00     0.039 A 
ATOM     21  C   UNL     1      -5.230   3.546   8.863  1.00  0.00     0.014 A 
ATOM     22  C   UNL     1      -3.648   5.368   8.686  1.00  0.00     0.014 A 
ATOM     23  C   UNL     1      -5.080   3.558  10.252  1.00  0.00     0.010 A 
ATOM     24  C   UNL     1      -3.429   5.315  10.059  1.00  0.00     0.010 A 
ATOM     25  C   UNL     1      -4.146   4.413  10.858  1.00  0.00    -0.014 A 
BRANCH  25  26
ATOM     26  C   UNL     1      -3.904   4.378  12.323  1.00  0.00     0.031 A 
ATOM     27  C   UNL     1      -4.178   5.592  13.168  1.00  0.00     0.074 A 
ATOM     28  C   UNL     1      -3.375   3.272  12.884  1.00  0.00     0.049 A 
ATOM     29  N   UNL     1      -3.975   5.769  14.450  1.00  0.00    -0.248 NA
ATOM     30  C   UNL     1      -4.728   6.771  12.480  1.00  0.00     0.031 C 
ATOM     31  C   UNL     1      -3.025   2.042  12.171  1.00  0.00     0.029 A 
ATOM     32  N   UNL     1      -3.034   3.007  14.187  1.00  0.00    -0.354 N 
ATOM     33  C   UNL     1      -4.355   7.079  14.715  1.00  0.00     0.074 A 
ATOM     34  C   UNL     1      -4.749   7.668  13.455  1.00  0.00     0.031 C 
ATOM     35  C   UNL     1      -2.549   1.145  13.048  1.00  0.00     0.029 A 
ATOM     36  C   UNL     1      -2.514   1.749  14.376  1.00  0.00     0.049 A 
ATOM     37  H   UNL     1      -3.151   3.657  14.918  1.00  0.00     0.167 HD
ATOM     38  C   UNL     1      -4.392   7.728  15.903  1.00  0.00     0.031 A 
ATOM     39  C   UNL     1      -2.050   1.151  15.489  1.00  0.00     0.031 A 
ATOM     40  C   UNL     1      -4.005   7.139  17.158  1.00  0.00     0.049 A 
ATOM     41  C   UNL     1      -2.079   1.902  16.792  1.00  0.00     0.074 A 
ATOM     42  C   UNL     1      -4.061   7.697  18.424  1.00  0.00     0.029 A 
ATOM     43  N   UNL     1      -3.485   5.863  17.305  1.00  0.00    -0.354 N 
ATOM     44  N   UNL     1      -2.511   3.115  17.037  1.00  0.00    -0.248 NA
ATOM     45  C   UNL     1      -1.567   1.194  17.973  1.00  0.00     0.031 C 
ATOM     46  C   UNL     1      -3.515   6.780  19.328  1.00  0.00     0.029 A 
ATOM     47  C   UNL     1      -3.186   5.626  18.636  1.00  0.00     0.049 A 
ATOM     48  H   UNL     1      -3.349   5.220  16.571  1.00  0.00     0.167 HD
ATOM     49  C   UNL     1      -2.351   3.305  18.404  1.00  0.00     0.074 A 
ATOM     50  C   UNL     1      -1.800   2.075  18.936  1.00  0.00     0.031 C 
ATOM     51  C   UNL     1      -2.636   4.399  19.152  1.00  0.00     0.031 A 
BRANCH  38  52
ATOM     52  C   UNL     1      -4.859   9.158  15.899  1.00  0.00    -0.014 A 
ATOM     53  C   UNL     1      -6.195   9.490  15.622  1.00  0.00     0.009 A 
ATOM     54  C   UNL     1      -3.958  10.187  16.215  1.00  0.00     0.009 A 
ATOM     55  C   UNL     1      -6.609  10.824  15.624  1.00  0.00     0.001 A 
ATOM     56  C   UNL     1      -4.381  11.517  16.248  1.00  0.00     0.001 A 
ATOM     57  C   UNL     1      -5.704  11.835  15.942  1.00  0.00     0.000 A 
ENDBRANCH  38  52
BRANCH  39  58
ATOM     58  C   UNL     1      -1.524  -0.239  15.426  1.00  0.00    -0.014 A 
ATOM     59  C   UNL     1      -2.216  -1.294  16.041  1.00  0.00     0.009 A 
ATOM     60  C   UNL     1      -0.321  -0.517  14.758  1.00  0.00     0.009 A 
ATOM     61  C   UNL     1      -1.699  -2.591  16.015  1.00  0.00     0.001 A 
ATOM     62  C   UNL     1       0.176  -1.821  14.705  1.00  0.00     0.001 A 
ATOM     63  C   UNL     1      -0.507  -2.855  15.343  1.00  0.00     0.000 A 
ENDBRANCH  39  58
BRANCH  51  64
ATOM     64  C   UNL     1      -2.396   4.303  20.633  1.00  0.00    -0.014 A 
ATOM     65  C   UNL     1      -1.097   4.265  21.165  1.00  0.00     0.009 A 
ATOM     66  C   UNL     1      -3.490   4.293  21.512  1.00  0.00     0.009 A 
ATOM     67  C   UNL     1      -0.902   4.181  22.545  1.00  0.00     0.001 A 
ATOM     68  C   UNL     1      -3.292   4.245  22.893  1.00  0.00     0.001 A 
ATOM     69  C   UNL     1      -1.998   4.177  23.407  1.00  0.00     0.000 A 
ENDBRANCH  51  64
ENDBRANCH  25  26
ENDBRANCH  17  20
ENDBRANCH  15  16
ENDBRANCH   1  15
TORSDOF 11
