REMARK SMILES Cc1ccnc(C(=O)c2[nH]c3ccc(OC(F)(F)F)cc3c2CC(=O)NCCCNC(=O)c2ccc(-c3c4nc(c(-c5ccccc5)c5ccc([nH]5)c(-c5ccccc5)c5nc(c(-c6ccccc6)c6ccc3[nH]6)C=C5)C=C4)cc2)c1
REMARK SMILES IDX 27 1 26 2 24 3 25 4 23 6 22 7 9 8 10 9 11 10 21 12 12 13
REMARK SMILES IDX 20 14 13 15 14 16 7 17 8 18 6 19 1 20 2 21 3 22 81 23 4 24
REMARK SMILES IDX 5 25 15 26 16 27 17 28 18 29 19 30 28 31 29 32 30 33 31 34
REMARK SMILES IDX 32 36 33 37 34 38 80 39 35 40 79 41 36 42 37 43 38 44 73 45
REMARK SMILES IDX 39 46 78 47 72 48 74 49 40 50 77 51 71 52 70 53 41 55 63 56
REMARK SMILES IDX 48 57 62 58 49 59 52 60 61 61 75 62 50 63 51 64 60 66 76 67
REMARK SMILES IDX 53 68 42 69 43 70 47 71 44 72 46 73 45 74 64 75 65 76 69 77
REMARK SMILES IDX 66 78 68 79 67 80 54 81 55 82 59 83 56 84 58 85 57 86
REMARK H PARENT 26 5 10 11 30 35 74 54 52 65
REMARK Flexibility Score: inf
ROOT
ATOM      1  C   UNL     1       3.580  -6.928   1.053  1.00  0.00     0.117 C 
ENDROOT
BRANCH   1   2
ATOM      2  N   UNL     1       3.991  -5.569   1.351  1.00  0.00    -0.356 N 
ATOM      3  C   UNL     1       3.256  -4.521   1.825  1.00  0.00     0.224 C 
ATOM      4  O   UNL     1       3.841  -3.471   2.100  1.00  0.00    -0.275 OA
ATOM      5  H   UNL     1       4.942  -5.374   1.188  1.00  0.00     0.163 HD
BRANCH   3   6
ATOM      6  C   UNL     1       1.768  -4.670   2.081  1.00  0.00     0.138 C 
BRANCH   6   7
ATOM      7  C   UNL     1       0.929  -4.784   0.840  1.00  0.00    -0.002 A 
ATOM      8  C   UNL     1       0.908  -3.929  -0.256  1.00  0.00     0.093 A 
ATOM      9  N   UNL     1       0.026  -4.448  -1.173  1.00  0.00    -0.352 N 
ATOM     10  C   UNL     1      -0.576  -5.579  -0.682  1.00  0.00     0.046 A 
ATOM     11  H   UNL     1      -0.150  -4.062  -2.062  1.00  0.00     0.167 HD
ATOM     12  C   UNL     1      -0.037  -5.815   0.579  1.00  0.00     0.008 A 
ATOM     13  C   UNL     1      -1.535  -6.410  -1.265  1.00  0.00     0.030 A 
ATOM     14  C   UNL     1      -0.488  -6.945   1.292  1.00  0.00     0.057 A 
ATOM     15  C   UNL     1      -1.961  -7.529  -0.536  1.00  0.00     0.049 A 
ATOM     16  C   UNL     1      -1.445  -7.804   0.729  1.00  0.00     0.130 A 
BRANCH   8  17
ATOM     17  C   UNL     1       1.688  -2.736  -0.534  1.00  0.00     0.227 C 
ATOM     18  O   UNL     1       2.824  -2.828  -0.993  1.00  0.00    -0.285 OA
BRANCH  17  19
ATOM     19  C   UNL     1       1.020  -1.392  -0.353  1.00  0.00     0.113 A 
ATOM     20  C   UNL     1      -2.228   0.173   0.834  1.00  0.00     0.044 C 
ATOM     21  C   UNL     1      -0.853  -0.008   0.265  1.00  0.00    -0.047 A 
ATOM     22  C   UNL     1      -0.129   1.096  -0.188  1.00  0.00     0.023 A 
ATOM     23  C   UNL     1      -0.257  -1.272   0.198  1.00  0.00     0.036 A 
ATOM     24  C   UNL     1       1.138   0.891  -0.708  1.00  0.00     0.112 A 
ATOM     25  N   UNL     1       1.718  -0.322  -0.815  1.00  0.00    -0.253 NA
ENDBRANCH  17  19
ENDBRANCH   8  17
BRANCH  16  26
ATOM     26  O   UNL     1      -1.776  -8.865   1.525  1.00  0.00    -0.406 OA
BRANCH  26  27
ATOM     27  C   UNL     1      -2.688  -9.819   1.011  1.00  0.00     0.573 C 
ATOM     28  F   UNL     1      -3.894  -9.259   0.772  1.00  0.00    -0.132 F 
ATOM     29  F   UNL     1      -2.219 -10.383  -0.123  1.00  0.00    -0.132 F 
ATOM     30  F   UNL     1      -2.854 -10.797   1.928  1.00  0.00    -0.132 F 
ENDBRANCH  26  27
ENDBRANCH  16  26
ENDBRANCH   6   7
ENDBRANCH   3   6
ENDBRANCH   1   2
BRANCH   1  31
ATOM     31  C   UNL     1       3.277  -7.165  -0.424  1.00  0.00     0.042 C 
BRANCH  31  32
ATOM     32  C   UNL     1       4.455  -6.939  -1.369  1.00  0.00     0.118 C 
BRANCH  32  33
ATOM     33  N   UNL     1       5.495  -7.944  -1.215  1.00  0.00    -0.352 N 
ATOM     34  C   UNL     1       6.039  -8.804  -2.135  1.00  0.00     0.251 C 
ATOM     35  H   UNL     1       5.867  -8.019  -0.306  1.00  0.00     0.163 HD
ATOM     36  O   UNL     1       6.795  -9.695  -1.756  1.00  0.00    -0.269 OA
BRANCH  34  37
ATOM     37  C   UNL     1       5.723  -8.689  -3.578  1.00  0.00     0.039 A 
ATOM     38  C   UNL     1       5.472  -9.863  -4.299  1.00  0.00     0.014 A 
ATOM     39  C   UNL     1       5.751  -7.459  -4.242  1.00  0.00     0.014 A 
ATOM     40  C   UNL     1       5.201  -9.802  -5.668  1.00  0.00     0.010 A 
ATOM     41  C   UNL     1       5.454  -7.394  -5.606  1.00  0.00     0.010 A 
ATOM     42  C   UNL     1       5.176  -8.565  -6.328  1.00  0.00    -0.014 A 
BRANCH  42  43
ATOM     43  C   UNL     1       4.874  -8.481  -7.776  1.00  0.00     0.031 A 
ATOM     44  C   UNL     1       5.971  -8.217  -8.765  1.00  0.00     0.074 A 
ATOM     45  C   UNL     1       3.606  -8.611  -8.207  1.00  0.00     0.049 A 
ATOM     46  N   UNL     1       5.880  -7.968 -10.048  1.00  0.00    -0.248 NA
ATOM     47  C   UNL     1       7.346  -8.225  -8.244  1.00  0.00     0.031 C 
ATOM     48  C   UNL     1       2.442  -8.876  -7.359  1.00  0.00     0.029 A 
ATOM     49  N   UNL     1       3.087  -8.531  -9.475  1.00  0.00    -0.354 N 
ATOM     50  C   UNL     1       7.180  -7.750 -10.480  1.00  0.00     0.074 A 
ATOM     51  C   UNL     1       8.044  -7.919  -9.330  1.00  0.00     0.031 C 
ATOM     52  C   UNL     1       1.346  -8.948  -8.133  1.00  0.00     0.029 A 
ATOM     53  C   UNL     1       1.728  -8.710  -9.523  1.00  0.00     0.049 A 
ATOM     54  H   UNL     1       3.638  -8.362 -10.273  1.00  0.00     0.167 HD
ATOM     55  C   UNL     1       7.617  -7.426 -11.720  1.00  0.00     0.031 A 
ATOM     56  C   UNL     1       0.881  -8.672 -10.567  1.00  0.00     0.031 A 
ATOM     57  C   UNL     1       6.778  -7.283 -12.877  1.00  0.00     0.049 A 
ATOM     58  C   UNL     1       1.396  -8.364 -11.941  1.00  0.00     0.074 A 
ATOM     59  C   UNL     1       7.136  -6.925 -14.167  1.00  0.00     0.029 A 
ATOM     60  N   UNL     1       5.414  -7.515 -12.890  1.00  0.00    -0.354 N 
ATOM     61  N   UNL     1       2.619  -8.091 -12.319  1.00  0.00    -0.248 NA
ATOM     62  C   UNL     1       0.406  -8.348 -13.028  1.00  0.00     0.031 C 
ATOM     63  C   UNL     1       5.983  -6.950 -14.963  1.00  0.00     0.029 A 
ATOM     64  C   UNL     1       4.914  -7.324 -14.166  1.00  0.00     0.049 A 
ATOM     65  H   UNL     1       4.878  -7.777 -12.106  1.00  0.00     0.167 HD
ATOM     66  C   UNL     1       2.546  -7.852 -13.684  1.00  0.00     0.074 A 
ATOM     67  C   UNL     1       1.161  -8.029 -14.072  1.00  0.00     0.031 C 
ATOM     68  C   UNL     1       3.538  -7.505 -14.536  1.00  0.00     0.031 A 
BRANCH  55  69
ATOM     69  C   UNL     1       9.085  -7.180 -11.874  1.00  0.00    -0.014 A 
ATOM     70  C   UNL     1       9.957  -8.231 -12.190  1.00  0.00     0.009 A 
ATOM     71  C   UNL     1       9.597  -5.883 -11.715  1.00  0.00     0.009 A 
ATOM     72  C   UNL     1      11.325  -7.988 -12.330  1.00  0.00     0.001 A 
ATOM     73  C   UNL     1      10.964  -5.645 -11.858  1.00  0.00     0.001 A 
ATOM     74  C   UNL     1      11.827  -6.697 -12.162  1.00  0.00     0.000 A 
ENDBRANCH  55  69
BRANCH  56  75
ATOM     75  C   UNL     1      -0.562  -8.912 -10.347  1.00  0.00    -0.014 A 
ATOM     76  C   UNL     1      -1.086 -10.208 -10.450  1.00  0.00     0.009 A 
ATOM     77  C   UNL     1      -1.417  -7.846 -10.033  1.00  0.00     0.009 A 
ATOM     78  C   UNL     1      -2.449 -10.432 -10.250  1.00  0.00     0.001 A 
ATOM     79  C   UNL     1      -2.779  -8.075  -9.831  1.00  0.00     0.001 A 
ATOM     80  C   UNL     1      -3.293  -9.366  -9.942  1.00  0.00     0.000 A 
ENDBRANCH  56  75
BRANCH  68  81
ATOM     81  C   UNL     1       3.153  -7.285 -15.966  1.00  0.00    -0.014 A 
ATOM     82  C   UNL     1       2.766  -6.010 -16.403  1.00  0.00     0.009 A 
ATOM     83  C   UNL     1       3.192  -8.345 -16.881  1.00  0.00     0.009 A 
ATOM     84  C   UNL     1       2.409  -5.803 -17.736  1.00  0.00     0.001 A 
ATOM     85  C   UNL     1       2.834  -8.134 -18.214  1.00  0.00     0.001 A 
ATOM     86  C   UNL     1       2.441  -6.865 -18.640  1.00  0.00     0.000 A 
ENDBRANCH  68  81
ENDBRANCH  42  43
ENDBRANCH  34  37
ENDBRANCH  32  33
ENDBRANCH  31  32
ENDBRANCH   1  31
TORSDOF 15
