REMARK SMILES CC[N@@H+]1CC[C@H](C[NH2+]Cc2ccc(C(=O)NCCCNC(=O)c3ccc(-c4c5nc(c(-c6ccccc6)c6ccc([nH]6)c(-c6ccccc6)c6nc(c(-c7ccccc7)c7ccc4[nH]7)C=C6)C=C5)cc3)cn2)C1
REMARK SMILES IDX 14 1 15 2 16 3 13 5 10 6 11 7 72 8 12 9 71 10 9 11 8 12 7 15
REMARK SMILES IDX 6 16 3 17 4 18 73 19 5 21 2 22 1 23 17 24 18 25 19 26 20 27
REMARK SMILES IDX 21 28 22 30 23 31 24 32 70 33 25 34 69 35 26 36 27 37 28 38
REMARK SMILES IDX 63 39 29 40 68 41 62 42 64 43 30 44 67 45 61 46 60 47 31 49
REMARK SMILES IDX 53 50 38 51 52 52 39 53 42 54 51 55 65 56 40 57 41 58 50 60
REMARK SMILES IDX 66 61 43 62 32 63 33 64 37 65 34 66 36 67 35 68 54 69 55 70
REMARK SMILES IDX 59 71 56 72 58 73 57 74 44 75 45 76 49 77 46 78 48 79 47 80
REMARK H PARENT 16 4 8 13 8 14 3 20 20 29 64 48 42 59
REMARK Flexibility Score: inf
ROOT
ATOM      1  C   UNL     1      -3.138   0.987   7.379  1.00  0.00     0.252 C 
ATOM      2  O   UNL     1      -4.149   1.557   7.786  1.00  0.00    -0.269 OA
ATOM      3  N   UNL     1      -3.230  -0.349   7.086  1.00  0.00    -0.352 N 
ATOM      4  H   UNL     1      -4.102  -0.749   7.306  1.00  0.00     0.163 HD
ENDROOT
BRANCH   1   5
ATOM      5  C   UNL     1      -1.903   1.775   7.180  1.00  0.00     0.058 A 
ATOM      6  C   UNL     1       0.234   3.465   6.706  1.00  0.00     0.094 A 
ATOM      7  C   UNL     1       0.478   2.157   7.121  1.00  0.00     0.030 A 
ATOM      8  N   UNL     1      -1.023   3.951   6.562  1.00  0.00    -0.255 NA
ATOM      9  C   UNL     1      -0.604   1.311   7.371  1.00  0.00     0.017 A 
ATOM     10  C   UNL     1      -2.054   3.107   6.814  1.00  0.00     0.125 A 
BRANCH   6  11
ATOM     11  C   UNL     1       1.378   4.374   6.293  1.00  0.00     0.317 C 
BRANCH  11  12
ATOM     12  N   UNL     1       2.058   3.968   5.048  1.00  0.00    -0.341 N 
ATOM     13  H   UNL     1       2.811   4.628   4.853  1.00  0.00     0.346 HD
ATOM     14  H   UNL     1       2.424   3.025   5.178  1.00  0.00     0.346 HD
BRANCH  12  15
ATOM     15  C   UNL     1       1.134   3.948   3.907  1.00  0.00     0.270 C 
BRANCH  15  16
ATOM     16  C   UNL     1       1.840   3.525   2.616  1.00  0.00     0.105 C 
ATOM     17  N   UNL     1       1.276   2.158   0.682  1.00  0.00    -0.335 N 
ATOM     18  C   UNL     1       2.581   1.758   1.232  1.00  0.00     0.262 C 
ATOM     19  C   UNL     1       0.857   3.353   1.450  1.00  0.00     0.271 C 
ATOM     20  H   UNL     1       1.357   2.360  -0.315  1.00  0.00     0.348 HD
ATOM     21  C   UNL     1       2.542   2.177   2.688  1.00  0.00     0.076 C 
BRANCH  17  22
ATOM     22  C   UNL     1       0.273   1.086   0.777  1.00  0.00     0.258 C 
ATOM     23  C   UNL     1       0.504  -0.009  -0.260  1.00  0.00     0.071 C 
ENDBRANCH  17  22
ENDBRANCH  15  16
ENDBRANCH  12  15
ENDBRANCH  11  12
ENDBRANCH   6  11
ENDBRANCH   1   5
BRANCH   3  24
ATOM     24  C   UNL     1      -2.280  -1.285   6.512  1.00  0.00     0.118 C 
BRANCH  24  25
ATOM     25  C   UNL     1      -1.684  -2.200   7.581  1.00  0.00     0.042 C 
BRANCH  25  26
ATOM     26  C   UNL     1      -2.675  -3.215   8.149  1.00  0.00     0.118 C 
BRANCH  26  27
ATOM     27  N   UNL     1      -3.033  -4.236   7.179  1.00  0.00    -0.352 N 
ATOM     28  C   UNL     1      -2.965  -5.604   7.260  1.00  0.00     0.251 C 
ATOM     29  H   UNL     1      -3.381  -3.890   6.326  1.00  0.00     0.163 HD
ATOM     30  O   UNL     1      -3.128  -6.268   6.240  1.00  0.00    -0.269 OA
BRANCH  28  31
ATOM     31  C   UNL     1      -2.693  -6.294   8.543  1.00  0.00     0.039 A 
ATOM     32  C   UNL     1      -1.920  -7.460   8.515  1.00  0.00     0.014 A 
ATOM     33  C   UNL     1      -3.252  -5.864   9.750  1.00  0.00     0.014 A 
ATOM     34  C   UNL     1      -1.685  -8.174   9.692  1.00  0.00     0.010 A 
ATOM     35  C   UNL     1      -2.964  -6.542  10.937  1.00  0.00     0.010 A 
ATOM     36  C   UNL     1      -2.192  -7.713  10.917  1.00  0.00    -0.014 A 
BRANCH  36  37
ATOM     37  C   UNL     1      -1.938  -8.465  12.172  1.00  0.00     0.031 A 
ATOM     38  C   UNL     1      -3.068  -9.138  12.902  1.00  0.00     0.074 A 
ATOM     39  C   UNL     1      -0.688  -8.522  12.671  1.00  0.00     0.049 A 
ATOM     40  N   UNL     1      -3.035  -9.842  14.007  1.00  0.00    -0.248 NA
ATOM     41  C   UNL     1      -4.415  -8.984  12.330  1.00  0.00     0.031 C 
ATOM     42  C   UNL     1       0.490  -7.882  12.083  1.00  0.00     0.029 A 
ATOM     43  N   UNL     1      -0.201  -9.154  13.788  1.00  0.00    -0.354 N 
ATOM     44  C   UNL     1      -4.352 -10.198  14.269  1.00  0.00     0.074 A 
ATOM     45  C   UNL     1      -5.165  -9.598  13.234  1.00  0.00     0.031 C 
ATOM     46  C   UNL     1       1.568  -8.180  12.826  1.00  0.00     0.029 A 
ATOM     47  C   UNL     1       1.154  -9.008  13.954  1.00  0.00     0.049 A 
ATOM     48  H   UNL     1      -0.769  -9.664  14.410  1.00  0.00     0.167 HD
ATOM     49  C   UNL     1      -4.841 -10.969  15.270  1.00  0.00     0.031 A 
ATOM     50  C   UNL     1       1.975  -9.493  14.905  1.00  0.00     0.031 A 
ATOM     51  C   UNL     1      -4.035 -11.581  16.293  1.00  0.00     0.049 A 
ATOM     52  C   UNL     1       1.412 -10.364  15.991  1.00  0.00     0.074 A 
ATOM     53  C   UNL     1      -4.433 -12.417  17.322  1.00  0.00     0.029 A 
ATOM     54  N   UNL     1      -2.664 -11.423  16.414  1.00  0.00    -0.354 N 
ATOM     55  N   UNL     1       0.172 -10.740  16.189  1.00  0.00    -0.248 NA
ATOM     56  C   UNL     1       2.369 -10.895  16.973  1.00  0.00     0.031 C 
ATOM     57  C   UNL     1      -3.306 -12.738  18.087  1.00  0.00     0.029 A 
ATOM     58  C   UNL     1      -2.200 -12.138  17.506  1.00  0.00     0.049 A 
ATOM     59  H   UNL     1      -2.102 -10.883  15.812  1.00  0.00     0.167 HD
ATOM     60  C   UNL     1       0.203 -11.574  17.299  1.00  0.00     0.074 A 
ATOM     61  C   UNL     1       1.586 -11.659  17.722  1.00  0.00     0.031 C 
ATOM     62  C   UNL     1      -0.822 -12.213  17.913  1.00  0.00     0.031 A 
BRANCH  49  63
ATOM     63  C   UNL     1      -6.328 -11.190  15.306  1.00  0.00    -0.014 A 
ATOM     64  C   UNL     1      -6.964 -12.007  14.357  1.00  0.00     0.009 A 
ATOM     65  C   UNL     1      -7.100 -10.597  16.317  1.00  0.00     0.009 A 
ATOM     66  C   UNL     1      -8.348 -12.194  14.398  1.00  0.00     0.001 A 
ATOM     67  C   UNL     1      -8.479 -10.807  16.371  1.00  0.00     0.001 A 
ATOM     68  C   UNL     1      -9.103 -11.598  15.407  1.00  0.00     0.000 A 
ENDBRANCH  49  63
BRANCH  50  69
ATOM     69  C   UNL     1       3.429  -9.198  14.848  1.00  0.00    -0.014 A 
ATOM     70  C   UNL     1       4.342 -10.198  14.481  1.00  0.00     0.009 A 
ATOM     71  C   UNL     1       3.911  -7.917  15.159  1.00  0.00     0.009 A 
ATOM     72  C   UNL     1       5.712  -9.928  14.451  1.00  0.00     0.001 A 
ATOM     73  C   UNL     1       5.279  -7.644  15.103  1.00  0.00     0.001 A 
ATOM     74  C   UNL     1       6.179  -8.651  14.758  1.00  0.00     0.000 A 
ENDBRANCH  50  69
BRANCH  62  75
ATOM     75  C   UNL     1      -0.477 -13.090  19.082  1.00  0.00    -0.014 A 
ATOM     76  C   UNL     1      -0.109 -12.543  20.321  1.00  0.00     0.009 A 
ATOM     77  C   UNL     1      -0.540 -14.486  18.944  1.00  0.00     0.009 A 
ATOM     78  C   UNL     1       0.227 -13.379  21.388  1.00  0.00     0.001 A 
ATOM     79  C   UNL     1      -0.229 -15.318  20.020  1.00  0.00     0.001 A 
ATOM     80  C   UNL     1       0.164 -14.764  21.237  1.00  0.00     0.000 A 
ENDBRANCH  62  75
ENDBRANCH  36  37
ENDBRANCH  28  31
ENDBRANCH  26  27
ENDBRANCH  25  26
ENDBRANCH  24  25
ENDBRANCH   3  24
TORSDOF 15
