REMARK SMILES NC(=O)c1ccc(NC(=O)Cc2ccccc2C(=O)NCCCNC(=O)c2ccc(-c3c4nc(c(-c5ccccc5)c5ccc([nH]5)c(-c5ccccc5)c5nc(c(-c6ccccc6)c6ccc3[nH]6)C=C5)C=C4)cc2)cc1
REMARK SMILES IDX 21 1 20 2 18 3 19 4 17 6 12 7 13 8 14 9 16 10 15 11 11 12
REMARK SMILES IDX 9 13 8 14 10 16 7 17 4 18 5 19 76 20 6 21 75 22 2 23 1 24
REMARK SMILES IDX 3 27 22 28 23 29 24 30 25 31 26 33 27 34 28 35 74 36 29 37
REMARK SMILES IDX 73 38 30 39 31 40 32 41 67 42 33 43 72 44 66 45 68 46 34 47
REMARK SMILES IDX 71 48 65 49 64 50 35 52 57 53 42 54 56 55 43 56 46 57 55 58
REMARK SMILES IDX 69 59 44 60 45 61 54 63 70 64 47 65 36 66 37 67 41 68 38 69
REMARK SMILES IDX 40 70 39 71 58 72 59 73 63 74 60 75 62 76 61 77 48 78 49 79
REMARK SMILES IDX 53 80 50 81 52 82 51 83
REMARK H PARENT 20 5 8 15 1 25 1 26 24 32 68 51 46 62
REMARK Flexibility Score: inf
ROOT
ATOM      1  C   UNL     1       1.859   4.873   3.431  1.00  0.00     0.118 C 
ENDROOT
BRANCH   1   2
ATOM      2  N   UNL     1       0.423   4.745   3.618  1.00  0.00    -0.352 N 
ATOM      3  C   UNL     1      -0.750   5.297   3.197  1.00  0.00     0.251 C 
ATOM      4  O   UNL     1      -1.723   4.888   3.848  1.00  0.00    -0.269 OA
ATOM      5  H   UNL     1       0.237   4.022   4.259  1.00  0.00     0.163 HD
BRANCH   3   6
ATOM      6  C   UNL     1      -1.044   6.228   2.047  1.00  0.00     0.043 A 
ATOM      7  C   UNL     1      -0.260   7.206   1.389  1.00  0.00    -0.026 A 
ATOM      8  C   UNL     1      -0.843   7.981   0.352  1.00  0.00     0.005 A 
ATOM      9  C   UNL     1      -2.135   7.752  -0.104  1.00  0.00     0.000 A 
ATOM     10  C   UNL     1      -2.347   6.005   1.526  1.00  0.00     0.014 A 
ATOM     11  C   UNL     1      -2.880   6.738   0.464  1.00  0.00     0.001 A 
BRANCH   7  12
ATOM     12  C   UNL     1       1.171   7.538   1.670  1.00  0.00     0.136 C 
BRANCH  12  13
ATOM     13  C   UNL     1       2.201   7.410   0.541  1.00  0.00     0.228 C 
ATOM     14  N   UNL     1       2.613   6.289  -0.119  1.00  0.00    -0.326 N 
ATOM     15  H   UNL     1       3.430   6.466  -0.638  1.00  0.00     0.169 HD
ATOM     16  O   UNL     1       2.848   8.432   0.251  1.00  0.00    -0.274 OA
BRANCH  14  17
ATOM     17  C   UNL     1       2.202   4.951  -0.268  1.00  0.00     0.041 A 
ATOM     18  C   UNL     1       1.501   2.219  -0.589  1.00  0.00     0.039 A 
ATOM     19  C   UNL     1       0.616   3.117  -0.010  1.00  0.00     0.016 A 
ATOM     20  C   UNL     1       2.729   2.690  -1.060  1.00  0.00     0.016 A 
ATOM     21  C   UNL     1       0.968   4.461   0.113  1.00  0.00     0.027 A 
ATOM     22  C   UNL     1       3.073   4.048  -0.898  1.00  0.00     0.027 A 
BRANCH  18  23
ATOM     23  C   UNL     1       1.052   0.812  -0.715  1.00  0.00     0.248 C 
ATOM     24  N   UNL     1       2.001  -0.160  -0.608  1.00  0.00    -0.366 N 
ATOM     25  H   UNL     1       1.746  -1.107  -0.685  1.00  0.00     0.159 HD
ATOM     26  H   UNL     1       2.942   0.086  -0.453  1.00  0.00     0.159 HD
ATOM     27  O   UNL     1      -0.131   0.529  -0.854  1.00  0.00    -0.270 OA
ENDBRANCH  18  23
ENDBRANCH  14  17
ENDBRANCH  12  13
ENDBRANCH   7  12
ENDBRANCH   3   6
ENDBRANCH   1   2
BRANCH   1  28
ATOM     28  C   UNL     1       2.436   5.784   4.518  1.00  0.00     0.042 C 
BRANCH  28  29
ATOM     29  C   UNL     1       3.583   5.151   5.275  1.00  0.00     0.118 C 
BRANCH  29  30
ATOM     30  N   UNL     1       4.863   5.251   4.591  1.00  0.00    -0.352 N 
ATOM     31  C   UNL     1       6.102   5.424   5.181  1.00  0.00     0.251 C 
ATOM     32  H   UNL     1       4.846   5.191   3.609  1.00  0.00     0.163 HD
ATOM     33  O   UNL     1       7.103   5.613   4.511  1.00  0.00    -0.269 OA
BRANCH  31  34
ATOM     34  C   UNL     1       6.170   5.421   6.662  1.00  0.00     0.039 A 
ATOM     35  C   UNL     1       6.768   6.495   7.325  1.00  0.00     0.014 A 
ATOM     36  C   UNL     1       5.527   4.413   7.383  1.00  0.00     0.014 A 
ATOM     37  C   UNL     1       6.646   6.596   8.714  1.00  0.00     0.010 A 
ATOM     38  C   UNL     1       5.314   4.574   8.745  1.00  0.00     0.010 A 
ATOM     39  C   UNL     1       5.879   5.661   9.429  1.00  0.00    -0.014 A 
BRANCH  39  40
ATOM     40  C   UNL     1       5.670   5.773  10.895  1.00  0.00     0.031 A 
ATOM     41  C   UNL     1       6.136   4.661  11.799  1.00  0.00     0.074 A 
ATOM     42  C   UNL     1       4.988   6.816  11.408  1.00  0.00     0.049 A 
ATOM     43  N   UNL     1       5.960   4.513  13.087  1.00  0.00    -0.248 NA
ATOM     44  C   UNL     1       6.858   3.547  11.160  1.00  0.00     0.031 C 
ATOM     45  C   UNL     1       4.427   7.930  10.640  1.00  0.00     0.029 A 
ATOM     46  N   UNL     1       4.644   7.105  12.706  1.00  0.00    -0.354 N 
ATOM     47  C   UNL     1       6.514   3.278  13.400  1.00  0.00     0.074 A 
ATOM     48  C   UNL     1       6.978   2.692  12.163  1.00  0.00     0.031 C 
ATOM     49  C   UNL     1       3.842   8.797  11.483  1.00  0.00     0.029 A 
ATOM     50  C   UNL     1       3.953   8.284  12.845  1.00  0.00     0.049 A 
ATOM     51  H   UNL     1       4.872   6.521  13.465  1.00  0.00     0.167 HD
ATOM     52  C   UNL     1       6.653   2.691  14.612  1.00  0.00     0.031 A 
ATOM     53  C   UNL     1       3.466   8.885  13.947  1.00  0.00     0.031 A 
ATOM     54  C   UNL     1       6.235   3.291  15.849  1.00  0.00     0.049 A 
ATOM     55  C   UNL     1       3.666   8.234  15.288  1.00  0.00     0.074 A 
ATOM     56  C   UNL     1       6.400   2.815  17.137  1.00  0.00     0.029 A 
ATOM     57  N   UNL     1       5.577   4.506  15.948  1.00  0.00    -0.354 N 
ATOM     58  N   UNL     1       4.256   7.099  15.575  1.00  0.00    -0.248 NA
ATOM     59  C   UNL     1       3.145   8.956  16.458  1.00  0.00     0.031 C 
ATOM     60  C   UNL     1       5.810   3.729  18.017  1.00  0.00     0.029 A 
ATOM     61  C   UNL     1       5.318   4.793  17.277  1.00  0.00     0.049 A 
ATOM     62  H   UNL     1       5.331   5.080  15.187  1.00  0.00     0.167 HD
ATOM     63  C   UNL     1       4.200   6.982  16.957  1.00  0.00     0.074 A 
ATOM     64  C   UNL     1       3.533   8.169  17.452  1.00  0.00     0.031 C 
ATOM     65  C   UNL     1       4.659   5.982  17.748  1.00  0.00     0.031 A 
BRANCH  52  66
ATOM     66  C   UNL     1       7.294   1.332  14.649  1.00  0.00    -0.014 A 
ATOM     67  C   UNL     1       8.661   1.165  14.368  1.00  0.00     0.009 A 
ATOM     68  C   UNL     1       6.526   0.205  14.978  1.00  0.00     0.009 A 
ATOM     69  C   UNL     1       9.233  -0.108  14.371  1.00  0.00     0.001 A 
ATOM     70  C   UNL     1       7.109  -1.063  15.011  1.00  0.00     0.001 A 
ATOM     71  C   UNL     1       8.458  -1.220  14.696  1.00  0.00     0.000 A 
ENDBRANCH  52  66
BRANCH  53  72
ATOM     72  C   UNL     1       2.772  10.195  13.839  1.00  0.00    -0.014 A 
ATOM     73  C   UNL     1       3.397  11.367  14.294  1.00  0.00     0.009 A 
ATOM     74  C   UNL     1       1.484  10.283  13.291  1.00  0.00     0.009 A 
ATOM     75  C   UNL     1       2.736  12.596  14.226  1.00  0.00     0.001 A 
ATOM     76  C   UNL     1       0.835  11.518  13.200  1.00  0.00     0.001 A 
ATOM     77  C   UNL     1       1.458  12.671  13.676  1.00  0.00     0.000 A 
ENDBRANCH  53  72
BRANCH  65  78
ATOM     78  C   UNL     1       4.489   6.145  19.230  1.00  0.00    -0.014 A 
ATOM     79  C   UNL     1       3.235   5.990  19.839  1.00  0.00     0.009 A 
ATOM     80  C   UNL     1       5.610   6.410  20.032  1.00  0.00     0.009 A 
ATOM     81  C   UNL     1       3.103   6.126  21.222  1.00  0.00     0.001 A 
ATOM     82  C   UNL     1       5.479   6.519  21.416  1.00  0.00     0.001 A 
ATOM     83  C   UNL     1       4.225   6.385  22.009  1.00  0.00     0.000 A 
ENDBRANCH  65  78
ENDBRANCH  39  40
ENDBRANCH  31  34
ENDBRANCH  29  30
ENDBRANCH  28  29
ENDBRANCH   1  28
TORSDOF 14
