REMARK SMILES C[C@@](CC(=O)Nc1ccc(NC(=O)c2ccco2)cc1)(C(=O)NCCCNC(=O)c1ccc(-c2c3nc(c(-c4ccccc4)c4ccc([nH]4)c(-c4ccccc4)c4nc(c(-c5ccccc5)c5ccc2[nH]5)C=C4)C=C3)cc1)c1ccccc1
REMARK SMILES IDX 21 1 22 2 23 3 2 5 1 6 3 7 4 8 5 9 6 10 7 12 8 13 20 14 9 15
REMARK SMILES IDX 19 16 10 17 11 18 12 19 13 21 14 22 15 23 18 24 16 25 17 26
REMARK SMILES IDX 78 27 79 28 83 29 80 30 82 31 81 32 24 33 25 34 26 35 27 36
REMARK SMILES IDX 28 37 29 39 30 40 31 41 77 42 32 43 76 44 33 45 34 46 35 47
REMARK SMILES IDX 70 48 36 49 75 50 69 51 71 52 37 53 74 54 68 55 67 56 38 58
REMARK SMILES IDX 60 59 45 60 59 61 46 62 49 63 58 64 72 65 47 66 48 67 57 69
REMARK SMILES IDX 73 70 50 71 39 72 40 73 44 74 41 75 43 76 42 77 61 78 62 79
REMARK SMILES IDX 66 80 63 81 65 82 64 83 51 84 52 85 56 86 53 87 55 88 54 89
REMARK H PARENT 23 4 6 11 11 20 27 38 71 57 49 68
REMARK Flexibility Score: inf
ROOT
ATOM      1  C   UNL     1      -1.399   1.121   2.092  1.00  0.00     0.230 C 
ATOM      2  O   UNL     1      -2.002   1.153   3.171  1.00  0.00    -0.274 OA
ATOM      3  N   UNL     1      -2.067   1.705   1.047  1.00  0.00    -0.355 N 
ATOM      4  H   UNL     1      -3.030   1.832   1.213  1.00  0.00     0.163 HD
ENDROOT
BRANCH   1   5
ATOM      5  C   UNL     1      -0.027   0.379   1.936  1.00  0.00     0.080 C 
ATOM      6  C   UNL     1      -0.205  -0.578   0.732  1.00  0.00     0.027 C 
BRANCH   5   7
ATOM      7  C   UNL     1       1.211   1.335   1.826  1.00  0.00     0.121 C 
BRANCH   7   8
ATOM      8  C   UNL     1       1.260   2.485   0.852  1.00  0.00     0.225 C 
ATOM      9  O   UNL     1       0.747   3.566   1.169  1.00  0.00    -0.275 OA
ATOM     10  N   UNL     1       1.852   2.437  -0.373  1.00  0.00    -0.326 N 
ATOM     11  H   UNL     1       1.865   3.315  -0.817  1.00  0.00     0.169 HD
BRANCH  10  12
ATOM     12  C   UNL     1       2.449   1.436  -1.154  1.00  0.00     0.041 A 
ATOM     13  C   UNL     1       2.913   1.810  -2.420  1.00  0.00     0.028 A 
ATOM     14  C   UNL     1       2.588   0.107  -0.785  1.00  0.00     0.028 A 
ATOM     15  C   UNL     1       3.527   0.877  -3.270  1.00  0.00     0.028 A 
ATOM     16  C   UNL     1       3.153  -0.836  -1.644  1.00  0.00     0.028 A 
ATOM     17  C   UNL     1       3.688  -0.447  -2.865  1.00  0.00     0.041 A 
BRANCH  17  18
ATOM     18  N   UNL     1       4.361  -1.442  -3.587  1.00  0.00    -0.319 N 
ATOM     19  C   UNL     1       5.330  -1.369  -4.563  1.00  0.00     0.291 C 
ATOM     20  H   UNL     1       4.091  -2.360  -3.354  1.00  0.00     0.170 HD
ATOM     21  O   UNL     1       5.641  -2.420  -5.128  1.00  0.00    -0.265 OA
BRANCH  19  22
ATOM     22  C   UNL     1       5.992  -0.114  -4.819  1.00  0.00     0.191 A 
ATOM     23  C   UNL     1       6.650   0.783  -3.994  1.00  0.00     0.056 A 
ATOM     24  O   UNL     1       6.007   0.355  -6.104  1.00  0.00    -0.459 OA
ATOM     25  C   UNL     1       7.042   1.871  -4.811  1.00  0.00     0.043 A 
ATOM     26  C   UNL     1       6.630   1.559  -6.085  1.00  0.00     0.196 A 
ENDBRANCH  19  22
ENDBRANCH  17  18
ENDBRANCH  10  12
ENDBRANCH   7   8
ENDBRANCH   5   7
BRANCH   5  27
ATOM     27  C   UNL     1       0.295  -0.483   3.229  1.00  0.00    -0.032 A 
ATOM     28  C   UNL     1       0.472  -1.881   3.212  1.00  0.00     0.005 A 
ATOM     29  C   UNL     1       0.539   0.166   4.461  1.00  0.00     0.005 A 
ATOM     30  C   UNL     1       0.953  -2.573   4.332  1.00  0.00     0.000 A 
ATOM     31  C   UNL     1       1.032  -0.522   5.574  1.00  0.00     0.000 A 
ATOM     32  C   UNL     1       1.255  -1.891   5.504  1.00  0.00     0.000 A 
ENDBRANCH   5  27
ENDBRANCH   1   5
BRANCH   3  33
ATOM     33  C   UNL     1      -1.631   2.172  -0.258  1.00  0.00     0.117 C 
BRANCH  33  34
ATOM     34  C   UNL     1      -2.288   1.517  -1.461  1.00  0.00     0.042 C 
BRANCH  34  35
ATOM     35  C   UNL     1      -3.754   1.856  -1.655  1.00  0.00     0.118 C 
BRANCH  35  36
ATOM     36  N   UNL     1      -3.992   3.269  -1.921  1.00  0.00    -0.352 N 
ATOM     37  C   UNL     1      -4.271   3.967  -3.072  1.00  0.00     0.251 C 
ATOM     38  H   UNL     1      -3.943   3.836  -1.118  1.00  0.00     0.163 HD
ATOM     39  O   UNL     1      -4.290   5.196  -3.027  1.00  0.00    -0.269 OA
BRANCH  37  40
ATOM     40  C   UNL     1      -4.512   3.292  -4.370  1.00  0.00     0.039 A 
ATOM     41  C   UNL     1      -4.073   3.919  -5.545  1.00  0.00     0.014 A 
ATOM     42  C   UNL     1      -5.201   2.085  -4.465  1.00  0.00     0.014 A 
ATOM     43  C   UNL     1      -4.241   3.295  -6.786  1.00  0.00     0.010 A 
ATOM     44  C   UNL     1      -5.275   1.415  -5.683  1.00  0.00     0.010 A 
ATOM     45  C   UNL     1      -4.796   2.010  -6.859  1.00  0.00    -0.014 A 
BRANCH  45  46
ATOM     46  C   UNL     1      -4.905   1.259  -8.138  1.00  0.00     0.031 A 
ATOM     47  C   UNL     1      -6.253   0.794  -8.622  1.00  0.00     0.074 A 
ATOM     48  C   UNL     1      -3.793   0.890  -8.803  1.00  0.00     0.049 A 
ATOM     49  N   UNL     1      -6.543  -0.053  -9.577  1.00  0.00    -0.248 NA
ATOM     50  C   UNL     1      -7.428   1.322  -7.909  1.00  0.00     0.031 C 
ATOM     51  C   UNL     1      -2.420   1.242  -8.434  1.00  0.00     0.029 A 
ATOM     52  N   UNL     1      -3.644   0.111  -9.925  1.00  0.00    -0.354 N 
ATOM     53  C   UNL     1      -7.924  -0.203  -9.540  1.00  0.00     0.074 A 
ATOM     54  C   UNL     1      -8.412   0.622  -8.456  1.00  0.00     0.031 C 
ATOM     55  C   UNL     1      -1.572   0.698  -9.321  1.00  0.00     0.029 A 
ATOM     56  C   UNL     1      -2.334  -0.082 -10.290  1.00  0.00     0.049 A 
ATOM     57  H   UNL     1      -4.404  -0.272 -10.420  1.00  0.00     0.167 HD
ATOM     58  C   UNL     1      -8.718  -0.955 -10.339  1.00  0.00     0.031 A 
ATOM     59  C   UNL     1      -1.801  -0.821 -11.281  1.00  0.00     0.031 A 
ATOM     60  C   UNL     1      -8.245  -1.731 -11.452  1.00  0.00     0.049 A 
ATOM     61  C   UNL     1      -2.705  -1.611 -12.184  1.00  0.00     0.074 A 
ATOM     62  C   UNL     1      -8.980  -2.472 -12.362  1.00  0.00     0.029 A 
ATOM     63  N   UNL     1      -6.915  -1.849 -11.819  1.00  0.00    -0.354 N 
ATOM     64  N   UNL     1      -4.010  -1.726 -12.146  1.00  0.00    -0.248 NA
ATOM     65  C   UNL     1      -2.062  -2.370 -13.266  1.00  0.00     0.031 C 
ATOM     66  C   UNL     1      -8.090  -3.057 -13.269  1.00  0.00     0.029 A 
ATOM     67  C   UNL     1      -6.806  -2.653 -12.941  1.00  0.00     0.049 A 
ATOM     68  H   UNL     1      -6.159  -1.426 -11.351  1.00  0.00     0.167 HD
ATOM     69  C   UNL     1      -4.346  -2.550 -13.212  1.00  0.00     0.074 A 
ATOM     70  C   UNL     1      -3.110  -2.900 -13.882  1.00  0.00     0.031 C 
ATOM     71  C   UNL     1      -5.571  -2.977 -13.601  1.00  0.00     0.031 A 
BRANCH  58  72
ATOM     72  C   UNL     1     -10.187  -0.974 -10.028  1.00  0.00    -0.014 A 
ATOM     73  C   UNL     1     -11.004   0.134 -10.301  1.00  0.00     0.009 A 
ATOM     74  C   UNL     1     -10.765  -2.127  -9.475  1.00  0.00     0.009 A 
ATOM     75  C   UNL     1     -12.365   0.101  -9.990  1.00  0.00     0.001 A 
ATOM     76  C   UNL     1     -12.131  -2.166  -9.188  1.00  0.00     0.001 A 
ATOM     77  C   UNL     1     -12.927  -1.049  -9.437  1.00  0.00     0.000 A 
ENDBRANCH  58  72
BRANCH  59  78
ATOM     78  C   UNL     1      -0.330  -0.840 -11.482  1.00  0.00    -0.014 A 
ATOM     79  C   UNL     1       0.244  -0.126 -12.544  1.00  0.00     0.009 A 
ATOM     80  C   UNL     1       0.504  -1.561 -10.614  1.00  0.00     0.009 A 
ATOM     81  C   UNL     1       1.626  -0.149 -12.746  1.00  0.00     0.001 A 
ATOM     82  C   UNL     1       1.887  -1.564 -10.806  1.00  0.00     0.001 A 
ATOM     83  C   UNL     1       2.446  -0.864 -11.875  1.00  0.00     0.000 A 
ENDBRANCH  59  78
BRANCH  71  84
ATOM     84  C   UNL     1      -5.641  -3.832 -14.831  1.00  0.00    -0.014 A 
ATOM     85  C   UNL     1      -5.310  -5.194 -14.787  1.00  0.00     0.009 A 
ATOM     86  C   UNL     1      -6.098  -3.275 -16.035  1.00  0.00     0.009 A 
ATOM     87  C   UNL     1      -5.417  -5.980 -15.935  1.00  0.00     0.001 A 
ATOM     88  C   UNL     1      -6.221  -4.068 -17.177  1.00  0.00     0.001 A 
ATOM     89  C   UNL     1      -5.877  -5.418 -17.127  1.00  0.00     0.000 A 
ENDBRANCH  71  84
ENDBRANCH  45  46
ENDBRANCH  37  40
ENDBRANCH  35  36
ENDBRANCH  34  35
ENDBRANCH  33  34
ENDBRANCH   3  33
TORSDOF 16
