REMARK SMILES O=C(CNC(=O)N1CC(NCCCNC(=O)c2ccc(-c3c4nc(c(-c5ccccc5)c5ccc([nH]5)c(-c5ccccc5)c5nc(c(-c6ccccc6)c6ccc3[nH]6)C=C5)C=C4)cc2)=[NH+]c2ccccc21)N[C@H](C(=O)[O-])c1ccccc1
REMARK SMILES IDX 11 1 10 2 7 3 8 4 71 5 9 6 66 7 70 8 65 9 67 10 69 11 68 14
REMARK SMILES IDX 5 15 4 16 6 18 3 19 2 20 1 21 72 22 73 24 77 25 78 26 82 27
REMARK SMILES IDX 79 28 81 29 80 30 74 31 75 32 76 33 12 34 13 35 14 36 15 37
REMARK SMILES IDX 16 39 17 40 18 41 64 42 19 43 63 44 20 45 21 46 22 47 57 48
REMARK SMILES IDX 23 49 62 50 56 51 58 52 24 53 61 54 55 55 54 56 25 58 47 59
REMARK SMILES IDX 32 60 46 61 33 62 36 63 45 64 59 65 34 66 35 67 44 69 60 70
REMARK SMILES IDX 37 71 26 72 27 73 31 74 28 75 30 76 29 77 48 78 49 79 53 80
REMARK SMILES IDX 50 81 52 82 51 83 38 84 39 85 43 86 40 87 42 88 41 89
REMARK H PARENT 10 12 65 13 4 17 72 23 14 38 58 57 36 68
REMARK Flexibility Score: inf
ROOT
ATOM      1  C   UNL     1      -1.894   1.232  -6.274  1.00  0.00     0.235 C 
ENDROOT
BRANCH   1   2
ATOM      2  N   UNL     1      -0.875   2.165  -5.859  1.00  0.00    -0.277 N 
ATOM      3  N   UNL     1       2.391   1.105  -7.092  1.00  0.00    -0.278 N 
ATOM      4  C   UNL     1       0.979   1.322  -7.369  1.00  0.00     0.255 C 
ATOM      5  C   UNL     1       3.129   2.300  -6.912  1.00  0.00     0.093 A 
ATOM      6  C   UNL     1       0.414   2.281  -6.314  1.00  0.00     0.268 C 
ATOM      7  C   UNL     1       2.465   3.370  -6.279  1.00  0.00     0.148 A 
ATOM      8  C   UNL     1       4.465   2.425  -7.311  1.00  0.00     0.031 A 
ATOM      9  N   UNL     1       1.129   3.265  -5.835  1.00  0.00    -0.241 N 
ATOM     10  C   UNL     1       3.186   4.528  -5.983  1.00  0.00     0.054 A 
ATOM     11  C   UNL     1       5.163   3.598  -7.027  1.00  0.00     0.002 A 
ATOM     12  H   UNL     1      -1.139   2.804  -5.158  1.00  0.00     0.304 HD
ATOM     13  H   UNL     1       0.751   3.906  -5.190  1.00  0.00     0.312 HD
ATOM     14  C   UNL     1       4.530   4.641  -6.350  1.00  0.00     0.005 A 
BRANCH   3  15
ATOM     15  C   UNL     1       2.863  -0.177  -7.068  1.00  0.00     0.323 C 
ATOM     16  N   UNL     1       3.879  -0.516  -6.237  1.00  0.00    -0.329 N 
ATOM     17  H   UNL     1       4.289  -1.389  -6.435  1.00  0.00     0.165 HD
ATOM     18  O   UNL     1       2.321  -1.093  -7.690  1.00  0.00    -0.248 OA
BRANCH  16  19
ATOM     19  C   UNL     1       4.473   0.183  -5.101  1.00  0.00     0.218 C 
BRANCH  19  20
ATOM     20  C   UNL     1       4.205  -0.519  -3.772  1.00  0.00     0.240 C 
ATOM     21  O   UNL     1       5.093  -0.676  -2.938  1.00  0.00    -0.273 OA
ATOM     22  N   UNL     1       2.873  -0.763  -3.519  1.00  0.00    -0.342 N 
ATOM     23  H   UNL     1       2.210  -0.550  -4.215  1.00  0.00     0.164 HD
BRANCH  22  24
ATOM     24  C   UNL     1       2.413  -1.326  -2.253  1.00  0.00     0.158 C 
BRANCH  24  25
ATOM     25  C   UNL     1       2.692  -2.815  -2.159  1.00  0.00    -0.020 A 
ATOM     26  C   UNL     1       1.710  -3.738  -2.561  1.00  0.00     0.006 A 
ATOM     27  C   UNL     1       3.929  -3.309  -1.718  1.00  0.00     0.006 A 
ATOM     28  C   UNL     1       1.957  -5.111  -2.510  1.00  0.00     0.000 A 
ATOM     29  C   UNL     1       4.177  -4.682  -1.674  1.00  0.00     0.000 A 
ATOM     30  C   UNL     1       3.191  -5.582  -2.069  1.00  0.00     0.000 A 
ENDBRANCH  24  25
BRANCH  24  31
ATOM     31  C   UNL     1       2.784  -0.506  -0.996  1.00  0.00     0.068 C 
ATOM     32  O   UNL     1       2.723  -0.875   0.168  1.00  0.00    -0.548 OA
ATOM     33  O   UNL     1       3.048   0.798  -1.255  1.00  0.00    -0.548 OA
ENDBRANCH  24  31
ENDBRANCH  22  24
ENDBRANCH  19  20
ENDBRANCH  16  19
ENDBRANCH   3  15
ENDBRANCH   1   2
BRANCH   1  34
ATOM     34  C   UNL     1      -2.113   0.157  -5.214  1.00  0.00     0.067 C 
BRANCH  34  35
ATOM     35  C   UNL     1      -2.692   0.686  -3.905  1.00  0.00     0.120 C 
BRANCH  35  36
ATOM     36  N   UNL     1      -4.021   1.265  -4.065  1.00  0.00    -0.352 N 
ATOM     37  C   UNL     1      -5.210   0.933  -3.466  1.00  0.00     0.251 C 
ATOM     38  H   UNL     1      -4.074   2.012  -4.704  1.00  0.00     0.163 HD
ATOM     39  O   UNL     1      -6.257   1.437  -3.870  1.00  0.00    -0.269 OA
BRANCH  37  40
ATOM     40  C   UNL     1      -5.245  -0.038  -2.353  1.00  0.00     0.039 A 
ATOM     41  C   UNL     1      -6.254  -1.006  -2.329  1.00  0.00     0.014 A 
ATOM     42  C   UNL     1      -4.301   0.013  -1.325  1.00  0.00     0.014 A 
ATOM     43  C   UNL     1      -6.271  -1.967  -1.314  1.00  0.00     0.010 A 
ATOM     44  C   UNL     1      -4.272  -0.990  -0.361  1.00  0.00     0.010 A 
ATOM     45  C   UNL     1      -5.256  -1.991  -0.344  1.00  0.00    -0.014 A 
BRANCH  45  46
ATOM     46  C   UNL     1      -5.204  -3.039   0.708  1.00  0.00     0.031 A 
ATOM     47  C   UNL     1      -5.315  -2.651   2.158  1.00  0.00     0.074 A 
ATOM     48  C   UNL     1      -4.984  -4.325   0.368  1.00  0.00     0.049 A 
ATOM     49  N   UNL     1      -5.162  -3.393   3.226  1.00  0.00    -0.248 NA
ATOM     50  C   UNL     1      -5.616  -1.239   2.446  1.00  0.00     0.031 C 
ATOM     51  C   UNL     1      -4.840  -4.833  -0.998  1.00  0.00     0.029 A 
ATOM     52  N   UNL     1      -4.825  -5.441   1.154  1.00  0.00    -0.354 N 
ATOM     53  C   UNL     1      -5.335  -2.538   4.307  1.00  0.00     0.074 A 
ATOM     54  C   UNL     1      -5.551  -1.212   3.769  1.00  0.00     0.031 C 
ATOM     55  C   UNL     1      -4.628  -6.159  -0.954  1.00  0.00     0.029 A 
ATOM     56  C   UNL     1      -4.569  -6.587   0.439  1.00  0.00     0.049 A 
ATOM     57  H   UNL     1      -4.889  -5.421   2.136  1.00  0.00     0.167 HD
ATOM     58  C   UNL     1      -5.340  -2.831   5.629  1.00  0.00     0.031 A 
ATOM     59  C   UNL     1      -4.294  -7.837   0.860  1.00  0.00     0.031 A 
ATOM     60  C   UNL     1      -5.131  -4.147   6.167  1.00  0.00     0.049 A 
ATOM     61  C   UNL     1      -4.254  -8.123   2.338  1.00  0.00     0.074 A 
ATOM     62  C   UNL     1      -5.136  -4.547   7.492  1.00  0.00     0.029 A 
ATOM     63  N   UNL     1      -4.886  -5.280   5.407  1.00  0.00    -0.354 N 
ATOM     64  N   UNL     1      -4.463  -7.310   3.345  1.00  0.00    -0.248 NA
ATOM     65  C   UNL     1      -3.949  -9.505   2.737  1.00  0.00     0.031 C 
ATOM     66  C   UNL     1      -4.849  -5.914   7.537  1.00  0.00     0.029 A 
ATOM     67  C   UNL     1      -4.729  -6.376   6.237  1.00  0.00     0.049 A 
ATOM     68  H   UNL     1      -4.831  -5.301   4.424  1.00  0.00     0.167 HD
ATOM     69  C   UNL     1      -4.359  -8.090   4.489  1.00  0.00     0.074 A 
ATOM     70  C   UNL     1      -4.082  -9.442   4.054  1.00  0.00     0.031 C 
ATOM     71  C   UNL     1      -4.483  -7.721   5.787  1.00  0.00     0.031 A 
BRANCH  58  72
ATOM     72  C   UNL     1      -5.591  -1.704   6.591  1.00  0.00    -0.014 A 
ATOM     73  C   UNL     1      -6.862  -1.115   6.696  1.00  0.00     0.009 A 
ATOM     74  C   UNL     1      -4.568  -1.268   7.448  1.00  0.00     0.009 A 
ATOM     75  C   UNL     1      -7.095  -0.096   7.621  1.00  0.00     0.001 A 
ATOM     76  C   UNL     1      -4.813  -0.269   8.392  1.00  0.00     0.001 A 
ATOM     77  C   UNL     1      -6.073   0.321   8.473  1.00  0.00     0.000 A 
ENDBRANCH  58  72
BRANCH  59  78
ATOM     78  C   UNL     1      -4.018  -8.924  -0.119  1.00  0.00    -0.014 A 
ATOM     79  C   UNL     1      -4.895 -10.013  -0.245  1.00  0.00     0.009 A 
ATOM     80  C   UNL     1      -2.846  -8.907  -0.892  1.00  0.00     0.009 A 
ATOM     81  C   UNL     1      -4.579 -11.085  -1.084  1.00  0.00     0.001 A 
ATOM     82  C   UNL     1      -2.552  -9.962  -1.759  1.00  0.00     0.001 A 
ATOM     83  C   UNL     1      -3.409 -11.058  -1.841  1.00  0.00     0.000 A 
ENDBRANCH  59  78
BRANCH  71  84
ATOM     84  C   UNL     1      -4.396  -8.800   6.829  1.00  0.00    -0.014 A 
ATOM     85  C   UNL     1      -3.180  -9.425   7.142  1.00  0.00     0.009 A 
ATOM     86  C   UNL     1      -5.548  -9.154   7.549  1.00  0.00     0.009 A 
ATOM     87  C   UNL     1      -3.127 -10.406   8.134  1.00  0.00     0.001 A 
ATOM     88  C   UNL     1      -5.486 -10.111   8.563  1.00  0.00     0.001 A 
ATOM     89  C   UNL     1      -4.277 -10.743   8.848  1.00  0.00     0.000 A 
ENDBRANCH  71  84
ENDBRANCH  45  46
ENDBRANCH  37  40
ENDBRANCH  35  36
ENDBRANCH  34  35
ENDBRANCH   1  34
TORSDOF 15
