REMARK SMILES Cc1ccc(S(=O)(=O)n2cc(C(=O)C(=O)NCC(=O)N[C@H](Cc3c[nH]c4ccccc34)C(=O)NCCCNC(=O)c3ccc(-c4c5nc(c(-c6ccccc6)c6ccc([nH]6)c(-c6ccccc6)c6nc(c(-c7ccccc7)c7ccc4[nH]7)C=C6)C=C5)cc3)c3ccccc32)cc1
REMARK SMILES IDX 32 1 33 2 34 3 21 5 20 6 18 7 19 8 17 10 16 11 14 12 15 13
REMARK SMILES IDX 12 15 13 16 11 17 9 18 10 19 94 20 89 21 93 22 90 23 92 24
REMARK SMILES IDX 91 25 6 26 7 27 8 28 5 29 1 30 2 31 3 32 96 33 4 34 95 35
REMARK SMILES IDX 22 36 23 37 24 38 31 39 25 40 26 41 30 42 27 44 29 45 28 46
REMARK SMILES IDX 35 47 36 48 37 49 38 50 39 51 40 53 41 54 42 55 88 56 43 57
REMARK SMILES IDX 87 58 44 59 45 60 46 61 81 62 47 63 86 64 80 65 82 66 48 67
REMARK SMILES IDX 85 68 79 69 78 70 49 72 71 73 56 74 70 75 57 76 60 77 69 78
REMARK SMILES IDX 83 79 58 80 59 81 68 83 84 84 61 85 50 86 51 87 55 88 52 89
REMARK SMILES IDX 54 90 53 91 72 92 73 93 77 94 74 95 76 96 75 97 62 98 63 99
REMARK SMILES IDX 67 100 64 101 66 102 65 103
REMARK H PARENT 34 4 20 9 16 14 25 43 38 52 82 71 60 82
REMARK Flexibility Score: inf
ROOT
ATOM      1  C   UNL     1      -9.264   0.478   4.022  1.00  0.00     0.242 C 
ATOM      2  O   UNL     1      -8.747  -0.631   3.837  1.00  0.00    -0.273 OA
ATOM      3  N   UNL     1      -9.355   0.863   5.322  1.00  0.00    -0.354 N 
ATOM      4  H   UNL     1      -9.040   0.174   5.950  1.00  0.00     0.163 HD
ENDROOT
BRANCH   1   5
ATOM      5  C   UNL     1      -9.802   1.274   2.817  1.00  0.00     0.175 C 
BRANCH   5   6
ATOM      6  N   UNL     1      -9.324   2.655   2.939  1.00  0.00    -0.342 N 
ATOM      7  C   UNL     1      -8.071   3.154   2.728  1.00  0.00     0.240 C 
ATOM      8  O   UNL     1      -7.893   4.338   3.029  1.00  0.00    -0.273 OA
ATOM      9  H   UNL     1     -10.002   3.315   3.212  1.00  0.00     0.164 HD
BRANCH   7  10
ATOM     10  C   UNL     1      -6.989   2.357   1.964  1.00  0.00     0.216 C 
BRANCH  10  11
ATOM     11  N   UNL     1      -6.783   0.957   2.325  1.00  0.00    -0.340 N 
ATOM     12  C   UNL     1      -6.471  -0.108   1.493  1.00  0.00     0.292 C 
ATOM     13  O   UNL     1      -6.250  -1.231   1.928  1.00  0.00    -0.265 OA
ATOM     14  H   UNL     1      -6.877   0.742   3.281  1.00  0.00     0.164 HD
BRANCH  12  15
ATOM     15  C   UNL     1      -6.378   0.135  -0.011  1.00  0.00     0.252 C 
ATOM     16  O   UNL     1      -5.546   0.966  -0.375  1.00  0.00    -0.283 OA
BRANCH  15  17
ATOM     17  C   UNL     1      -7.363  -0.440  -0.935  1.00  0.00     0.054 A 
ATOM     18  N   UNL     1      -8.750  -1.771  -2.128  1.00  0.00    -0.240 N 
ATOM     19  C   UNL     1      -7.780  -1.763  -1.126  1.00  0.00     0.117 A 
ATOM     20  C   UNL     1      -9.100  -0.433  -2.386  1.00  0.00     0.065 A 
ATOM     21  C   UNL     1      -8.035   0.335  -1.926  1.00  0.00     0.012 A 
ATOM     22  C   UNL     1     -10.093   0.114  -3.222  1.00  0.00     0.028 A 
ATOM     23  C   UNL     1      -7.856   1.631  -2.457  1.00  0.00     0.011 A 
ATOM     24  C   UNL     1      -9.855   1.365  -3.789  1.00  0.00     0.002 A 
ATOM     25  C   UNL     1      -8.729   2.099  -3.443  1.00  0.00     0.001 A 
BRANCH  18  26
ATOM     26  S   UNL     1      -8.688  -2.705  -3.604  1.00  0.00     0.268 S 
ATOM     27  O   UNL     1      -7.518  -2.170  -4.280  1.00  0.00    -0.201 OA
ATOM     28  O   UNL     1     -10.026  -2.513  -4.151  1.00  0.00    -0.201 OA
BRANCH  26  29
ATOM     29  C   UNL     1      -8.524  -4.449  -3.712  1.00  0.00     0.088 A 
ATOM     30  C   UNL     1      -8.682  -8.601  -4.896  1.00  0.00     0.044 C 
ATOM     31  C   UNL     1      -8.571  -7.169  -4.456  1.00  0.00    -0.051 A 
ATOM     32  C   UNL     1      -8.704  -6.192  -5.432  1.00  0.00     0.005 A 
ATOM     33  C   UNL     1      -8.397  -6.772  -3.110  1.00  0.00     0.005 A 
ATOM     34  C   UNL     1      -8.667  -4.861  -5.061  1.00  0.00     0.022 A 
ATOM     35  C   UNL     1      -8.377  -5.406  -2.724  1.00  0.00     0.022 A 
ENDBRANCH  26  29
ENDBRANCH  18  26
ENDBRANCH  15  17
ENDBRANCH  12  15
ENDBRANCH  10  11
ENDBRANCH   7  10
ENDBRANCH   5   6
BRANCH   5  36
ATOM     36  C   UNL     1     -11.318   1.210   2.515  1.00  0.00     0.072 C 
BRANCH  36  37
ATOM     37  C   UNL     1     -12.190   0.110   3.069  1.00  0.00    -0.020 A 
ATOM     38  C   UNL     1     -11.874  -0.924   3.927  1.00  0.00     0.087 A 
ATOM     39  C   UNL     1     -13.603  -0.046   2.791  1.00  0.00     0.003 A 
ATOM     40  N   UNL     1     -13.011  -1.607   4.249  1.00  0.00    -0.361 N 
ATOM     41  C   UNL     1     -14.089  -1.065   3.611  1.00  0.00     0.046 A 
ATOM     42  C   UNL     1     -14.521   0.592   1.929  1.00  0.00     0.010 A 
ATOM     43  H   UNL     1     -13.049  -2.381   4.856  1.00  0.00     0.166 HD
ATOM     44  C   UNL     1     -15.438  -1.427   3.683  1.00  0.00     0.026 A 
ATOM     45  C   UNL     1     -15.870   0.204   1.945  1.00  0.00     0.001 A 
ATOM     46  C   UNL     1     -16.323  -0.773   2.828  1.00  0.00     0.002 A 
ENDBRANCH  36  37
ENDBRANCH   5  36
ENDBRANCH   1   5
BRANCH   3  47
ATOM     47  C   UNL     1      -9.816   2.070   5.989  1.00  0.00     0.117 C 
BRANCH  47  48
ATOM     48  C   UNL     1     -11.327   2.144   6.178  1.00  0.00     0.042 C 
BRANCH  48  49
ATOM     49  C   UNL     1     -11.906   1.018   7.034  1.00  0.00     0.118 C 
BRANCH  49  50
ATOM     50  N   UNL     1     -12.312   1.431   8.374  1.00  0.00    -0.352 N 
ATOM     51  C   UNL     1     -12.841   0.670   9.406  1.00  0.00     0.251 C 
ATOM     52  H   UNL     1     -12.192   2.387   8.574  1.00  0.00     0.163 HD
ATOM     53  O   UNL     1     -13.100   1.187  10.478  1.00  0.00    -0.269 OA
BRANCH  51  54
ATOM     54  C   UNL     1     -12.972  -0.799   9.238  1.00  0.00     0.039 A 
ATOM     55  C   UNL     1     -12.455  -1.615  10.250  1.00  0.00     0.014 A 
ATOM     56  C   UNL     1     -13.438  -1.364   8.054  1.00  0.00     0.014 A 
ATOM     57  C   UNL     1     -12.153  -2.946   9.969  1.00  0.00     0.010 A 
ATOM     58  C   UNL     1     -13.102  -2.674   7.760  1.00  0.00     0.010 A 
ATOM     59  C   UNL     1     -12.372  -3.428   8.680  1.00  0.00    -0.014 A 
BRANCH  59  60
ATOM     60  C   UNL     1     -11.712  -4.624   8.170  1.00  0.00     0.031 A 
ATOM     61  C   UNL     1     -12.402  -5.922   8.127  1.00  0.00     0.074 A 
ATOM     62  C   UNL     1     -10.430  -4.543   7.748  1.00  0.00     0.049 A 
ATOM     63  N   UNL     1     -11.808  -7.054   8.310  1.00  0.00    -0.248 NA
ATOM     64  C   UNL     1     -13.837  -6.041   7.901  1.00  0.00     0.031 C 
ATOM     65  C   UNL     1      -9.650  -5.568   7.061  1.00  0.00     0.029 A 
ATOM     66  N   UNL     1      -9.498  -3.559   8.082  1.00  0.00    -0.354 N 
ATOM     67  C   UNL     1     -12.698  -8.039   7.959  1.00  0.00     0.074 A 
ATOM     68  C   UNL     1     -13.970  -7.367   7.795  1.00  0.00     0.031 C 
ATOM     69  C   UNL     1      -8.345  -5.310   7.245  1.00  0.00     0.029 A 
ATOM     70  C   UNL     1      -8.244  -4.187   8.163  1.00  0.00     0.049 A 
ATOM     71  H   UNL     1      -9.685  -2.605   8.233  1.00  0.00     0.167 HD
ATOM     72  C   UNL     1     -12.254  -9.297   7.687  1.00  0.00     0.031 A 
ATOM     73  C   UNL     1      -7.524  -4.184   9.321  1.00  0.00     0.031 A 
ATOM     74  C   UNL     1     -10.805  -9.416   7.815  1.00  0.00     0.049 A 
ATOM     75  C   UNL     1      -7.250  -5.564   9.874  1.00  0.00     0.074 A 
ATOM     76  C   UNL     1      -9.781  -9.395   6.882  1.00  0.00     0.029 A 
ATOM     77  N   UNL     1     -10.207  -9.279   9.061  1.00  0.00    -0.354 N 
ATOM     78  N   UNL     1      -7.901  -6.636   9.518  1.00  0.00    -0.248 NA
ATOM     79  C   UNL     1      -6.256  -5.833  10.910  1.00  0.00     0.031 C 
ATOM     80  C   UNL     1      -8.560  -9.194   7.572  1.00  0.00     0.029 A 
ATOM     81  C   UNL     1      -8.842  -9.117   8.924  1.00  0.00     0.049 A 
ATOM     82  H   UNL     1     -10.688  -9.295   9.920  1.00  0.00     0.167 HD
ATOM     83  C   UNL     1      -7.452  -7.708  10.248  1.00  0.00     0.074 A 
ATOM     84  C   UNL     1      -6.411  -7.156  11.095  1.00  0.00     0.031 C 
ATOM     85  C   UNL     1      -7.992  -8.953  10.095  1.00  0.00     0.031 A 
BRANCH  72  86
ATOM     86  C   UNL     1     -13.117 -10.315   6.988  1.00  0.00    -0.014 A 
ATOM     87  C   UNL     1     -12.548 -11.188   6.044  1.00  0.00     0.009 A 
ATOM     88  C   UNL     1     -14.504 -10.425   7.184  1.00  0.00     0.009 A 
ATOM     89  C   UNL     1     -13.331 -12.042   5.258  1.00  0.00     0.001 A 
ATOM     90  C   UNL     1     -15.299 -11.247   6.373  1.00  0.00     0.001 A 
ATOM     91  C   UNL     1     -14.713 -12.045   5.399  1.00  0.00     0.000 A 
ENDBRANCH  72  86
BRANCH  73  92
ATOM     92  C   UNL     1      -7.727  -2.971  10.158  1.00  0.00    -0.014 A 
ATOM     93  C   UNL     1      -7.223  -1.740   9.694  1.00  0.00     0.009 A 
ATOM     94  C   UNL     1      -8.676  -2.961  11.189  1.00  0.00     0.009 A 
ATOM     95  C   UNL     1      -7.732  -0.530  10.176  1.00  0.00     0.001 A 
ATOM     96  C   UNL     1      -9.176  -1.747  11.675  1.00  0.00     0.001 A 
ATOM     97  C   UNL     1      -8.731  -0.536  11.146  1.00  0.00     0.000 A 
ENDBRANCH  73  92
BRANCH  85  98
ATOM     98  C   UNL     1      -7.733 -10.165  10.961  1.00  0.00    -0.014 A 
ATOM     99  C   UNL     1      -7.199 -10.125  12.255  1.00  0.00     0.009 A 
ATOM    100  C   UNL     1      -8.159 -11.433  10.498  1.00  0.00     0.009 A 
ATOM    101  C   UNL     1      -7.059 -11.290  13.025  1.00  0.00     0.001 A 
ATOM    102  C   UNL     1      -8.065 -12.588  11.277  1.00  0.00     0.001 A 
ATOM    103  C   UNL     1      -7.501 -12.518  12.541  1.00  0.00     0.000 A 
ENDBRANCH  85  98
ENDBRANCH  59  60
ENDBRANCH  51  54
ENDBRANCH  49  50
ENDBRANCH  48  49
ENDBRANCH  47  48
ENDBRANCH   3  47
TORSDOF 19
