REMARK SMILES CCC(CC)NC(=O)NC[C@H]1CC[C@H](C(=O)NCCCNC(=O)c2ccc(-c3c4nc(c(-c5ccccc5)c5ccc([nH]5)c(-c5ccccc5)c5nc(c(-c6ccccc6)c6ccc3[nH]6)C=C5)C=C4)cc2)O1
REMARK SMILES IDX 18 1 17 2 15 3 16 4 14 6 11 7 12 8 72 9 13 10 10 11 9 12
REMARK SMILES IDX 6 13 7 14 8 16 3 18 2 19 1 20 4 21 5 22 19 23 20 24 21 25
REMARK SMILES IDX 22 26 23 28 24 29 25 30 71 31 26 32 70 33 27 34 28 35 29 36
REMARK SMILES IDX 64 37 30 38 69 39 63 40 65 41 31 42 68 43 62 44 61 45 32 47
REMARK SMILES IDX 54 48 39 49 53 50 40 51 43 52 52 53 66 54 41 55 42 56 51 58
REMARK SMILES IDX 67 59 44 60 33 61 34 62 38 63 35 64 37 65 36 66 55 67 56 68
REMARK SMILES IDX 60 69 57 70 59 71 58 72 45 73 46 74 50 75 47 76 49 77 48 78
REMARK H PARENT 17 5 6 15 9 17 21 27 65 46 43 57
REMARK Flexibility Score: inf
ROOT
ATOM      1  C   UNL     1       1.054   3.609  -1.508  1.00  0.00     0.117 C 
ENDROOT
BRANCH   1   2
ATOM      2  N   UNL     1       1.241   3.282  -2.901  1.00  0.00    -0.354 N 
ATOM      3  C   UNL     1       2.393   3.126  -3.611  1.00  0.00     0.249 C 
ATOM      4  O   UNL     1       2.279   2.842  -4.808  1.00  0.00    -0.272 OA
ATOM      5  H   UNL     1       0.412   3.151  -3.415  1.00  0.00     0.163 HD
BRANCH   3   6
ATOM      6  C   UNL     1       3.790   3.379  -2.990  1.00  0.00     0.207 C 
ATOM      7  C   UNL     1       4.480   3.742  -0.767  1.00  0.00     0.138 C 
ATOM      8  C   UNL     1       4.368   5.114  -1.413  1.00  0.00     0.037 C 
ATOM      9  O   UNL     1       4.099   2.764  -1.746  1.00  0.00    -0.363 OA
ATOM     10  C   UNL     1       4.122   4.856  -2.882  1.00  0.00     0.045 C 
BRANCH   7  11
ATOM     11  C   UNL     1       5.847   3.468  -0.104  1.00  0.00     0.149 C 
BRANCH  11  12
ATOM     12  N   UNL     1       6.274   2.084  -0.155  1.00  0.00    -0.336 N 
ATOM     13  N   UNL     1       7.756   1.941  -1.992  1.00  0.00    -0.335 N 
ATOM     14  C   UNL     1       7.147   1.417  -0.919  1.00  0.00     0.315 C 
ATOM     15  H   UNL     1       8.458   1.357  -2.360  1.00  0.00     0.165 HD
ATOM     16  O   UNL     1       7.418   0.255  -0.610  1.00  0.00    -0.249 OA
ATOM     17  H   UNL     1       5.828   1.515   0.513  1.00  0.00     0.165 HD
BRANCH  13  18
ATOM     18  C   UNL     1       7.604   3.188  -2.730  1.00  0.00     0.083 C 
BRANCH  18  19
ATOM     19  C   UNL     1       8.784   4.123  -2.428  1.00  0.00     0.021 C 
ATOM     20  C   UNL     1       8.534   5.557  -2.873  1.00  0.00     0.006 C 
ENDBRANCH  18  19
BRANCH  18  21
ATOM     21  C   UNL     1       7.345   2.912  -4.222  1.00  0.00     0.021 C 
ATOM     22  C   UNL     1       8.524   2.370  -5.011  1.00  0.00     0.006 C 
ENDBRANCH  18  21
ENDBRANCH  13  18
ENDBRANCH  11  12
ENDBRANCH   7  11
ENDBRANCH   3   6
ENDBRANCH   1   2
BRANCH   1  23
ATOM     23  C   UNL     1       0.762   5.091  -1.305  1.00  0.00     0.042 C 
BRANCH  23  24
ATOM     24  C   UNL     1      -0.703   5.442  -1.527  1.00  0.00     0.118 C 
BRANCH  24  25
ATOM     25  N   UNL     1      -1.558   4.854  -0.504  1.00  0.00    -0.352 N 
ATOM     26  C   UNL     1      -2.389   5.450   0.409  1.00  0.00     0.251 C 
ATOM     27  H   UNL     1      -1.535   3.871  -0.462  1.00  0.00     0.163 HD
ATOM     28  O   UNL     1      -2.832   4.791   1.344  1.00  0.00    -0.269 OA
BRANCH  26  29
ATOM     29  C   UNL     1      -2.749   6.878   0.280  1.00  0.00     0.039 A 
ATOM     30  C   UNL     1      -2.874   7.647   1.441  1.00  0.00     0.014 A 
ATOM     31  C   UNL     1      -3.007   7.449  -0.968  1.00  0.00     0.014 A 
ATOM     32  C   UNL     1      -3.203   9.000   1.344  1.00  0.00     0.010 A 
ATOM     33  C   UNL     1      -3.250   8.814  -1.070  1.00  0.00     0.010 A 
ATOM     34  C   UNL     1      -3.361   9.601   0.085  1.00  0.00    -0.014 A 
BRANCH  34  35
ATOM     35  C   UNL     1      -3.645  11.051  -0.045  1.00  0.00     0.031 A 
ATOM     36  C   UNL     1      -4.935  11.517  -0.662  1.00  0.00     0.074 A 
ATOM     37  C   UNL     1      -2.710  11.944   0.331  1.00  0.00     0.049 A 
ATOM     38  N   UNL     1      -5.332  12.737  -0.920  1.00  0.00    -0.248 NA
ATOM     39  C   UNL     1      -5.893  10.475  -1.066  1.00  0.00     0.031 C 
ATOM     40  C   UNL     1      -1.403  11.615   0.905  1.00  0.00     0.029 A 
ATOM     41  N   UNL     1      -2.713  13.315   0.280  1.00  0.00    -0.354 N 
ATOM     42  C   UNL     1      -6.572  12.607  -1.533  1.00  0.00     0.074 A 
ATOM     43  C   UNL     1      -6.840  11.191  -1.653  1.00  0.00     0.031 C 
ATOM     44  C   UNL     1      -0.744  12.752   1.179  1.00  0.00     0.029 A 
ATOM     45  C   UNL     1      -1.560  13.886   0.760  1.00  0.00     0.049 A 
ATOM     46  H   UNL     1      -3.470  13.840  -0.068  1.00  0.00     0.167 HD
ATOM     47  C   UNL     1      -7.421  13.580  -1.941  1.00  0.00     0.031 A 
ATOM     48  C   UNL     1      -1.197  15.179   0.847  1.00  0.00     0.031 A 
ATOM     49  C   UNL     1      -7.156  14.988  -1.809  1.00  0.00     0.049 A 
ATOM     50  C   UNL     1      -2.152  16.239   0.376  1.00  0.00     0.074 A 
ATOM     51  C   UNL     1      -7.975  16.054  -2.139  1.00  0.00     0.029 A 
ATOM     52  N   UNL     1      -5.980  15.525  -1.309  1.00  0.00    -0.354 N 
ATOM     53  N   UNL     1      -3.350  16.102  -0.138  1.00  0.00    -0.248 NA
ATOM     54  C   UNL     1      -1.708  17.634   0.509  1.00  0.00     0.031 C 
ATOM     55  C   UNL     1      -7.273  17.237  -1.887  1.00  0.00     0.029 A 
ATOM     56  C   UNL     1      -6.041  16.908  -1.345  1.00  0.00     0.049 A 
ATOM     57  H   UNL     1      -5.215  15.001  -0.978  1.00  0.00     0.167 HD
ATOM     58  C   UNL     1      -3.815  17.391  -0.364  1.00  0.00     0.074 A 
ATOM     59  C   UNL     1      -2.776  18.295   0.085  1.00  0.00     0.031 C 
ATOM     60  C   UNL     1      -4.996  17.791  -0.895  1.00  0.00     0.031 A 
BRANCH  47  61
ATOM     61  C   UNL     1      -8.715  13.151  -2.577  1.00  0.00    -0.014 A 
ATOM     62  C   UNL     1      -9.728  12.535  -1.825  1.00  0.00     0.009 A 
ATOM     63  C   UNL     1      -8.938  13.399  -3.941  1.00  0.00     0.009 A 
ATOM     64  C   UNL     1     -10.922  12.142  -2.434  1.00  0.00     0.001 A 
ATOM     65  C   UNL     1     -10.145  13.033  -4.540  1.00  0.00     0.001 A 
ATOM     66  C   UNL     1     -11.132  12.396  -3.789  1.00  0.00     0.000 A 
ENDBRANCH  47  61
BRANCH  48  67
ATOM     67  C   UNL     1       0.127  15.545   1.415  1.00  0.00    -0.014 A 
ATOM     68  C   UNL     1       0.215  16.179   2.664  1.00  0.00     0.009 A 
ATOM     69  C   UNL     1       1.309  15.264   0.713  1.00  0.00     0.009 A 
ATOM     70  C   UNL     1       1.457  16.550   3.184  1.00  0.00     0.001 A 
ATOM     71  C   UNL     1       2.552  15.608   1.249  1.00  0.00     0.001 A 
ATOM     72  C   UNL     1       2.624  16.260   2.478  1.00  0.00     0.000 A 
ENDBRANCH  48  67
BRANCH  60  73
ATOM     73  C   UNL     1      -5.241  19.270  -0.985  1.00  0.00    -0.014 A 
ATOM     74  C   UNL     1      -4.561  20.068  -1.917  1.00  0.00     0.009 A 
ATOM     75  C   UNL     1      -6.198  19.866  -0.147  1.00  0.00     0.009 A 
ATOM     76  C   UNL     1      -4.809  21.441  -1.984  1.00  0.00     0.001 A 
ATOM     77  C   UNL     1      -6.467  21.232  -0.239  1.00  0.00     0.001 A 
ATOM     78  C   UNL     1      -5.765  22.020  -1.150  1.00  0.00     0.000 A 
ENDBRANCH  60  73
ENDBRANCH  34  35
ENDBRANCH  26  29
ENDBRANCH  24  25
ENDBRANCH  23  24
ENDBRANCH   1  23
TORSDOF 15
