REMARK SMILES O=C(NCCCNC(=O)[C@H](CO)NC(=O)[C@H](CS)NC(=O)[C@H](Cc1ccccc1)NC(=O)c1ccc(F)cc1)c1ccc(-c2c3nc(c(-c4ccccc4)c4ccc([nH]4)c(-c4ccccc4)c4nc(c(-c5ccccc5)c5ccc2[nH]5)C=C4)C=C3)cc1
REMARK SMILES IDX 7 1 8 2 9 3 6 5 5 6 4 7 3 8 1 9 2 10 40 12 41 13 87 14 42 15
REMARK SMILES IDX 86 16 43 17 44 18 45 19 80 20 46 21 85 22 79 23 81 24 47 25
REMARK SMILES IDX 84 26 78 27 77 28 48 30 70 31 55 32 69 33 56 34 59 35 68 36
REMARK SMILES IDX 82 37 57 38 58 39 67 41 83 42 60 43 49 44 50 45 54 46 51 47
REMARK SMILES IDX 53 48 52 49 71 50 72 51 76 52 73 53 75 54 74 55 61 56 62 57
REMARK SMILES IDX 66 58 63 59 65 60 64 61 10 62 13 63 14 64 15 66 16 67 19 68
REMARK SMILES IDX 20 69 21 71 22 72 30 73 31 74 32 76 33 77 34 78 39 79 35 80
REMARK SMILES IDX 38 81 36 82 37 83 23 84 24 85 25 86 29 87 26 88 28 89 27 90
REMARK SMILES IDX 17 91 18 92 11 94 12 95
REMARK H PARENT 7 4 3 11 81 29 59 40 13 65 19 70 30 75 18 93 12 96
REMARK Flexibility Score: inf
ROOT
ATOM      1  N   UNL     1       1.026 -10.128   1.602  1.00  0.00    -0.354 N 
ATOM      2  C   UNL     1       2.220  -9.569   1.930  1.00  0.00     0.244 C 
ATOM      3  O   UNL     1       2.188  -8.684   2.793  1.00  0.00    -0.273 OA
ATOM      4  H   UNL     1       0.250  -9.648   1.972  1.00  0.00     0.163 HD
ENDROOT
BRANCH   1   5
ATOM      5  C   UNL     1       0.669 -11.292   0.813  1.00  0.00     0.117 C 
BRANCH   5   6
ATOM      6  C   UNL     1       0.414 -12.480   1.730  1.00  0.00     0.042 C 
BRANCH   6   7
ATOM      7  C   UNL     1      -0.886 -12.334   2.509  1.00  0.00     0.118 C 
BRANCH   7   8
ATOM      8  N   UNL     1      -2.047 -12.326   1.627  1.00  0.00    -0.352 N 
ATOM      9  O   UNL     1      -3.776 -13.219   0.493  1.00  0.00    -0.269 OA
ATOM     10  C   UNL     1      -3.034 -13.262   1.474  1.00  0.00     0.251 C 
ATOM     11  H   UNL     1      -2.133 -11.528   1.056  1.00  0.00     0.163 HD
BRANCH  10  12
ATOM     12  C   UNL     1      -3.208 -14.315   2.490  1.00  0.00     0.039 A 
ATOM     13  C   UNL     1      -3.086 -14.004   3.845  1.00  0.00     0.014 A 
ATOM     14  C   UNL     1      -3.526 -15.615   2.090  1.00  0.00     0.014 A 
ATOM     15  C   UNL     1      -3.128 -15.015   4.790  1.00  0.00     0.010 A 
ATOM     16  C   UNL     1      -3.683 -16.612   3.054  1.00  0.00     0.010 A 
ATOM     17  C   UNL     1      -3.461 -16.323   4.409  1.00  0.00    -0.014 A 
BRANCH  17  18
ATOM     18  C   UNL     1      -3.654 -17.347   5.462  1.00  0.00     0.031 A 
ATOM     19  C   UNL     1      -2.774 -18.559   5.540  1.00  0.00     0.074 A 
ATOM     20  C   UNL     1      -4.626 -17.149   6.373  1.00  0.00     0.049 A 
ATOM     21  N   UNL     1      -2.795 -19.532   6.415  1.00  0.00    -0.248 NA
ATOM     22  C   UNL     1      -1.744 -18.705   4.501  1.00  0.00     0.031 C 
ATOM     23  C   UNL     1      -5.540 -16.002   6.395  1.00  0.00     0.029 A 
ATOM     24  N   UNL     1      -4.993 -17.885   7.468  1.00  0.00    -0.354 N 
ATOM     25  C   UNL     1      -1.800 -20.418   6.020  1.00  0.00     0.074 A 
ATOM     26  C   UNL     1      -1.214 -19.880   4.811  1.00  0.00     0.031 C 
ATOM     27  C   UNL     1      -6.317 -16.079   7.484  1.00  0.00     0.029 A 
ATOM     28  C   UNL     1      -6.015 -17.317   8.189  1.00  0.00     0.049 A 
ATOM     29  H   UNL     1      -4.566 -18.737   7.715  1.00  0.00     0.167 HD
ATOM     30  C   UNL     1      -1.414 -21.573   6.614  1.00  0.00     0.031 A 
ATOM     31  C   UNL     1      -6.656 -17.753   9.287  1.00  0.00     0.031 A 
ATOM     32  C   UNL     1      -2.017 -22.106   7.809  1.00  0.00     0.049 A 
ATOM     33  C   UNL     1      -6.245 -19.062   9.890  1.00  0.00     0.074 A 
ATOM     34  C   UNL     1      -1.682 -23.254   8.507  1.00  0.00     0.029 A 
ATOM     35  N   UNL     1      -3.090 -21.533   8.477  1.00  0.00    -0.354 N 
ATOM     36  N   UNL     1      -5.281 -19.871   9.525  1.00  0.00    -0.248 NA
ATOM     37  C   UNL     1      -7.012 -19.517  11.056  1.00  0.00     0.031 C 
ATOM     38  C   UNL     1      -2.594 -23.409   9.556  1.00  0.00     0.029 A 
ATOM     39  C   UNL     1      -3.451 -22.320   9.558  1.00  0.00     0.049 A 
ATOM     40  H   UNL     1      -3.530 -20.690   8.220  1.00  0.00     0.167 HD
ATOM     41  C   UNL     1      -5.309 -20.923  10.430  1.00  0.00     0.074 A 
ATOM     42  C   UNL     1      -6.374 -20.635  11.371  1.00  0.00     0.031 C 
ATOM     43  C   UNL     1      -4.522 -22.026  10.478  1.00  0.00     0.031 A 
BRANCH  30  44
ATOM     44  C   UNL     1      -0.317 -22.360   5.947  1.00  0.00    -0.014 A 
ATOM     45  C   UNL     1       1.005 -21.890   5.900  1.00  0.00     0.009 A 
ATOM     46  C   UNL     1      -0.612 -23.604   5.366  1.00  0.00     0.009 A 
ATOM     47  C   UNL     1       1.997 -22.626   5.245  1.00  0.00     0.001 A 
ATOM     48  C   UNL     1       0.388 -24.353   4.741  1.00  0.00     0.001 A 
ATOM     49  C   UNL     1       1.688 -23.858   4.670  1.00  0.00     0.000 A 
ENDBRANCH  30  44
BRANCH  31  50
ATOM     50  C   UNL     1      -7.756 -16.942   9.867  1.00  0.00    -0.014 A 
ATOM     51  C   UNL     1      -7.597 -16.306  11.107  1.00  0.00     0.009 A 
ATOM     52  C   UNL     1      -8.962 -16.772   9.167  1.00  0.00     0.009 A 
ATOM     53  C   UNL     1      -8.628 -15.531  11.641  1.00  0.00     0.001 A 
ATOM     54  C   UNL     1      -9.978 -15.970   9.688  1.00  0.00     0.001 A 
ATOM     55  C   UNL     1      -9.814 -15.357  10.928  1.00  0.00     0.000 A 
ENDBRANCH  31  50
BRANCH  43  56
ATOM     56  C   UNL     1      -4.764 -22.984  11.610  1.00  0.00    -0.014 A 
ATOM     57  C   UNL     1      -5.917 -23.783  11.661  1.00  0.00     0.009 A 
ATOM     58  C   UNL     1      -3.808 -23.105  12.631  1.00  0.00     0.009 A 
ATOM     59  C   UNL     1      -6.125 -24.656  12.731  1.00  0.00     0.001 A 
ATOM     60  C   UNL     1      -4.001 -24.002  13.681  1.00  0.00     0.001 A 
ATOM     61  C   UNL     1      -5.164 -24.768  13.736  1.00  0.00     0.000 A 
ENDBRANCH  43  56
ENDBRANCH  17  18
ENDBRANCH  10  12
ENDBRANCH   7   8
ENDBRANCH   6   7
ENDBRANCH   5   6
ENDBRANCH   1   5
BRANCH   2  62
ATOM     62  C   UNL     1       3.532  -9.858   1.173  1.00  0.00     0.197 C 
BRANCH  62  63
ATOM     63  N   UNL     1       3.657 -11.144   0.486  1.00  0.00    -0.340 N 
ATOM     64  C   UNL     1       3.936 -12.405   0.900  1.00  0.00     0.244 C 
ATOM     65  H   UNL     1       3.505 -11.081  -0.485  1.00  0.00     0.164 HD
ATOM     66  O   UNL     1       3.645 -13.291   0.086  1.00  0.00    -0.273 OA
BRANCH  64  67
ATOM     67  C   UNL     1       4.648 -12.773   2.224  1.00  0.00     0.181 C 
BRANCH  67  68
ATOM     68  N   UNL     1       4.832 -11.697   3.204  1.00  0.00    -0.342 N 
ATOM     69  C   UNL     1       5.864 -10.829   3.433  1.00  0.00     0.243 C 
ATOM     70  H   UNL     1       4.067 -11.577   3.811  1.00  0.00     0.164 HD
ATOM     71  O   UNL     1       5.668 -10.007   4.335  1.00  0.00    -0.273 OA
BRANCH  69  72
ATOM     72  C   UNL     1       7.255 -10.912   2.741  1.00  0.00     0.176 C 
BRANCH  72  73
ATOM     73  N   UNL     1       7.331 -11.738   1.541  1.00  0.00    -0.340 N 
ATOM     74  C   UNL     1       7.981 -12.917   1.290  1.00  0.00     0.251 C 
ATOM     75  H   UNL     1       6.823 -11.386   0.775  1.00  0.00     0.164 HD
ATOM     76  O   UNL     1       8.042 -13.310   0.128  1.00  0.00    -0.269 OA
BRANCH  74  77
ATOM     77  C   UNL     1       8.588 -13.731   2.371  1.00  0.00     0.040 A 
ATOM     78  C   UNL     1       9.768 -14.425   2.068  1.00  0.00     0.017 A 
ATOM     79  C   UNL     1       7.990 -13.904   3.628  1.00  0.00     0.017 A 
ATOM     80  C   UNL     1      10.371 -15.236   3.031  1.00  0.00     0.040 A 
ATOM     81  C   UNL     1       8.604 -14.704   4.594  1.00  0.00     0.040 A 
ATOM     82  C   UNL     1       9.790 -15.357   4.287  1.00  0.00     0.123 A 
ATOM     83  F   UNL     1      10.374 -16.127   5.214  1.00  0.00    -0.207 F 
ENDBRANCH  74  77
ENDBRANCH  72  73
BRANCH  72  84
ATOM     84  C   UNL     1       7.892  -9.505   2.523  1.00  0.00     0.070 C 
BRANCH  84  85
ATOM     85  C   UNL     1       7.678  -8.835   1.178  1.00  0.00    -0.045 A 
ATOM     86  C   UNL     1       8.275  -9.356   0.017  1.00  0.00     0.004 A 
ATOM     87  C   UNL     1       6.940  -7.650   1.069  1.00  0.00     0.004 A 
ATOM     88  C   UNL     1       8.063  -8.769  -1.230  1.00  0.00     0.000 A 
ATOM     89  C   UNL     1       6.761  -7.038  -0.178  1.00  0.00     0.000 A 
ATOM     90  C   UNL     1       7.300  -7.611  -1.329  1.00  0.00     0.000 A 
ENDBRANCH  84  85
ENDBRANCH  72  84
ENDBRANCH  69  72
ENDBRANCH  67  68
BRANCH  67  91
ATOM     91  C   UNL     1       3.987 -14.009   2.874  1.00  0.00     0.101 C 
BRANCH  91  92
ATOM     92  S   UNL     1       4.463 -15.592   2.091  1.00  0.00    -0.177 SA
ATOM     93  H   UNL     1       4.056 -15.597   0.793  1.00  0.00     0.102 HD
ENDBRANCH  91  92
ENDBRANCH  67  91
ENDBRANCH  64  67
ENDBRANCH  62  63
BRANCH  62  94
ATOM     94  C   UNL     1       3.750  -8.697   0.188  1.00  0.00     0.191 C 
BRANCH  94  95
ATOM     95  O   UNL     1       2.675  -8.558  -0.738  1.00  0.00    -0.394 OA
ATOM     96  H   UNL     1       2.600  -9.366  -1.270  1.00  0.00     0.210 HD
ENDBRANCH  94  95
ENDBRANCH  62  94
ENDBRANCH   2  62
TORSDOF 22
