REMARK SMILES CCc1ccc2c(CC(=O)NCCCNC(=O)c3ccc(-c4c5nc(c(-c6ccccc6)c6ccc([nH]6)c(-c6ccccc6)c6nc(c(-c7ccccc7)c7ccc4[nH]7)C=C6)C=C5)cc3)c(C(=O)c3cc(C)ccn3)[nH]c2c1
REMARK SMILES IDX 12 1 11 2 9 3 10 4 8 6 7 7 3 8 4 9 78 10 5 11 77 12 6 13
REMARK SMILES IDX 76 14 66 15 2 17 1 18 67 19 68 20 69 21 70 22 75 23 71 24
REMARK SMILES IDX 74 25 72 26 73 27 13 28 14 29 15 30 16 31 17 33 18 34 19 35
REMARK SMILES IDX 65 36 20 37 64 38 21 39 22 40 23 41 58 42 24 43 63 44 57 45
REMARK SMILES IDX 59 46 25 47 62 48 56 49 55 50 26 52 48 53 33 54 47 55 34 56
REMARK SMILES IDX 37 57 46 58 60 59 35 60 36 61 45 63 61 64 38 65 27 66 28 67
REMARK SMILES IDX 32 68 29 69 31 70 30 71 49 72 50 73 54 74 51 75 53 76 52 77
REMARK SMILES IDX 39 78 40 79 44 80 41 81 43 82 42 83
REMARK H PARENT 11 5 76 16 15 32 59 51 37 62
REMARK Flexibility Score: inf
ROOT
ATOM      1  C   UNL     1       0.033   0.240   7.303  1.00  0.00     0.117 C 
ENDROOT
BRANCH   1   2
ATOM      2  N   UNL     1       0.882  -0.167   8.402  1.00  0.00    -0.356 N 
ATOM      3  C   UNL     1       2.219  -0.445   8.420  1.00  0.00     0.224 C 
ATOM      4  O   UNL     1       2.740  -0.570   9.531  1.00  0.00    -0.275 OA
ATOM      5  H   UNL     1       0.425  -0.258   9.269  1.00  0.00     0.163 HD
BRANCH   3   6
ATOM      6  C   UNL     1       3.046  -0.462   7.140  1.00  0.00     0.138 C 
BRANCH   6   7
ATOM      7  C   UNL     1       2.617  -1.472   6.107  1.00  0.00    -0.002 A 
ATOM      8  C   UNL     1       1.062  -1.210   2.172  1.00  0.00    -0.046 A 
ATOM      9  C   UNL     1       1.386   0.002   2.788  1.00  0.00     0.004 A 
ATOM     10  C   UNL     1       1.254  -2.413   2.878  1.00  0.00     0.030 A 
ATOM     11  C   UNL     1       1.928   0.040   4.079  1.00  0.00     0.011 A 
ATOM     12  C   UNL     1       1.793  -2.354   4.171  1.00  0.00     0.046 A 
ATOM     13  C   UNL     1       2.132  -1.158   4.792  1.00  0.00     0.004 A 
ATOM     14  N   UNL     1       2.083  -3.361   5.059  1.00  0.00    -0.352 N 
ATOM     15  C   UNL     1       2.668  -2.865   6.206  1.00  0.00     0.093 A 
ATOM     16  H   UNL     1       1.897  -4.315   4.897  1.00  0.00     0.167 HD
BRANCH   8  17
ATOM     17  C   UNL     1       0.448  -1.272   0.789  1.00  0.00     0.032 C 
ATOM     18  C   UNL     1       0.857  -0.157  -0.168  1.00  0.00     0.009 C 
ENDBRANCH   8  17
BRANCH  15  19
ATOM     19  C   UNL     1       3.210  -3.677   7.292  1.00  0.00     0.227 C 
ATOM     20  O   UNL     1       3.766  -3.198   8.278  1.00  0.00    -0.285 OA
BRANCH  19  21
ATOM     21  C   UNL     1       3.155  -5.159   7.192  1.00  0.00     0.113 A 
ATOM     22  C   UNL     1       3.914  -5.816   6.226  1.00  0.00     0.036 A 
ATOM     23  N   UNL     1       2.370  -5.793   8.098  1.00  0.00    -0.253 NA
ATOM     24  C   UNL     1       3.869  -7.211   6.186  1.00  0.00    -0.047 A 
ATOM     25  C   UNL     1       2.375  -7.140   8.061  1.00  0.00     0.112 A 
ATOM     26  C   UNL     1       4.662  -7.987   5.177  1.00  0.00     0.044 C 
ATOM     27  C   UNL     1       3.093  -7.882   7.135  1.00  0.00     0.023 A 
ENDBRANCH  19  21
ENDBRANCH  15  19
ENDBRANCH   6   7
ENDBRANCH   3   6
ENDBRANCH   1   2
BRANCH   1  28
ATOM     28  C   UNL     1      -0.868  -0.883   6.798  1.00  0.00     0.042 C 
BRANCH  28  29
ATOM     29  C   UNL     1      -1.911  -1.357   7.806  1.00  0.00     0.118 C 
BRANCH  29  30
ATOM     30  N   UNL     1      -2.893  -0.332   8.130  1.00  0.00    -0.352 N 
ATOM     31  C   UNL     1      -4.262  -0.354   8.057  1.00  0.00     0.251 C 
ATOM     32  H   UNL     1      -2.511   0.515   8.456  1.00  0.00     0.163 HD
ATOM     33  O   UNL     1      -4.892   0.687   8.229  1.00  0.00    -0.269 OA
BRANCH  31  34
ATOM     34  C   UNL     1      -4.995  -1.605   7.758  1.00  0.00     0.039 A 
ATOM     35  C   UNL     1      -6.107  -1.541   6.910  1.00  0.00     0.014 A 
ATOM     36  C   UNL     1      -4.640  -2.821   8.347  1.00  0.00     0.014 A 
ATOM     37  C   UNL     1      -6.826  -2.701   6.609  1.00  0.00     0.010 A 
ATOM     38  C   UNL     1      -5.321  -3.988   8.000  1.00  0.00     0.010 A 
ATOM     39  C   UNL     1      -6.422  -3.939   7.131  1.00  0.00    -0.014 A 
BRANCH  39  40
ATOM     40  C   UNL     1      -7.141  -5.192   6.792  1.00  0.00     0.031 A 
ATOM     41  C   UNL     1      -7.887  -5.947   7.857  1.00  0.00     0.074 A 
ATOM     42  C   UNL     1      -7.066  -5.691   5.543  1.00  0.00     0.049 A 
ATOM     43  N   UNL     1      -8.483  -7.111   7.781  1.00  0.00    -0.248 NA
ATOM     44  C   UNL     1      -7.952  -5.322   9.188  1.00  0.00     0.031 C 
ATOM     45  C   UNL     1      -6.357  -5.071   4.422  1.00  0.00     0.029 A 
ATOM     46  N   UNL     1      -7.585  -6.845   5.012  1.00  0.00    -0.354 N 
ATOM     47  C   UNL     1      -8.968  -7.370   9.057  1.00  0.00     0.074 A 
ATOM     48  C   UNL     1      -8.572  -6.257   9.894  1.00  0.00     0.031 C 
ATOM     49  C   UNL     1      -6.497  -5.845   3.334  1.00  0.00     0.029 A 
ATOM     50  C   UNL     1      -7.272  -7.030   3.688  1.00  0.00     0.049 A 
ATOM     51  H   UNL     1      -8.129  -7.480   5.531  1.00  0.00     0.167 HD
ATOM     52  C   UNL     1      -9.685  -8.433   9.492  1.00  0.00     0.031 A 
ATOM     53  C   UNL     1      -7.566  -8.045   2.854  1.00  0.00     0.031 A 
ATOM     54  C   UNL     1     -10.101  -9.530   8.661  1.00  0.00     0.049 A 
ATOM     55  C   UNL     1      -8.367  -9.210   3.359  1.00  0.00     0.074 A 
ATOM     56  C   UNL     1     -10.873 -10.627   9.002  1.00  0.00     0.029 A 
ATOM     57  N   UNL     1      -9.781  -9.666   7.319  1.00  0.00    -0.354 N 
ATOM     58  N   UNL     1      -8.848  -9.422   4.559  1.00  0.00    -0.248 NA
ATOM     59  C   UNL     1      -8.670 -10.274   2.390  1.00  0.00     0.031 C 
ATOM     60  C   UNL     1     -10.995 -11.444   7.872  1.00  0.00     0.029 A 
ATOM     61  C   UNL     1     -10.329 -10.836   6.821  1.00  0.00     0.049 A 
ATOM     62  H   UNL     1      -9.243  -9.027   6.799  1.00  0.00     0.167 HD
ATOM     63  C   UNL     1      -9.531 -10.629   4.485  1.00  0.00     0.074 A 
ATOM     64  C   UNL     1      -9.409 -11.098   3.120  1.00  0.00     0.031 C 
ATOM     65  C   UNL     1     -10.201 -11.287   5.461  1.00  0.00     0.031 A 
BRANCH  52  66
ATOM     66  C   UNL     1     -10.058  -8.461  10.947  1.00  0.00    -0.014 A 
ATOM     67  C   UNL     1     -11.051  -7.612  11.459  1.00  0.00     0.009 A 
ATOM     68  C   UNL     1      -9.425  -9.368  11.811  1.00  0.00     0.009 A 
ATOM     69  C   UNL     1     -11.378  -7.646  12.816  1.00  0.00     0.001 A 
ATOM     70  C   UNL     1      -9.771  -9.416  13.163  1.00  0.00     0.001 A 
ATOM     71  C   UNL     1     -10.740  -8.549  13.666  1.00  0.00     0.000 A 
ENDBRANCH  52  66
BRANCH  53  72
ATOM     72  C   UNL     1      -7.108  -7.999   1.443  1.00  0.00    -0.014 A 
ATOM     73  C   UNL     1      -8.021  -7.734   0.411  1.00  0.00     0.009 A 
ATOM     74  C   UNL     1      -5.760  -8.218   1.121  1.00  0.00     0.009 A 
ATOM     75  C   UNL     1      -7.596  -7.711  -0.919  1.00  0.00     0.001 A 
ATOM     76  C   UNL     1      -5.335  -8.171  -0.208  1.00  0.00     0.001 A 
ATOM     77  C   UNL     1      -6.254  -7.925  -1.227  1.00  0.00     0.000 A 
ENDBRANCH  53  72
BRANCH  65  78
ATOM     78  C   UNL     1     -10.884 -12.568   5.078  1.00  0.00    -0.014 A 
ATOM     79  C   UNL     1     -10.153 -13.750   4.888  1.00  0.00     0.009 A 
ATOM     80  C   UNL     1     -12.280 -12.597   4.945  1.00  0.00     0.009 A 
ATOM     81  C   UNL     1     -10.809 -14.935   4.546  1.00  0.00     0.001 A 
ATOM     82  C   UNL     1     -12.934 -13.787   4.624  1.00  0.00     0.001 A 
ATOM     83  C   UNL     1     -12.198 -14.953   4.418  1.00  0.00     0.000 A 
ENDBRANCH  65  78
ENDBRANCH  39  40
ENDBRANCH  31  34
ENDBRANCH  29  30
ENDBRANCH  28  29
ENDBRANCH   1  28
TORSDOF 14
