REMARK SMILES Cc1ccc(C(=O)NC2CC2)cc1NC(=O)[C@@H]1[C@@H](C(=O)NCCCNC(=O)c2ccc(-c3c4nc(c(-c5ccccc5)c5ccc([nH]5)c(-c5ccccc5)c5nc(c(-c6ccccc6)c6ccc3[nH]6)C=C5)C=C4)cc2)[C@H]2C=C[C@@H]1C2
REMARK SMILES IDX 22 1 21 2 19 3 20 4 18 6 17 7 79 8 76 9 78 10 80 11 77 12
REMARK SMILES IDX 15 13 14 14 16 16 13 17 1 18 2 19 3 20 4 21 12 22 5 23 6 24
REMARK SMILES IDX 7 25 8 26 9 28 10 29 11 30 23 31 24 32 25 33 26 34 27 36
REMARK SMILES IDX 28 37 29 38 75 39 30 40 74 41 31 42 32 43 33 44 68 45 34 46
REMARK SMILES IDX 73 47 67 48 69 49 35 50 72 51 66 52 65 53 36 55 58 56 43 57
REMARK SMILES IDX 57 58 44 59 47 60 56 61 70 62 45 63 46 64 55 66 71 67 48 68
REMARK SMILES IDX 37 69 38 70 42 71 39 72 41 73 40 74 59 75 60 76 64 77 61 78
REMARK SMILES IDX 63 79 62 80 49 81 50 82 54 83 51 84 53 85 52 86
REMARK H PARENT 21 5 14 15 8 27 25 35 69 54 47 65
REMARK Flexibility Score: inf
ROOT
ATOM      1  C   UNL     1      -4.039   7.234   0.849  1.00  0.00     0.117 C 
ENDROOT
BRANCH   1   2
ATOM      2  N   UNL     1      -3.358   6.572  -0.248  1.00  0.00    -0.356 N 
ATOM      3  C   UNL     1      -2.280   5.753  -0.317  1.00  0.00     0.224 C 
ATOM      4  O   UNL     1      -1.958   5.399  -1.458  1.00  0.00    -0.275 OA
ATOM      5  H   UNL     1      -3.763   6.755  -1.126  1.00  0.00     0.163 HD
BRANCH   3   6
ATOM      6  C   UNL     1      -1.410   5.332   0.866  1.00  0.00     0.098 C 
ATOM      7  C   UNL     1      -0.957   3.832   0.652  1.00  0.00     0.099 C 
ATOM      8  C   UNL     1      -1.167   3.201   2.053  1.00  0.00     0.025 C 
ATOM      9  C   UNL     1      -1.976   5.275   2.301  1.00  0.00     0.025 C 
ATOM     10  C   UNL     1      -2.653   3.069   2.273  1.00  0.00    -0.027 C 
ATOM     11  C   UNL     1      -0.914   4.396   2.976  1.00  0.00     0.017 C 
ATOM     12  C   UNL     1      -3.142   4.309   2.404  1.00  0.00    -0.027 C 
BRANCH   7  13
ATOM     13  C   UNL     1       0.466   3.616   0.166  1.00  0.00     0.228 C 
ATOM     14  N   UNL     1       0.917   2.360  -0.173  1.00  0.00    -0.326 N 
ATOM     15  H   UNL     1       1.872   2.333  -0.413  1.00  0.00     0.169 HD
ATOM     16  O   UNL     1       1.284   4.540   0.155  1.00  0.00    -0.274 OA
BRANCH  14  17
ATOM     17  C   UNL     1       0.277   1.099  -0.244  1.00  0.00     0.044 A 
ATOM     18  C   UNL     1       2.502  -0.112   0.258  1.00  0.00     0.046 C 
ATOM     19  C   UNL     1       1.012  -0.069   0.036  1.00  0.00    -0.027 A 
ATOM     20  C   UNL     1       0.335  -1.300   0.089  1.00  0.00     0.006 A 
ATOM     21  C   UNL     1      -1.041  -1.377  -0.130  1.00  0.00     0.014 A 
ATOM     22  C   UNL     1      -1.077   0.967  -0.603  1.00  0.00     0.040 A 
ATOM     23  C   UNL     1      -1.774  -0.241  -0.493  1.00  0.00     0.041 A 
BRANCH  23  24
ATOM     24  C   UNL     1      -3.241  -0.437  -0.745  1.00  0.00     0.251 C 
ATOM     25  O   UNL     1      -3.695  -1.585  -0.731  1.00  0.00    -0.269 OA
ATOM     26  N   UNL     1      -4.146   0.582  -0.959  1.00  0.00    -0.349 N 
ATOM     27  H   UNL     1      -5.073   0.278  -1.096  1.00  0.00     0.164 HD
BRANCH  26  28
ATOM     28  C   UNL     1      -3.981   1.988  -1.016  1.00  0.00     0.082 C 
ATOM     29  C   UNL     1      -3.879   2.672  -2.351  1.00  0.00     0.027 C 
ATOM     30  C   UNL     1      -5.072   2.912  -1.478  1.00  0.00     0.027 C 
ENDBRANCH  26  28
ENDBRANCH  23  24
ENDBRANCH  14  17
ENDBRANCH   7  13
ENDBRANCH   3   6
ENDBRANCH   1   2
BRANCH   1  31
ATOM     31  C   UNL     1      -3.413   8.578   1.188  1.00  0.00     0.042 C 
BRANCH  31  32
ATOM     32  C   UNL     1      -4.151   9.730   0.520  1.00  0.00     0.118 C 
BRANCH  32  33
ATOM     33  N   UNL     1      -5.269  10.255   1.302  1.00  0.00    -0.352 N 
ATOM     34  C   UNL     1      -6.254  11.162   0.936  1.00  0.00     0.251 C 
ATOM     35  H   UNL     1      -5.332   9.916   2.224  1.00  0.00     0.163 HD
ATOM     36  O   UNL     1      -7.109  11.498   1.731  1.00  0.00    -0.269 OA
BRANCH  34  37
ATOM     37  C   UNL     1      -6.327  11.608  -0.479  1.00  0.00     0.039 A 
ATOM     38  C   UNL     1      -7.568  11.541  -1.120  1.00  0.00     0.014 A 
ATOM     39  C   UNL     1      -5.168  11.850  -1.209  1.00  0.00     0.014 A 
ATOM     40  C   UNL     1      -7.607  11.441  -2.508  1.00  0.00     0.010 A 
ATOM     41  C   UNL     1      -5.192  11.641  -2.572  1.00  0.00     0.010 A 
ATOM     42  C   UNL     1      -6.404  11.368  -3.210  1.00  0.00    -0.014 A 
BRANCH  42  43
ATOM     43  C   UNL     1      -6.316  10.890  -4.582  1.00  0.00     0.031 A 
ATOM     44  C   UNL     1      -6.095  11.837  -5.688  1.00  0.00     0.074 A 
ATOM     45  C   UNL     1      -6.440   9.571  -4.847  1.00  0.00     0.049 A 
ATOM     46  N   UNL     1      -6.564  11.672  -6.879  1.00  0.00    -0.248 NA
ATOM     47  C   UNL     1      -5.356  13.084  -5.519  1.00  0.00     0.031 C 
ATOM     48  C   UNL     1      -6.190   8.887  -6.112  1.00  0.00     0.029 A 
ATOM     49  N   UNL     1      -7.023   8.598  -4.051  1.00  0.00    -0.354 N 
ATOM     50  C   UNL     1      -5.966  12.612  -7.681  1.00  0.00     0.074 A 
ATOM     51  C   UNL     1      -5.287  13.516  -6.781  1.00  0.00     0.031 C 
ATOM     52  C   UNL     1      -6.817   7.699  -6.095  1.00  0.00     0.029 A 
ATOM     53  C   UNL     1      -7.605   7.630  -4.875  1.00  0.00     0.049 A 
ATOM     54  H   UNL     1      -7.027   8.589  -3.066  1.00  0.00     0.167 HD
ATOM     55  C   UNL     1      -5.967  12.457  -9.034  1.00  0.00     0.031 A 
ATOM     56  C   UNL     1      -8.949   7.390  -4.827  1.00  0.00     0.031 A 
ATOM     57  C   UNL     1      -6.658  11.243  -9.448  1.00  0.00     0.049 A 
ATOM     58  C   UNL     1      -9.675   7.754  -6.108  1.00  0.00     0.074 A 
ATOM     59  C   UNL     1      -6.206   9.975  -9.774  1.00  0.00     0.029 A 
ATOM     60  N   UNL     1      -8.028  11.135  -9.250  1.00  0.00    -0.354 N 
ATOM     61  N   UNL     1      -9.155   8.478  -7.061  1.00  0.00    -0.248 NA
ATOM     62  C   UNL     1     -11.058   7.375  -6.394  1.00  0.00     0.031 C 
ATOM     63  C   UNL     1      -7.305   9.082  -9.687  1.00  0.00     0.029 A 
ATOM     64  C   UNL     1      -8.426   9.815  -9.343  1.00  0.00     0.049 A 
ATOM     65  H   UNL     1      -8.631  11.892  -9.068  1.00  0.00     0.167 HD
ATOM     66  C   UNL     1     -10.086   8.686  -8.043  1.00  0.00     0.074 A 
ATOM     67  C   UNL     1     -11.258   7.960  -7.590  1.00  0.00     0.031 C 
ATOM     68  C   UNL     1      -9.821   9.454  -9.139  1.00  0.00     0.031 A 
BRANCH  55  69
ATOM     69  C   UNL     1      -5.047  13.255  -9.915  1.00  0.00    -0.014 A 
ATOM     70  C   UNL     1      -4.409  12.636 -11.003  1.00  0.00     0.009 A 
ATOM     71  C   UNL     1      -4.730  14.605  -9.685  1.00  0.00     0.009 A 
ATOM     72  C   UNL     1      -3.429  13.295 -11.755  1.00  0.00     0.001 A 
ATOM     73  C   UNL     1      -3.720  15.256 -10.405  1.00  0.00     0.001 A 
ATOM     74  C   UNL     1      -3.061  14.595 -11.434  1.00  0.00     0.000 A 
ENDBRANCH  55  69
BRANCH  56  75
ATOM     75  C   UNL     1      -9.525   7.525  -3.459  1.00  0.00    -0.014 A 
ATOM     76  C   UNL     1      -9.148   6.578  -2.485  1.00  0.00     0.009 A 
ATOM     77  C   UNL     1     -10.102   8.729  -3.033  1.00  0.00     0.009 A 
ATOM     78  C   UNL     1      -9.235   6.878  -1.122  1.00  0.00     0.001 A 
ATOM     79  C   UNL     1     -10.196   9.021  -1.666  1.00  0.00     0.001 A 
ATOM     80  C   UNL     1      -9.729   8.114  -0.715  1.00  0.00     0.000 A 
ENDBRANCH  56  75
BRANCH  68  81
ATOM     81  C   UNL     1     -10.827   9.901 -10.167  1.00  0.00    -0.014 A 
ATOM     82  C   UNL     1     -12.190  10.085  -9.904  1.00  0.00     0.009 A 
ATOM     83  C   UNL     1     -10.361  10.303 -11.439  1.00  0.00     0.009 A 
ATOM     84  C   UNL     1     -13.051  10.609 -10.878  1.00  0.00     0.001 A 
ATOM     85  C   UNL     1     -11.208  10.866 -12.396  1.00  0.00     0.001 A 
ATOM     86  C   UNL     1     -12.559  11.009 -12.118  1.00  0.00     0.000 A 
ENDBRANCH  68  81
ENDBRANCH  42  43
ENDBRANCH  34  37
ENDBRANCH  32  33
ENDBRANCH  31  32
ENDBRANCH   1  31
TORSDOF 14
