REMARK SMILES CCc1ccc(OCC(=O)Nc2cc(C)c(O)c(C(=O)NCCCNC(=O)c3ccc(-c4c5nc(c(-c6ccccc6)c6ccc([nH]6)c(-c6ccccc6)c6nc(c(-c7ccccc7)c7ccc4[nH]7)C=C6)C=C5)cc3)c2)cc1
REMARK SMILES IDX 19 1 20 2 21 3 18 5 12 6 13 7 76 8 14 9 15 10 16 11 11 12
REMARK SMILES IDX 9 13 10 14 8 16 7 17 6 18 3 19 4 20 78 21 5 22 77 23 2 24
REMARK SMILES IDX 1 25 17 26 22 28 23 29 24 30 25 31 26 32 27 34 28 35 29 36
REMARK SMILES IDX 75 37 30 38 74 39 31 40 32 41 33 42 68 43 34 44 73 45 67 46
REMARK SMILES IDX 69 47 35 48 72 49 66 50 65 51 36 53 58 54 43 55 57 56 44 57
REMARK SMILES IDX 47 58 56 59 70 60 45 61 46 62 55 64 71 65 48 66 37 67 38 68
REMARK SMILES IDX 42 69 39 70 41 71 40 72 59 73 60 74 64 75 61 76 63 77 62 78
REMARK SMILES IDX 49 79 50 80 54 81 51 82 53 83 52 84
REMARK H PARENT 21 4 11 15 17 27 25 33 69 52 47 63
REMARK Flexibility Score: inf
ROOT
ATOM      1  C   UNL     1       1.553  -2.557  -7.344  1.00  0.00     0.255 C 
ATOM      2  O   UNL     1       1.734  -3.598  -7.982  1.00  0.00    -0.269 OA
ATOM      3  N   UNL     1       1.829  -2.574  -5.999  1.00  0.00    -0.352 N 
ATOM      4  H   UNL     1       2.182  -3.430  -5.665  1.00  0.00     0.163 HD
ENDROOT
BRANCH   1   5
ATOM      5  C   UNL     1       0.963  -1.391  -8.064  1.00  0.00     0.083 A 
ATOM      6  C   UNL     1       0.598   0.989  -8.382  1.00  0.00     0.042 A 
ATOM      7  C   UNL     1      -0.350   0.683  -9.374  1.00  0.00     0.033 A 
ATOM      8  C   UNL     1       1.288  -0.052  -7.762  1.00  0.00     0.043 A 
ATOM      9  C   UNL     1      -0.607  -0.631  -9.777  1.00  0.00    -0.006 A 
ATOM     10  C   UNL     1      -1.560  -0.863 -10.916  1.00  0.00     0.048 C 
ATOM     11  C   UNL     1       0.051  -1.665  -9.110  1.00  0.00     0.131 A 
BRANCH   6  12
ATOM     12  N   UNL     1       0.703   2.352  -8.077  1.00  0.00    -0.323 N 
ATOM     13  C   UNL     1       1.558   3.150  -7.392  1.00  0.00     0.262 C 
ATOM     14  O   UNL     1       1.223   4.341  -7.304  1.00  0.00    -0.271 OA
ATOM     15  H   UNL     1      -0.042   2.868  -8.463  1.00  0.00     0.170 HD
BRANCH  13  16
ATOM     16  C   UNL     1       2.926   2.705  -6.856  1.00  0.00     0.329 C 
BRANCH  16  17
ATOM     17  O   UNL     1       3.126   1.949  -5.682  1.00  0.00    -0.484 OA
BRANCH  17  18
ATOM     18  C   UNL     1       2.456   2.260  -4.539  1.00  0.00     0.120 A 
ATOM     19  C   UNL     1       0.790   2.313  -2.270  1.00  0.00    -0.048 A 
ATOM     20  C   UNL     1       1.783   1.346  -2.403  1.00  0.00     0.007 A 
ATOM     21  C   UNL     1       0.781   3.364  -3.191  1.00  0.00     0.007 A 
ATOM     22  C   UNL     1       2.615   1.327  -3.520  1.00  0.00     0.047 A 
ATOM     23  C   UNL     1       1.619   3.344  -4.313  1.00  0.00     0.047 A 
BRANCH  19  24
ATOM     24  C   UNL     1      -0.240   2.267  -1.169  1.00  0.00     0.032 C 
ATOM     25  C   UNL     1      -0.629   0.860  -0.721  1.00  0.00     0.009 C 
ENDBRANCH  19  24
ENDBRANCH  17  18
ENDBRANCH  16  17
ENDBRANCH  13  16
ENDBRANCH   6  12
BRANCH  11  26
ATOM     26  O   UNL     1      -0.233  -2.946  -9.516  1.00  0.00    -0.507 OA
ATOM     27  H   UNL     1      -0.842  -3.091 -10.213  1.00  0.00     0.293 HD
ENDBRANCH  11  26
ENDBRANCH   1   5
BRANCH   3  28
ATOM     28  C   UNL     1       1.688  -1.545  -4.987  1.00  0.00     0.118 C 
BRANCH  28  29
ATOM     29  C   UNL     1       1.074  -2.027  -3.676  1.00  0.00     0.042 C 
BRANCH  29  30
ATOM     30  C   UNL     1       1.977  -2.850  -2.758  1.00  0.00     0.118 C 
BRANCH  30  31
ATOM     31  N   UNL     1       3.216  -2.200  -2.341  1.00  0.00    -0.352 N 
ATOM     32  C   UNL     1       3.672  -1.590  -1.196  1.00  0.00     0.251 C 
ATOM     33  H   UNL     1       3.892  -2.198  -3.057  1.00  0.00     0.163 HD
ATOM     34  O   UNL     1       4.821  -1.142  -1.220  1.00  0.00    -0.269 OA
BRANCH  32  35
ATOM     35  C   UNL     1       2.858  -1.370   0.033  1.00  0.00     0.039 A 
ATOM     36  C   UNL     1       3.144  -0.240   0.825  1.00  0.00     0.014 A 
ATOM     37  C   UNL     1       1.847  -2.225   0.454  1.00  0.00     0.014 A 
ATOM     38  C   UNL     1       2.384   0.063   1.967  1.00  0.00     0.010 A 
ATOM     39  C   UNL     1       1.033  -1.878   1.536  1.00  0.00     0.010 A 
ATOM     40  C   UNL     1       1.289  -0.735   2.315  1.00  0.00    -0.014 A 
BRANCH  40  41
ATOM     41  C   UNL     1       0.407  -0.459   3.489  1.00  0.00     0.031 A 
ATOM     42  C   UNL     1       0.243  -1.514   4.553  1.00  0.00     0.074 A 
ATOM     43  C   UNL     1      -0.351   0.654   3.558  1.00  0.00     0.049 A 
ATOM     44  N   UNL     1      -0.634  -1.591   5.523  1.00  0.00    -0.248 NA
ATOM     45  C   UNL     1       1.176  -2.651   4.493  1.00  0.00     0.031 C 
ATOM     46  C   UNL     1      -0.303   1.783   2.634  1.00  0.00     0.029 A 
ATOM     47  N   UNL     1      -1.356   0.993   4.436  1.00  0.00    -0.354 N 
ATOM     48  C   UNL     1      -0.375  -2.794   6.167  1.00  0.00     0.074 A 
ATOM     49  C   UNL     1       0.689  -3.445   5.434  1.00  0.00     0.031 C 
ATOM     50  C   UNL     1      -1.262   2.667   2.958  1.00  0.00     0.029 A 
ATOM     51  C   UNL     1      -2.002   2.162   4.109  1.00  0.00     0.049 A 
ATOM     52  H   UNL     1      -1.589   0.450   5.223  1.00  0.00     0.167 HD
ATOM     53  C   UNL     1      -0.939  -3.303   7.289  1.00  0.00     0.031 A 
ATOM     54  C   UNL     1      -3.076   2.759   4.661  1.00  0.00     0.031 A 
ATOM     55  C   UNL     1      -1.973  -2.655   8.049  1.00  0.00     0.049 A 
ATOM     56  C   UNL     1      -3.739   2.146   5.863  1.00  0.00     0.074 A 
ATOM     57  C   UNL     1      -2.547  -3.057   9.242  1.00  0.00     0.029 A 
ATOM     58  N   UNL     1      -2.586  -1.467   7.688  1.00  0.00    -0.354 N 
ATOM     59  N   UNL     1      -3.440   1.040   6.498  1.00  0.00    -0.248 NA
ATOM     60  C   UNL     1      -4.873   2.884   6.440  1.00  0.00     0.031 C 
ATOM     61  C   UNL     1      -3.538  -2.129   9.584  1.00  0.00     0.029 A 
ATOM     62  C   UNL     1      -3.548  -1.129   8.626  1.00  0.00     0.049 A 
ATOM     63  H   UNL     1      -2.371  -0.941   6.885  1.00  0.00     0.167 HD
ATOM     64  C   UNL     1      -4.307   0.981   7.582  1.00  0.00     0.074 A 
ATOM     65  C   UNL     1      -5.153   2.154   7.511  1.00  0.00     0.031 C 
ATOM     66  C   UNL     1      -4.378   0.045   8.560  1.00  0.00     0.031 A 
BRANCH  53  67
ATOM     67  C   UNL     1      -0.424  -4.636   7.759  1.00  0.00    -0.014 A 
ATOM     68  C   UNL     1       0.877  -4.769   8.270  1.00  0.00     0.009 A 
ATOM     69  C   UNL     1      -1.241  -5.772   7.676  1.00  0.00     0.009 A 
ATOM     70  C   UNL     1       1.372  -6.023   8.629  1.00  0.00     0.001 A 
ATOM     71  C   UNL     1      -0.755  -7.021   8.068  1.00  0.00     0.001 A 
ATOM     72  C   UNL     1       0.555  -7.148   8.528  1.00  0.00     0.000 A 
ENDBRANCH  53  67
BRANCH  54  73
ATOM     73  C   UNL     1      -3.581   4.044   4.111  1.00  0.00    -0.014 A 
ATOM     74  C   UNL     1      -3.341   5.244   4.798  1.00  0.00     0.009 A 
ATOM     75  C   UNL     1      -4.324   4.077   2.921  1.00  0.00     0.009 A 
ATOM     76  C   UNL     1      -3.860   6.449   4.319  1.00  0.00     0.001 A 
ATOM     77  C   UNL     1      -4.823   5.288   2.434  1.00  0.00     0.001 A 
ATOM     78  C   UNL     1      -4.598   6.470   3.137  1.00  0.00     0.000 A 
ENDBRANCH  54  73
BRANCH  66  79
ATOM     79  C   UNL     1      -5.356   0.283   9.676  1.00  0.00    -0.014 A 
ATOM     80  C   UNL     1      -6.737   0.125   9.490  1.00  0.00     0.009 A 
ATOM     81  C   UNL     1      -4.876   0.633  10.949  1.00  0.00     0.009 A 
ATOM     82  C   UNL     1      -7.620   0.340  10.551  1.00  0.00     0.001 A 
ATOM     83  C   UNL     1      -5.758   0.821  12.013  1.00  0.00     0.001 A 
ATOM     84  C   UNL     1      -7.130   0.682  11.811  1.00  0.00     0.000 A 
ENDBRANCH  66  79
ENDBRANCH  40  41
ENDBRANCH  32  35
ENDBRANCH  30  31
ENDBRANCH  29  30
ENDBRANCH  28  29
ENDBRANCH   3  28
TORSDOF 16
