REMARK SMILES O=C(NCCCNC(=O)[C@@H]1C=C[C@@H]([NH+]2CC3(CC3)C2)C1)c1ccc(-c2c3nc(c(-c4ccccc4)c4ccc([nH]4)c(-c4ccccc4)c4nc(c(-c5ccccc5)c5ccc2[nH]5)C=C4)C=C3)cc1
REMARK SMILES IDX 4 1 3 2 1 3 2 4 21 6 22 7 68 8 23 9 67 10 24 11 25 12 26 13
REMARK SMILES IDX 61 14 27 15 66 16 60 17 62 18 28 19 65 20 59 21 58 22 29 24
REMARK SMILES IDX 51 25 36 26 50 27 37 28 40 29 49 30 63 31 38 32 39 33 48 35
REMARK SMILES IDX 64 36 41 37 30 38 31 39 35 40 32 41 34 42 33 43 52 44 53 45
REMARK SMILES IDX 57 46 54 47 56 48 55 49 42 50 43 51 47 52 44 53 46 54 45 55
REMARK SMILES IDX 5 56 6 57 7 58 8 59 9 61 10 62 11 63 20 64 12 65 13 66 14 67
REMARK SMILES IDX 15 68 19 69 16 71 17 72 18 73
REMARK H PARENT 3 5 62 23 40 34 7 60 14 70
REMARK Flexibility Score: inf
ROOT
ATOM      1  C   UNL     1      11.007  -2.262   5.514  1.00  0.00     0.118 C 
ENDROOT
BRANCH   1   2
ATOM      2  N   UNL     1      11.284  -3.658   5.207  1.00  0.00    -0.352 N 
ATOM      3  O   UNL     1      12.365  -5.377   4.228  1.00  0.00    -0.269 OA
ATOM      4  C   UNL     1      12.391  -4.213   4.622  1.00  0.00     0.251 C 
ATOM      5  H   UNL     1      10.574  -4.294   5.455  1.00  0.00     0.163 HD
BRANCH   4   6
ATOM      6  C   UNL     1      13.611  -3.401   4.458  1.00  0.00     0.039 A 
ATOM      7  C   UNL     1      14.063  -2.588   5.501  1.00  0.00     0.014 A 
ATOM      8  C   UNL     1      14.316  -3.468   3.255  1.00  0.00     0.014 A 
ATOM      9  C   UNL     1      15.142  -1.740   5.296  1.00  0.00     0.010 A 
ATOM     10  C   UNL     1      15.459  -2.687   3.086  1.00  0.00     0.010 A 
ATOM     11  C   UNL     1      15.867  -1.802   4.098  1.00  0.00    -0.014 A 
BRANCH  11  12
ATOM     12  C   UNL     1      17.103  -1.000   3.948  1.00  0.00     0.031 A 
ATOM     13  C   UNL     1      17.213   0.066   2.900  1.00  0.00     0.074 A 
ATOM     14  C   UNL     1      18.143  -1.266   4.761  1.00  0.00     0.049 A 
ATOM     15  N   UNL     1      18.240   0.819   2.599  1.00  0.00    -0.248 NA
ATOM     16  C   UNL     1      16.021   0.311   2.073  1.00  0.00     0.031 C 
ATOM     17  C   UNL     1      18.150  -2.287   5.813  1.00  0.00     0.029 A 
ATOM     18  N   UNL     1      19.393  -0.710   4.827  1.00  0.00    -0.354 N 
ATOM     19  C   UNL     1      17.829   1.609   1.533  1.00  0.00     0.074 A 
ATOM     20  C   UNL     1      16.468   1.225   1.224  1.00  0.00     0.031 C 
ATOM     21  C   UNL     1      19.339  -2.270   6.431  1.00  0.00     0.029 A 
ATOM     22  C   UNL     1      20.198  -1.293   5.774  1.00  0.00     0.049 A 
ATOM     23  H   UNL     1      19.685   0.034   4.252  1.00  0.00     0.167 HD
ATOM     24  C   UNL     1      18.528   2.566   0.874  1.00  0.00     0.031 A 
ATOM     25  C   UNL     1      21.497  -1.097   6.060  1.00  0.00     0.031 A 
ATOM     26  C   UNL     1      19.889   2.925   1.181  1.00  0.00     0.049 A 
ATOM     27  C   UNL     1      22.264  -0.069   5.285  1.00  0.00     0.074 A 
ATOM     28  C   UNL     1      20.671   3.909   0.603  1.00  0.00     0.029 A 
ATOM     29  N   UNL     1      20.675   2.301   2.139  1.00  0.00    -0.354 N 
ATOM     30  N   UNL     1      21.849   0.710   4.315  1.00  0.00    -0.248 NA
ATOM     31  C   UNL     1      23.676   0.113   5.644  1.00  0.00     0.031 C 
ATOM     32  C   UNL     1      21.952   3.832   1.160  1.00  0.00     0.029 A 
ATOM     33  C   UNL     1      21.946   2.851   2.140  1.00  0.00     0.049 A 
ATOM     34  H   UNL     1      20.374   1.574   2.731  1.00  0.00     0.167 HD
ATOM     35  C   UNL     1      22.940   1.490   3.961  1.00  0.00     0.074 A 
ATOM     36  C   UNL     1      24.032   1.098   4.831  1.00  0.00     0.031 C 
ATOM     37  C   UNL     1      23.026   2.446   3.006  1.00  0.00     0.031 A 
BRANCH  24  38
ATOM     38  C   UNL     1      17.845   3.251  -0.279  1.00  0.00    -0.014 A 
ATOM     39  C   UNL     1      16.752   4.112  -0.084  1.00  0.00     0.009 A 
ATOM     40  C   UNL     1      18.314   3.041  -1.585  1.00  0.00     0.009 A 
ATOM     41  C   UNL     1      16.115   4.706  -1.177  1.00  0.00     0.001 A 
ATOM     42  C   UNL     1      17.697   3.663  -2.672  1.00  0.00     0.001 A 
ATOM     43  C   UNL     1      16.589   4.482  -2.469  1.00  0.00     0.000 A 
ENDBRANCH  24  38
BRANCH  25  44
ATOM     44  C   UNL     1      22.141  -1.926   7.110  1.00  0.00    -0.014 A 
ATOM     45  C   UNL     1      22.509  -1.367   8.342  1.00  0.00     0.009 A 
ATOM     46  C   UNL     1      22.339  -3.301   6.900  1.00  0.00     0.009 A 
ATOM     47  C   UNL     1      23.075  -2.168   9.337  1.00  0.00     0.001 A 
ATOM     48  C   UNL     1      22.874  -4.104   7.908  1.00  0.00     0.001 A 
ATOM     49  C   UNL     1      23.248  -3.535   9.123  1.00  0.00     0.000 A 
ENDBRANCH  25  44
BRANCH  37  50
ATOM     50  C   UNL     1      24.338   3.167   2.868  1.00  0.00    -0.014 A 
ATOM     51  C   UNL     1      25.463   2.540   2.311  1.00  0.00     0.009 A 
ATOM     52  C   UNL     1      24.427   4.516   3.245  1.00  0.00     0.009 A 
ATOM     53  C   UNL     1      26.658   3.246   2.154  1.00  0.00     0.001 A 
ATOM     54  C   UNL     1      25.613   5.228   3.059  1.00  0.00     0.001 A 
ATOM     55  C   UNL     1      26.729   4.590   2.520  1.00  0.00     0.000 A 
ENDBRANCH  37  50
ENDBRANCH  11  12
ENDBRANCH   4   6
ENDBRANCH   1   2
BRANCH   1  56
ATOM     56  C   UNL     1       9.827  -1.723   4.717  1.00  0.00     0.042 C 
BRANCH  56  57
ATOM     57  C   UNL     1       8.522  -2.440   5.036  1.00  0.00     0.117 C 
BRANCH  57  58
ATOM     58  N   UNL     1       8.203  -2.302   6.443  1.00  0.00    -0.356 N 
ATOM     59  C   UNL     1       7.401  -1.373   7.038  1.00  0.00     0.227 C 
ATOM     60  H   UNL     1       8.617  -2.962   7.045  1.00  0.00     0.163 HD
ATOM     61  O   UNL     1       7.505  -1.210   8.253  1.00  0.00    -0.274 OA
BRANCH  59  62
ATOM     62  C   UNL     1       6.390  -0.637   6.166  1.00  0.00     0.107 C 
ATOM     63  C   UNL     1       6.879   0.629   5.543  1.00  0.00    -0.012 C 
ATOM     64  C   UNL     1       5.178  -0.200   6.992  1.00  0.00     0.087 C 
ATOM     65  C   UNL     1       6.079   1.664   5.819  1.00  0.00     0.033 C 
ATOM     66  C   UNL     1       4.966   1.309   6.761  1.00  0.00     0.208 C 
BRANCH  66  67
ATOM     67  N   UNL     1       3.669   1.817   6.289  1.00  0.00    -0.328 N 
ATOM     68  C   UNL     1       2.893   0.872   5.463  1.00  0.00     0.275 C 
ATOM     69  C   UNL     1       2.647   1.735   7.352  1.00  0.00     0.275 C 
ATOM     70  H   UNL     1       3.956   2.706   5.878  1.00  0.00     0.348 HD
ATOM     71  C   UNL     1       2.147   0.511   6.692  1.00  0.00     0.068 C 
ATOM     72  C   UNL     1       1.998  -0.832   7.349  1.00  0.00     0.020 C 
ATOM     73  C   UNL     1       0.798  -0.122   6.791  1.00  0.00     0.020 C 
ENDBRANCH  66  67
ENDBRANCH  59  62
ENDBRANCH  57  58
ENDBRANCH  56  57
ENDBRANCH   1  56
TORSDOF 11
