REMARK SMILES O=C(Cn1nc(C(=O)NCCCNC(=O)c2ccc(-c3c4nc(c(-c5ccccc5)c5ccc([nH]5)c(-c5ccccc5)c5nc(c(-c6ccccc6)c6ccc3[nH]6)C=C5)C=C4)cc2)c2ccccc2c1=O)Nc1ccc2c(c1)C(=O)c1ccccc1C2=O
REMARK SMILES IDX 10 1 9 2 7 3 8 4 6 6 4 7 5 8 70 9 69 10 71 11 64 12 68 13
REMARK SMILES IDX 65 14 67 15 66 16 3 17 2 18 1 19 72 20 73 22 74 23 78 24
REMARK SMILES IDX 75 25 77 26 76 27 79 28 87 29 80 30 81 31 86 32 88 33 82 34
REMARK SMILES IDX 85 35 83 36 84 37 11 38 12 39 13 40 14 41 15 43 16 44 17 45
REMARK SMILES IDX 63 46 18 47 62 48 19 49 20 50 21 51 56 52 22 53 61 54 55 55
REMARK SMILES IDX 57 56 23 57 60 58 54 59 53 60 24 62 46 63 31 64 45 65 32 66
REMARK SMILES IDX 35 67 44 68 58 69 33 70 34 71 43 73 59 74 36 75 25 76 26 77
REMARK SMILES IDX 30 78 27 79 29 80 28 81 47 82 48 83 52 84 49 85 51 86 50 87
REMARK SMILES IDX 37 88 38 89 42 90 39 91 41 92 40 93
REMARK H PARENT 9 5 72 21 13 42 57 61 35 72
REMARK Flexibility Score: inf
ROOT
ATOM      1  C   UNL     1       6.265  -0.752   1.370  1.00  0.00     0.118 C 
ENDROOT
BRANCH   1   2
ATOM      2  N   UNL     1       6.875   0.488   1.816  1.00  0.00    -0.351 N 
ATOM      3  C   UNL     1       6.681   1.798   1.450  1.00  0.00     0.272 C 
ATOM      4  O   UNL     1       7.458   2.619   1.924  1.00  0.00    -0.267 OA
ATOM      5  H   UNL     1       7.557   0.367   2.515  1.00  0.00     0.163 HD
BRANCH   3   6
ATOM      6  C   UNL     1       5.525   2.240   0.521  1.00  0.00     0.156 A 
ATOM      7  N   UNL     1       3.749   1.625  -0.848  1.00  0.00    -0.219 N 
ATOM      8  N   UNL     1       4.877   1.311  -0.123  1.00  0.00    -0.163 NA
ATOM      9  C   UNL     1       3.165   2.882  -0.848  1.00  0.00     0.275 A 
ATOM     10  C   UNL     1       3.961   3.971  -0.258  1.00  0.00     0.051 A 
ATOM     11  O   UNL     1       2.052   3.111  -1.309  1.00  0.00    -0.267 OA
ATOM     12  C   UNL     1       5.156   3.681   0.400  1.00  0.00     0.020 A 
ATOM     13  C   UNL     1       3.521   5.296  -0.411  1.00  0.00     0.014 A 
ATOM     14  C   UNL     1       5.929   4.753   0.869  1.00  0.00     0.011 A 
ATOM     15  C   UNL     1       4.292   6.348   0.074  1.00  0.00     0.001 A 
ATOM     16  C   UNL     1       5.500   6.076   0.706  1.00  0.00     0.001 A 
BRANCH   7  17
ATOM     17  C   UNL     1       3.102   0.520  -1.572  1.00  0.00     0.248 C 
BRANCH  17  18
ATOM     18  C   UNL     1       2.433  -0.510  -0.658  1.00  0.00     0.246 C 
ATOM     19  O   UNL     1       2.304  -1.679  -1.019  1.00  0.00    -0.273 OA
ATOM     20  N   UNL     1       1.929   0.020   0.515  1.00  0.00    -0.324 N 
ATOM     21  H   UNL     1       1.667   0.969   0.500  1.00  0.00     0.169 HD
BRANCH  20  22
ATOM     22  C   UNL     1       1.755  -0.668   1.730  1.00  0.00     0.042 A 
ATOM     23  C   UNL     1       1.928  -2.050   1.873  1.00  0.00     0.027 A 
ATOM     24  C   UNL     1       1.609   0.128   2.869  1.00  0.00     0.039 A 
ATOM     25  C   UNL     1       2.107  -2.616   3.139  1.00  0.00     0.015 A 
ATOM     26  C   UNL     1       1.856  -0.428   4.124  1.00  0.00     0.036 A 
ATOM     27  C   UNL     1       2.151  -1.782   4.256  1.00  0.00     0.034 A 
ATOM     28  C   UNL     1       2.025   0.485   5.277  1.00  0.00     0.194 C 
ATOM     29  C   UNL     1       2.710  -2.282   5.528  1.00  0.00     0.194 C 
ATOM     30  O   UNL     1       1.481   1.555   5.318  1.00  0.00    -0.289 OA
ATOM     31  C   UNL     1       3.012   0.060   6.296  1.00  0.00     0.034 A 
ATOM     32  C   UNL     1       3.361  -1.286   6.405  1.00  0.00     0.034 A 
ATOM     33  O   UNL     1       2.735  -3.478   5.790  1.00  0.00    -0.289 OA
ATOM     34  C   UNL     1       3.678   1.032   7.045  1.00  0.00     0.013 A 
ATOM     35  C   UNL     1       4.400  -1.671   7.256  1.00  0.00     0.013 A 
ATOM     36  C   UNL     1       4.734   0.650   7.874  1.00  0.00     0.001 A 
ATOM     37  C   UNL     1       5.096  -0.696   7.974  1.00  0.00     0.001 A 
ENDBRANCH  20  22
ENDBRANCH  17  18
ENDBRANCH   7  17
ENDBRANCH   3   6
ENDBRANCH   1   2
BRANCH   1  38
ATOM     38  C   UNL     1       6.986  -1.335   0.156  1.00  0.00     0.042 C 
BRANCH  38  39
ATOM     39  C   UNL     1       8.458  -1.676   0.406  1.00  0.00     0.118 C 
BRANCH  39  40
ATOM     40  N   UNL     1       8.639  -2.745   1.380  1.00  0.00    -0.352 N 
ATOM     41  C   UNL     1       9.157  -4.008   1.236  1.00  0.00     0.251 C 
ATOM     42  H   UNL     1       8.340  -2.525   2.292  1.00  0.00     0.163 HD
ATOM     43  O   UNL     1       9.064  -4.811   2.160  1.00  0.00    -0.269 OA
BRANCH  41  44
ATOM     44  C   UNL     1       9.810  -4.422  -0.025  1.00  0.00     0.039 A 
ATOM     45  C   UNL     1      10.758  -3.609  -0.650  1.00  0.00     0.014 A 
ATOM     46  C   UNL     1       9.499  -5.675  -0.566  1.00  0.00     0.014 A 
ATOM     47  C   UNL     1      11.290  -3.986  -1.882  1.00  0.00     0.010 A 
ATOM     48  C   UNL     1      10.075  -6.077  -1.775  1.00  0.00     0.010 A 
ATOM     49  C   UNL     1      10.943  -5.217  -2.463  1.00  0.00    -0.014 A 
BRANCH  49  50
ATOM     50  C   UNL     1      11.480  -5.571  -3.801  1.00  0.00     0.031 A 
ATOM     51  C   UNL     1      10.578  -5.592  -5.004  1.00  0.00     0.074 A 
ATOM     52  C   UNL     1      12.797  -5.809  -3.948  1.00  0.00     0.049 A 
ATOM     53  N   UNL     1      10.886  -5.806  -6.259  1.00  0.00    -0.248 NA
ATOM     54  C   UNL     1       9.147  -5.337  -4.772  1.00  0.00     0.031 C 
ATOM     55  C   UNL     1      13.782  -5.806  -2.866  1.00  0.00     0.029 A 
ATOM     56  N   UNL     1      13.537  -6.062  -5.076  1.00  0.00    -0.354 N 
ATOM     57  C   UNL     1       9.691  -5.725  -6.962  1.00  0.00     0.074 A 
ATOM     58  C   UNL     1       8.648  -5.461  -5.994  1.00  0.00     0.031 C 
ATOM     59  C   UNL     1      15.006  -5.984  -3.389  1.00  0.00     0.029 A 
ATOM     60  C   UNL     1      14.886  -6.151  -4.835  1.00  0.00     0.049 A 
ATOM     61  H   UNL     1      13.140  -6.170  -5.970  1.00  0.00     0.167 HD
ATOM     62  C   UNL     1       9.479  -5.849  -8.293  1.00  0.00     0.031 A 
ATOM     63  C   UNL     1      15.916  -6.336  -5.682  1.00  0.00     0.031 A 
ATOM     64  C   UNL     1      10.507  -6.097  -9.266  1.00  0.00     0.049 A 
ATOM     65  C   UNL     1      15.652  -6.500  -7.150  1.00  0.00     0.074 A 
ATOM     66  C   UNL     1      10.381  -6.223 -10.639  1.00  0.00     0.029 A 
ATOM     67  N   UNL     1      11.850  -6.253  -8.969  1.00  0.00    -0.354 N 
ATOM     68  N   UNL     1      14.514  -6.424  -7.794  1.00  0.00    -0.248 NA
ATOM     69  C   UNL     1      16.814  -6.787  -8.004  1.00  0.00     0.031 C 
ATOM     70  C   UNL     1      11.648  -6.483 -11.171  1.00  0.00     0.029 A 
ATOM     71  C   UNL     1      12.563  -6.490 -10.132  1.00  0.00     0.049 A 
ATOM     72  H   UNL     1      12.240  -6.203  -8.067  1.00  0.00     0.167 HD
ATOM     73  C   UNL     1      14.820  -6.656  -9.127  1.00  0.00     0.074 A 
ATOM     74  C   UNL     1      16.253  -6.857  -9.204  1.00  0.00     0.031 C 
ATOM     75  C   UNL     1      13.984  -6.703 -10.191  1.00  0.00     0.031 A 
BRANCH  62  76
ATOM     76  C   UNL     1       8.066  -5.729  -8.780  1.00  0.00    -0.014 A 
ATOM     77  C   UNL     1       7.348  -6.883  -9.132  1.00  0.00     0.009 A 
ATOM     78  C   UNL     1       7.464  -4.472  -8.940  1.00  0.00     0.009 A 
ATOM     79  C   UNL     1       6.050  -6.780  -9.634  1.00  0.00     0.001 A 
ATOM     80  C   UNL     1       6.160  -4.374  -9.428  1.00  0.00     0.001 A 
ATOM     81  C   UNL     1       5.456  -5.526  -9.777  1.00  0.00     0.000 A 
ENDBRANCH  62  76
BRANCH  63  82
ATOM     82  C   UNL     1      17.300  -6.359  -5.153  1.00  0.00    -0.014 A 
ATOM     83  C   UNL     1      17.782  -7.480  -4.461  1.00  0.00     0.009 A 
ATOM     84  C   UNL     1      18.133  -5.241  -5.309  1.00  0.00     0.009 A 
ATOM     85  C   UNL     1      19.070  -7.477  -3.923  1.00  0.00     0.001 A 
ATOM     86  C   UNL     1      19.426  -5.247  -4.782  1.00  0.00     0.001 A 
ATOM     87  C   UNL     1      19.891  -6.362  -4.086  1.00  0.00     0.000 A 
ENDBRANCH  63  82
BRANCH  75  88
ATOM     88  C   UNL     1      14.590  -6.994 -11.531  1.00  0.00    -0.014 A 
ATOM     89  C   UNL     1      14.793  -5.954 -12.451  1.00  0.00     0.009 A 
ATOM     90  C   UNL     1      14.895  -8.311 -11.904  1.00  0.00     0.009 A 
ATOM     91  C   UNL     1      15.292  -6.230 -13.725  1.00  0.00     0.001 A 
ATOM     92  C   UNL     1      15.407  -8.581 -13.174  1.00  0.00     0.001 A 
ATOM     93  C   UNL     1      15.600  -7.541 -14.084  1.00  0.00     0.000 A 
ENDBRANCH  75  88
ENDBRANCH  49  50
ENDBRANCH  41  44
ENDBRANCH  39  40
ENDBRANCH  38  39
ENDBRANCH   1  38
TORSDOF 13
