REMARK SMILES COc1cc([C@@H]2CC(=O)Nc3c(C(=O)NCCCNC(=O)c4ccc(-c5c6nc(c(-c7ccccc7)c7ccc([nH]7)c(-c7ccccc7)c7nc(c(-c8ccccc8)c8ccc5[nH]8)C=C7)C=C6)cc4)cn(-c4ccc(F)cc4)c32)c(OC)c2c1OCO2
REMARK SMILES IDX 17 1 16 2 15 3 13 4 14 5 12 7 6 8 7 9 79 10 8 11 11 12 71 13
REMARK SMILES IDX 9 14 10 15 70 16 5 18 3 19 4 20 84 21 83 22 85 23 80 24
REMARK SMILES IDX 87 25 86 26 2 27 1 28 81 29 82 30 72 31 73 32 78 33 74 34
REMARK SMILES IDX 77 35 75 36 76 37 18 38 19 39 20 40 21 42 22 43 23 44 69 45
REMARK SMILES IDX 24 46 68 47 25 48 26 49 27 50 62 51 28 52 67 53 61 54 63 55
REMARK SMILES IDX 29 56 66 57 60 58 59 59 30 61 52 62 37 63 51 64 38 65 41 66
REMARK SMILES IDX 50 67 64 68 39 69 40 70 49 72 65 73 42 74 31 75 32 76 36 77
REMARK SMILES IDX 33 78 35 79 34 80 53 81 54 82 58 83 55 84 57 85 56 86 43 87
REMARK SMILES IDX 44 88 48 89 45 90 47 91 46 92
REMARK H PARENT 15 6 10 17 19 41 63 60 41 71
REMARK Flexibility Score: inf
ROOT
ATOM      1  C   UNL     1       0.824   0.462  11.043  1.00  0.00     0.042 C 
ENDROOT
BRANCH   1   2
ATOM      2  C   UNL     1       1.376  -0.864  10.490  1.00  0.00     0.118 C 
BRANCH   2   3
ATOM      3  N   UNL     1       0.376  -1.909  10.487  1.00  0.00    -0.352 N 
ATOM      4  C   UNL     1      -0.578  -2.292   9.579  1.00  0.00     0.254 C 
ATOM      5  O   UNL     1      -1.207  -3.310   9.889  1.00  0.00    -0.269 OA
ATOM      6  H   UNL     1       0.381  -2.458  11.305  1.00  0.00     0.163 HD
BRANCH   4   7
ATOM      7  C   UNL     1      -0.845  -1.613   8.303  1.00  0.00     0.081 A 
ATOM      8  C   UNL     1      -0.800   0.803   5.461  1.00  0.00     0.082 C 
ATOM      9  C   UNL     1      -0.697   2.114   6.250  1.00  0.00     0.115 C 
ATOM     10  C   UNL     1      -0.995  -0.349   6.404  1.00  0.00     0.055 A 
ATOM     11  C   UNL     1       0.168   1.963   7.470  1.00  0.00     0.225 C 
ATOM     12  C   UNL     1      -0.559  -0.349   7.710  1.00  0.00     0.076 A 
ATOM     13  N   UNL     1      -1.679  -1.517   6.180  1.00  0.00    -0.317 N 
ATOM     14  O   UNL     1       0.846   2.883   7.926  1.00  0.00    -0.275 OA
ATOM     15  N   UNL     1       0.079   0.781   8.147  1.00  0.00    -0.324 N 
ATOM     16  C   UNL     1      -1.636  -2.251   7.341  1.00  0.00     0.107 A 
ATOM     17  H   UNL     1       0.513   0.737   9.030  1.00  0.00     0.170 HD
BRANCH   8  18
ATOM     18  C   UNL     1       0.381   0.655   4.496  1.00  0.00     0.012 A 
ATOM     19  C   UNL     1       1.063   0.825   2.144  1.00  0.00     0.165 A 
ATOM     20  C   UNL     1       0.111   0.991   3.144  1.00  0.00     0.059 A 
ATOM     21  C   UNL     1       2.321   0.399   2.517  1.00  0.00     0.211 A 
ATOM     22  C   UNL     1       2.625   0.112   3.833  1.00  0.00     0.211 A 
ATOM     23  O   UNL     1       3.391   0.227   1.691  1.00  0.00    -0.449 OA
ATOM     24  C   UNL     1       1.685   0.224   4.850  1.00  0.00     0.168 A 
ATOM     25  O   UNL     1       3.923  -0.291   3.964  1.00  0.00    -0.449 OA
ATOM     26  C   UNL     1       4.418  -0.121   2.630  1.00  0.00     0.468 C 
BRANCH  19  27
ATOM     27  O   UNL     1       0.664   1.140   0.879  1.00  0.00    -0.493 OA
ATOM     28  C   UNL     1       1.017   0.153  -0.085  1.00  0.00     0.278 C 
ENDBRANCH  19  27
BRANCH  24  29
ATOM     29  O   UNL     1       1.916  -0.064   6.162  1.00  0.00    -0.492 OA
ATOM     30  C   UNL     1       3.246  -0.296   6.604  1.00  0.00     0.278 C 
ENDBRANCH  24  29
ENDBRANCH   8  18
BRANCH  13  31
ATOM     31  C   UNL     1      -2.382  -1.871   5.010  1.00  0.00     0.046 A 
ATOM     32  C   UNL     1      -1.736  -1.818   3.771  1.00  0.00     0.029 A 
ATOM     33  C   UNL     1      -3.741  -2.189   5.094  1.00  0.00     0.029 A 
ATOM     34  C   UNL     1      -2.466  -1.997   2.600  1.00  0.00     0.041 A 
ATOM     35  C   UNL     1      -4.470  -2.362   3.915  1.00  0.00     0.041 A 
ATOM     36  C   UNL     1      -3.830  -2.248   2.683  1.00  0.00     0.123 A 
ATOM     37  F   UNL     1      -4.541  -2.382   1.556  1.00  0.00    -0.207 F 
ENDBRANCH  13  31
ENDBRANCH   4   7
ENDBRANCH   2   3
ENDBRANCH   1   2
BRANCH   1  38
ATOM     38  C   UNL     1       1.033   0.636  12.521  1.00  0.00     0.118 C 
BRANCH  38  39
ATOM     39  N   UNL     1       2.446   0.900  12.818  1.00  0.00    -0.352 N 
ATOM     40  C   UNL     1       3.075   0.991  14.047  1.00  0.00     0.251 C 
ATOM     41  H   UNL     1       3.027   1.032  12.034  1.00  0.00     0.163 HD
ATOM     42  O   UNL     1       4.143   1.559  14.171  1.00  0.00    -0.269 OA
BRANCH  40  43
ATOM     43  C   UNL     1       2.400   0.382  15.203  1.00  0.00     0.039 A 
ATOM     44  C   UNL     1       2.399   0.975  16.465  1.00  0.00     0.014 A 
ATOM     45  C   UNL     1       1.670  -0.771  14.955  1.00  0.00     0.014 A 
ATOM     46  C   UNL     1       1.586   0.419  17.447  1.00  0.00     0.010 A 
ATOM     47  C   UNL     1       0.656  -1.097  15.798  1.00  0.00     0.010 A 
ATOM     48  C   UNL     1       0.699  -0.609  17.089  1.00  0.00    -0.014 A 
BRANCH  48  49
ATOM     49  C   UNL     1      -0.281  -1.158  18.008  1.00  0.00     0.031 A 
ATOM     50  C   UNL     1      -1.153  -0.136  18.622  1.00  0.00     0.074 A 
ATOM     51  C   UNL     1      -0.523  -2.484  18.112  1.00  0.00     0.049 A 
ATOM     52  N   UNL     1      -1.087   0.298  19.834  1.00  0.00    -0.248 NA
ATOM     53  C   UNL     1      -2.073   0.622  17.759  1.00  0.00     0.031 C 
ATOM     54  C   UNL     1       0.051  -3.589  17.330  1.00  0.00     0.029 A 
ATOM     55  N   UNL     1      -1.446  -3.121  18.877  1.00  0.00    -0.354 N 
ATOM     56  C   UNL     1      -2.126   1.207  19.959  1.00  0.00     0.074 A 
ATOM     57  C   UNL     1      -2.536   1.534  18.616  1.00  0.00     0.031 C 
ATOM     58  C   UNL     1      -0.704  -4.700  17.486  1.00  0.00     0.029 A 
ATOM     59  C   UNL     1      -1.698  -4.439  18.509  1.00  0.00     0.049 A 
ATOM     60  H   UNL     1      -1.902  -2.685  19.633  1.00  0.00     0.167 HD
ATOM     61  C   UNL     1      -2.763   1.364  21.152  1.00  0.00     0.031 A 
ATOM     62  C   UNL     1      -2.671  -5.246  19.000  1.00  0.00     0.031 A 
ATOM     63  C   UNL     1      -2.029   0.735  22.227  1.00  0.00     0.049 A 
ATOM     64  C   UNL     1      -3.092  -4.675  20.300  1.00  0.00     0.074 A 
ATOM     65  C   UNL     1      -0.747   0.852  22.729  1.00  0.00     0.029 A 
ATOM     66  N   UNL     1      -2.495  -0.485  22.662  1.00  0.00    -0.354 N 
ATOM     67  N   UNL     1      -2.323  -4.659  21.350  1.00  0.00    -0.248 NA
ATOM     68  C   UNL     1      -4.174  -3.703  20.304  1.00  0.00     0.031 C 
ATOM     69  C   UNL     1      -0.344  -0.485  23.023  1.00  0.00     0.029 A 
ATOM     70  C   UNL     1      -1.424  -1.333  22.773  1.00  0.00     0.049 A 
ATOM     71  H   UNL     1      -3.433  -0.709  22.858  1.00  0.00     0.167 HD
ATOM     72  C   UNL     1      -2.514  -3.399  21.899  1.00  0.00     0.074 A 
ATOM     73  C   UNL     1      -3.746  -2.901  21.285  1.00  0.00     0.031 C 
ATOM     74  C   UNL     1      -1.501  -2.762  22.560  1.00  0.00     0.031 A 
BRANCH  61  75
ATOM     75  C   UNL     1      -4.239   1.652  21.271  1.00  0.00    -0.014 A 
ATOM     76  C   UNL     1      -4.781   1.813  22.558  1.00  0.00     0.009 A 
ATOM     77  C   UNL     1      -5.154   1.478  20.216  1.00  0.00     0.009 A 
ATOM     78  C   UNL     1      -6.158   1.710  22.784  1.00  0.00     0.001 A 
ATOM     79  C   UNL     1      -6.532   1.418  20.432  1.00  0.00     0.001 A 
ATOM     80  C   UNL     1      -7.032   1.501  21.722  1.00  0.00     0.000 A 
ENDBRANCH  61  75
BRANCH  62  81
ATOM     81  C   UNL     1      -3.417  -6.341  18.345  1.00  0.00    -0.014 A 
ATOM     82  C   UNL     1      -4.169  -7.252  19.106  1.00  0.00     0.009 A 
ATOM     83  C   UNL     1      -3.626  -6.325  16.954  1.00  0.00     0.009 A 
ATOM     84  C   UNL     1      -5.132  -8.074  18.505  1.00  0.00     0.001 A 
ATOM     85  C   UNL     1      -4.586  -7.148  16.354  1.00  0.00     0.001 A 
ATOM     86  C   UNL     1      -5.352  -8.009  17.132  1.00  0.00     0.000 A 
ENDBRANCH  62  81
BRANCH  74  87
ATOM     87  C   UNL     1      -0.258  -3.561  22.883  1.00  0.00    -0.014 A 
ATOM     88  C   UNL     1       0.554  -4.163  21.904  1.00  0.00     0.009 A 
ATOM     89  C   UNL     1       0.181  -3.590  24.214  1.00  0.00     0.009 A 
ATOM     90  C   UNL     1       1.747  -4.806  22.254  1.00  0.00     0.001 A 
ATOM     91  C   UNL     1       1.383  -4.211  24.561  1.00  0.00     0.001 A 
ATOM     92  C   UNL     1       2.161  -4.826  23.584  1.00  0.00     0.000 A 
ENDBRANCH  74  87
ENDBRANCH  48  49
ENDBRANCH  40  43
ENDBRANCH  38  39
ENDBRANCH   1  38
TORSDOF 14
