REMARK SMILES Nc1nc(N2CCOC[C@H]2C(=O)NCCCNC(=O)c2ccc(-c3c4nc(c(-c5ccccc5)c5ccc([nH]5)c(-c5ccccc5)c5nc(c(-c6ccccc6)c6ccc3[nH]6)C=C5)C=C4)cc2)ccc1[N+](=O)[O-]
REMARK SMILES IDX 15 1 14 2 13 3 11 4 12 5 10 7 5 8 6 9 7 10 9 11 8 12 4 13
REMARK SMILES IDX 2 14 3 15 70 16 69 17 68 18 1 19 71 22 72 23 73 24 16 25
REMARK SMILES IDX 17 26 18 27 19 29 20 30 21 31 67 32 22 33 66 34 23 35 24 36
REMARK SMILES IDX 25 37 60 38 26 39 65 40 59 41 61 42 27 43 64 44 58 45 57 46
REMARK SMILES IDX 28 48 50 49 35 50 49 51 36 52 39 53 48 54 62 55 37 56 38 57
REMARK SMILES IDX 47 59 63 60 40 61 29 62 30 63 34 64 31 65 33 66 32 67 51 68
REMARK SMILES IDX 52 69 56 70 53 71 55 72 54 73 41 74 42 75 46 76 43 77 45 78
REMARK SMILES IDX 44 79
REMARK H PARENT 13 6 1 20 1 21 17 28 61 47 39 58
REMARK Flexibility Score: inf
ROOT
ATOM      1  C   UNL     1      -2.292   4.383   3.338  1.00  0.00     0.042 C 
ENDROOT
BRANCH   1   2
ATOM      2  C   UNL     1      -2.237   5.196   2.050  1.00  0.00     0.117 C 
BRANCH   2   3
ATOM      3  N   UNL     1      -0.987   5.006   1.347  1.00  0.00    -0.354 N 
ATOM      4  C   UNL     1      -0.643   4.250   0.268  1.00  0.00     0.245 C 
ATOM      5  O   UNL     1       0.541   4.368  -0.086  1.00  0.00    -0.273 OA
ATOM      6  H   UNL     1      -0.239   5.527   1.720  1.00  0.00     0.163 HD
BRANCH   4   7
ATOM      7  C   UNL     1      -1.610   3.365  -0.555  1.00  0.00     0.199 C 
ATOM      8  N   UNL     1      -2.073   2.111   0.086  1.00  0.00    -0.340 N 
ATOM      9  C   UNL     1      -3.364   2.112   0.761  1.00  0.00     0.147 C 
ATOM     10  C   UNL     1      -4.416   2.808  -0.100  1.00  0.00     0.181 C 
ATOM     11  C   UNL     1      -2.783   4.142  -1.194  1.00  0.00     0.195 C 
ATOM     12  O   UNL     1      -4.012   4.137  -0.446  1.00  0.00    -0.377 OA
BRANCH   8  13
ATOM     13  C   UNL     1      -1.290   0.980   0.009  1.00  0.00     0.132 A 
ATOM     14  C   UNL     1       0.854   0.015   0.027  1.00  0.00     0.204 A 
ATOM     15  N   UNL     1       0.053   1.111   0.052  1.00  0.00    -0.207 NA
ATOM     16  C   UNL     1       0.319  -1.264  -0.060  1.00  0.00     0.311 A 
ATOM     17  C   UNL     1      -1.061  -1.419  -0.166  1.00  0.00     0.093 A 
ATOM     18  C   UNL     1      -1.863  -0.284  -0.130  1.00  0.00     0.054 A 
BRANCH  14  19
ATOM     19  N   UNL     1       2.195   0.292   0.200  1.00  0.00    -0.378 N 
ATOM     20  H   UNL     1       2.502   1.226   0.253  1.00  0.00     0.158 HD
ATOM     21  H   UNL     1       2.844  -0.445   0.269  1.00  0.00     0.158 HD
ENDBRANCH  14  19
BRANCH  16  22
ATOM     22  N   UNL     1       1.158  -2.452  -0.054  1.00  0.00     0.066 N 
ATOM     23  O   UNL     1       0.638  -3.511   0.334  1.00  0.00    -0.258 OA
ATOM     24  O   UNL     1       2.323  -2.357  -0.469  1.00  0.00    -0.258 OA
ENDBRANCH  16  22
ENDBRANCH   8  13
ENDBRANCH   4   7
ENDBRANCH   2   3
ENDBRANCH   1   2
BRANCH   1  25
ATOM     25  C   UNL     1      -1.707   5.107   4.541  1.00  0.00     0.118 C 
BRANCH  25  26
ATOM     26  N   UNL     1      -2.583   6.167   5.022  1.00  0.00    -0.352 N 
ATOM     27  C   UNL     1      -3.196   6.348   6.237  1.00  0.00     0.251 C 
ATOM     28  H   UNL     1      -2.768   6.875   4.363  1.00  0.00     0.163 HD
ATOM     29  O   UNL     1      -4.054   7.221   6.344  1.00  0.00    -0.269 OA
BRANCH  27  30
ATOM     30  C   UNL     1      -2.860   5.511   7.415  1.00  0.00     0.039 A 
ATOM     31  C   UNL     1      -3.868   5.238   8.347  1.00  0.00     0.014 A 
ATOM     32  C   UNL     1      -1.564   5.047   7.654  1.00  0.00     0.014 A 
ATOM     33  C   UNL     1      -3.585   4.479   9.486  1.00  0.00     0.010 A 
ATOM     34  C   UNL     1      -1.306   4.207   8.736  1.00  0.00     0.010 A 
ATOM     35  C   UNL     1      -2.305   3.937   9.680  1.00  0.00    -0.014 A 
BRANCH  35  36
ATOM     36  C   UNL     1      -1.996   3.126  10.885  1.00  0.00     0.031 A 
ATOM     37  C   UNL     1      -0.977   3.604  11.887  1.00  0.00     0.074 A 
ATOM     38  C   UNL     1      -2.611   1.941  11.067  1.00  0.00     0.049 A 
ATOM     39  N   UNL     1      -0.598   3.045  13.010  1.00  0.00    -0.248 NA
ATOM     40  C   UNL     1      -0.270   4.857  11.576  1.00  0.00     0.031 C 
ATOM     41  C   UNL     1      -3.568   1.331  10.142  1.00  0.00     0.029 A 
ATOM     42  N   UNL     1      -2.526   1.040  12.099  1.00  0.00    -0.354 N 
ATOM     43  C   UNL     1       0.404   3.863  13.520  1.00  0.00     0.074 A 
ATOM     44  C   UNL     1       0.611   4.925  12.562  1.00  0.00     0.031 C 
ATOM     45  C   UNL     1      -4.015   0.179  10.668  1.00  0.00     0.029 A 
ATOM     46  C   UNL     1      -3.359  -0.043  11.952  1.00  0.00     0.049 A 
ATOM     47  H   UNL     1      -1.927   1.159  12.871  1.00  0.00     0.167 HD
ATOM     48  C   UNL     1       1.075   3.756  14.691  1.00  0.00     0.031 A 
ATOM     49  C   UNL     1      -3.582  -1.089  12.768  1.00  0.00     0.031 A 
ATOM     50  C   UNL     1       0.851   2.718  15.660  1.00  0.00     0.049 A 
ATOM     51  C   UNL     1      -2.867  -1.157  14.088  1.00  0.00     0.074 A 
ATOM     52  C   UNL     1       1.429   2.560  16.907  1.00  0.00     0.029 A 
ATOM     53  N   UNL     1      -0.028   1.660  15.488  1.00  0.00    -0.354 N 
ATOM     54  N   UNL     1      -1.985  -0.330  14.593  1.00  0.00    -0.248 NA
ATOM     55  C   UNL     1      -3.199  -2.293  14.960  1.00  0.00     0.031 C 
ATOM     56  C   UNL     1       0.926   1.384  17.475  1.00  0.00     0.029 A 
ATOM     57  C   UNL     1       0.001   0.837  16.601  1.00  0.00     0.049 A 
ATOM     58  H   UNL     1      -0.589   1.515  14.692  1.00  0.00     0.167 HD
ATOM     59  C   UNL     1      -1.674  -0.829  15.850  1.00  0.00     0.074 A 
ATOM     60  C   UNL     1      -2.477  -2.021  16.038  1.00  0.00     0.031 C 
ATOM     61  C   UNL     1      -0.803  -0.345  16.768  1.00  0.00     0.031 A 
BRANCH  48  62
ATOM     62  C   UNL     1       2.119   4.799  14.985  1.00  0.00    -0.014 A 
ATOM     63  C   UNL     1       1.761   6.125  15.280  1.00  0.00     0.009 A 
ATOM     64  C   UNL     1       3.478   4.447  14.987  1.00  0.00     0.009 A 
ATOM     65  C   UNL     1       2.744   7.085  15.529  1.00  0.00     0.001 A 
ATOM     66  C   UNL     1       4.457   5.404  15.265  1.00  0.00     0.001 A 
ATOM     67  C   UNL     1       4.090   6.723  15.524  1.00  0.00     0.000 A 
ENDBRANCH  48  62
BRANCH  49  68
ATOM     68  C   UNL     1      -4.568  -2.131  12.383  1.00  0.00    -0.014 A 
ATOM     69  C   UNL     1      -5.814  -2.204  13.026  1.00  0.00     0.009 A 
ATOM     70  C   UNL     1      -4.275  -3.051  11.365  1.00  0.00     0.009 A 
ATOM     71  C   UNL     1      -6.735  -3.192  12.675  1.00  0.00     0.001 A 
ATOM     72  C   UNL     1      -5.209  -4.022  10.998  1.00  0.00     0.001 A 
ATOM     73  C   UNL     1      -6.434  -4.097  11.658  1.00  0.00     0.000 A 
ENDBRANCH  49  68
BRANCH  61  74
ATOM     74  C   UNL     1      -0.698  -1.090  18.068  1.00  0.00    -0.014 A 
ATOM     75  C   UNL     1      -0.060  -2.337  18.143  1.00  0.00     0.009 A 
ATOM     76  C   UNL     1      -1.226  -0.522  19.238  1.00  0.00     0.009 A 
ATOM     77  C   UNL     1       0.013  -3.020  19.359  1.00  0.00     0.001 A 
ATOM     78  C   UNL     1      -1.128  -1.194  20.456  1.00  0.00     0.001 A 
ATOM     79  C   UNL     1      -0.519  -2.447  20.514  1.00  0.00     0.000 A 
ENDBRANCH  61  74
ENDBRANCH  35  36
ENDBRANCH  27  30
ENDBRANCH  25  26
ENDBRANCH   1  25
TORSDOF 13
