REMARK SMILES O=C(NCCCNC(=O)c1ccc(C[NH2+][C@@H]2CCCC[C@H]2O)nc1)c1ccc(-c2c3nc(c(-c4ccccc4)c4ccc([nH]4)c(-c4ccccc4)c4nc(c(-c5ccccc5)c5ccc2[nH]5)C=C4)C=C3)cc1
REMARK SMILES IDX 6 1 5 2 4 3 3 4 1 5 2 6 25 8 26 9 72 10 27 11 71 12 28 13
REMARK SMILES IDX 29 14 30 15 65 16 31 17 70 18 64 19 66 20 32 21 69 22 63 23
REMARK SMILES IDX 62 24 33 26 55 27 40 28 54 29 41 30 44 31 53 32 67 33 42 34
REMARK SMILES IDX 43 35 52 37 68 38 45 39 34 40 35 41 39 42 36 43 38 44 37 45
REMARK SMILES IDX 56 46 57 47 61 48 58 49 60 50 59 51 46 52 47 53 51 54 48 55
REMARK SMILES IDX 50 56 49 57 7 58 8 59 9 61 10 62 11 63 24 64 12 65 23 66
REMARK SMILES IDX 13 67 14 68 15 69 16 72 17 73 21 74 18 75 20 76 19 77 22 78
REMARK H PARENT 3 7 66 25 44 36 7 60 15 70 15 71 22 79
REMARK Flexibility Score: inf
ROOT
ATOM      1  C   UNL     1      16.711  -3.178  -7.483  1.00  0.00     0.118 C 
ENDROOT
BRANCH   1   2
ATOM      2  C   UNL     1      17.174  -3.769  -6.159  1.00  0.00     0.042 C 
BRANCH   2   3
ATOM      3  C   UNL     1      18.688  -3.867  -6.032  1.00  0.00     0.118 C 
BRANCH   3   4
ATOM      4  N   UNL     1      19.338  -2.563  -6.077  1.00  0.00    -0.352 N 
ATOM      5  O   UNL     1      20.294  -0.684  -5.295  1.00  0.00    -0.269 OA
ATOM      6  C   UNL     1      20.000  -1.860  -5.101  1.00  0.00     0.251 C 
ATOM      7  H   UNL     1      19.295  -2.112  -6.951  1.00  0.00     0.163 HD
BRANCH   6   8
ATOM      8  C   UNL     1      20.348  -2.503  -3.816  1.00  0.00     0.039 A 
ATOM      9  C   UNL     1      20.817  -3.816  -3.776  1.00  0.00     0.014 A 
ATOM     10  C   UNL     1      20.246  -1.763  -2.633  1.00  0.00     0.014 A 
ATOM     11  C   UNL     1      21.031  -4.439  -2.553  1.00  0.00     0.010 A 
ATOM     12  C   UNL     1      20.561  -2.359  -1.409  1.00  0.00     0.010 A 
ATOM     13  C   UNL     1      20.927  -3.712  -1.357  1.00  0.00    -0.014 A 
BRANCH  13  14
ATOM     14  C   UNL     1      21.279  -4.376  -0.077  1.00  0.00     0.031 A 
ATOM     15  C   UNL     1      20.252  -4.592   0.999  1.00  0.00     0.074 A 
ATOM     16  C   UNL     1      22.539  -4.822   0.091  1.00  0.00     0.049 A 
ATOM     17  N   UNL     1      20.390  -5.186   2.158  1.00  0.00    -0.248 NA
ATOM     18  C   UNL     1      18.899  -4.072   0.749  1.00  0.00     0.031 C 
ATOM     19  C   UNL     1      23.625  -4.669  -0.882  1.00  0.00     0.029 A 
ATOM     20  N   UNL     1      23.116  -5.515   1.124  1.00  0.00    -0.354 N 
ATOM     21  C   UNL     1      19.152  -5.098   2.781  1.00  0.00     0.074 A 
ATOM     22  C   UNL     1      18.280  -4.370   1.884  1.00  0.00     0.031 C 
ATOM     23  C   UNL     1      24.717  -5.299  -0.425  1.00  0.00     0.029 A 
ATOM     24  C   UNL     1      24.431  -5.839   0.898  1.00  0.00     0.049 A 
ATOM     25  H   UNL     1      22.633  -5.757   1.947  1.00  0.00     0.167 HD
ATOM     26  C   UNL     1      18.775  -5.585   3.988  1.00  0.00     0.031 A 
ATOM     27  C   UNL     1      25.318  -6.487   1.673  1.00  0.00     0.031 A 
ATOM     28  C   UNL     1      19.646  -6.306   4.880  1.00  0.00     0.049 A 
ATOM     29  C   UNL     1      24.884  -6.978   3.021  1.00  0.00     0.074 A 
ATOM     30  C   UNL     1      19.350  -6.858   6.115  1.00  0.00     0.029 A 
ATOM     31  N   UNL     1      20.984  -6.573   4.634  1.00  0.00    -0.354 N 
ATOM     32  N   UNL     1      23.701  -6.910   3.582  1.00  0.00    -0.248 NA
ATOM     33  C   UNL     1      25.908  -7.635   3.844  1.00  0.00     0.031 C 
ATOM     34  C   UNL     1      20.522  -7.415   6.638  1.00  0.00     0.029 A 
ATOM     35  C   UNL     1      21.534  -7.259   5.705  1.00  0.00     0.049 A 
ATOM     36  H   UNL     1      21.472  -6.313   3.819  1.00  0.00     0.167 HD
ATOM     37  C   UNL     1      23.833  -7.529   4.816  1.00  0.00     0.074 A 
ATOM     38  C   UNL     1      25.205  -7.986   4.912  1.00  0.00     0.031 C 
ATOM     39  C   UNL     1      22.902  -7.699   5.786  1.00  0.00     0.031 A 
BRANCH  26  40
ATOM     40  C   UNL     1      17.360  -5.330   4.429  1.00  0.00    -0.014 A 
ATOM     41  C   UNL     1      16.279  -6.005   3.840  1.00  0.00     0.009 A 
ATOM     42  C   UNL     1      17.109  -4.438   5.484  1.00  0.00     0.009 A 
ATOM     43  C   UNL     1      14.974  -5.767   4.278  1.00  0.00     0.001 A 
ATOM     44  C   UNL     1      15.806  -4.222   5.936  1.00  0.00     0.001 A 
ATOM     45  C   UNL     1      14.739  -4.880   5.328  1.00  0.00     0.000 A 
ENDBRANCH  26  40
BRANCH  27  46
ATOM     46  C   UNL     1      26.710  -6.687   1.196  1.00  0.00    -0.014 A 
ATOM     47  C   UNL     1      27.175  -7.968   0.864  1.00  0.00     0.009 A 
ATOM     48  C   UNL     1      27.578  -5.592   1.058  1.00  0.00     0.009 A 
ATOM     49  C   UNL     1      28.489  -8.150   0.425  1.00  0.00     0.001 A 
ATOM     50  C   UNL     1      28.880  -5.773   0.590  1.00  0.00     0.001 A 
ATOM     51  C   UNL     1      29.337  -7.053   0.283  1.00  0.00     0.000 A 
ENDBRANCH  27  46
BRANCH  39  52
ATOM     52  C   UNL     1      23.337  -8.436   7.020  1.00  0.00    -0.014 A 
ATOM     53  C   UNL     1      24.188  -7.838   7.962  1.00  0.00     0.009 A 
ATOM     54  C   UNL     1      22.871  -9.740   7.252  1.00  0.00     0.009 A 
ATOM     55  C   UNL     1      24.593  -8.547   9.095  1.00  0.00     0.001 A 
ATOM     56  C   UNL     1      23.255 -10.435   8.399  1.00  0.00     0.001 A 
ATOM     57  C   UNL     1      24.124  -9.842   9.314  1.00  0.00     0.000 A 
ENDBRANCH  39  52
ENDBRANCH  13  14
ENDBRANCH   6   8
ENDBRANCH   3   4
ENDBRANCH   2   3
ENDBRANCH   1   2
BRANCH   1  58
ATOM     58  N   UNL     1      17.093  -4.009  -8.616  1.00  0.00    -0.352 N 
ATOM     59  C   UNL     1      16.337  -4.909  -9.323  1.00  0.00     0.252 C 
ATOM     60  H   UNL     1      18.025  -3.910  -8.918  1.00  0.00     0.163 HD
ATOM     61  O   UNL     1      16.870  -5.700 -10.095  1.00  0.00    -0.269 OA
BRANCH  59  62
ATOM     62  C   UNL     1      14.883  -4.937  -9.134  1.00  0.00     0.058 A 
ATOM     63  C   UNL     1      14.100  -3.792  -9.268  1.00  0.00     0.017 A 
ATOM     64  C   UNL     1      14.267  -6.133  -8.814  1.00  0.00     0.125 A 
ATOM     65  C   UNL     1      12.738  -3.868  -8.997  1.00  0.00     0.030 A 
ATOM     66  N   UNL     1      12.947  -6.230  -8.535  1.00  0.00    -0.255 NA
ATOM     67  C   UNL     1      12.199  -5.096  -8.616  1.00  0.00     0.094 A 
BRANCH  67  68
ATOM     68  C   UNL     1      10.717  -5.219  -8.318  1.00  0.00     0.318 C 
BRANCH  68  69
ATOM     69  N   UNL     1       9.984  -5.694  -9.492  1.00  0.00    -0.337 N 
ATOM     70  H   UNL     1      10.398  -6.576  -9.792  1.00  0.00     0.346 HD
ATOM     71  H   UNL     1      10.058  -4.962 -10.199  1.00  0.00     0.346 HD
BRANCH  69  72
ATOM     72  C   UNL     1       8.549  -5.913  -9.258  1.00  0.00     0.211 C 
ATOM     73  C   UNL     1       8.268  -7.042  -8.243  1.00  0.00     0.068 C 
ATOM     74  C   UNL     1       7.867  -6.271 -10.607  1.00  0.00     0.172 C 
ATOM     75  C   UNL     1       8.736  -8.407  -8.748  1.00  0.00     0.006 C 
ATOM     76  C   UNL     1       8.318  -7.641 -11.130  1.00  0.00     0.038 C 
ATOM     77  C   UNL     1       8.110  -8.749 -10.097  1.00  0.00     0.003 C 
BRANCH  74  78
ATOM     78  O   UNL     1       6.447  -6.255 -10.439  1.00  0.00    -0.387 OA
ATOM     79  H   UNL     1       6.191  -6.920  -9.781  1.00  0.00     0.211 HD
ENDBRANCH  74  78
ENDBRANCH  69  72
ENDBRANCH  68  69
ENDBRANCH  67  68
ENDBRANCH  59  62
ENDBRANCH   1  58
TORSDOF 14
