REMARK SMILES COCc1cc(C)nc2sc3c(c12)N[C@H](c1ccccc1C(=O)NCCCNC(=O)c1ccc(-c2c4nc(c(-c5ccccc5)c5ccc([nH]5)c(-c5ccccc5)c5nc(c(-c6ccccc6)c6ccc2[nH]6)C=C5)C=C4)cc1)n1c-3nc2ccccc21
REMARK SMILES IDX 25 1 24 2 22 3 23 4 21 6 16 7 17 8 18 9 20 10 19 11 15 12
REMARK SMILES IDX 4 13 5 14 13 15 6 16 9 17 12 18 7 19 8 20 10 21 11 22 14 23
REMARK SMILES IDX 80 24 79 26 81 27 87 28 82 29 86 30 83 31 85 32 84 33 3 34
REMARK SMILES IDX 2 35 1 36 26 37 27 38 28 39 29 40 30 42 31 43 32 44 78 45
REMARK SMILES IDX 33 46 77 47 34 48 35 49 36 50 71 51 37 52 76 53 70 54 72 55
REMARK SMILES IDX 38 56 75 57 69 58 68 59 39 61 61 62 46 63 60 64 47 65 50 66
REMARK SMILES IDX 59 67 73 68 48 69 49 70 58 72 74 73 51 74 40 75 41 76 45 77
REMARK SMILES IDX 42 78 44 79 43 80 62 81 63 82 67 83 64 84 66 85 65 86 52 87
REMARK SMILES IDX 53 88 57 89 54 90 56 91 55 92
REMARK H PARENT 24 5 14 25 28 41 72 60 50 71
REMARK Flexibility Score: inf
ROOT
ATOM      1  C   UNL     1      -5.544  -5.658   0.563  1.00  0.00     0.118 C 
ENDROOT
BRANCH   1   2
ATOM      2  N   UNL     1      -6.853  -6.001   1.048  1.00  0.00    -0.352 N 
ATOM      3  C   UNL     1      -7.301  -6.116   2.323  1.00  0.00     0.251 C 
ATOM      4  O   UNL     1      -8.482  -6.409   2.503  1.00  0.00    -0.269 OA
ATOM      5  H   UNL     1      -7.524  -6.179   0.350  1.00  0.00     0.163 HD
BRANCH   3   6
ATOM      6  C   UNL     1      -6.355  -6.103   3.464  1.00  0.00     0.046 A 
ATOM      7  C   UNL     1      -5.374  -5.137   3.822  1.00  0.00     0.008 A 
ATOM      8  C   UNL     1      -4.529  -5.510   4.903  1.00  0.00     0.008 A 
ATOM      9  C   UNL     1      -4.713  -6.696   5.641  1.00  0.00     0.000 A 
ATOM     10  C   UNL     1      -6.552  -7.269   4.248  1.00  0.00     0.014 A 
ATOM     11  C   UNL     1      -5.752  -7.559   5.337  1.00  0.00     0.001 A 
BRANCH   7  12
ATOM     12  C   UNL     1      -5.248  -3.664   3.348  1.00  0.00     0.215 C 
ATOM     13  C   UNL     1      -1.543  -1.471   0.501  1.00  0.00    -0.008 A 
ATOM     14  C   UNL     1      -1.264  -0.659  -0.648  1.00  0.00     0.030 A 
ATOM     15  C   UNL     1      -2.839  -1.324   1.091  1.00  0.00     0.041 A 
ATOM     16  C   UNL     1      -2.085   0.388  -1.010  1.00  0.00     0.039 A 
ATOM     17  C   UNL     1      -3.453  -0.110   0.697  1.00  0.00     0.126 A 
ATOM     18  C   UNL     1      -3.811  -2.078   1.933  1.00  0.00     0.068 A 
ATOM     19  C   UNL     1      -1.953   1.119  -2.307  1.00  0.00     0.067 C 
ATOM     20  N   UNL     1      -3.082   0.774  -0.235  1.00  0.00    -0.242 NA
ATOM     21  S   UNL     1      -4.924   0.197   1.453  1.00  0.00    -0.110 S 
ATOM     22  C   UNL     1      -5.015  -1.447   1.721  1.00  0.00     0.096 A 
ATOM     23  N   UNL     1      -3.897  -3.314   2.591  1.00  0.00    -0.359 N 
ATOM     24  C   UNL     1      -6.236  -2.111   1.765  1.00  0.00     0.155 A 
ATOM     25  H   UNL     1      -3.142  -3.945   2.584  1.00  0.00     0.163 HD
ATOM     26  N   UNL     1      -6.445  -3.093   2.682  1.00  0.00    -0.298 N 
ATOM     27  N   UNL     1      -7.186  -2.052   0.872  1.00  0.00    -0.227 NA
ATOM     28  C   UNL     1      -7.811  -3.158   2.766  1.00  0.00     0.071 A 
ATOM     29  C   UNL     1      -8.206  -2.678   1.503  1.00  0.00     0.089 A 
ATOM     30  C   UNL     1      -8.760  -3.558   3.706  1.00  0.00     0.029 A 
ATOM     31  C   UNL     1      -9.520  -2.788   1.054  1.00  0.00     0.030 A 
ATOM     32  C   UNL     1     -10.103  -3.538   3.280  1.00  0.00     0.002 A 
ATOM     33  C   UNL     1     -10.472  -3.211   1.969  1.00  0.00     0.002 A 
BRANCH  13  34
ATOM     34  C   UNL     1      -0.406  -2.351   0.941  1.00  0.00     0.196 C 
BRANCH  34  35
ATOM     35  O   UNL     1       0.511  -1.604   1.758  1.00  0.00    -0.380 OA
ATOM     36  C   UNL     1       1.227  -0.566   1.085  1.00  0.00     0.195 C 
ENDBRANCH  34  35
ENDBRANCH  13  34
ENDBRANCH   7  12
ENDBRANCH   3   6
ENDBRANCH   1   2
BRANCH   1  37
ATOM     37  C   UNL     1      -5.479  -5.577  -0.947  1.00  0.00     0.042 C 
BRANCH  37  38
ATOM     38  C   UNL     1      -6.601  -4.762  -1.611  1.00  0.00     0.118 C 
BRANCH  38  39
ATOM     39  N   UNL     1      -6.396  -3.338  -1.761  1.00  0.00    -0.352 N 
ATOM     40  C   UNL     1      -5.604  -2.685  -2.675  1.00  0.00     0.251 C 
ATOM     41  H   UNL     1      -6.887  -2.764  -1.129  1.00  0.00     0.163 HD
ATOM     42  O   UNL     1      -5.769  -1.506  -2.972  1.00  0.00    -0.269 OA
BRANCH  40  43
ATOM     43  C   UNL     1      -4.386  -3.378  -3.114  1.00  0.00     0.039 A 
ATOM     44  C   UNL     1      -4.392  -4.584  -3.814  1.00  0.00     0.014 A 
ATOM     45  C   UNL     1      -3.211  -2.874  -2.560  1.00  0.00     0.014 A 
ATOM     46  C   UNL     1      -3.230  -5.353  -3.836  1.00  0.00     0.010 A 
ATOM     47  C   UNL     1      -2.048  -3.622  -2.609  1.00  0.00     0.010 A 
ATOM     48  C   UNL     1      -2.066  -4.884  -3.210  1.00  0.00    -0.014 A 
BRANCH  48  49
ATOM     49  C   UNL     1      -0.858  -5.722  -3.258  1.00  0.00     0.031 A 
ATOM     50  C   UNL     1       0.336  -4.991  -3.791  1.00  0.00     0.074 A 
ATOM     51  C   UNL     1      -0.579  -6.607  -2.278  1.00  0.00     0.049 A 
ATOM     52  N   UNL     1       1.211  -4.369  -3.052  1.00  0.00    -0.248 NA
ATOM     53  C   UNL     1       0.424  -4.689  -5.219  1.00  0.00     0.031 C 
ATOM     54  C   UNL     1      -0.785  -6.361  -0.844  1.00  0.00     0.029 A 
ATOM     55  N   UNL     1       0.207  -7.734  -2.325  1.00  0.00    -0.354 N 
ATOM     56  C   UNL     1       1.949  -3.567  -3.909  1.00  0.00     0.074 A 
ATOM     57  C   UNL     1       1.428  -3.805  -5.239  1.00  0.00     0.031 C 
ATOM     58  C   UNL     1       0.004  -7.207  -0.149  1.00  0.00     0.029 A 
ATOM     59  C   UNL     1       0.639  -8.138  -1.074  1.00  0.00     0.049 A 
ATOM     60  H   UNL     1       0.439  -8.202  -3.159  1.00  0.00     0.167 HD
ATOM     61  C   UNL     1       2.946  -2.731  -3.513  1.00  0.00     0.031 A 
ATOM     62  C   UNL     1       1.706  -8.937  -0.826  1.00  0.00     0.031 A 
ATOM     63  C   UNL     1       3.344  -2.676  -2.125  1.00  0.00     0.049 A 
ATOM     64  C   UNL     1       2.817  -7.941  -0.654  1.00  0.00     0.074 A 
ATOM     65  C   UNL     1       4.101  -1.819  -1.344  1.00  0.00     0.029 A 
ATOM     66  N   UNL     1       2.997  -3.706  -1.290  1.00  0.00    -0.354 N 
ATOM     67  N   UNL     1       3.123  -7.280   0.429  1.00  0.00    -0.248 NA
ATOM     68  C   UNL     1       3.484  -7.459  -1.879  1.00  0.00     0.031 C 
ATOM     69  C   UNL     1       4.387  -2.492  -0.115  1.00  0.00     0.029 A 
ATOM     70  C   UNL     1       3.830  -3.753  -0.196  1.00  0.00     0.049 A 
ATOM     71  H   UNL     1       2.251  -4.328  -1.451  1.00  0.00     0.167 HD
ATOM     72  C   UNL     1       3.784  -6.151  -0.033  1.00  0.00     0.074 A 
ATOM     73  C   UNL     1       4.101  -6.375  -1.427  1.00  0.00     0.031 C 
ATOM     74  C   UNL     1       3.795  -4.950   0.605  1.00  0.00     0.031 A 
BRANCH  61  75
ATOM     75  C   UNL     1       3.778  -2.039  -4.532  1.00  0.00    -0.014 A 
ATOM     76  C   UNL     1       3.382  -0.861  -5.175  1.00  0.00     0.009 A 
ATOM     77  C   UNL     1       5.051  -2.569  -4.800  1.00  0.00     0.009 A 
ATOM     78  C   UNL     1       4.253  -0.227  -6.069  1.00  0.00     0.001 A 
ATOM     79  C   UNL     1       5.917  -1.936  -5.689  1.00  0.00     0.001 A 
ATOM     80  C   UNL     1       5.518  -0.762  -6.323  1.00  0.00     0.000 A 
ENDBRANCH  61  75
BRANCH  62  81
ATOM     81  C   UNL     1       1.840 -10.172  -1.655  1.00  0.00    -0.014 A 
ATOM     82  C   UNL     1       3.010 -10.568  -2.315  1.00  0.00     0.009 A 
ATOM     83  C   UNL     1       0.719 -11.024  -1.760  1.00  0.00     0.009 A 
ATOM     84  C   UNL     1       3.021 -11.690  -3.153  1.00  0.00     0.001 A 
ATOM     85  C   UNL     1       0.736 -12.160  -2.573  1.00  0.00     0.001 A 
ATOM     86  C   UNL     1       1.881 -12.477  -3.292  1.00  0.00     0.000 A 
ENDBRANCH  62  81
BRANCH  74  87
ATOM     87  C   UNL     1       3.548  -4.913   2.069  1.00  0.00    -0.014 A 
ATOM     88  C   UNL     1       2.579  -4.057   2.599  1.00  0.00     0.009 A 
ATOM     89  C   UNL     1       4.318  -5.681   2.954  1.00  0.00     0.009 A 
ATOM     90  C   UNL     1       2.372  -3.965   3.975  1.00  0.00     0.001 A 
ATOM     91  C   UNL     1       4.115  -5.592   4.333  1.00  0.00     0.001 A 
ATOM     92  C   UNL     1       3.143  -4.733   4.843  1.00  0.00     0.000 A 
ENDBRANCH  74  87
ENDBRANCH  48  49
ENDBRANCH  40  43
ENDBRANCH  38  39
ENDBRANCH  37  38
ENDBRANCH   1  37
TORSDOF 13
