REMARK SMILES O=C(NCCCNC(=O)[C@@H]1C[C@@H]1C(=O)N1CCN(c2ncc(C(F)(F)F)cc2Cl)CC1)c1ccc(-c2c3nc(c(-c4ccccc4)c4ccc([nH]4)c(-c4ccccc4)c4nc(c(-c5ccccc5)c5ccc2[nH]5)C=C4)C=C3)cc1
REMARK SMILES IDX 5 1 4 2 3 3 1 4 2 5 32 7 33 8 79 9 34 10 78 11 35 12 36 13
REMARK SMILES IDX 37 14 72 15 38 16 77 17 71 18 73 19 39 20 76 21 70 22 69 23
REMARK SMILES IDX 40 25 62 26 47 27 61 28 48 29 51 30 60 31 74 32 49 33 50 34
REMARK SMILES IDX 59 36 75 37 52 38 41 39 42 40 46 41 43 42 45 43 44 44 63 45
REMARK SMILES IDX 64 46 68 47 65 48 67 49 66 50 53 51 54 52 58 53 55 54 57 55
REMARK SMILES IDX 56 56 6 57 7 58 8 59 9 61 10 62 11 63 12 64 13 65 14 66
REMARK SMILES IDX 15 67 16 68 31 69 17 70 30 71 18 72 19 73 20 74 28 75 21 76
REMARK SMILES IDX 27 77 29 78 22 79 23 80 24 81 25 82 26 83
REMARK H PARENT 3 6 73 24 51 35 7 60
REMARK Flexibility Score: inf
ROOT
ATOM      1  C   UNL     1       4.809  -1.393   2.122  1.00  0.00     0.042 C 
ENDROOT
BRANCH   1   2
ATOM      2  C   UNL     1       4.484  -1.177   0.646  1.00  0.00     0.118 C 
BRANCH   2   3
ATOM      3  N   UNL     1       3.052  -1.084   0.392  1.00  0.00    -0.352 N 
ATOM      4  O   UNL     1       1.075  -0.127  -0.084  1.00  0.00    -0.269 OA
ATOM      5  C   UNL     1       2.300  -0.054  -0.116  1.00  0.00     0.251 C 
ATOM      6  H   UNL     1       2.539  -1.893   0.623  1.00  0.00     0.163 HD
BRANCH   5   7
ATOM      7  C   UNL     1       2.946   1.150  -0.680  1.00  0.00     0.039 A 
ATOM      8  C   UNL     1       4.061   1.056  -1.517  1.00  0.00     0.014 A 
ATOM      9  C   UNL     1       2.390   2.402  -0.400  1.00  0.00     0.014 A 
ATOM     10  C   UNL     1       4.698   2.212  -1.961  1.00  0.00     0.010 A 
ATOM     11  C   UNL     1       2.985   3.559  -0.908  1.00  0.00     0.010 A 
ATOM     12  C   UNL     1       4.163   3.475  -1.666  1.00  0.00    -0.014 A 
BRANCH  12  13
ATOM     13  C   UNL     1       4.819   4.705  -2.178  1.00  0.00     0.031 A 
ATOM     14  C   UNL     1       5.419   5.706  -1.232  1.00  0.00     0.074 A 
ATOM     15  C   UNL     1       4.857   4.928  -3.506  1.00  0.00     0.049 A 
ATOM     16  N   UNL     1       5.981   6.859  -1.497  1.00  0.00    -0.248 NA
ATOM     17  C   UNL     1       5.375   5.374   0.201  1.00  0.00     0.031 C 
ATOM     18  C   UNL     1       4.316   4.032  -4.529  1.00  0.00     0.029 A 
ATOM     19  N   UNL     1       5.371   5.980  -4.220  1.00  0.00    -0.354 N 
ATOM     20  C   UNL     1       6.336   7.400  -0.267  1.00  0.00     0.074 A 
ATOM     21  C   UNL     1       5.902   6.461   0.746  1.00  0.00     0.031 C 
ATOM     22  C   UNL     1       4.544   4.562  -5.740  1.00  0.00     0.029 A 
ATOM     23  C   UNL     1       5.190   5.859  -5.576  1.00  0.00     0.049 A 
ATOM     24  H   UNL     1       5.825   6.747  -3.802  1.00  0.00     0.167 HD
ATOM     25  C   UNL     1       6.968   8.570  -0.006  1.00  0.00     0.031 A 
ATOM     26  C   UNL     1       5.484   6.708  -6.578  1.00  0.00     0.031 A 
ATOM     27  C   UNL     1       7.390   9.506  -1.015  1.00  0.00     0.049 A 
ATOM     28  C   UNL     1       6.136   8.023  -6.261  1.00  0.00     0.074 A 
ATOM     29  C   UNL     1       8.065  10.704  -0.852  1.00  0.00     0.029 A 
ATOM     30  N   UNL     1       7.168   9.355  -2.376  1.00  0.00    -0.354 N 
ATOM     31  N   UNL     1       6.496   8.505  -5.096  1.00  0.00    -0.248 NA
ATOM     32  C   UNL     1       6.428   8.907  -7.397  1.00  0.00     0.031 C 
ATOM     33  C   UNL     1       8.198  11.306  -2.108  1.00  0.00     0.029 A 
ATOM     34  C   UNL     1       7.667  10.451  -3.061  1.00  0.00     0.049 A 
ATOM     35  H   UNL     1       6.722   8.584  -2.793  1.00  0.00     0.167 HD
ATOM     36  C   UNL     1       7.082   9.735  -5.361  1.00  0.00     0.074 A 
ATOM     37  C   UNL     1       7.037   9.921  -6.797  1.00  0.00     0.031 C 
ATOM     38  C   UNL     1       7.616  10.626  -4.490  1.00  0.00     0.031 A 
BRANCH  25  39
ATOM     39  C   UNL     1       7.204   8.921   1.439  1.00  0.00    -0.014 A 
ATOM     40  C   UNL     1       8.128   8.215   2.225  1.00  0.00     0.009 A 
ATOM     41  C   UNL     1       6.504   9.992   2.016  1.00  0.00     0.009 A 
ATOM     42  C   UNL     1       8.313   8.546   3.570  1.00  0.00     0.001 A 
ATOM     43  C   UNL     1       6.713  10.341   3.352  1.00  0.00     0.001 A 
ATOM     44  C   UNL     1       7.607   9.610   4.131  1.00  0.00     0.000 A 
ENDBRANCH  25  39
BRANCH  26  45
ATOM     45  C   UNL     1       5.147   6.334  -7.975  1.00  0.00    -0.014 A 
ATOM     46  C   UNL     1       6.157   6.005  -8.891  1.00  0.00     0.009 A 
ATOM     47  C   UNL     1       3.806   6.273  -8.390  1.00  0.00     0.009 A 
ATOM     48  C   UNL     1       5.831   5.636 -10.198  1.00  0.00     0.001 A 
ATOM     49  C   UNL     1       3.483   5.875  -9.688  1.00  0.00     0.001 A 
ATOM     50  C   UNL     1       4.496   5.564 -10.593  1.00  0.00     0.000 A 
ENDBRANCH  26  45
BRANCH  38  51
ATOM     51  C   UNL     1       8.241  11.866  -5.067  1.00  0.00    -0.014 A 
ATOM     52  C   UNL     1       7.460  12.900  -5.604  1.00  0.00     0.009 A 
ATOM     53  C   UNL     1       9.636  12.019  -5.024  1.00  0.00     0.009 A 
ATOM     54  C   UNL     1       8.066  14.052  -6.109  1.00  0.00     0.001 A 
ATOM     55  C   UNL     1      10.237  13.183  -5.503  1.00  0.00     0.001 A 
ATOM     56  C   UNL     1       9.453  14.195  -6.053  1.00  0.00     0.000 A 
ENDBRANCH  38  51
ENDBRANCH  12  13
ENDBRANCH   5   7
ENDBRANCH   2   3
ENDBRANCH   1   2
BRANCH   1  57
ATOM     57  C   UNL     1       4.297  -2.715   2.683  1.00  0.00     0.117 C 
BRANCH  57  58
ATOM     58  N   UNL     1       4.923  -3.859   2.048  1.00  0.00    -0.356 N 
ATOM     59  C   UNL     1       5.782  -4.778   2.585  1.00  0.00     0.223 C 
ATOM     60  H   UNL     1       4.697  -3.994   1.099  1.00  0.00     0.163 HD
ATOM     61  O   UNL     1       6.138  -5.755   1.937  1.00  0.00    -0.275 OA
BRANCH  59  62
ATOM     62  C   UNL     1       6.159  -4.656   4.009  1.00  0.00     0.091 C 
ATOM     63  C   UNL     1       6.835  -3.446   4.598  1.00  0.00     0.028 C 
ATOM     64  C   UNL     1       7.610  -4.736   4.437  1.00  0.00     0.092 C 
BRANCH  64  65
ATOM     65  C   UNL     1       8.778  -4.673   3.506  1.00  0.00     0.226 C 
ATOM     66  O   UNL     1       8.737  -3.920   2.537  1.00  0.00    -0.275 OA
ATOM     67  N   UNL     1       9.934  -5.327   3.893  1.00  0.00    -0.339 N 
ATOM     68  C   UNL     1      11.226  -4.810   3.422  1.00  0.00     0.141 C 
ATOM     69  C   UNL     1      10.031  -6.494   4.787  1.00  0.00     0.141 C 
ATOM     70  C   UNL     1      12.143  -4.483   4.624  1.00  0.00     0.139 C 
ATOM     71  C   UNL     1      10.985  -6.225   5.970  1.00  0.00     0.139 C 
ATOM     72  N   UNL     1      12.245  -5.683   5.456  1.00  0.00    -0.352 N 
BRANCH  72  73
ATOM     73  C   UNL     1      13.456  -6.025   6.006  1.00  0.00     0.147 A 
ATOM     74  N   UNL     1      14.176  -5.038   6.593  1.00  0.00    -0.237 NA
ATOM     75  C   UNL     1      13.978  -7.326   5.903  1.00  0.00     0.084 A 
ATOM     76  C   UNL     1      15.398  -5.339   7.099  1.00  0.00     0.126 A 
ATOM     77  C   UNL     1      15.245  -7.605   6.414  1.00  0.00     0.039 A 
ATOM     78  Cl  UNL     1      13.162  -8.600   5.063  1.00  0.00    -0.080 Cl
ATOM     79  C   UNL     1      15.980  -6.594   7.030  1.00  0.00     0.075 A 
BRANCH  79  80
ATOM     80  C   UNL     1      17.346  -6.824   7.594  1.00  0.00     0.417 C 
ATOM     81  F   UNL     1      18.272  -5.964   7.090  1.00  0.00    -0.166 F 
ATOM     82  F   UNL     1      17.384  -6.668   8.945  1.00  0.00    -0.166 F 
ATOM     83  F   UNL     1      17.827  -8.075   7.349  1.00  0.00    -0.166 F 
ENDBRANCH  79  80
ENDBRANCH  72  73
ENDBRANCH  64  65
ENDBRANCH  59  62
ENDBRANCH  57  58
ENDBRANCH   1  57
TORSDOF 13
