REMARK SMILES CCC(CC)[C@@H](C(=O)NCCCNC(=O)c1ccc(-c2c3nc(c(-c4ccccc4)c4ccc([nH]4)c(-c4ccccc4)c4nc(c(-c5ccccc5)c5ccc2[nH]5)C=C4)C=C3)cc1)c1ccccc1OC
REMARK SMILES IDX 11 1 10 2 9 3 7 4 8 5 6 7 3 8 2 9 1 10 4 11 5 12 64 13 65 14
REMARK SMILES IDX 69 15 66 16 68 17 67 18 70 19 71 20 12 21 13 22 14 23 15 25
REMARK SMILES IDX 16 26 17 27 63 28 18 29 62 30 19 31 20 32 21 33 56 34 22 35
REMARK SMILES IDX 61 36 55 37 57 38 23 39 60 40 54 41 53 42 24 44 46 45 31 46
REMARK SMILES IDX 45 47 32 48 35 49 44 50 58 51 33 52 34 53 43 55 59 56 36 57
REMARK SMILES IDX 25 58 26 59 30 60 27 61 29 62 28 63 47 64 48 65 52 66 49 67
REMARK SMILES IDX 51 68 50 69 37 70 38 71 42 72 39 73 41 74 40 75
REMARK H PARENT 9 6 13 24 57 43 35 54
REMARK Flexibility Score: inf
ROOT
ATOM      1  C   UNL     1      -0.195   1.577  -2.774  1.00  0.00     0.042 C 
ENDROOT
BRANCH   1   2
ATOM      2  C   UNL     1      -0.729   0.249  -3.326  1.00  0.00     0.117 C 
BRANCH   2   3
ATOM      3  N   UNL     1       0.306  -0.547  -3.957  1.00  0.00    -0.355 N 
ATOM      4  C   UNL     1       0.841  -1.773  -3.748  1.00  0.00     0.227 C 
ATOM      5  O   UNL     1       1.515  -2.152  -4.717  1.00  0.00    -0.274 OA
ATOM      6  H   UNL     1       0.720  -0.084  -4.721  1.00  0.00     0.163 HD
BRANCH   4   7
ATOM      7  C   UNL     1       0.559  -2.701  -2.525  1.00  0.00     0.115 C 
BRANCH   7   8
ATOM      8  C   UNL     1       0.943  -2.325  -1.045  1.00  0.00     0.005 C 
BRANCH   8   9
ATOM      9  C   UNL     1       0.822  -0.846  -0.687  1.00  0.00     0.001 C 
ATOM     10  C   UNL     1       1.351  -0.468   0.691  1.00  0.00     0.004 C 
ENDBRANCH   8   9
BRANCH   8  11
ATOM     11  C   UNL     1       0.227  -3.248  -0.015  1.00  0.00     0.001 C 
ATOM     12  C   UNL     1      -1.291  -3.137   0.028  1.00  0.00     0.004 C 
ENDBRANCH   8  11
ENDBRANCH   7   8
BRANCH   7  13
ATOM     13  C   UNL     1       1.167  -4.096  -2.816  1.00  0.00     0.007 A 
ATOM     14  C   UNL     1       0.290  -5.152  -3.135  1.00  0.00     0.008 A 
ATOM     15  C   UNL     1       2.549  -4.386  -2.736  1.00  0.00     0.122 A 
ATOM     16  C   UNL     1       0.767  -6.452  -3.327  1.00  0.00     0.001 A 
ATOM     17  C   UNL     1       3.016  -5.690  -2.925  1.00  0.00     0.047 A 
ATOM     18  C   UNL     1       2.128  -6.721  -3.221  1.00  0.00     0.004 A 
BRANCH  15  19
ATOM     19  O   UNL     1       3.492  -3.497  -2.284  1.00  0.00    -0.496 OA
ATOM     20  C   UNL     1       3.927  -2.565  -3.269  1.00  0.00     0.278 C 
ENDBRANCH  15  19
ENDBRANCH   7  13
ENDBRANCH   4   7
ENDBRANCH   2   3
ENDBRANCH   1   2
BRANCH   1  21
ATOM     21  C   UNL     1       0.526   2.457  -3.793  1.00  0.00     0.118 C 
BRANCH  21  22
ATOM     22  N   UNL     1      -0.388   3.347  -4.484  1.00  0.00    -0.352 N 
ATOM     23  C   UNL     1      -0.583   4.698  -4.330  1.00  0.00     0.251 C 
ATOM     24  H   UNL     1      -0.953   2.918  -5.167  1.00  0.00     0.163 HD
ATOM     25  O   UNL     1      -1.583   5.216  -4.821  1.00  0.00    -0.269 OA
BRANCH  23  26
ATOM     26  C   UNL     1       0.382   5.543  -3.583  1.00  0.00     0.039 A 
ATOM     27  C   UNL     1      -0.114   6.596  -2.806  1.00  0.00     0.014 A 
ATOM     28  C   UNL     1       1.765   5.381  -3.713  1.00  0.00     0.014 A 
ATOM     29  C   UNL     1       0.765   7.467  -2.153  1.00  0.00     0.010 A 
ATOM     30  C   UNL     1       2.640   6.201  -2.998  1.00  0.00     0.010 A 
ATOM     31  C   UNL     1       2.152   7.274  -2.237  1.00  0.00    -0.014 A 
BRANCH  31  32
ATOM     32  C   UNL     1       3.103   8.229  -1.605  1.00  0.00     0.031 A 
ATOM     33  C   UNL     1       4.031   9.049  -2.467  1.00  0.00     0.074 A 
ATOM     34  C   UNL     1       3.165   8.345  -0.264  1.00  0.00     0.049 A 
ATOM     35  N   UNL     1       4.968   9.891  -2.108  1.00  0.00    -0.248 NA
ATOM     36  C   UNL     1       3.905   8.881  -3.925  1.00  0.00     0.031 C 
ATOM     37  C   UNL     1       2.350   7.595   0.693  1.00  0.00     0.029 A 
ATOM     38  N   UNL     1       3.958   9.140   0.527  1.00  0.00    -0.354 N 
ATOM     39  C   UNL     1       5.560  10.324  -3.289  1.00  0.00     0.074 A 
ATOM     40  C   UNL     1       4.907   9.623  -4.372  1.00  0.00     0.031 C 
ATOM     41  C   UNL     1       2.667   7.984   1.940  1.00  0.00     0.029 A 
ATOM     42  C   UNL     1       3.728   8.984   1.873  1.00  0.00     0.049 A 
ATOM     43  H   UNL     1       4.628   9.764   0.164  1.00  0.00     0.167 HD
ATOM     44  C   UNL     1       6.545  11.238  -3.464  1.00  0.00     0.031 A 
ATOM     45  C   UNL     1       4.307   9.578   2.934  1.00  0.00     0.031 A 
ATOM     46  C   UNL     1       7.172  11.970  -2.397  1.00  0.00     0.049 A 
ATOM     47  C   UNL     1       5.381  10.608   2.713  1.00  0.00     0.074 A 
ATOM     48  C   UNL     1       8.139  12.957  -2.481  1.00  0.00     0.029 A 
ATOM     49  N   UNL     1       6.885  11.802  -1.053  1.00  0.00    -0.354 N 
ATOM     50  N   UNL     1       5.891  11.041   1.586  1.00  0.00    -0.248 NA
ATOM     51  C   UNL     1       5.946  11.243   3.913  1.00  0.00     0.031 C 
ATOM     52  C   UNL     1       8.461  13.364  -1.182  1.00  0.00     0.029 A 
ATOM     53  C   UNL     1       7.662  12.662  -0.296  1.00  0.00     0.049 A 
ATOM     54  H   UNL     1       6.227  11.166  -0.690  1.00  0.00     0.167 HD
ATOM     55  C   UNL     1       6.811  12.020   1.939  1.00  0.00     0.074 A 
ATOM     56  C   UNL     1       6.781  12.125   3.383  1.00  0.00     0.031 C 
ATOM     57  C   UNL     1       7.609  12.766   1.138  1.00  0.00     0.031 A 
BRANCH  44  58
ATOM     58  C   UNL     1       7.007  11.499  -4.871  1.00  0.00    -0.014 A 
ATOM     59  C   UNL     1       6.202  12.201  -5.782  1.00  0.00     0.009 A 
ATOM     60  C   UNL     1       8.281  11.072  -5.278  1.00  0.00     0.009 A 
ATOM     61  C   UNL     1       6.649  12.439  -7.083  1.00  0.00     0.001 A 
ATOM     62  C   UNL     1       8.736  11.335  -6.571  1.00  0.00     0.001 A 
ATOM     63  C   UNL     1       7.917  12.010  -7.475  1.00  0.00     0.000 A 
ENDBRANCH  44  58
BRANCH  45  64
ATOM     64  C   UNL     1       3.869   9.236   4.312  1.00  0.00    -0.014 A 
ATOM     65  C   UNL     1       3.130  10.155   5.073  1.00  0.00     0.009 A 
ATOM     66  C   UNL     1       4.205   7.998   4.882  1.00  0.00     0.009 A 
ATOM     67  C   UNL     1       2.762   9.854   6.386  1.00  0.00     0.001 A 
ATOM     68  C   UNL     1       3.813   7.689   6.186  1.00  0.00     0.001 A 
ATOM     69  C   UNL     1       3.101   8.621   6.940  1.00  0.00     0.000 A 
ENDBRANCH  45  64
BRANCH  57  70
ATOM     70  C   UNL     1       8.477  13.798   1.799  1.00  0.00    -0.014 A 
ATOM     71  C   UNL     1       9.622  13.434   2.522  1.00  0.00     0.009 A 
ATOM     72  C   UNL     1       8.163  15.159   1.657  1.00  0.00     0.009 A 
ATOM     73  C   UNL     1      10.419  14.414   3.119  1.00  0.00     0.001 A 
ATOM     74  C   UNL     1       8.975  16.136   2.232  1.00  0.00     0.001 A 
ATOM     75  C   UNL     1      10.098  15.763   2.970  1.00  0.00     0.000 A 
ENDBRANCH  57  70
ENDBRANCH  31  32
ENDBRANCH  23  26
ENDBRANCH  21  22
ENDBRANCH   1  21
TORSDOF 15
