REMARK SMILES CC1=C([C@H](NC(=O)[C@@H]2[C@H](C)c3cc(F)ccc3N2C)C(=O)NCCCNC(=O)c2ccc(-c3c4nc(c(-c5ccccc5)c5ccc([nH]5)c(-c5ccccc5)c5nc(c(-c6ccccc6)c6ccc3[nH]6)C=C5)C=C4)cc2)[C@@H](C)N=N1
REMARK SMILES IDX 24 1 23 2 22 3 20 4 21 5 4 7 3 8 1 9 2 10 80 11 77 12 79 13
REMARK SMILES IDX 78 14 5 15 6 16 7 18 8 19 9 20 18 21 11 22 10 23 17 24 19 25
REMARK SMILES IDX 12 26 16 27 13 28 15 29 14 30 25 31 26 32 27 33 28 35 29 36
REMARK SMILES IDX 30 37 76 38 31 39 75 40 32 41 33 42 34 43 69 44 35 45 74 46
REMARK SMILES IDX 68 47 70 48 36 49 73 50 67 51 66 52 37 54 59 55 44 56 58 57
REMARK SMILES IDX 45 58 48 59 57 60 71 61 46 62 47 63 56 65 72 66 49 67 38 68
REMARK SMILES IDX 39 69 43 70 40 71 42 72 41 73 60 74 61 75 65 76 62 77 64 78
REMARK SMILES IDX 63 79 50 80 51 81 55 82 52 83 54 84 53 85
REMARK H PARENT 22 6 5 17 26 34 70 53 48 64
REMARK Flexibility Score: inf
ROOT
ATOM      1  C   UNL     1       1.751   1.767   6.465  1.00  0.00     0.042 C 
ENDROOT
BRANCH   1   2
ATOM      2  C   UNL     1       0.653   2.583   5.765  1.00  0.00     0.117 C 
BRANCH   2   3
ATOM      3  N   UNL     1       1.141   3.048   4.467  1.00  0.00    -0.354 N 
ATOM      4  C   UNL     1       0.880   2.845   3.156  1.00  0.00     0.247 C 
ATOM      5  O   UNL     1       1.665   3.438   2.396  1.00  0.00    -0.272 OA
ATOM      6  H   UNL     1       1.872   3.697   4.580  1.00  0.00     0.163 HD
BRANCH   4   7
ATOM      7  C   UNL     1      -0.254   1.973   2.516  1.00  0.00     0.202 C 
BRANCH   7   8
ATOM      8  C   UNL     1      -1.669   2.443   2.530  1.00  0.00     0.011 C 
ATOM      9  C   UNL     1      -2.504   1.607   0.255  1.00  0.00     0.069 C 
ATOM     10  C   UNL     1      -2.607   2.284   1.581  1.00  0.00     0.064 C 
ATOM     11  N   UNL     1      -3.802   2.862   1.922  1.00  0.00    -0.160 NA
ATOM     12  C   UNL     1      -2.326   3.277   3.579  1.00  0.00     0.156 C 
ATOM     13  N   UNL     1      -3.711   3.421   3.046  1.00  0.00    -0.181 NA
ATOM     14  C   UNL     1      -1.752   4.679   3.757  1.00  0.00     0.040 C 
ENDBRANCH   7   8
BRANCH   7  15
ATOM     15  N   UNL     1      -0.121   0.519   2.365  1.00  0.00    -0.339 N 
ATOM     16  C   UNL     1      -0.697  -0.562   2.959  1.00  0.00     0.244 C 
ATOM     17  H   UNL     1       0.535   0.268   1.676  1.00  0.00     0.164 HD
ATOM     18  O   UNL     1      -0.563  -1.649   2.393  1.00  0.00    -0.273 OA
BRANCH  16  19
ATOM     19  C   UNL     1      -1.371  -0.413   4.304  1.00  0.00     0.178 C 
ATOM     20  C   UNL     1      -0.457  -0.927   5.436  1.00  0.00     0.050 C 
ATOM     21  N   UNL     1      -2.699  -1.077   4.436  1.00  0.00    -0.362 N 
ATOM     22  C   UNL     1      -1.489  -1.444   6.381  1.00  0.00    -0.016 A 
ATOM     23  C   UNL     1       0.739  -1.818   5.151  1.00  0.00     0.015 C 
ATOM     24  C   UNL     1      -2.758  -1.444   5.796  1.00  0.00     0.041 A 
ATOM     25  C   UNL     1      -3.883  -0.432   3.895  1.00  0.00     0.144 C 
ATOM     26  C   UNL     1      -1.327  -1.341   7.735  1.00  0.00     0.045 A 
ATOM     27  C   UNL     1      -3.900  -1.467   6.586  1.00  0.00     0.029 A 
ATOM     28  C   UNL     1      -2.469  -0.988   8.425  1.00  0.00     0.123 A 
ATOM     29  C   UNL     1      -3.747  -1.149   7.921  1.00  0.00     0.041 A 
ATOM     30  F   UNL     1      -2.360  -0.161   9.459  1.00  0.00    -0.207 F 
ENDBRANCH  16  19
ENDBRANCH   7  15
ENDBRANCH   4   7
ENDBRANCH   2   3
ENDBRANCH   1   2
BRANCH   1  31
ATOM     31  C   UNL     1       1.745   1.606   8.002  1.00  0.00     0.118 C 
BRANCH  31  32
ATOM     32  N   UNL     1       0.479   1.627   8.714  1.00  0.00    -0.352 N 
ATOM     33  C   UNL     1       0.495   1.688  10.108  1.00  0.00     0.251 C 
ATOM     34  H   UNL     1      -0.374   1.600   8.223  1.00  0.00     0.163 HD
ATOM     35  O   UNL     1       0.779   2.735  10.699  1.00  0.00    -0.269 OA
BRANCH  33  36
ATOM     36  C   UNL     1      -0.088   0.540  10.848  1.00  0.00     0.039 A 
ATOM     37  C   UNL     1       0.288  -0.767  10.559  1.00  0.00     0.014 A 
ATOM     38  C   UNL     1      -1.174   0.776  11.710  1.00  0.00     0.014 A 
ATOM     39  C   UNL     1      -0.568  -1.811  10.929  1.00  0.00     0.010 A 
ATOM     40  C   UNL     1      -2.014  -0.279  12.105  1.00  0.00     0.010 A 
ATOM     41  C   UNL     1      -1.783  -1.569  11.623  1.00  0.00    -0.014 A 
BRANCH  41  42
ATOM     42  C   UNL     1      -2.708  -2.722  11.840  1.00  0.00     0.031 A 
ATOM     43  C   UNL     1      -1.981  -3.936  12.311  1.00  0.00     0.074 A 
ATOM     44  C   UNL     1      -4.065  -2.750  11.751  1.00  0.00     0.049 A 
ATOM     45  N   UNL     1      -1.968  -5.132  11.816  1.00  0.00    -0.248 NA
ATOM     46  C   UNL     1      -1.009  -3.719  13.401  1.00  0.00     0.031 C 
ATOM     47  C   UNL     1      -4.964  -1.613  11.522  1.00  0.00     0.029 A 
ATOM     48  N   UNL     1      -4.957  -3.788  11.954  1.00  0.00    -0.354 N 
ATOM     49  C   UNL     1      -1.101  -5.853  12.635  1.00  0.00     0.074 A 
ATOM     50  C   UNL     1      -0.403  -4.899  13.452  1.00  0.00     0.031 C 
ATOM     51  C   UNL     1      -6.230  -1.956  11.851  1.00  0.00     0.029 A 
ATOM     52  C   UNL     1      -6.267  -3.367  12.198  1.00  0.00     0.049 A 
ATOM     53  H   UNL     1      -4.693  -4.736  11.930  1.00  0.00     0.167 HD
ATOM     54  C   UNL     1      -1.225  -7.193  12.819  1.00  0.00     0.031 A 
ATOM     55  C   UNL     1      -7.304  -4.079  12.714  1.00  0.00     0.031 A 
ATOM     56  C   UNL     1      -1.938  -7.829  11.751  1.00  0.00     0.049 A 
ATOM     57  C   UNL     1      -7.025  -5.518  12.566  1.00  0.00     0.074 A 
ATOM     58  C   UNL     1      -1.673  -8.190  10.450  1.00  0.00     0.029 A 
ATOM     59  N   UNL     1      -3.293  -7.878  11.927  1.00  0.00    -0.354 N 
ATOM     60  N   UNL     1      -7.029  -6.149  11.430  1.00  0.00    -0.248 NA
ATOM     61  C   UNL     1      -6.468  -6.252  13.695  1.00  0.00     0.031 C 
ATOM     62  C   UNL     1      -2.937  -8.260   9.797  1.00  0.00     0.029 A 
ATOM     63  C   UNL     1      -3.938  -7.977  10.725  1.00  0.00     0.049 A 
ATOM     64  H   UNL     1      -3.744  -7.846  12.802  1.00  0.00     0.167 HD
ATOM     65  C   UNL     1      -6.099  -7.154  11.602  1.00  0.00     0.074 A 
ATOM     66  C   UNL     1      -5.923  -7.279  13.042  1.00  0.00     0.031 C 
ATOM     67  C   UNL     1      -5.316  -7.561  10.566  1.00  0.00     0.031 A 
BRANCH  54  68
ATOM     68  C   UNL     1      -1.157  -7.802  14.207  1.00  0.00    -0.014 A 
ATOM     69  C   UNL     1      -1.218  -7.035  15.391  1.00  0.00     0.009 A 
ATOM     70  C   UNL     1      -1.323  -9.189  14.359  1.00  0.00     0.009 A 
ATOM     71  C   UNL     1      -1.415  -7.603  16.650  1.00  0.00     0.001 A 
ATOM     72  C   UNL     1      -1.563  -9.761  15.617  1.00  0.00     0.001 A 
ATOM     73  C   UNL     1      -1.607  -8.969  16.761  1.00  0.00     0.000 A 
ENDBRANCH  54  68
BRANCH  55  74
ATOM     74  C   UNL     1      -8.405  -3.623  13.607  1.00  0.00    -0.014 A 
ATOM     75  C   UNL     1      -8.178  -2.564  14.503  1.00  0.00     0.009 A 
ATOM     76  C   UNL     1      -9.555  -4.410  13.814  1.00  0.00     0.009 A 
ATOM     77  C   UNL     1      -9.029  -2.331  15.591  1.00  0.00     0.001 A 
ATOM     78  C   UNL     1     -10.407  -4.178  14.906  1.00  0.00     0.001 A 
ATOM     79  C   UNL     1     -10.132  -3.150  15.804  1.00  0.00     0.000 A 
ENDBRANCH  55  74
BRANCH  67  80
ATOM     80  C   UNL     1      -5.817  -7.354   9.166  1.00  0.00    -0.014 A 
ATOM     81  C   UNL     1      -5.908  -8.489   8.344  1.00  0.00     0.009 A 
ATOM     82  C   UNL     1      -6.068  -6.094   8.602  1.00  0.00     0.009 A 
ATOM     83  C   UNL     1      -6.207  -8.370   6.988  1.00  0.00     0.001 A 
ATOM     84  C   UNL     1      -6.396  -5.979   7.247  1.00  0.00     0.001 A 
ATOM     85  C   UNL     1      -6.450  -7.114   6.439  1.00  0.00     0.000 A 
ENDBRANCH  67  80
ENDBRANCH  41  42
ENDBRANCH  33  36
ENDBRANCH  31  32
ENDBRANCH   1  31
TORSDOF 13
