REMARK SMILES C[C@H](Cc1ccco1)[NH2+]Cc1cc(C(=O)NCCCNC(=O)c2ccc(-c3c4nc(c(-c5ccccc5)c5ccc([nH]5)c(-c5ccccc5)c5nc(c(-c6ccccc6)c6ccc3[nH]6)C=C5)C=C4)cc2)cs1
REMARK SMILES IDX 14 1 15 2 16 3 13 5 11 6 12 7 72 8 71 9 10 10 9 11 2 14 1 15
REMARK SMILES IDX 3 16 4 17 5 18 8 19 6 20 7 21 17 22 18 23 19 24 20 25 21 26
REMARK SMILES IDX 22 28 23 29 24 30 70 31 25 32 69 33 26 34 27 35 28 36 63 37
REMARK SMILES IDX 29 38 68 39 62 40 64 41 30 42 67 43 61 44 60 45 31 47 53 48
REMARK SMILES IDX 38 49 52 50 39 51 42 52 51 53 65 54 40 55 41 56 50 58 66 59
REMARK SMILES IDX 43 60 32 61 33 62 37 63 34 64 36 65 35 66 54 67 55 68 59 69
REMARK SMILES IDX 56 70 58 71 57 72 44 73 45 74 49 75 46 76 48 77 47 78
REMARK H PARENT 16 4 9 12 9 13 20 27 64 46 42 57
REMARK Flexibility Score: inf
ROOT
ATOM      1  C   UNL     1      -1.194   2.587   5.638  1.00  0.00     0.252 C 
ATOM      2  O   UNL     1      -0.938   2.906   6.796  1.00  0.00    -0.269 OA
ATOM      3  N   UNL     1      -1.323   3.605   4.723  1.00  0.00    -0.352 N 
ATOM      4  H   UNL     1      -1.259   4.506   5.114  1.00  0.00     0.163 HD
ENDROOT
BRANCH   1   5
ATOM      5  C   UNL     1      -1.287   1.184   5.231  1.00  0.00     0.051 A 
ATOM      6  C   UNL     1      -1.466  -0.693   3.849  1.00  0.00     0.059 A 
ATOM      7  C   UNL     1      -1.896   0.599   4.077  1.00  0.00     0.035 A 
ATOM      8  S   UNL     1      -0.822  -1.367   5.279  1.00  0.00    -0.142 S 
ATOM      9  C   UNL     1      -0.742   0.176   6.014  1.00  0.00     0.079 A 
BRANCH   6  10
ATOM     10  C   UNL     1      -1.506  -1.446   2.552  1.00  0.00     0.308 C 
BRANCH  10  11
ATOM     11  N   UNL     1      -0.929  -0.656   1.451  1.00  0.00    -0.339 N 
ATOM     12  H   UNL     1      -1.357  -0.976   0.582  1.00  0.00     0.346 HD
ATOM     13  H   UNL     1      -1.125   0.318   1.683  1.00  0.00     0.346 HD
BRANCH  11  14
ATOM     14  C   UNL     1       0.534  -0.734   1.286  1.00  0.00     0.187 C 
ATOM     15  C   UNL     1       1.359  -0.385   2.530  1.00  0.00     0.075 C 
BRANCH  14  16
ATOM     16  C   UNL     1       0.986   0.094   0.051  1.00  0.00     0.140 C 
BRANCH  16  17
ATOM     17  C   UNL     1       1.255   1.544   0.296  1.00  0.00     0.109 A 
ATOM     18  C   UNL     1       2.315   2.223   0.866  1.00  0.00     0.046 A 
ATOM     19  O   UNL     1       0.341   2.438  -0.181  1.00  0.00    -0.469 OA
ATOM     20  C   UNL     1       2.031   3.602   0.738  1.00  0.00     0.042 A 
ATOM     21  C   UNL     1       0.831   3.681   0.073  1.00  0.00     0.195 A 
ENDBRANCH  16  17
ENDBRANCH  14  16
ENDBRANCH  11  14
ENDBRANCH  10  11
ENDBRANCH   6  10
ENDBRANCH   1   5
BRANCH   3  22
ATOM     22  C   UNL     1      -1.538   3.597   3.287  1.00  0.00     0.118 C 
BRANCH  22  23
ATOM     23  C   UNL     1      -3.021   3.732   2.946  1.00  0.00     0.042 C 
BRANCH  23  24
ATOM     24  C   UNL     1      -3.565   5.138   3.182  1.00  0.00     0.118 C 
BRANCH  24  25
ATOM     25  N   UNL     1      -2.998   6.105   2.252  1.00  0.00    -0.352 N 
ATOM     26  C   UNL     1      -3.616   6.926   1.344  1.00  0.00     0.251 C 
ATOM     27  H   UNL     1      -2.017   6.181   2.281  1.00  0.00     0.163 HD
ATOM     28  O   UNL     1      -2.941   7.504   0.497  1.00  0.00    -0.269 OA
BRANCH  26  29
ATOM     29  C   UNL     1      -5.082   7.113   1.370  1.00  0.00     0.039 A 
ATOM     30  C   UNL     1      -5.771   7.197   0.156  1.00  0.00     0.014 A 
ATOM     31  C   UNL     1      -5.776   7.249   2.576  1.00  0.00     0.014 A 
ATOM     32  C   UNL     1      -7.157   7.362   0.153  1.00  0.00     0.010 A 
ATOM     33  C   UNL     1      -7.165   7.333   2.573  1.00  0.00     0.010 A 
ATOM     34  C   UNL     1      -7.870   7.398   1.363  1.00  0.00    -0.014 A 
BRANCH  34  35
ATOM     35  C   UNL     1      -9.351   7.500   1.378  1.00  0.00     0.031 A 
ATOM     36  C   UNL     1     -10.026   8.695   1.992  1.00  0.00     0.074 A 
ATOM     37  C   UNL     1     -10.091   6.486   0.891  1.00  0.00     0.049 A 
ATOM     38  N   UNL     1     -11.304   8.933   2.148  1.00  0.00    -0.248 NA
ATOM     39  C   UNL     1      -9.149   9.751   2.524  1.00  0.00     0.031 C 
ATOM     40  C   UNL     1      -9.559   5.253   0.306  1.00  0.00     0.029 A 
ATOM     41  N   UNL     1     -11.452   6.326   0.820  1.00  0.00    -0.354 N 
ATOM     42  C   UNL     1     -11.384  10.156   2.802  1.00  0.00     0.074 A 
ATOM     43  C   UNL     1     -10.027  10.581   3.068  1.00  0.00     0.031 C 
ATOM     44  C   UNL     1     -10.580   4.476  -0.084  1.00  0.00     0.029 A 
ATOM     45  C   UNL     1     -11.837   5.131   0.263  1.00  0.00     0.049 A 
ATOM     46  H   UNL     1     -12.092   7.003   1.138  1.00  0.00     0.167 HD
ATOM     47  C   UNL     1     -12.485  10.872   3.134  1.00  0.00     0.031 A 
ATOM     48  C   UNL     1     -13.063   4.611   0.066  1.00  0.00     0.031 A 
ATOM     49  C   UNL     1     -13.835  10.443   2.878  1.00  0.00     0.049 A 
ATOM     50  C   UNL     1     -14.271   5.409   0.469  1.00  0.00     0.074 A 
ATOM     51  C   UNL     1     -15.017  11.113   3.139  1.00  0.00     0.029 A 
ATOM     52  N   UNL     1     -14.181   9.227   2.308  1.00  0.00    -0.354 N 
ATOM     53  N   UNL     1     -14.330   6.595   1.027  1.00  0.00    -0.248 NA
ATOM     54  C   UNL     1     -15.583   4.803   0.202  1.00  0.00     0.031 C 
ATOM     55  C   UNL     1     -16.081  10.278   2.781  1.00  0.00     0.029 A 
ATOM     56  C   UNL     1     -15.560   9.116   2.234  1.00  0.00     0.049 A 
ATOM     57  H   UNL     1     -13.542   8.544   2.001  1.00  0.00     0.167 HD
ATOM     58  C   UNL     1     -15.681   6.887   1.154  1.00  0.00     0.074 A 
ATOM     59  C   UNL     1     -16.407   5.764   0.597  1.00  0.00     0.031 C 
ATOM     60  C   UNL     1     -16.269   7.988   1.684  1.00  0.00     0.031 A 
BRANCH  47  61
ATOM     61  C   UNL     1     -12.266  12.193   3.823  1.00  0.00    -0.014 A 
ATOM     62  C   UNL     1     -11.676  13.277   3.152  1.00  0.00     0.009 A 
ATOM     63  C   UNL     1     -12.671  12.364   5.156  1.00  0.00     0.009 A 
ATOM     64  C   UNL     1     -11.452  14.486   3.814  1.00  0.00     0.001 A 
ATOM     65  C   UNL     1     -12.478  13.585   5.806  1.00  0.00     0.001 A 
ATOM     66  C   UNL     1     -11.857  14.640   5.139  1.00  0.00     0.000 A 
ENDBRANCH  47  61
BRANCH  48  67
ATOM     67  C   UNL     1     -13.206   3.264  -0.547  1.00  0.00    -0.014 A 
ATOM     68  C   UNL     1     -13.727   3.116  -1.841  1.00  0.00     0.009 A 
ATOM     69  C   UNL     1     -12.811   2.116   0.160  1.00  0.00     0.009 A 
ATOM     70  C   UNL     1     -13.873   1.847  -2.404  1.00  0.00     0.001 A 
ATOM     71  C   UNL     1     -12.928   0.851  -0.419  1.00  0.00     0.001 A 
ATOM     72  C   UNL     1     -13.469   0.716  -1.696  1.00  0.00     0.000 A 
ENDBRANCH  48  67
BRANCH  60  73
ATOM     73  C   UNL     1     -17.772   8.047   1.655  1.00  0.00    -0.014 A 
ATOM     74  C   UNL     1     -18.553   7.220   2.477  1.00  0.00     0.009 A 
ATOM     75  C   UNL     1     -18.413   8.975   0.819  1.00  0.00     0.009 A 
ATOM     76  C   UNL     1     -19.947   7.297   2.434  1.00  0.00     0.001 A 
ATOM     77  C   UNL     1     -19.805   9.072   0.803  1.00  0.00     0.001 A 
ATOM     78  C   UNL     1     -20.571   8.226   1.602  1.00  0.00     0.000 A 
ENDBRANCH  60  73
ENDBRANCH  34  35
ENDBRANCH  26  29
ENDBRANCH  24  25
ENDBRANCH  23  24
ENDBRANCH  22  23
ENDBRANCH   3  22
TORSDOF 15
