REMARK SMILES O=C(NCCCNC(=O)c1ccc2c(=O)[nH]c(N3CC[NH2+]CC3)nc2c1)c1ccc(-c2c3nc(c(-c4ccccc4)c4ccc([nH]4)c(-c4ccccc4)c4nc(c(-c5ccccc5)c5ccc2[nH]5)C=C4)C=C3)cc1
REMARK SMILES IDX 4 1 3 2 1 3 2 4 27 6 28 7 74 8 29 9 73 10 30 11 31 12 32 13
REMARK SMILES IDX 67 14 33 15 72 16 66 17 68 18 34 19 71 20 65 21 64 22 35 24
REMARK SMILES IDX 57 25 42 26 56 27 43 28 46 29 55 30 69 31 44 32 45 33 54 35
REMARK SMILES IDX 70 36 47 37 36 38 37 39 41 40 38 41 40 42 39 43 58 44 59 45
REMARK SMILES IDX 63 46 60 47 62 48 61 49 48 50 49 51 53 52 50 53 52 54 51 55
REMARK SMILES IDX 5 56 6 57 7 58 8 59 9 61 10 62 11 63 26 64 12 65 25 66 13 67
REMARK SMILES IDX 24 68 14 69 17 70 15 71 16 72 18 74 19 75 23 76 20 77 22 78
REMARK SMILES IDX 21 79
REMARK H PARENT 3 5 68 23 46 34 7 60 16 73 21 80 21 81
REMARK Flexibility Score: inf
ROOT
ATOM      1  C   UNL     1       4.462  -0.627  -1.187  1.00  0.00     0.118 C 
ENDROOT
BRANCH   1   2
ATOM      2  N   UNL     1       3.031  -0.393  -1.031  1.00  0.00    -0.352 N 
ATOM      3  O   UNL     1       1.084   0.035   0.018  1.00  0.00    -0.269 OA
ATOM      4  C   UNL     1       2.311   0.075   0.042  1.00  0.00     0.251 C 
ATOM      5  H   UNL     1       2.491  -0.606  -1.827  1.00  0.00     0.163 HD
BRANCH   4   6
ATOM      6  C   UNL     1       3.007   0.597   1.237  1.00  0.00     0.039 A 
ATOM      7  C   UNL     1       4.146   1.390   1.109  1.00  0.00     0.014 A 
ATOM      8  C   UNL     1       2.512   0.293   2.509  1.00  0.00     0.014 A 
ATOM      9  C   UNL     1       4.903   1.697   2.230  1.00  0.00     0.010 A 
ATOM     10  C   UNL     1       3.208   0.716   3.646  1.00  0.00     0.010 A 
ATOM     11  C   UNL     1       4.436   1.380   3.515  1.00  0.00    -0.014 A 
BRANCH  11  12
ATOM     12  C   UNL     1       5.234   1.807   4.694  1.00  0.00     0.031 A 
ATOM     13  C   UNL     1       5.810   0.804   5.656  1.00  0.00     0.074 A 
ATOM     14  C   UNL     1       5.482   3.121   4.861  1.00  0.00     0.049 A 
ATOM     15  N   UNL     1       6.584   1.012   6.693  1.00  0.00    -0.248 NA
ATOM     16  C   UNL     1       5.473  -0.611   5.436  1.00  0.00     0.031 C 
ATOM     17  C   UNL     1       4.979   4.192   3.995  1.00  0.00     0.029 A 
ATOM     18  N   UNL     1       6.246   3.780   5.790  1.00  0.00    -0.354 N 
ATOM     19  C   UNL     1       6.801  -0.237   7.263  1.00  0.00     0.074 A 
ATOM     20  C   UNL     1       6.059  -1.194   6.472  1.00  0.00     0.031 C 
ATOM     21  C   UNL     1       5.508   5.359   4.386  1.00  0.00     0.029 A 
ATOM     22  C   UNL     1       6.319   5.134   5.575  1.00  0.00     0.049 A 
ATOM     23  H   UNL     1       6.698   3.326   6.537  1.00  0.00     0.167 HD
ATOM     24  C   UNL     1       7.553  -0.557   8.345  1.00  0.00     0.031 A 
ATOM     25  C   UNL     1       6.958   6.097   6.263  1.00  0.00     0.031 A 
ATOM     26  C   UNL     1       8.292   0.400   9.130  1.00  0.00     0.049 A 
ATOM     27  C   UNL     1       7.749   5.718   7.479  1.00  0.00     0.074 A 
ATOM     28  C   UNL     1       9.115   0.169  10.220  1.00  0.00     0.029 A 
ATOM     29  N   UNL     1       8.290   1.770   8.916  1.00  0.00    -0.354 N 
ATOM     30  N   UNL     1       7.978   4.527   7.978  1.00  0.00    -0.248 NA
ATOM     31  C   UNL     1       8.369   6.818   8.227  1.00  0.00     0.031 C 
ATOM     32  C   UNL     1       9.558   1.404  10.704  1.00  0.00     0.029 A 
ATOM     33  C   UNL     1       9.069   2.400   9.874  1.00  0.00     0.049 A 
ATOM     34  H   UNL     1       7.807   2.228   8.191  1.00  0.00     0.167 HD
ATOM     35  C   UNL     1       8.791   4.733   9.084  1.00  0.00     0.074 A 
ATOM     36  C   UNL     1       9.030   6.160   9.168  1.00  0.00     0.031 C 
ATOM     37  C   UNL     1       9.294   3.821   9.951  1.00  0.00     0.031 A 
BRANCH  24  38
ATOM     38  C   UNL     1       7.582  -2.001   8.772  1.00  0.00    -0.014 A 
ATOM     39  C   UNL     1       8.231  -2.984   8.008  1.00  0.00     0.009 A 
ATOM     40  C   UNL     1       6.977  -2.377   9.982  1.00  0.00     0.009 A 
ATOM     41  C   UNL     1       8.237  -4.317   8.427  1.00  0.00     0.001 A 
ATOM     42  C   UNL     1       7.012  -3.704  10.414  1.00  0.00     0.001 A 
ATOM     43  C   UNL     1       7.632  -4.675   9.631  1.00  0.00     0.000 A 
ENDBRANCH  24  38
BRANCH  25  44
ATOM     44  C   UNL     1       6.869   7.512   5.817  1.00  0.00    -0.014 A 
ATOM     45  C   UNL     1       7.999   8.174   5.316  1.00  0.00     0.009 A 
ATOM     46  C   UNL     1       5.651   8.206   5.887  1.00  0.00     0.009 A 
ATOM     47  C   UNL     1       7.916   9.510   4.916  1.00  0.00     0.001 A 
ATOM     48  C   UNL     1       5.562   9.530   5.455  1.00  0.00     0.001 A 
ATOM     49  C   UNL     1       6.697  10.184   4.980  1.00  0.00     0.000 A 
ENDBRANCH  25  44
BRANCH  37  50
ATOM     50  C   UNL     1      10.190   4.341  11.041  1.00  0.00    -0.014 A 
ATOM     51  C   UNL     1       9.684   5.108  12.102  1.00  0.00     0.009 A 
ATOM     52  C   UNL     1      11.562   4.047  11.008  1.00  0.00     0.009 A 
ATOM     53  C   UNL     1      10.543   5.607  13.084  1.00  0.00     0.001 A 
ATOM     54  C   UNL     1      12.412   4.517  12.009  1.00  0.00     0.001 A 
ATOM     55  C   UNL     1      11.904   5.307  13.039  1.00  0.00     0.000 A 
ENDBRANCH  37  50
ENDBRANCH  11  12
ENDBRANCH   4   6
ENDBRANCH   1   2
BRANCH   1  56
ATOM     56  C   UNL     1       4.817  -2.102  -1.277  1.00  0.00     0.042 C 
BRANCH  56  57
ATOM     57  C   UNL     1       4.258  -2.786  -2.514  1.00  0.00     0.118 C 
BRANCH  57  58
ATOM     58  N   UNL     1       4.795  -2.219  -3.743  1.00  0.00    -0.352 N 
ATOM     59  C   UNL     1       5.694  -2.750  -4.633  1.00  0.00     0.251 C 
ATOM     60  H   UNL     1       4.464  -1.320  -3.969  1.00  0.00     0.163 HD
ATOM     61  O   UNL     1       6.194  -2.042  -5.501  1.00  0.00    -0.269 OA
BRANCH  59  62
ATOM     62  C   UNL     1       6.059  -4.177  -4.542  1.00  0.00     0.041 A 
ATOM     63  C   UNL     1       5.061  -5.155  -4.439  1.00  0.00     0.015 A 
ATOM     64  C   UNL     1       7.411  -4.536  -4.594  1.00  0.00     0.043 A 
ATOM     65  C   UNL     1       5.418  -6.489  -4.286  1.00  0.00     0.017 A 
ATOM     66  C   UNL     1       7.779  -5.877  -4.475  1.00  0.00     0.081 A 
ATOM     67  C   UNL     1       6.771  -6.832  -4.305  1.00  0.00     0.066 A 
ATOM     68  N   UNL     1       9.139  -6.226  -4.551  1.00  0.00    -0.214 NA
ATOM     69  C   UNL     1       7.182  -8.233  -4.175  1.00  0.00     0.260 A 
ATOM     70  C   UNL     1       9.456  -7.483  -4.544  1.00  0.00     0.206 A 
ATOM     71  O   UNL     1       6.391  -9.124  -3.906  1.00  0.00    -0.269 OA
ATOM     72  N   UNL     1       8.517  -8.462  -4.367  1.00  0.00    -0.292 N 
ATOM     73  H   UNL     1       8.823  -9.398  -4.380  1.00  0.00     0.173 HD
BRANCH  70  74
ATOM     74  N   UNL     1      10.740  -7.928  -4.673  1.00  0.00    -0.331 N 
ATOM     75  C   UNL     1      11.856  -7.284  -3.982  1.00  0.00     0.181 C 
ATOM     76  C   UNL     1      11.139  -8.939  -5.654  1.00  0.00     0.181 C 
ATOM     77  C   UNL     1      12.728  -8.381  -3.323  1.00  0.00     0.282 C 
ATOM     78  C   UNL     1      12.029  -9.999  -4.977  1.00  0.00     0.282 C 
ATOM     79  N   UNL     1      13.191  -9.424  -4.267  1.00  0.00    -0.343 N 
ATOM     80  H   UNL     1      13.672 -10.161  -3.750  1.00  0.00     0.346 HD
ATOM     81  H   UNL     1      13.832  -9.010  -4.944  1.00  0.00     0.346 HD
ENDBRANCH  70  74
ENDBRANCH  59  62
ENDBRANCH  57  58
ENDBRANCH  56  57
ENDBRANCH   1  56
TORSDOF 11
