REMARK SMILES Cc1cc(Br)cnc1Sc1nc(CC(=O)NCCCNC(=O)c2ccc(-c3c4nc(c(-c5ccccc5)c5ccc([nH]5)c(-c5ccccc5)c5nc(c(-c6ccccc6)c6ccc3[nH]6)C=C5)C=C4)cc2)cs1
REMARK SMILES IDX 17 1 16 2 14 3 15 4 13 6 12 7 10 8 11 9 72 10 71 11 9 12
REMARK SMILES IDX 8 13 1 14 2 15 3 16 4 17 7 18 5 19 6 20 18 21 19 22 20 23
REMARK SMILES IDX 21 24 22 26 23 27 24 28 70 29 25 30 69 31 26 32 27 33 28 34
REMARK SMILES IDX 63 35 29 36 68 37 62 38 64 39 30 40 67 41 61 42 60 43 31 45
REMARK SMILES IDX 53 46 38 47 52 48 39 49 42 50 51 51 65 52 40 53 41 54 50 56
REMARK SMILES IDX 66 57 43 58 32 59 33 60 37 61 34 62 36 63 35 64 54 65 55 66
REMARK SMILES IDX 59 67 56 68 58 69 57 70 44 71 45 72 49 73 46 74 48 75 47 76
REMARK H PARENT 16 5 20 25 64 44 42 55
REMARK Flexibility Score: inf
ROOT
ATOM      1  C   UNL     1       7.221  -1.643  -3.831  1.00  0.00     0.117 C 
ENDROOT
BRANCH   1   2
ATOM      2  N   UNL     1       7.901  -2.853  -3.400  1.00  0.00    -0.356 N 
ATOM      3  C   UNL     1       7.536  -3.726  -2.415  1.00  0.00     0.226 C 
ATOM      4  O   UNL     1       8.308  -4.641  -2.122  1.00  0.00    -0.275 OA
ATOM      5  H   UNL     1       8.732  -3.072  -3.880  1.00  0.00     0.163 HD
BRANCH   3   6
ATOM      6  C   UNL     1       6.199  -3.569  -1.722  1.00  0.00     0.157 C 
BRANCH   6   7
ATOM      7  C   UNL     1       6.207  -2.455  -0.732  1.00  0.00     0.062 A 
ATOM      8  C   UNL     1       5.426  -0.542   0.078  1.00  0.00     0.156 A 
ATOM      9  N   UNL     1       5.345  -1.381  -0.931  1.00  0.00    -0.234 NA
ATOM     10  S   UNL     1       6.621  -0.922   1.253  1.00  0.00    -0.116 S 
ATOM     11  C   UNL     1       6.981  -2.367   0.410  1.00  0.00     0.092 A 
BRANCH   8  12
ATOM     12  S   UNL     1       4.484   0.907   0.191  1.00  0.00    -0.039 SA
BRANCH  12  13
ATOM     13  C   UNL     1       2.772   0.440   0.077  1.00  0.00     0.106 A 
ATOM     14  C   UNL     1       2.830  -2.117   0.488  1.00  0.00     0.047 C 
ATOM     15  C   UNL     1       2.146  -0.806   0.244  1.00  0.00    -0.017 A 
ATOM     16  C   UNL     1       0.736  -0.861   0.152  1.00  0.00     0.023 A 
ATOM     17  C   UNL     1      -0.009   0.289  -0.048  1.00  0.00     0.036 A 
ATOM     18  N   UNL     1       2.021   1.564  -0.126  1.00  0.00    -0.248 NA
ATOM     19  Br  UNL     1      -1.889   0.226  -0.121  1.00  0.00    -0.049 Br
ATOM     20  C   UNL     1       0.673   1.475  -0.177  1.00  0.00     0.128 A 
ENDBRANCH  12  13
ENDBRANCH   8  12
ENDBRANCH   6   7
ENDBRANCH   3   6
ENDBRANCH   1   2
BRANCH   1  21
ATOM     21  C   UNL     1       7.800  -0.392  -3.174  1.00  0.00     0.042 C 
BRANCH  21  22
ATOM     22  C   UNL     1       9.246  -0.093  -3.554  1.00  0.00     0.118 C 
BRANCH  22  23
ATOM     23  N   UNL     1       9.400   0.232  -4.963  1.00  0.00    -0.352 N 
ATOM     24  C   UNL     1       9.994   1.311  -5.561  1.00  0.00     0.251 C 
ATOM     25  H   UNL     1       9.016  -0.427  -5.585  1.00  0.00     0.163 HD
ATOM     26  O   UNL     1       9.859   1.470  -6.777  1.00  0.00    -0.269 OA
BRANCH  24  27
ATOM     27  C   UNL     1      10.789   2.288  -4.785  1.00  0.00     0.039 A 
ATOM     28  C   UNL     1      10.717   3.639  -5.144  1.00  0.00     0.014 A 
ATOM     29  C   UNL     1      11.658   1.889  -3.765  1.00  0.00     0.014 A 
ATOM     30  C   UNL     1      11.493   4.586  -4.472  1.00  0.00     0.010 A 
ATOM     31  C   UNL     1      12.379   2.843  -3.048  1.00  0.00     0.010 A 
ATOM     32  C   UNL     1      12.323   4.197  -3.410  1.00  0.00    -0.014 A 
BRANCH  32  33
ATOM     33  C   UNL     1      13.182   5.185  -2.708  1.00  0.00     0.031 A 
ATOM     34  C   UNL     1      14.681   5.090  -2.818  1.00  0.00     0.074 A 
ATOM     35  C   UNL     1      12.624   6.146  -1.948  1.00  0.00     0.049 A 
ATOM     36  N   UNL     1      15.601   5.826  -2.247  1.00  0.00    -0.248 NA
ATOM     37  C   UNL     1      15.217   4.011  -3.665  1.00  0.00     0.031 C 
ATOM     38  C   UNL     1      11.188   6.335  -1.738  1.00  0.00     0.029 A 
ATOM     39  N   UNL     1      13.204   7.146  -1.208  1.00  0.00    -0.354 N 
ATOM     40  C   UNL     1      16.818   5.287  -2.647  1.00  0.00     0.074 A 
ATOM     41  C   UNL     1      16.521   4.136  -3.471  1.00  0.00     0.031 C 
ATOM     42  C   UNL     1      10.998   7.404  -0.946  1.00  0.00     0.029 A 
ATOM     43  C   UNL     1      12.297   7.952  -0.566  1.00  0.00     0.049 A 
ATOM     44  H   UNL     1      14.178   7.273  -1.144  1.00  0.00     0.167 HD
ATOM     45  C   UNL     1      18.072   5.720  -2.371  1.00  0.00     0.031 A 
ATOM     46  C   UNL     1      12.489   9.015   0.237  1.00  0.00     0.031 A 
ATOM     47  C   UNL     1      18.372   6.876  -1.570  1.00  0.00     0.049 A 
ATOM     48  C   UNL     1      13.890   9.478   0.525  1.00  0.00     0.074 A 
ATOM     49  C   UNL     1      19.610   7.417  -1.266  1.00  0.00     0.029 A 
ATOM     50  N   UNL     1      17.422   7.674  -0.953  1.00  0.00    -0.354 N 
ATOM     51  N   UNL     1      15.028   8.983   0.103  1.00  0.00    -0.248 NA
ATOM     52  C   UNL     1      14.030  10.660   1.389  1.00  0.00     0.031 C 
ATOM     53  C   UNL     1      19.409   8.525  -0.435  1.00  0.00     0.029 A 
ATOM     54  C   UNL     1      18.045   8.700  -0.263  1.00  0.00     0.049 A 
ATOM     55  H   UNL     1      16.449   7.532  -0.999  1.00  0.00     0.167 HD
ATOM     56  C   UNL     1      16.016   9.812   0.620  1.00  0.00     0.074 A 
ATOM     57  C   UNL     1      15.342  10.846   1.378  1.00  0.00     0.031 C 
ATOM     58  C   UNL     1      17.360   9.727   0.476  1.00  0.00     0.031 A 
BRANCH  45  59
ATOM     59  C   UNL     1      19.215   4.931  -2.945  1.00  0.00    -0.014 A 
ATOM     60  C   UNL     1      19.496   4.957  -4.321  1.00  0.00     0.009 A 
ATOM     61  C   UNL     1      20.037   4.171  -2.098  1.00  0.00     0.009 A 
ATOM     62  C   UNL     1      20.554   4.207  -4.841  1.00  0.00     0.001 A 
ATOM     63  C   UNL     1      21.110   3.446  -2.617  1.00  0.00     0.001 A 
ATOM     64  C   UNL     1      21.362   3.456  -3.988  1.00  0.00     0.000 A 
ENDBRANCH  45  59
BRANCH  46  65
ATOM     65  C   UNL     1      11.324   9.740   0.806  1.00  0.00    -0.014 A 
ATOM     66  C   UNL     1      10.987  11.019   0.336  1.00  0.00     0.009 A 
ATOM     67  C   UNL     1      10.553   9.166   1.827  1.00  0.00     0.009 A 
ATOM     68  C   UNL     1       9.918  11.720   0.898  1.00  0.00     0.001 A 
ATOM     69  C   UNL     1       9.468   9.859   2.369  1.00  0.00     0.001 A 
ATOM     70  C   UNL     1       9.158  11.139   1.911  1.00  0.00     0.000 A 
ENDBRANCH  46  65
BRANCH  58  71
ATOM     71  C   UNL     1      18.189  10.810   1.106  1.00  0.00    -0.014 A 
ATOM     72  C   UNL     1      18.380  10.870   2.495  1.00  0.00     0.009 A 
ATOM     73  C   UNL     1      18.815  11.764   0.289  1.00  0.00     0.009 A 
ATOM     74  C   UNL     1      19.156  11.886   3.055  1.00  0.00     0.001 A 
ATOM     75  C   UNL     1      19.612  12.762   0.850  1.00  0.00     0.001 A 
ATOM     76  C   UNL     1      19.774  12.828   2.233  1.00  0.00     0.000 A 
ENDBRANCH  58  71
ENDBRANCH  32  33
ENDBRANCH  24  27
ENDBRANCH  22  23
ENDBRANCH  21  22
ENDBRANCH   1  21
TORSDOF 13
