REMARK SMILES Cc1c(C(=O)NCCCNC(=O)c2ccc(-c3c4nc(c(-c5ccccc5)c5ccc([nH]5)c(-c5ccccc5)c5nc(c(-c6ccccc6)c6ccc3[nH]6)C=C5)C=C4)cc2)sc2c1c(=O)n(Cc1ccccc1)c(=O)n2CC[NH+]1CCCCC1
REMARK SMILES IDX 7 1 6 2 4 3 5 4 3 6 1 7 2 8 63 9 61 10 62 11 64 12 76 13
REMARK SMILES IDX 65 14 66 15 74 16 75 17 77 18 78 19 79 20 80 21 84 22 81 24
REMARK SMILES IDX 83 25 82 26 67 27 68 28 69 29 73 30 70 31 72 32 71 33 8 34
REMARK SMILES IDX 9 35 10 36 11 37 12 39 13 40 14 41 60 42 15 43 59 44 16 45
REMARK SMILES IDX 17 46 18 47 53 48 19 49 58 50 52 51 54 52 20 53 57 54 51 55
REMARK SMILES IDX 50 56 21 58 43 59 28 60 42 61 29 62 32 63 41 64 55 65 30 66
REMARK SMILES IDX 31 67 40 69 56 70 33 71 22 72 23 73 27 74 24 75 26 76 25 77
REMARK SMILES IDX 44 78 45 79 49 80 46 81 48 82 47 83 34 84 35 85 39 86 36 87
REMARK SMILES IDX 38 88 37 89
REMARK H PARENT 6 5 79 23 10 38 54 57 32 68
REMARK Flexibility Score: inf
ROOT
ATOM      1  C   UNL     1       2.681   5.361  -2.682  1.00  0.00     0.118 C 
ENDROOT
BRANCH   1   2
ATOM      2  N   UNL     1       2.664   4.554  -1.454  1.00  0.00    -0.351 N 
ATOM      3  C   UNL     1       2.482   3.216  -1.140  1.00  0.00     0.261 C 
ATOM      4  O   UNL     1       2.658   2.956   0.055  1.00  0.00    -0.268 OA
ATOM      5  H   UNL     1       2.822   5.102  -0.652  1.00  0.00     0.163 HD
BRANCH   3   6
ATOM      6  C   UNL     1       2.006   2.199  -2.079  1.00  0.00     0.098 A 
ATOM      7  C   UNL     1       1.357   0.321  -0.429  1.00  0.00     0.047 C 
ATOM      8  C   UNL     1       1.416   0.948  -1.792  1.00  0.00    -0.012 A 
ATOM      9  C   UNL     1       0.675   0.464  -2.950  1.00  0.00     0.079 A 
ATOM     10  S   UNL     1       2.067   2.400  -3.778  1.00  0.00    -0.111 S 
ATOM     11  C   UNL     1       0.754   1.382  -3.953  1.00  0.00     0.113 A 
ATOM     12  C   UNL     1      -0.291  -0.609  -3.109  1.00  0.00     0.265 A 
ATOM     13  N   UNL     1      -0.213   1.566  -4.921  1.00  0.00    -0.279 N 
ATOM     14  O   UNL     1      -0.617  -1.338  -2.187  1.00  0.00    -0.268 OA
ATOM     15  N   UNL     1      -0.845  -0.669  -4.396  1.00  0.00    -0.255 N 
ATOM     16  C   UNL     1      -1.010   0.453  -5.217  1.00  0.00     0.332 A 
ATOM     17  O   UNL     1      -1.846   0.494  -6.122  1.00  0.00    -0.247 OA
BRANCH  13  18
ATOM     18  C   UNL     1      -0.610   2.896  -5.437  1.00  0.00     0.189 C 
BRANCH  18  19
ATOM     19  C   UNL     1      -1.963   3.484  -4.859  1.00  0.00     0.284 C 
BRANCH  19  20
ATOM     20  N   UNL     1      -2.198   3.809  -3.417  1.00  0.00    -0.333 N 
ATOM     21  C   UNL     1      -1.481   2.936  -2.506  1.00  0.00     0.262 C 
ATOM     22  C   UNL     1      -2.018   5.230  -3.104  1.00  0.00     0.262 C 
ATOM     23  H   UNL     1      -3.188   3.618  -3.261  1.00  0.00     0.348 HD
ATOM     24  C   UNL     1      -1.631   3.208  -1.017  1.00  0.00     0.062 C 
ATOM     25  C   UNL     1      -2.055   5.573  -1.597  1.00  0.00     0.062 C 
ATOM     26  C   UNL     1      -1.222   4.637  -0.728  1.00  0.00     0.012 C 
ENDBRANCH  19  20
ENDBRANCH  18  19
ENDBRANCH  13  18
BRANCH  15  27
ATOM     27  C   UNL     1      -1.511  -1.910  -4.769  1.00  0.00     0.166 C 
BRANCH  27  28
ATOM     28  C   UNL     1      -0.489  -2.980  -5.114  1.00  0.00    -0.028 A 
ATOM     29  C   UNL     1      -0.114  -3.216  -6.444  1.00  0.00     0.005 A 
ATOM     30  C   UNL     1       0.155  -3.702  -4.096  1.00  0.00     0.005 A 
ATOM     31  C   UNL     1       0.888  -4.143  -6.742  1.00  0.00     0.000 A 
ATOM     32  C   UNL     1       1.171  -4.609  -4.393  1.00  0.00     0.000 A 
ATOM     33  C   UNL     1       1.538  -4.829  -5.716  1.00  0.00     0.000 A 
ENDBRANCH  27  28
ENDBRANCH  15  27
ENDBRANCH   3   6
ENDBRANCH   1   2
BRANCH   1  34
ATOM     34  C   UNL     1       1.536   6.361  -2.807  1.00  0.00     0.042 C 
BRANCH  34  35
ATOM     35  C   UNL     1       1.650   7.546  -1.879  1.00  0.00     0.118 C 
BRANCH  35  36
ATOM     36  N   UNL     1       2.244   8.727  -2.496  1.00  0.00    -0.352 N 
ATOM     37  C   UNL     1       2.001  10.065  -2.238  1.00  0.00     0.251 C 
ATOM     38  H   UNL     1       2.912   8.547  -3.196  1.00  0.00     0.163 HD
ATOM     39  O   UNL     1       2.380  10.913  -3.040  1.00  0.00    -0.269 OA
BRANCH  37  40
ATOM     40  C   UNL     1       1.315  10.483  -0.989  1.00  0.00     0.039 A 
ATOM     41  C   UNL     1       0.798  11.775  -0.836  1.00  0.00     0.014 A 
ATOM     42  C   UNL     1       1.245   9.597   0.083  1.00  0.00     0.014 A 
ATOM     43  C   UNL     1       0.312  12.159   0.415  1.00  0.00     0.010 A 
ATOM     44  C   UNL     1       0.533   9.883   1.205  1.00  0.00     0.010 A 
ATOM     45  C   UNL     1       0.242  11.203   1.439  1.00  0.00    -0.014 A 
BRANCH  45  46
ATOM     46  C   UNL     1      -0.186  11.501   2.789  1.00  0.00     0.031 A 
ATOM     47  C   UNL     1      -1.583  11.957   2.849  1.00  0.00     0.074 A 
ATOM     48  C   UNL     1       0.522  11.165   3.891  1.00  0.00     0.049 A 
ATOM     49  N   UNL     1      -1.982  13.168   3.021  1.00  0.00    -0.248 NA
ATOM     50  C   UNL     1      -2.645  11.009   2.478  1.00  0.00     0.031 C 
ATOM     51  C   UNL     1       1.770  10.393   4.005  1.00  0.00     0.029 A 
ATOM     52  N   UNL     1       0.198  11.381   5.191  1.00  0.00    -0.354 N 
ATOM     53  C   UNL     1      -3.365  13.106   3.005  1.00  0.00     0.074 A 
ATOM     54  C   UNL     1      -3.706  11.818   2.454  1.00  0.00     0.031 C 
ATOM     55  C   UNL     1       1.967  10.032   5.297  1.00  0.00     0.029 A 
ATOM     56  C   UNL     1       0.964  10.683   6.119  1.00  0.00     0.049 A 
ATOM     57  H   UNL     1      -0.528  11.989   5.458  1.00  0.00     0.167 HD
ATOM     58  C   UNL     1      -4.105  14.003   3.710  1.00  0.00     0.031 A 
ATOM     59  C   UNL     1       0.755  10.650   7.461  1.00  0.00     0.031 A 
ATOM     60  C   UNL     1      -3.297  15.114   4.157  1.00  0.00     0.049 A 
ATOM     61  C   UNL     1      -0.071  11.835   7.791  1.00  0.00     0.074 A 
ATOM     62  C   UNL     1      -2.541  16.081   3.523  1.00  0.00     0.029 A 
ATOM     63  N   UNL     1      -2.836  15.061   5.452  1.00  0.00    -0.354 N 
ATOM     64  N   UNL     1       0.357  13.059   7.682  1.00  0.00    -0.248 NA
ATOM     65  C   UNL     1      -1.516  11.673   7.802  1.00  0.00     0.031 C 
ATOM     66  C   UNL     1      -1.368  16.216   4.325  1.00  0.00     0.029 A 
ATOM     67  C   UNL     1      -1.504  15.391   5.444  1.00  0.00     0.049 A 
ATOM     68  H   UNL     1      -3.368  14.826   6.247  1.00  0.00     0.167 HD
ATOM     69  C   UNL     1      -0.720  13.760   7.161  1.00  0.00     0.074 A 
ATOM     70  C   UNL     1      -1.873  12.879   7.349  1.00  0.00     0.031 C 
ATOM     71  C   UNL     1      -0.527  14.854   6.367  1.00  0.00     0.031 A 
BRANCH  58  72
ATOM     72  C   UNL     1      -5.420  13.659   4.354  1.00  0.00    -0.014 A 
ATOM     73  C   UNL     1      -6.124  14.678   5.016  1.00  0.00     0.009 A 
ATOM     74  C   UNL     1      -5.864  12.340   4.566  1.00  0.00     0.009 A 
ATOM     75  C   UNL     1      -7.174  14.383   5.892  1.00  0.00     0.001 A 
ATOM     76  C   UNL     1      -6.938  12.044   5.407  1.00  0.00     0.001 A 
ATOM     77  C   UNL     1      -7.577  13.066   6.091  1.00  0.00     0.000 A 
ENDBRANCH  58  72
BRANCH  59  78
ATOM     78  C   UNL     1       0.937   9.558   8.445  1.00  0.00    -0.014 A 
ATOM     79  C   UNL     1       0.873   9.835   9.824  1.00  0.00     0.009 A 
ATOM     80  C   UNL     1       0.828   8.215   8.046  1.00  0.00     0.009 A 
ATOM     81  C   UNL     1       0.631   8.818  10.758  1.00  0.00     0.001 A 
ATOM     82  C   UNL     1       0.590   7.199   8.981  1.00  0.00     0.001 A 
ATOM     83  C   UNL     1       0.468   7.503  10.334  1.00  0.00     0.000 A 
ENDBRANCH  59  78
BRANCH  71  84
ATOM     84  C   UNL     1       0.876  15.410   6.259  1.00  0.00    -0.014 A 
ATOM     85  C   UNL     1       1.957  14.692   5.713  1.00  0.00     0.009 A 
ATOM     86  C   UNL     1       1.072  16.762   6.572  1.00  0.00     0.009 A 
ATOM     87  C   UNL     1       3.197  15.309   5.503  1.00  0.00     0.001 A 
ATOM     88  C   UNL     1       2.302  17.383   6.343  1.00  0.00     0.001 A 
ATOM     89  C   UNL     1       3.365  16.657   5.812  1.00  0.00     0.000 A 
ENDBRANCH  71  84
ENDBRANCH  45  46
ENDBRANCH  37  40
ENDBRANCH  35  36
ENDBRANCH  34  35
ENDBRANCH   1  34
TORSDOF 15
