REMARK SMILES COc1ccc(Cl)c(C[C@H]([NH3+])C(=O)NCCCNC(=O)c2ccc(-c3c4nc(c(-c5ccccc5)c5ccc([nH]5)c(-c5ccccc5)c5nc(c(-c6ccccc6)c6ccc3[nH]6)C=C5)C=C4)cc2)c1F
REMARK SMILES IDX 15 1 14 2 12 3 13 4 10 6 9 7 8 8 3 9 4 10 69 11 5 12 70 13
REMARK SMILES IDX 6 14 7 15 2 16 1 17 11 18 16 22 17 23 18 24 19 25 20 27
REMARK SMILES IDX 21 28 22 29 68 30 23 31 67 32 24 33 25 34 26 35 61 36 27 37
REMARK SMILES IDX 66 38 60 39 62 40 28 41 65 42 59 43 58 44 29 46 51 47 36 48
REMARK SMILES IDX 50 49 37 50 40 51 49 52 63 53 38 54 39 55 48 57 64 58 41 59
REMARK SMILES IDX 30 60 31 61 35 62 32 63 34 64 33 65 52 66 53 67 57 68 54 69
REMARK SMILES IDX 56 70 55 71 42 72 43 73 47 74 44 75 46 76 45 77
REMARK H PARENT 14 5 11 19 11 20 11 21 18 26 62 45 40 56
REMARK Flexibility Score: inf
ROOT
ATOM      1  C   UNL     1       5.276  -2.788   6.623  1.00  0.00     0.118 C 
ENDROOT
BRANCH   1   2
ATOM      2  N   UNL     1       6.190  -1.747   6.192  1.00  0.00    -0.351 N 
ATOM      3  C   UNL     1       5.948  -0.549   5.590  1.00  0.00     0.278 C 
ATOM      4  O   UNL     1       6.921   0.074   5.157  1.00  0.00    -0.268 OA
ATOM      5  H   UNL     1       7.141  -1.937   6.364  1.00  0.00     0.163 HD
BRANCH   3   6
ATOM      6  C   UNL     1       4.510  -0.017   5.418  1.00  0.00     0.275 C 
BRANCH   6   7
ATOM      7  C   UNL     1       3.766   0.056   6.772  1.00  0.00     0.115 C 
BRANCH   7   8
ATOM      8  C   UNL     1       3.522   1.458   7.279  1.00  0.00     0.017 A 
ATOM      9  C   UNL     1       1.917   3.247   7.729  1.00  0.00     0.154 A 
ATOM     10  C   UNL     1       2.949   4.061   8.188  1.00  0.00     0.051 A 
ATOM     11  C   UNL     1       2.215   1.968   7.251  1.00  0.00     0.169 A 
ATOM     12  C   UNL     1       4.254   3.571   8.239  1.00  0.00     0.025 A 
ATOM     13  F   UNL     1       1.236   1.196   6.753  1.00  0.00    -0.203 F 
ATOM     14  C   UNL     1       4.535   2.272   7.808  1.00  0.00     0.047 A 
ATOM     15  Cl  UNL     1       6.155   1.713   8.007  1.00  0.00    -0.084 Cl
BRANCH   9  16
ATOM     16  O   UNL     1       0.667   3.805   7.750  1.00  0.00    -0.494 OA
ATOM     17  C   UNL     1      -0.353   2.921   8.213  1.00  0.00     0.278 C 
ENDBRANCH   9  16
ENDBRANCH   7   8
ENDBRANCH   6   7
BRANCH   6  18
ATOM     18  N   UNL     1       3.798  -0.828   4.402  1.00  0.00    -0.347 N 
ATOM     19  H   UNL     1       3.748  -1.798   4.715  1.00  0.00     0.345 HD
ATOM     20  H   UNL     1       4.303  -0.782   3.516  1.00  0.00     0.345 HD
ATOM     21  H   UNL     1       2.855  -0.462   4.275  1.00  0.00     0.345 HD
ENDBRANCH   6  18
ENDBRANCH   3   6
ENDBRANCH   1   2
BRANCH   1  22
ATOM     22  C   UNL     1       5.484  -4.066   5.825  1.00  0.00     0.042 C 
BRANCH  22  23
ATOM     23  C   UNL     1       6.851  -4.699   6.051  1.00  0.00     0.118 C 
BRANCH  23  24
ATOM     24  N   UNL     1       7.036  -5.153   7.424  1.00  0.00    -0.352 N 
ATOM     25  C   UNL     1       7.192  -6.424   7.916  1.00  0.00     0.251 C 
ATOM     26  H   UNL     1       7.051  -4.438   8.101  1.00  0.00     0.163 HD
ATOM     27  O   UNL     1       7.132  -6.627   9.126  1.00  0.00    -0.269 OA
BRANCH  25  28
ATOM     28  C   UNL     1       7.402  -7.553   6.988  1.00  0.00     0.039 A 
ATOM     29  C   UNL     1       6.692  -8.738   7.191  1.00  0.00     0.014 A 
ATOM     30  C   UNL     1       8.286  -7.438   5.912  1.00  0.00     0.014 A 
ATOM     31  C   UNL     1       6.803  -9.775   6.264  1.00  0.00     0.010 A 
ATOM     32  C   UNL     1       8.325  -8.433   4.942  1.00  0.00     0.010 A 
ATOM     33  C   UNL     1       7.580  -9.611   5.106  1.00  0.00    -0.014 A 
BRANCH  33  34
ATOM     34  C   UNL     1       7.609 -10.645   4.042  1.00  0.00     0.031 A 
ATOM     35  C   UNL     1       8.896 -11.337   3.689  1.00  0.00     0.074 A 
ATOM     36  C   UNL     1       6.487 -10.907   3.342  1.00  0.00     0.049 A 
ATOM     37  N   UNL     1       9.129 -12.214   2.746  1.00  0.00    -0.248 NA
ATOM     38  C   UNL     1      10.082 -10.981   4.486  1.00  0.00     0.031 C 
ATOM     39  C   UNL     1       5.183 -10.277   3.560  1.00  0.00     0.029 A 
ATOM     40  N   UNL     1       6.267 -11.770   2.297  1.00  0.00    -0.354 N 
ATOM     41  C   UNL     1      10.486 -12.502   2.826  1.00  0.00     0.074 A 
ATOM     42  C   UNL     1      11.034 -11.669   3.874  1.00  0.00     0.031 C 
ATOM     43  C   UNL     1       4.295 -10.795   2.697  1.00  0.00     0.029 A 
ATOM     44  C   UNL     1       4.974 -11.754   1.833  1.00  0.00     0.049 A 
ATOM     45  H   UNL     1       6.970 -12.346   1.917  1.00  0.00     0.167 HD
ATOM     46  C   UNL     1      11.207 -13.392   2.105  1.00  0.00     0.031 A 
ATOM     47  C   UNL     1       4.401 -12.425   0.816  1.00  0.00     0.031 A 
ATOM     48  C   UNL     1      10.661 -14.219   1.061  1.00  0.00     0.049 A 
ATOM     49  C   UNL     1       5.234 -13.377   0.004  1.00  0.00     0.074 A 
ATOM     50  C   UNL     1      11.299 -15.191   0.310  1.00  0.00     0.029 A 
ATOM     51  N   UNL     1       9.350 -14.165   0.616  1.00  0.00    -0.354 N 
ATOM     52  N   UNL     1       6.499 -13.693   0.142  1.00  0.00    -0.248 NA
ATOM     53  C   UNL     1       4.556 -14.071  -1.100  1.00  0.00     0.031 C 
ATOM     54  C   UNL     1      10.391 -15.679  -0.634  1.00  0.00     0.029 A 
ATOM     55  C   UNL     1       9.168 -15.061  -0.426  1.00  0.00     0.049 A 
ATOM     56  H   UNL     1       8.651 -13.578   0.984  1.00  0.00     0.167 HD
ATOM     57  C   UNL     1       6.762 -14.639  -0.840  1.00  0.00     0.074 A 
ATOM     58  C   UNL     1       5.520 -14.861  -1.551  1.00  0.00     0.031 C 
ATOM     59  C   UNL     1       7.928 -15.266  -1.129  1.00  0.00     0.031 A 
BRANCH  46  60
ATOM     60  C   UNL     1      12.675 -13.507   2.413  1.00  0.00    -0.014 A 
ATOM     61  C   UNL     1      13.125 -14.058   3.625  1.00  0.00     0.009 A 
ATOM     62  C   UNL     1      13.622 -13.093   1.464  1.00  0.00     0.009 A 
ATOM     63  C   UNL     1      14.492 -14.155   3.894  1.00  0.00     0.001 A 
ATOM     64  C   UNL     1      14.988 -13.221   1.723  1.00  0.00     0.001 A 
ATOM     65  C   UNL     1      15.422 -13.742   2.941  1.00  0.00     0.000 A 
ENDBRANCH  46  60
BRANCH  47  66
ATOM     66  C   UNL     1       2.962 -12.220   0.503  1.00  0.00    -0.014 A 
ATOM     67  C   UNL     1       2.032 -13.248   0.723  1.00  0.00     0.009 A 
ATOM     68  C   UNL     1       2.511 -11.001  -0.028  1.00  0.00     0.009 A 
ATOM     69  C   UNL     1       0.687 -13.070   0.389  1.00  0.00     0.001 A 
ATOM     70  C   UNL     1       1.161 -10.815  -0.329  1.00  0.00     0.001 A 
ATOM     71  C   UNL     1       0.252 -11.852  -0.132  1.00  0.00     0.000 A 
ENDBRANCH  47  66
BRANCH  59  72
ATOM     72  C   UNL     1       7.909 -16.274  -2.245  1.00  0.00    -0.014 A 
ATOM     73  C   UNL     1       7.780 -15.877  -3.585  1.00  0.00     0.009 A 
ATOM     74  C   UNL     1       8.064 -17.638  -1.952  1.00  0.00     0.009 A 
ATOM     75  C   UNL     1       7.770 -16.830  -4.606  1.00  0.00     0.001 A 
ATOM     76  C   UNL     1       8.088 -18.585  -2.977  1.00  0.00     0.001 A 
ATOM     77  C   UNL     1       7.931 -18.181  -4.302  1.00  0.00     0.000 A 
ENDBRANCH  59  72
ENDBRANCH  33  34
ENDBRANCH  25  28
ENDBRANCH  23  24
ENDBRANCH  22  23
ENDBRANCH   1  22
TORSDOF 14
