REMARK SMILES CCOc1cc2c(cc1/C=C1/C(=O)N(c3cccc(C(=O)NCCCNC(=O)c4ccc(-c5c6nc(c(-c7ccccc7)c7ccc([nH]7)c(-c7ccccc7)c7nc(c(-c8ccccc8)c8ccc5[nH]8)C=C7)C=C6)cc4)c3)C(=S)N=C1O)OCO2
REMARK SMILES IDX 23 1 22 2 20 3 21 4 19 6 15 7 16 8 77 9 17 10 18 11 14 12
REMARK SMILES IDX 10 13 11 14 12 15 81 16 13 17 80 18 78 19 79 20 9 21 4 22
REMARK SMILES IDX 5 23 6 24 8 25 7 26 85 27 83 28 84 29 3 30 2 31 1 32 82 33
REMARK SMILES IDX 24 35 25 36 26 37 27 38 28 40 29 41 30 42 76 43 31 44 75 45
REMARK SMILES IDX 32 46 33 47 34 48 69 49 35 50 74 51 68 52 70 53 36 54 73 55
REMARK SMILES IDX 67 56 66 57 37 59 59 60 44 61 58 62 45 63 48 64 57 65 71 66
REMARK SMILES IDX 46 67 47 68 56 70 72 71 49 72 38 73 39 74 43 75 40 76 42 77
REMARK SMILES IDX 41 78 60 79 61 80 65 81 62 82 64 83 63 84 50 85 51 86 55 87
REMARK SMILES IDX 52 88 54 89 53 90
REMARK H PARENT 22 5 82 34 26 39 70 58 48 69
REMARK Flexibility Score: inf
ROOT
ATOM      1  C   UNL     1      -0.890   0.721   8.734  1.00  0.00     0.118 C 
ENDROOT
BRANCH   1   2
ATOM      2  N   UNL     1      -1.713   1.397   9.729  1.00  0.00    -0.352 N 
ATOM      3  C   UNL     1      -1.802   2.684  10.206  1.00  0.00     0.251 C 
ATOM      4  O   UNL     1      -2.647   2.893  11.080  1.00  0.00    -0.269 OA
ATOM      5  H   UNL     1      -2.357   0.789  10.161  1.00  0.00     0.163 HD
BRANCH   3   6
ATOM      6  C   UNL     1      -0.912   3.808   9.791  1.00  0.00     0.041 A 
ATOM      7  C   UNL     1       0.862   4.738   8.388  1.00  0.00     0.052 A 
ATOM      8  C   UNL     1       0.938   5.842   9.240  1.00  0.00     0.027 A 
ATOM      9  C   UNL     1      -0.183   3.824   8.604  1.00  0.00     0.040 A 
ATOM     10  C   UNL     1       0.107   5.934  10.361  1.00  0.00     0.003 A 
ATOM     11  C   UNL     1      -0.775   4.895  10.662  1.00  0.00     0.014 A 
BRANCH   7  12
ATOM     12  N   UNL     1       1.896   4.377   7.428  1.00  0.00    -0.251 N 
ATOM     13  C   UNL     1       2.195   3.041   4.004  1.00  0.00     0.031 C 
ATOM     14  C   UNL     1       2.498   3.281   5.302  1.00  0.00     0.103 C 
ATOM     15  C   UNL     1       1.453   3.906   6.172  1.00  0.00     0.270 C 
ATOM     16  C   UNL     1       3.752   3.025   5.990  1.00  0.00     0.226 C 
ATOM     17  O   UNL     1       0.292   3.994   5.765  1.00  0.00    -0.268 OA
ATOM     18  N   UNL     1       4.119   3.506   7.108  1.00  0.00    -0.184 NA
ATOM     19  C   UNL     1       3.260   4.298   7.834  1.00  0.00     0.210 C 
ATOM     20  S   UNL     1       3.956   4.952   9.242  1.00  0.00    -0.038 S 
BRANCH  13  21
ATOM     21  C   UNL     1       3.044   2.530   2.894  1.00  0.00     0.021 A 
ATOM     22  C   UNL     1       2.505   1.703   1.863  1.00  0.00     0.130 A 
ATOM     23  C   UNL     1       3.324   1.225   0.829  1.00  0.00     0.097 A 
ATOM     24  C   UNL     1       4.661   1.547   0.854  1.00  0.00     0.169 A 
ATOM     25  C   UNL     1       4.393   2.920   2.800  1.00  0.00     0.062 A 
ATOM     26  C   UNL     1       5.180   2.378   1.809  1.00  0.00     0.166 A 
ATOM     27  O   UNL     1       5.596   1.136  -0.043  1.00  0.00    -0.453 OA
ATOM     28  O   UNL     1       6.513   2.589   1.646  1.00  0.00    -0.454 OA
ATOM     29  C   UNL     1       6.786   1.720   0.528  1.00  0.00     0.468 C 
BRANCH  22  30
ATOM     30  O   UNL     1       1.145   1.500   1.834  1.00  0.00    -0.493 OA
BRANCH  30  31
ATOM     31  C   UNL     1       0.699   0.156   1.614  1.00  0.00     0.226 C 
ATOM     32  C   UNL     1       0.465  -0.173   0.145  1.00  0.00     0.049 C 
ENDBRANCH  30  31
ENDBRANCH  22  30
ENDBRANCH  13  21
BRANCH  16  33
ATOM     33  O   UNL     1       4.588   2.139   5.447  1.00  0.00    -0.493 OA
ATOM     34  H   UNL     1       4.380   1.744   4.622  1.00  0.00     0.295 HD
ENDBRANCH  16  33
ENDBRANCH   7  12
ENDBRANCH   3   6
ENDBRANCH   1   2
BRANCH   1  35
ATOM     35  C   UNL     1      -0.055  -0.420   9.290  1.00  0.00     0.042 C 
BRANCH  35  36
ATOM     36  C   UNL     1      -0.855  -1.637   9.720  1.00  0.00     0.118 C 
BRANCH  36  37
ATOM     37  N   UNL     1      -1.589  -2.247   8.617  1.00  0.00    -0.352 N 
ATOM     38  C   UNL     1      -1.370  -3.397   7.902  1.00  0.00     0.251 C 
ATOM     39  H   UNL     1      -2.385  -1.742   8.334  1.00  0.00     0.163 HD
ATOM     40  O   UNL     1      -2.012  -3.587   6.867  1.00  0.00    -0.269 OA
BRANCH  38  41
ATOM     41  C   UNL     1      -0.374  -4.404   8.331  1.00  0.00     0.039 A 
ATOM     42  C   UNL     1       0.336  -5.110   7.354  1.00  0.00     0.014 A 
ATOM     43  C   UNL     1      -0.167  -4.701   9.679  1.00  0.00     0.014 A 
ATOM     44  C   UNL     1       1.297  -6.052   7.730  1.00  0.00     0.010 A 
ATOM     45  C   UNL     1       0.862  -5.560  10.055  1.00  0.00     0.010 A 
ATOM     46  C   UNL     1       1.598  -6.254   9.086  1.00  0.00    -0.014 A 
BRANCH  46  47
ATOM     47  C   UNL     1       2.678  -7.182   9.509  1.00  0.00     0.031 A 
ATOM     48  C   UNL     1       2.365  -8.377  10.370  1.00  0.00     0.074 A 
ATOM     49  C   UNL     1       3.955  -6.905   9.183  1.00  0.00     0.049 A 
ATOM     50  N   UNL     1       3.183  -9.264  10.880  1.00  0.00    -0.248 NA
ATOM     51  C   UNL     1       0.954  -8.585  10.733  1.00  0.00     0.031 C 
ATOM     52  C   UNL     1       4.399  -5.744   8.407  1.00  0.00     0.029 A 
ATOM     53  N   UNL     1       5.117  -7.575   9.471  1.00  0.00    -0.354 N 
ATOM     54  C   UNL     1       2.391 -10.113  11.643  1.00  0.00     0.074 A 
ATOM     55  C   UNL     1       1.038  -9.608  11.570  1.00  0.00     0.031 C 
ATOM     56  C   UNL     1       5.732  -5.801   8.255  1.00  0.00     0.029 A 
ATOM     57  C   UNL     1       6.240  -6.976   8.954  1.00  0.00     0.049 A 
ATOM     58  H   UNL     1       5.143  -8.407   9.997  1.00  0.00     0.167 HD
ATOM     59  C   UNL     1       2.752 -11.224  12.328  1.00  0.00     0.031 A 
ATOM     60  C   UNL     1       7.536  -7.329   9.036  1.00  0.00     0.031 A 
ATOM     61  C   UNL     1       4.095 -11.737  12.383  1.00  0.00     0.049 A 
ATOM     62  C   UNL     1       7.911  -8.577   9.782  1.00  0.00     0.074 A 
ATOM     63  C   UNL     1       4.550 -12.901  12.980  1.00  0.00     0.029 A 
ATOM     64  N   UNL     1       5.200 -11.115  11.824  1.00  0.00    -0.354 N 
ATOM     65  N   UNL     1       7.137  -9.419  10.423  1.00  0.00    -0.248 NA
ATOM     66  C   UNL     1       9.337  -8.931   9.803  1.00  0.00     0.031 C 
ATOM     67  C   UNL     1       5.939 -12.955  12.826  1.00  0.00     0.029 A 
ATOM     68  C   UNL     1       6.341 -11.854  12.087  1.00  0.00     0.049 A 
ATOM     69  H   UNL     1       5.177 -10.272  11.316  1.00  0.00     0.167 HD
ATOM     70  C   UNL     1       7.978 -10.411  10.909  1.00  0.00     0.074 A 
ATOM     71  C   UNL     1       9.317 -10.077  10.469  1.00  0.00     0.031 C 
ATOM     72  C   UNL     1       7.668 -11.501  11.653  1.00  0.00     0.031 A 
BRANCH  59  73
ATOM     73  C   UNL     1       1.674 -11.953  13.083  1.00  0.00    -0.014 A 
ATOM     74  C   UNL     1       0.655 -12.650  12.413  1.00  0.00     0.009 A 
ATOM     75  C   UNL     1       1.690 -11.961  14.487  1.00  0.00     0.009 A 
ATOM     76  C   UNL     1      -0.349 -13.302  13.133  1.00  0.00     0.001 A 
ATOM     77  C   UNL     1       0.703 -12.640  15.204  1.00  0.00     0.001 A 
ATOM     78  C   UNL     1      -0.322 -13.300  14.527  1.00  0.00     0.000 A 
ENDBRANCH  59  73
BRANCH  60  79
ATOM     79  C   UNL     1       8.571  -6.495   8.372  1.00  0.00    -0.014 A 
ATOM     80  C   UNL     1       9.215  -6.949   7.212  1.00  0.00     0.009 A 
ATOM     81  C   UNL     1       8.905  -5.231   8.884  1.00  0.00     0.009 A 
ATOM     82  C   UNL     1      10.187  -6.164   6.589  1.00  0.00     0.001 A 
ATOM     83  C   UNL     1       9.858  -4.437   8.243  1.00  0.00     0.001 A 
ATOM     84  C   UNL     1      10.504  -4.907   7.101  1.00  0.00     0.000 A 
ENDBRANCH  60  79
BRANCH  72  85
ATOM     85  C   UNL     1       8.799 -12.419  12.023  1.00  0.00    -0.014 A 
ATOM     86  C   UNL     1       9.755 -12.046  12.980  1.00  0.00     0.009 A 
ATOM     87  C   UNL     1       8.888 -13.687  11.429  1.00  0.00     0.009 A 
ATOM     88  C   UNL     1      10.799 -12.912  13.309  1.00  0.00     0.001 A 
ATOM     89  C   UNL     1       9.916 -14.562  11.781  1.00  0.00     0.001 A 
ATOM     90  C   UNL     1      10.876 -14.171  12.713  1.00  0.00     0.000 A 
ENDBRANCH  72  85
ENDBRANCH  46  47
ENDBRANCH  38  41
ENDBRANCH  36  37
ENDBRANCH  35  36
ENDBRANCH   1  35
TORSDOF 15
