REMARK SMILES C[C@H](CNS(=O)(=O)CCC(=O)NCCCNC(=O)c1ccc(-c2c3nc(c(-c4ccccc4)c4ccc([nH]4)c(-c4ccccc4)c4nc(c(-c5ccccc5)c5ccc2[nH]5)C=C4)C=C3)cc1)c1ccccc1
REMARK SMILES IDX 10 1 11 2 12 3 9 5 8 6 5 7 6 8 7 9 4 10 3 12 2 13 1 14 67 15
REMARK SMILES IDX 68 16 72 17 69 18 71 19 70 20 13 21 14 22 15 23 16 24 17 25
REMARK SMILES IDX 18 27 19 28 20 29 66 30 21 31 65 32 22 33 23 34 24 35 59 36
REMARK SMILES IDX 25 37 64 38 58 39 60 40 26 41 63 42 57 43 56 44 27 46 49 47
REMARK SMILES IDX 34 48 48 49 35 50 38 51 47 52 61 53 36 54 37 55 46 57 62 58
REMARK SMILES IDX 39 59 28 60 29 61 33 62 30 63 32 64 31 65 50 66 51 67 55 68
REMARK SMILES IDX 52 69 54 70 53 71 40 72 41 73 45 74 42 75 44 76 43 77
REMARK H PARENT 12 4 4 11 16 26 60 45 38 56
REMARK Flexibility Score: inf
ROOT
ATOM      1  C   UNL     1       3.703   1.263   0.853  1.00  0.00     0.221 C 
ATOM      2  O   UNL     1       3.016   2.216   1.228  1.00  0.00    -0.275 OA
ATOM      3  N   UNL     1       3.842   1.079  -0.493  1.00  0.00    -0.356 N 
ATOM      4  H   UNL     1       3.240   1.635  -1.039  1.00  0.00     0.163 HD
ENDROOT
BRANCH   1   5
ATOM      5  C   UNL     1       4.222   0.262   1.854  1.00  0.00     0.117 C 
BRANCH   5   6
ATOM      6  C   UNL     1       3.069  -0.510   2.486  1.00  0.00     0.164 C 
BRANCH   6   7
ATOM      7  S   UNL     1       2.269  -1.629   1.342  1.00  0.00     0.212 S 
ATOM      8  O   UNL     1       1.256  -2.374   2.060  1.00  0.00    -0.212 OA
ATOM      9  O   UNL     1       3.313  -2.311   0.617  1.00  0.00    -0.212 OA
BRANCH   7  10
ATOM     10  N   UNL     1       1.476  -0.594   0.263  1.00  0.00    -0.215 NA
ATOM     11  H   UNL     1       2.122   0.158   0.021  1.00  0.00     0.141 HD
BRANCH  10  12
ATOM     12  C   UNL     1       0.224   0.027   0.751  1.00  0.00     0.106 C 
BRANCH  12  13
ATOM     13  C   UNL     1      -0.276   1.270  -0.034  1.00  0.00     0.031 C 
ATOM     14  C   UNL     1       0.333   1.563  -1.398  1.00  0.00     0.014 C 
BRANCH  13  15
ATOM     15  C   UNL     1      -1.786   1.264  -0.235  1.00  0.00    -0.044 A 
ATOM     16  C   UNL     1      -2.497   2.466  -0.110  1.00  0.00     0.004 A 
ATOM     17  C   UNL     1      -2.478   0.109  -0.636  1.00  0.00     0.004 A 
ATOM     18  C   UNL     1      -3.874   2.498  -0.320  1.00  0.00     0.000 A 
ATOM     19  C   UNL     1      -3.859   0.138  -0.819  1.00  0.00     0.000 A 
ATOM     20  C   UNL     1      -4.557   1.331  -0.654  1.00  0.00     0.000 A 
ENDBRANCH  13  15
ENDBRANCH  12  13
ENDBRANCH  10  12
ENDBRANCH   7  10
ENDBRANCH   6   7
ENDBRANCH   5   6
ENDBRANCH   1   5
BRANCH   3  21
ATOM     21  C   UNL     1       4.719   0.208  -1.272  1.00  0.00     0.117 C 
BRANCH  21  22
ATOM     22  C   UNL     1       4.047  -0.853  -2.163  1.00  0.00     0.042 C 
BRANCH  22  23
ATOM     23  C   UNL     1       2.850  -0.460  -3.025  1.00  0.00     0.118 C 
BRANCH  23  24
ATOM     24  N   UNL     1       3.163   0.396  -4.148  1.00  0.00    -0.352 N 
ATOM     25  C   UNL     1       2.482   0.501  -5.340  1.00  0.00     0.251 C 
ATOM     26  H   UNL     1       3.956   0.972  -4.048  1.00  0.00     0.163 HD
ATOM     27  O   UNL     1       2.916   1.214  -6.239  1.00  0.00    -0.269 OA
BRANCH  25  28
ATOM     28  C   UNL     1       1.226  -0.255  -5.558  1.00  0.00     0.039 A 
ATOM     29  C   UNL     1       1.196  -1.268  -6.517  1.00  0.00     0.014 A 
ATOM     30  C   UNL     1       0.053   0.101  -4.890  1.00  0.00     0.014 A 
ATOM     31  C   UNL     1      -0.005  -1.937  -6.787  1.00  0.00     0.010 A 
ATOM     32  C   UNL     1      -1.134  -0.610  -5.118  1.00  0.00     0.010 A 
ATOM     33  C   UNL     1      -1.184  -1.631  -6.082  1.00  0.00    -0.014 A 
BRANCH  33  34
ATOM     34  C   UNL     1      -2.450  -2.374  -6.363  1.00  0.00     0.031 A 
ATOM     35  C   UNL     1      -3.663  -1.677  -6.931  1.00  0.00     0.074 A 
ATOM     36  C   UNL     1      -2.522  -3.697  -6.107  1.00  0.00     0.049 A 
ATOM     37  N   UNL     1      -4.824  -2.184  -7.278  1.00  0.00    -0.248 NA
ATOM     38  C   UNL     1      -3.568  -0.223  -7.121  1.00  0.00     0.031 C 
ATOM     39  C   UNL     1      -1.446  -4.504  -5.529  1.00  0.00     0.029 A 
ATOM     40  N   UNL     1      -3.539  -4.600  -6.311  1.00  0.00    -0.354 N 
ATOM     41  C   UNL     1      -5.595  -1.112  -7.717  1.00  0.00     0.074 A 
ATOM     42  C   UNL     1      -4.789   0.077  -7.543  1.00  0.00     0.031 C 
ATOM     43  C   UNL     1      -1.842  -5.785  -5.466  1.00  0.00     0.029 A 
ATOM     44  C   UNL     1      -3.213  -5.888  -5.957  1.00  0.00     0.049 A 
ATOM     45  H   UNL     1      -4.418  -4.348  -6.675  1.00  0.00     0.167 HD
ATOM     46  C   UNL     1      -6.849  -1.113  -8.234  1.00  0.00     0.031 A 
ATOM     47  C   UNL     1      -3.928  -7.029  -6.018  1.00  0.00     0.031 A 
ATOM     48  C   UNL     1      -7.663  -2.290  -8.405  1.00  0.00     0.049 A 
ATOM     49  C   UNL     1      -5.329  -7.001  -6.564  1.00  0.00     0.074 A 
ATOM     50  C   UNL     1      -8.926  -2.392  -8.967  1.00  0.00     0.029 A 
ATOM     51  N   UNL     1      -7.302  -3.568  -8.008  1.00  0.00    -0.354 N 
ATOM     52  N   UNL     1      -6.011  -5.989  -7.043  1.00  0.00    -0.248 NA
ATOM     53  C   UNL     1      -6.055  -8.280  -6.588  1.00  0.00     0.031 C 
ATOM     54  C   UNL     1      -9.354  -3.718  -8.849  1.00  0.00     0.029 A 
ATOM     55  C   UNL     1      -8.330  -4.457  -8.281  1.00  0.00     0.049 A 
ATOM     56  H   UNL     1      -6.442  -3.808  -7.592  1.00  0.00     0.167 HD
ATOM     57  C   UNL     1      -7.231  -6.513  -7.451  1.00  0.00     0.074 A 
ATOM     58  C   UNL     1      -7.189  -7.935  -7.181  1.00  0.00     0.031 C 
ATOM     59  C   UNL     1      -8.289  -5.871  -8.004  1.00  0.00     0.031 A 
BRANCH  46  60
ATOM     60  C   UNL     1      -7.433   0.216  -8.641  1.00  0.00    -0.014 A 
ATOM     61  C   UNL     1      -6.922   0.936  -9.735  1.00  0.00     0.009 A 
ATOM     62  C   UNL     1      -8.534   0.741  -7.945  1.00  0.00     0.009 A 
ATOM     63  C   UNL     1      -7.468   2.172 -10.089  1.00  0.00     0.001 A 
ATOM     64  C   UNL     1      -9.100   1.961  -8.323  1.00  0.00     0.001 A 
ATOM     65  C   UNL     1      -8.558   2.682  -9.386  1.00  0.00     0.000 A 
ENDBRANCH  46  60
BRANCH  47  66
ATOM     66  C   UNL     1      -3.322  -8.309  -5.561  1.00  0.00    -0.014 A 
ATOM     67  C   UNL     1      -3.008  -9.321  -6.482  1.00  0.00     0.009 A 
ATOM     68  C   UNL     1      -3.056  -8.528  -4.200  1.00  0.00     0.009 A 
ATOM     69  C   UNL     1      -2.462 -10.531  -6.048  1.00  0.00     0.001 A 
ATOM     70  C   UNL     1      -2.480  -9.726  -3.772  1.00  0.00     0.001 A 
ATOM     71  C   UNL     1      -2.192 -10.730  -4.695  1.00  0.00     0.000 A 
ENDBRANCH  47  66
BRANCH  59  72
ATOM     72  C   UNL     1      -9.482  -6.705  -8.388  1.00  0.00    -0.014 A 
ATOM     73  C   UNL     1     -10.317  -7.284  -7.419  1.00  0.00     0.009 A 
ATOM     74  C   UNL     1      -9.795  -6.884  -9.745  1.00  0.00     0.009 A 
ATOM     75  C   UNL     1     -11.417  -8.056  -7.803  1.00  0.00     0.001 A 
ATOM     76  C   UNL     1     -10.914  -7.628 -10.125  1.00  0.00     0.001 A 
ATOM     77  C   UNL     1     -11.717  -8.223  -9.154  1.00  0.00     0.000 A 
ENDBRANCH  59  72
ENDBRANCH  33  34
ENDBRANCH  25  28
ENDBRANCH  23  24
ENDBRANCH  22  23
ENDBRANCH  21  22
ENDBRANCH   3  21
TORSDOF 16
