REMARK SMILES COc1cc(Cl)c2c(c1)C=C(C(=O)NCCCNC(=O)c1ccc(-c3c4nc(c(-c5ccccc5)c5ccc([nH]5)c(-c5ccccc5)c5nc(c(-c6ccccc6)c6ccc3[nH]6)C=C5)C=C4)cc1)[C@@H](C(F)(F)F)O2
REMARK SMILES IDX 16 1 15 2 14 3 12 4 13 5 11 7 3 8 4 9 9 10 5 11 8 12 6 13
REMARK SMILES IDX 7 14 10 15 74 16 69 17 2 18 1 19 70 20 71 21 72 22 73 23
REMARK SMILES IDX 17 24 18 25 19 26 20 28 21 29 22 30 68 31 23 32 67 33 24 34
REMARK SMILES IDX 25 35 26 36 61 37 27 38 66 39 60 40 62 41 28 42 65 43 59 44
REMARK SMILES IDX 58 45 29 47 51 48 36 49 50 50 37 51 40 52 49 53 63 54 38 55
REMARK SMILES IDX 39 56 48 58 64 59 41 60 30 61 31 62 35 63 32 64 34 65 33 66
REMARK SMILES IDX 52 67 53 68 57 69 54 70 56 71 55 72 42 73 43 74 47 75 44 76
REMARK SMILES IDX 46 77 45 78
REMARK H PARENT 14 6 18 27 62 46 40 57
REMARK Flexibility Score: inf
ROOT
ATOM      1  C   UNL     1       1.198   8.415   7.229  1.00  0.00     0.042 C 
ENDROOT
BRANCH   1   2
ATOM      2  C   UNL     1       0.567   7.047   7.445  1.00  0.00     0.118 C 
BRANCH   2   3
ATOM      3  N   UNL     1      -0.567   6.831   6.557  1.00  0.00    -0.352 N 
ATOM      4  C   UNL     1      -0.845   6.084   5.465  1.00  0.00     0.251 C 
ATOM      5  O   UNL     1      -1.983   6.228   5.008  1.00  0.00    -0.270 OA
ATOM      6  H   UNL     1      -1.341   7.377   6.825  1.00  0.00     0.163 HD
BRANCH   4   7
ATOM      7  C   UNL     1       0.102   5.137   4.809  1.00  0.00     0.067 C 
ATOM      8  C   UNL     1       0.902   1.910   1.292  1.00  0.00     0.121 A 
ATOM      9  C   UNL     1       2.237   1.807   1.679  1.00  0.00     0.070 A 
ATOM     10  C   UNL     1       0.059   2.819   1.940  1.00  0.00     0.058 A 
ATOM     11  C   UNL     1       2.719   2.598   2.723  1.00  0.00     0.087 A 
ATOM     12  C   UNL     1       0.534   3.600   2.998  1.00  0.00     0.022 A 
ATOM     13  Cl  UNL     1       4.381   2.449   3.171  1.00  0.00    -0.080 Cl
ATOM     14  C   UNL     1       1.869   3.484   3.390  1.00  0.00     0.146 A 
ATOM     15  C   UNL     1      -0.334   4.558   3.675  1.00  0.00     0.025 C 
ATOM     16  O   UNL     1       2.393   4.261   4.385  1.00  0.00    -0.474 OA
ATOM     17  C   UNL     1       1.456   4.791   5.357  1.00  0.00     0.314 C 
BRANCH   8  18
ATOM     18  O   UNL     1       0.324   1.209   0.270  1.00  0.00    -0.497 OA
ATOM     19  C   UNL     1       0.925  -0.044  -0.041  1.00  0.00     0.278 C 
ENDBRANCH   8  18
BRANCH  17  20
ATOM     20  C   UNL     1       1.384   3.843   6.570  1.00  0.00     0.429 C 
ATOM     21  F   UNL     1       2.549   3.874   7.264  1.00  0.00    -0.167 F 
ATOM     22  F   UNL     1       0.409   4.189   7.444  1.00  0.00    -0.167 F 
ATOM     23  F   UNL     1       1.154   2.560   6.214  1.00  0.00    -0.167 F 
ENDBRANCH  17  20
ENDBRANCH   4   7
ENDBRANCH   2   3
ENDBRANCH   1   2
BRANCH   1  24
ATOM     24  C   UNL     1       0.393   9.520   7.901  1.00  0.00     0.118 C 
BRANCH  24  25
ATOM     25  N   UNL     1       0.412   9.383   9.355  1.00  0.00    -0.352 N 
ATOM     26  C   UNL     1       1.182  10.037  10.280  1.00  0.00     0.251 C 
ATOM     27  H   UNL     1      -0.219   8.724   9.723  1.00  0.00     0.163 HD
ATOM     28  O   UNL     1       1.297   9.589  11.420  1.00  0.00    -0.269 OA
BRANCH  26  29
ATOM     29  C   UNL     1       1.862  11.289   9.908  1.00  0.00     0.039 A 
ATOM     30  C   UNL     1       3.180  11.509  10.317  1.00  0.00     0.014 A 
ATOM     31  C   UNL     1       1.171  12.264   9.183  1.00  0.00     0.014 A 
ATOM     32  C   UNL     1       3.821  12.695   9.958  1.00  0.00     0.010 A 
ATOM     33  C   UNL     1       1.832  13.406   8.760  1.00  0.00     0.010 A 
ATOM     34  C   UNL     1       3.153  13.642   9.166  1.00  0.00    -0.014 A 
BRANCH  34  35
ATOM     35  C   UNL     1       3.778  14.934   8.813  1.00  0.00     0.031 A 
ATOM     36  C   UNL     1       3.220  16.198   9.402  1.00  0.00     0.074 A 
ATOM     37  C   UNL     1       4.794  14.975   7.932  1.00  0.00     0.049 A 
ATOM     38  N   UNL     1       3.557  17.437   9.157  1.00  0.00    -0.248 NA
ATOM     39  C   UNL     1       2.123  16.054  10.377  1.00  0.00     0.031 C 
ATOM     40  C   UNL     1       5.402  13.812   7.283  1.00  0.00     0.029 A 
ATOM     41  N   UNL     1       5.487  16.044   7.424  1.00  0.00    -0.354 N 
ATOM     42  C   UNL     1       2.710  18.214   9.935  1.00  0.00     0.074 A 
ATOM     43  C   UNL     1       1.812  17.318  10.625  1.00  0.00     0.031 C 
ATOM     44  C   UNL     1       6.394  14.231   6.479  1.00  0.00     0.029 A 
ATOM     45  C   UNL     1       6.466  15.689   6.529  1.00  0.00     0.049 A 
ATOM     46  H   UNL     1       5.301  16.976   7.678  1.00  0.00     0.167 HD
ATOM     47  C   UNL     1       2.701  19.557  10.080  1.00  0.00     0.031 A 
ATOM     48  C   UNL     1       7.320  16.455   5.824  1.00  0.00     0.031 A 
ATOM     49  C   UNL     1       3.617  20.442   9.421  1.00  0.00     0.049 A 
ATOM     50  C   UNL     1       7.274  17.948   5.987  1.00  0.00     0.074 A 
ATOM     51  C   UNL     1       3.721  21.815   9.550  1.00  0.00     0.029 A 
ATOM     52  N   UNL     1       4.587  20.043   8.518  1.00  0.00    -0.354 N 
ATOM     53  N   UNL     1       6.495  18.666   6.759  1.00  0.00    -0.248 NA
ATOM     54  C   UNL     1       8.223  18.737   5.188  1.00  0.00     0.031 C 
ATOM     55  C   UNL     1       4.729  22.253   8.689  1.00  0.00     0.029 A 
ATOM     56  C   UNL     1       5.281  21.147   8.062  1.00  0.00     0.049 A 
ATOM     57  H   UNL     1       4.757  19.113   8.243  1.00  0.00     0.167 HD
ATOM     58  C   UNL     1       6.868  19.987   6.551  1.00  0.00     0.074 A 
ATOM     59  C   UNL     1       7.952  19.972   5.591  1.00  0.00     0.031 C 
ATOM     60  C   UNL     1       6.357  21.110   7.108  1.00  0.00     0.031 A 
BRANCH  47  61
ATOM     61  C   UNL     1       1.688  20.160  11.005  1.00  0.00    -0.014 A 
ATOM     62  C   UNL     1       1.855  20.087  12.396  1.00  0.00     0.009 A 
ATOM     63  C   UNL     1       0.616  20.899  10.482  1.00  0.00     0.009 A 
ATOM     64  C   UNL     1       0.965  20.743  13.248  1.00  0.00     0.001 A 
ATOM     65  C   UNL     1      -0.260  21.571  11.335  1.00  0.00     0.001 A 
ATOM     66  C   UNL     1      -0.085  21.493  12.716  1.00  0.00     0.000 A 
ENDBRANCH  47  61
BRANCH  48  67
ATOM     67  C   UNL     1       8.303  15.812   4.917  1.00  0.00    -0.014 A 
ATOM     68  C   UNL     1       9.658  15.744   5.274  1.00  0.00     0.009 A 
ATOM     69  C   UNL     1       7.889  15.229   3.708  1.00  0.00     0.009 A 
ATOM     70  C   UNL     1      10.580  15.112   4.436  1.00  0.00     0.001 A 
ATOM     71  C   UNL     1       8.809  14.580   2.883  1.00  0.00     0.001 A 
ATOM     72  C   UNL     1      10.154  14.525   3.245  1.00  0.00     0.000 A 
ENDBRANCH  48  67
BRANCH  60  73
ATOM     73  C   UNL     1       6.953  22.428   6.712  1.00  0.00    -0.014 A 
ATOM     74  C   UNL     1       6.620  23.023   5.486  1.00  0.00     0.009 A 
ATOM     75  C   UNL     1       7.738  23.142   7.631  1.00  0.00     0.009 A 
ATOM     76  C   UNL     1       7.066  24.312   5.189  1.00  0.00     0.001 A 
ATOM     77  C   UNL     1       8.162  24.438   7.339  1.00  0.00     0.001 A 
ATOM     78  C   UNL     1       7.826  25.021   6.119  1.00  0.00     0.000 A 
ENDBRANCH  60  73
ENDBRANCH  34  35
ENDBRANCH  26  29
ENDBRANCH  24  25
ENDBRANCH   1  24
TORSDOF 12
