REMARK SMILES O=C(NCCCNC(=O)[C@]12C[NH2+]C[C@H]1CN(C(=O)c1ccccc1-n1cncn1)C2)c1ccc(-c2c3nc(c(-c4ccccc4)c4ccc([nH]4)c(-c4ccccc4)c4nc(c(-c5ccccc5)c5ccc2[nH]5)C=C4)C=C3)cc1
REMARK SMILES IDX 5 1 4 2 3 3 1 4 2 5 31 7 32 8 78 9 33 10 77 11 34 12 35 13
REMARK SMILES IDX 36 14 71 15 37 16 76 17 70 18 72 19 38 20 75 21 69 22 68 23
REMARK SMILES IDX 39 25 61 26 46 27 60 28 47 29 50 30 59 31 73 32 48 33 49 34
REMARK SMILES IDX 58 36 74 37 51 38 40 39 41 40 45 41 42 42 44 43 43 44 62 45
REMARK SMILES IDX 63 46 67 47 64 48 66 49 65 50 52 51 53 52 57 53 54 54 56 55
REMARK SMILES IDX 55 56 6 57 7 58 8 59 9 61 10 62 11 63 14 64 30 65 12 66
REMARK SMILES IDX 13 67 15 68 16 69 17 72 18 73 19 74 20 75 24 76 21 77 23 78
REMARK SMILES IDX 22 79 25 80 26 81 29 82 27 83 28 84
REMARK H PARENT 3 6 72 24 50 35 7 60 12 70 12 71
REMARK Flexibility Score: inf
ROOT
ATOM      1  C   UNL     1       5.432  -0.461  -1.333  1.00  0.00     0.042 C 
ENDROOT
BRANCH   1   2
ATOM      2  C   UNL     1       4.980   0.821  -0.632  1.00  0.00     0.118 C 
BRANCH   2   3
ATOM      3  N   UNL     1       3.558   1.114  -0.672  1.00  0.00    -0.352 N 
ATOM      4  O   UNL     1       1.432   1.332  -0.074  1.00  0.00    -0.269 OA
ATOM      5  C   UNL     1       2.478   0.688   0.052  1.00  0.00     0.251 C 
ATOM      6  H   UNL     1       3.319   1.761  -1.374  1.00  0.00     0.163 HD
BRANCH   5   7
ATOM      7  C   UNL     1       2.455  -0.550   0.872  1.00  0.00     0.039 A 
ATOM      8  C   UNL     1       3.579  -1.270   1.275  1.00  0.00     0.014 A 
ATOM      9  C   UNL     1       1.183  -1.061   1.180  1.00  0.00     0.014 A 
ATOM     10  C   UNL     1       3.448  -2.548   1.803  1.00  0.00     0.010 A 
ATOM     11  C   UNL     1       1.041  -2.318   1.749  1.00  0.00     0.010 A 
ATOM     12  C   UNL     1       2.179  -3.083   2.009  1.00  0.00    -0.014 A 
BRANCH  12  13
ATOM     13  C   UNL     1       2.076  -4.388   2.656  1.00  0.00     0.031 A 
ATOM     14  C   UNL     1       2.529  -4.445   4.082  1.00  0.00     0.074 A 
ATOM     15  C   UNL     1       1.402  -5.409   2.093  1.00  0.00     0.049 A 
ATOM     16  N   UNL     1       3.256  -5.338   4.677  1.00  0.00    -0.248 NA
ATOM     17  C   UNL     1       2.140  -3.318   4.950  1.00  0.00     0.031 C 
ATOM     18  C   UNL     1       0.631  -5.387   0.846  1.00  0.00     0.029 A 
ATOM     19  N   UNL     1       1.123  -6.636   2.615  1.00  0.00    -0.354 N 
ATOM     20  C   UNL     1       3.299  -4.966   6.021  1.00  0.00     0.074 A 
ATOM     21  C   UNL     1       2.672  -3.673   6.116  1.00  0.00     0.031 C 
ATOM     22  C   UNL     1      -0.229  -6.428   0.847  1.00  0.00     0.029 A 
ATOM     23  C   UNL     1       0.021  -7.240   2.026  1.00  0.00     0.049 A 
ATOM     24  H   UNL     1       1.649  -7.052   3.336  1.00  0.00     0.167 HD
ATOM     25  C   UNL     1       3.689  -5.801   7.022  1.00  0.00     0.031 A 
ATOM     26  C   UNL     1      -0.709  -8.262   2.531  1.00  0.00     0.031 A 
ATOM     27  C   UNL     1       4.471  -6.908   6.559  1.00  0.00     0.049 A 
ATOM     28  C   UNL     1       0.083  -8.921   3.593  1.00  0.00     0.074 A 
ATOM     29  C   UNL     1       5.691  -7.047   5.929  1.00  0.00     0.029 A 
ATOM     30  N   UNL     1       3.864  -8.134   6.462  1.00  0.00    -0.354 N 
ATOM     31  N   UNL     1       1.174  -9.596   3.372  1.00  0.00    -0.248 NA
ATOM     32  C   UNL     1      -0.122  -8.504   4.971  1.00  0.00     0.031 C 
ATOM     33  C   UNL     1       5.536  -8.175   5.072  1.00  0.00     0.029 A 
ATOM     34  C   UNL     1       4.237  -8.654   5.251  1.00  0.00     0.049 A 
ATOM     35  H   UNL     1       3.277  -8.556   7.131  1.00  0.00     0.167 HD
ATOM     36  C   UNL     1       1.981  -9.341   4.470  1.00  0.00     0.074 A 
ATOM     37  C   UNL     1       1.089  -8.763   5.470  1.00  0.00     0.031 C 
ATOM     38  C   UNL     1       3.343  -9.363   4.365  1.00  0.00     0.031 A 
BRANCH  25  39
ATOM     39  C   UNL     1       3.073  -5.774   8.397  1.00  0.00    -0.014 A 
ATOM     40  C   UNL     1       3.640  -6.547   9.425  1.00  0.00     0.009 A 
ATOM     41  C   UNL     1       1.796  -5.230   8.639  1.00  0.00     0.009 A 
ATOM     42  C   UNL     1       2.944  -6.796  10.615  1.00  0.00     0.001 A 
ATOM     43  C   UNL     1       1.117  -5.442   9.841  1.00  0.00     0.001 A 
ATOM     44  C   UNL     1       1.681  -6.246  10.820  1.00  0.00     0.000 A 
ENDBRANCH  25  39
BRANCH  26  45
ATOM     45  C   UNL     1      -2.161  -8.483   2.363  1.00  0.00    -0.014 A 
ATOM     46  C   UNL     1      -2.733  -9.744   2.573  1.00  0.00     0.009 A 
ATOM     47  C   UNL     1      -3.030  -7.384   2.211  1.00  0.00     0.009 A 
ATOM     48  C   UNL     1      -4.126  -9.896   2.637  1.00  0.00     0.001 A 
ATOM     49  C   UNL     1      -4.417  -7.536   2.268  1.00  0.00     0.001 A 
ATOM     50  C   UNL     1      -4.965  -8.793   2.491  1.00  0.00     0.000 A 
ENDBRANCH  26  45
BRANCH  38  51
ATOM     51  C   UNL     1       3.941  -9.861   3.073  1.00  0.00    -0.014 A 
ATOM     52  C   UNL     1       3.721  -9.205   1.849  1.00  0.00     0.009 A 
ATOM     53  C   UNL     1       4.879 -10.901   3.111  1.00  0.00     0.009 A 
ATOM     54  C   UNL     1       4.395  -9.598   0.690  1.00  0.00     0.001 A 
ATOM     55  C   UNL     1       5.568 -11.282   1.955  1.00  0.00     0.001 A 
ATOM     56  C   UNL     1       5.323 -10.634   0.746  1.00  0.00     0.000 A 
ENDBRANCH  38  51
ENDBRANCH  12  13
ENDBRANCH   5   7
ENDBRANCH   2   3
ENDBRANCH   1   2
BRANCH   1  57
ATOM     57  C   UNL     1       5.051  -0.558  -2.794  1.00  0.00     0.117 C 
BRANCH  57  58
ATOM     58  N   UNL     1       5.572   0.517  -3.608  1.00  0.00    -0.355 N 
ATOM     59  C   UNL     1       5.829   0.432  -4.955  1.00  0.00     0.234 C 
ATOM     60  H   UNL     1       5.758   1.375  -3.163  1.00  0.00     0.163 HD
ATOM     61  O   UNL     1       5.762   1.472  -5.613  1.00  0.00    -0.274 OA
BRANCH  59  62
ATOM     62  C   UNL     1       6.116  -0.977  -5.518  1.00  0.00     0.125 C 
ATOM     63  C   UNL     1       7.423  -0.364  -6.216  1.00  0.00     0.280 C 
ATOM     64  C   UNL     1       6.304  -2.200  -6.466  1.00  0.00     0.087 C 
ATOM     65  C   UNL     1       4.547  -1.027  -5.901  1.00  0.00     0.143 C 
ATOM     66  N   UNL     1       8.458  -1.421  -6.290  1.00  0.00    -0.345 N 
ATOM     67  C   UNL     1       7.731  -2.670  -6.392  1.00  0.00     0.267 C 
ATOM     68  C   UNL     1       5.306  -3.251  -6.040  1.00  0.00     0.130 C 
ATOM     69  N   UNL     1       4.179  -2.438  -5.677  1.00  0.00    -0.337 N 
ATOM     70  H   UNL     1       9.035  -1.412  -5.449  1.00  0.00     0.346 HD
ATOM     71  H   UNL     1       9.084  -1.282  -7.083  1.00  0.00     0.346 HD
BRANCH  69  72
ATOM     72  C   UNL     1       3.121  -3.027  -5.003  1.00  0.00     0.256 C 
ATOM     73  O   UNL     1       3.071  -4.238  -4.793  1.00  0.00    -0.269 OA
BRANCH  72  74
ATOM     74  C   UNL     1       2.026  -2.203  -4.441  1.00  0.00     0.065 A 
ATOM     75  C   UNL     1       1.755  -2.403  -3.076  1.00  0.00     0.016 A 
ATOM     76  C   UNL     1       1.309  -1.229  -5.147  1.00  0.00     0.079 A 
ATOM     77  C   UNL     1       0.831  -1.596  -2.415  1.00  0.00     0.001 A 
ATOM     78  C   UNL     1       0.442  -0.366  -4.452  1.00  0.00     0.029 A 
ATOM     79  C   UNL     1       0.202  -0.556  -3.091  1.00  0.00     0.002 A 
BRANCH  76  80
ATOM     80  N   UNL     1       1.407  -1.095  -6.548  1.00  0.00    -0.220 N 
ATOM     81  C   UNL     1       1.694  -2.045  -7.498  1.00  0.00     0.225 A 
ATOM     82  N   UNL     1       1.235   0.104  -7.155  1.00  0.00    -0.155 NA
ATOM     83  N   UNL     1       1.843  -1.483  -8.675  1.00  0.00    -0.223 NA
ATOM     84  C   UNL     1       1.570  -0.174  -8.415  1.00  0.00     0.246 A 
ENDBRANCH  76  80
ENDBRANCH  72  74
ENDBRANCH  69  72
ENDBRANCH  59  62
ENDBRANCH  57  58
ENDBRANCH   1  57
TORSDOF 13
