REMARK SMILES Cc1c[nH]c(C[N@H+]2C[C@@H]3CN(S(C)(=O)=O)C[C@]3(C(=O)NCCCNC(=O)c3ccc(-c4c5nc(c(-c6ccccc6)c6ccc([nH]6)c(-c6ccccc6)c6nc(c(-c7ccccc7)c7ccc4[nH]7)C=C6)C=C5)cc3)C2)n1
REMARK SMILES IDX 22 1 21 2 20 3 18 4 19 5 17 7 7 8 8 9 75 10 9 12 10 13 16 14
REMARK SMILES IDX 11 15 6 16 5 17 1 18 2 19 3 20 76 21 4 22 12 24 13 25 14 26
REMARK SMILES IDX 15 27 23 28 24 29 25 30 26 32 27 33 28 34 74 35 29 36 73 37
REMARK SMILES IDX 30 38 31 39 32 40 67 41 33 42 72 43 66 44 68 45 34 46 71 47
REMARK SMILES IDX 65 48 64 49 35 51 57 52 42 53 56 54 43 55 46 56 55 57 69 58
REMARK SMILES IDX 44 59 45 60 54 62 70 63 47 64 36 65 37 66 41 67 38 68 40 69
REMARK SMILES IDX 39 70 58 71 59 72 63 73 60 74 62 75 61 76 48 77 49 78 53 79
REMARK SMILES IDX 50 80 52 81 51 82
REMARK H PARENT 20 6 7 11 4 23 24 31 68 50 46 61
REMARK Flexibility Score: inf
ROOT
ATOM      1  C   UNL     1      -0.551   7.128   4.891  1.00  0.00     0.042 C 
ENDROOT
BRANCH   1   2
ATOM      2  C   UNL     1      -1.396   6.505   3.782  1.00  0.00     0.117 C 
BRANCH   2   3
ATOM      3  N   UNL     1      -0.555   6.080   2.676  1.00  0.00    -0.355 N 
ATOM      4  C   UNL     1      -0.087   4.808   2.420  1.00  0.00     0.233 C 
ATOM      5  O   UNL     1       0.955   4.707   1.773  1.00  0.00    -0.274 OA
ATOM      6  H   UNL     1      -0.288   6.779   2.036  1.00  0.00     0.163 HD
BRANCH   4   7
ATOM      7  C   UNL     1      -0.948   3.602   2.962  1.00  0.00     0.121 C 
ATOM      8  N   UNL     1      -2.378   2.357   1.291  1.00  0.00    -0.327 N 
ATOM      9  C   UNL     1      -2.225   1.516   2.453  1.00  0.00     0.268 C 
ATOM     10  C   UNL     1      -1.322   3.387   1.416  1.00  0.00     0.281 C 
ATOM     11  H   UNL     1      -3.310   2.770   1.266  1.00  0.00     0.348 HD
ATOM     12  C   UNL     1      -0.920   1.999   3.054  1.00  0.00     0.082 C 
ATOM     13  C   UNL     1      -0.846   1.511   4.500  1.00  0.00     0.113 C 
ATOM     14  C   UNL     1       0.097   3.590   4.142  1.00  0.00     0.125 C 
ATOM     15  N   UNL     1      -0.463   2.717   5.201  1.00  0.00    -0.200 NA
BRANCH   8  16
ATOM     16  C   UNL     1      -2.314   1.623   0.007  1.00  0.00     0.338 C 
BRANCH  16  17
ATOM     17  C   UNL     1      -1.157   0.670  -0.133  1.00  0.00     0.161 A 
ATOM     18  C   UNL     1       2.288  -0.212  -0.100  1.00  0.00     0.068 C 
ATOM     19  C   UNL     1       0.810  -0.211  -0.141  1.00  0.00     0.056 A 
ATOM     20  C   UNL     1      -0.074  -1.265  -0.115  1.00  0.00     0.107 A 
ATOM     21  N   UNL     1       0.124   0.977  -0.179  1.00  0.00    -0.233 NA
ATOM     22  N   UNL     1      -1.317  -0.695  -0.144  1.00  0.00    -0.344 N 
ATOM     23  H   UNL     1      -2.175  -1.178  -0.169  1.00  0.00     0.167 HD
ENDBRANCH  16  17
ENDBRANCH   8  16
BRANCH  15  24
ATOM     24  S   UNL     1      -1.493   3.323   6.388  1.00  0.00     0.211 S 
ATOM     25  C   UNL     1      -3.078   3.503   5.573  1.00  0.00     0.176 C 
ATOM     26  O   UNL     1      -1.656   2.294   7.388  1.00  0.00    -0.213 OA
ATOM     27  O   UNL     1      -1.025   4.646   6.747  1.00  0.00    -0.213 OA
ENDBRANCH  15  24
ENDBRANCH   4   7
ENDBRANCH   2   3
ENDBRANCH   1   2
BRANCH   1  28
ATOM     28  C   UNL     1      -0.142   8.552   4.572  1.00  0.00     0.118 C 
BRANCH  28  29
ATOM     29  N   UNL     1      -1.262   9.463   4.753  1.00  0.00    -0.352 N 
ATOM     30  C   UNL     1      -1.558  10.273   5.822  1.00  0.00     0.251 C 
ATOM     31  H   UNL     1      -1.899   9.505   4.003  1.00  0.00     0.163 HD
ATOM     32  O   UNL     1      -2.709  10.673   5.975  1.00  0.00    -0.269 OA
BRANCH  30  33
ATOM     33  C   UNL     1      -0.499  10.675   6.776  1.00  0.00     0.039 A 
ATOM     34  C   UNL     1      -0.832  10.907   8.113  1.00  0.00     0.014 A 
ATOM     35  C   UNL     1       0.811  10.889   6.343  1.00  0.00     0.014 A 
ATOM     36  C   UNL     1       0.155  11.324   9.011  1.00  0.00     0.010 A 
ATOM     37  C   UNL     1       1.814  11.172   7.260  1.00  0.00     0.010 A 
ATOM     38  C   UNL     1       1.492  11.439   8.596  1.00  0.00    -0.014 A 
BRANCH  38  39
ATOM     39  C   UNL     1       2.562  11.899   9.516  1.00  0.00     0.031 A 
ATOM     40  C   UNL     1       3.344  13.149   9.188  1.00  0.00     0.074 A 
ATOM     41  C   UNL     1       2.870  11.169  10.605  1.00  0.00     0.049 A 
ATOM     42  N   UNL     1       4.358  13.679   9.824  1.00  0.00    -0.248 NA
ATOM     43  C   UNL     1       2.962  13.881   7.967  1.00  0.00     0.031 C 
ATOM     44  C   UNL     1       2.218   9.919  11.005  1.00  0.00     0.029 A 
ATOM     45  N   UNL     1       3.816  11.374  11.578  1.00  0.00    -0.354 N 
ATOM     46  C   UNL     1       4.750  14.775   9.063  1.00  0.00     0.074 A 
ATOM     47  C   UNL     1       3.905  14.808   7.894  1.00  0.00     0.031 C 
ATOM     48  C   UNL     1       2.755   9.492  12.159  1.00  0.00     0.029 A 
ATOM     49  C   UNL     1       3.821  10.405  12.553  1.00  0.00     0.049 A 
ATOM     50  H   UNL     1       4.432  12.141  11.577  1.00  0.00     0.167 HD
ATOM     51  C   UNL     1       5.714  15.688   9.326  1.00  0.00     0.031 A 
ATOM     52  C   UNL     1       4.605  10.268  13.639  1.00  0.00     0.031 A 
ATOM     53  C   UNL     1       6.527  15.675  10.511  1.00  0.00     0.049 A 
ATOM     54  C   UNL     1       5.666  11.302  13.904  1.00  0.00     0.074 A 
ATOM     55  C   UNL     1       7.473  16.600  10.915  1.00  0.00     0.029 A 
ATOM     56  N   UNL     1       6.487  14.688  11.482  1.00  0.00    -0.354 N 
ATOM     57  N   UNL     1       5.962  12.382  13.221  1.00  0.00    -0.248 NA
ATOM     58  C   UNL     1       6.494  11.103  15.102  1.00  0.00     0.031 C 
ATOM     59  C   UNL     1       8.054  16.138  12.098  1.00  0.00     0.029 A 
ATOM     60  C   UNL     1       7.417  14.965  12.469  1.00  0.00     0.049 A 
ATOM     61  H   UNL     1       5.888  13.906  11.471  1.00  0.00     0.167 HD
ATOM     62  C   UNL     1       6.978  13.011  13.929  1.00  0.00     0.074 A 
ATOM     63  C   UNL     1       7.234  12.202  15.103  1.00  0.00     0.031 C 
ATOM     64  C   UNL     1       7.643  14.155  13.637  1.00  0.00     0.031 A 
BRANCH  51  65
ATOM     65  C   UNL     1       5.952  16.777   8.316  1.00  0.00    -0.014 A 
ATOM     66  C   UNL     1       5.015  17.801   8.105  1.00  0.00     0.009 A 
ATOM     67  C   UNL     1       7.168  16.816   7.614  1.00  0.00     0.009 A 
ATOM     68  C   UNL     1       5.280  18.826   7.194  1.00  0.00     0.001 A 
ATOM     69  C   UNL     1       7.443  17.859   6.728  1.00  0.00     0.001 A 
ATOM     70  C   UNL     1       6.497  18.859   6.513  1.00  0.00     0.000 A 
ENDBRANCH  51  65
BRANCH  52  71
ATOM     71  C   UNL     1       4.423   9.120  14.568  1.00  0.00    -0.014 A 
ATOM     72  C   UNL     1       3.994   9.331  15.889  1.00  0.00     0.009 A 
ATOM     73  C   UNL     1       4.725   7.812  14.158  1.00  0.00     0.009 A 
ATOM     74  C   UNL     1       3.922   8.266  16.791  1.00  0.00     0.001 A 
ATOM     75  C   UNL     1       4.615   6.744  15.051  1.00  0.00     0.001 A 
ATOM     76  C   UNL     1       4.231   6.974  16.371  1.00  0.00     0.000 A 
ENDBRANCH  52  71
BRANCH  64  77
ATOM     77  C   UNL     1       8.662  14.632  14.633  1.00  0.00    -0.014 A 
ATOM     78  C   UNL     1       9.873  13.952  14.831  1.00  0.00     0.009 A 
ATOM     79  C   UNL     1       8.415  15.808  15.360  1.00  0.00     0.009 A 
ATOM     80  C   UNL     1      10.796  14.415  15.771  1.00  0.00     0.001 A 
ATOM     81  C   UNL     1       9.355  16.289  16.271  1.00  0.00     0.001 A 
ATOM     82  C   UNL     1      10.538  15.585  16.485  1.00  0.00     0.000 A 
ENDBRANCH  64  77
ENDBRANCH  38  39
ENDBRANCH  30  33
ENDBRANCH  28  29
ENDBRANCH   1  28
TORSDOF 13
