REMARK SMILES O=C(NCCCNC(=O)c1cc(-c2ccoc2)n[nH]1)c1ccc(-c2c3nc(c(-c4ccccc4)c4ccc([nH]4)c(-c4ccccc4)c4nc(c(-c5ccccc5)c5ccc2[nH]5)C=C4)C=C3)cc1
REMARK SMILES IDX 4 1 3 2 1 3 2 4 20 6 21 7 67 8 22 9 66 10 23 11 24 12 25 13
REMARK SMILES IDX 60 14 26 15 65 16 59 17 61 18 27 19 64 20 58 21 57 22 28 24
REMARK SMILES IDX 50 25 35 26 49 27 36 28 39 29 48 30 62 31 37 32 38 33 47 35
REMARK SMILES IDX 63 36 40 37 29 38 30 39 34 40 31 41 33 42 32 43 51 44 52 45
REMARK SMILES IDX 56 46 53 47 55 48 54 49 41 50 42 51 46 52 43 53 45 54 44 55
REMARK SMILES IDX 5 56 6 57 7 58 8 59 9 61 10 62 11 63 19 64 12 65 18 66 13 68
REMARK SMILES IDX 14 69 17 70 15 71 16 72
REMARK H PARENT 3 5 61 23 39 34 7 60 19 67
REMARK Flexibility Score: inf
ROOT
ATOM      1  C   UNL     1       4.553  -1.182   0.809  1.00  0.00     0.118 C 
ENDROOT
BRANCH   1   2
ATOM      2  N   UNL     1       3.163  -1.123   0.382  1.00  0.00    -0.352 N 
ATOM      3  O   UNL     1       1.218  -0.207  -0.248  1.00  0.00    -0.269 OA
ATOM      4  C   UNL     1       2.441  -0.106  -0.188  1.00  0.00     0.251 C 
ATOM      5  H   UNL     1       2.655  -1.954   0.527  1.00  0.00     0.163 HD
BRANCH   4   6
ATOM      6  C   UNL     1       3.098   1.104  -0.731  1.00  0.00     0.039 A 
ATOM      7  C   UNL     1       4.265   1.026  -1.495  1.00  0.00     0.014 A 
ATOM      8  C   UNL     1       2.464   2.340  -0.556  1.00  0.00     0.014 A 
ATOM      9  C   UNL     1       4.845   2.189  -2.005  1.00  0.00     0.010 A 
ATOM     10  C   UNL     1       3.018   3.498  -1.108  1.00  0.00     0.010 A 
ATOM     11  C   UNL     1       4.223   3.434  -1.821  1.00  0.00    -0.014 A 
BRANCH  11  12
ATOM     12  C   UNL     1       4.816   4.660  -2.410  1.00  0.00     0.031 A 
ATOM     13  C   UNL     1       5.425   5.715  -1.532  1.00  0.00     0.074 A 
ATOM     14  C   UNL     1       4.795   4.831  -3.745  1.00  0.00     0.049 A 
ATOM     15  N   UNL     1       5.966   6.858  -1.873  1.00  0.00    -0.248 NA
ATOM     16  C   UNL     1       5.422   5.457  -0.084  1.00  0.00     0.031 C 
ATOM     17  C   UNL     1       4.222   3.891  -4.710  1.00  0.00     0.029 A 
ATOM     18  N   UNL     1       5.273   5.857  -4.520  1.00  0.00    -0.354 N 
ATOM     19  C   UNL     1       6.346   7.465  -0.684  1.00  0.00     0.074 A 
ATOM     20  C   UNL     1       5.966   6.570   0.389  1.00  0.00     0.031 C 
ATOM     21  C   UNL     1       4.403   4.373  -5.950  1.00  0.00     0.029 A 
ATOM     22  C   UNL     1       5.072   5.667  -5.864  1.00  0.00     0.049 A 
ATOM     23  H   UNL     1       5.717   6.653  -4.147  1.00  0.00     0.167 HD
ATOM     24  C   UNL     1       6.958   8.659  -0.500  1.00  0.00     0.031 A 
ATOM     25  C   UNL     1       5.382   6.450  -6.913  1.00  0.00     0.031 A 
ATOM     26  C   UNL     1       7.353   9.550  -1.557  1.00  0.00     0.049 A 
ATOM     27  C   UNL     1       6.059   7.768  -6.684  1.00  0.00     0.074 A 
ATOM     28  C   UNL     1       8.012  10.764  -1.462  1.00  0.00     0.029 A 
ATOM     29  N   UNL     1       7.125   9.322  -2.904  1.00  0.00    -0.354 N 
ATOM     30  N   UNL     1       6.433   8.315  -5.554  1.00  0.00    -0.248 NA
ATOM     31  C   UNL     1       6.355   8.576  -7.876  1.00  0.00     0.031 C 
ATOM     32  C   UNL     1       8.162  11.283  -2.754  1.00  0.00     0.029 A 
ATOM     33  C   UNL     1       7.618  10.379  -3.651  1.00  0.00     0.049 A 
ATOM     34  H   UNL     1       6.679   8.527  -3.276  1.00  0.00     0.167 HD
ATOM     35  C   UNL     1       7.013   9.528  -5.896  1.00  0.00     0.074 A 
ATOM     36  C   UNL     1       6.953   9.632  -7.340  1.00  0.00     0.031 C 
ATOM     37  C   UNL     1       7.546  10.471  -5.084  1.00  0.00     0.031 A 
BRANCH  24  38
ATOM     38  C   UNL     1       7.222   9.079   0.915  1.00  0.00    -0.014 A 
ATOM     39  C   UNL     1       8.306   8.555   1.633  1.00  0.00     0.009 A 
ATOM     40  C   UNL     1       6.391  10.030   1.526  1.00  0.00     0.009 A 
ATOM     41  C   UNL     1       8.539   8.957   2.950  1.00  0.00     0.001 A 
ATOM     42  C   UNL     1       6.634  10.441   2.837  1.00  0.00     0.001 A 
ATOM     43  C   UNL     1       7.704   9.900   3.550  1.00  0.00     0.000 A 
ENDBRANCH  24  38
BRANCH  25  44
ATOM     44  C   UNL     1       5.045   5.998  -8.284  1.00  0.00    -0.014 A 
ATOM     45  C   UNL     1       6.037   5.457  -9.114  1.00  0.00     0.009 A 
ATOM     46  C   UNL     1       3.726   6.078  -8.753  1.00  0.00     0.009 A 
ATOM     47  C   UNL     1       5.713   5.009 -10.396  1.00  0.00     0.001 A 
ATOM     48  C   UNL     1       3.403   5.615 -10.030  1.00  0.00     0.001 A 
ATOM     49  C   UNL     1       4.397   5.085 -10.851  1.00  0.00     0.000 A 
ENDBRANCH  25  44
BRANCH  37  50
ATOM     50  C   UNL     1       8.116  11.691  -5.741  1.00  0.00    -0.014 A 
ATOM     51  C   UNL     1       7.280  12.739  -6.154  1.00  0.00     0.009 A 
ATOM     52  C   UNL     1       9.502  11.807  -5.919  1.00  0.00     0.009 A 
ATOM     53  C   UNL     1       7.824  13.877  -6.753  1.00  0.00     0.001 A 
ATOM     54  C   UNL     1      10.043  12.951  -6.506  1.00  0.00     0.001 A 
ATOM     55  C   UNL     1       9.204  13.983  -6.926  1.00  0.00     0.000 A 
ENDBRANCH  37  50
ENDBRANCH  11  12
ENDBRANCH   4   6
ENDBRANCH   1   2
BRANCH   1  56
ATOM     56  C   UNL     1       4.686  -1.293   2.328  1.00  0.00     0.042 C 
BRANCH  56  57
ATOM     57  C   UNL     1       4.103  -2.580   2.914  1.00  0.00     0.118 C 
BRANCH  57  58
ATOM     58  N   UNL     1       4.862  -3.756   2.515  1.00  0.00    -0.351 N 
ATOM     59  C   UNL     1       5.910  -4.372   3.146  1.00  0.00     0.269 C 
ATOM     60  H   UNL     1       4.580  -4.170   1.667  1.00  0.00     0.163 HD
ATOM     61  O   UNL     1       6.628  -5.123   2.483  1.00  0.00    -0.268 OA
BRANCH  59  62
ATOM     62  C   UNL     1       6.173  -4.095   4.526  1.00  0.00     0.123 A 
ATOM     63  C   UNL     1       5.349  -3.935   5.624  1.00  0.00     0.064 A 
ATOM     64  N   UNL     1       7.443  -4.021   5.032  1.00  0.00    -0.272 N 
ATOM     65  C   UNL     1       6.212  -3.612   6.691  1.00  0.00     0.096 A 
ATOM     66  N   UNL     1       7.494  -3.629   6.317  1.00  0.00    -0.175 NA
ATOM     67  H   UNL     1       8.245  -4.234   4.503  1.00  0.00     0.190 HD
BRANCH  65  68
ATOM     68  C   UNL     1       5.768  -3.242   8.026  1.00  0.00     0.040 A 
ATOM     69  C   UNL     1       4.588  -3.687   8.674  1.00  0.00     0.052 A 
ATOM     70  C   UNL     1       6.390  -2.383   8.901  1.00  0.00     0.205 A 
ATOM     71  C   UNL     1       4.569  -3.057   9.898  1.00  0.00     0.195 A 
ATOM     72  O   UNL     1       5.658  -2.256  10.040  1.00  0.00    -0.472 OA
ENDBRANCH  65  68
ENDBRANCH  59  62
ENDBRANCH  57  58
ENDBRANCH  56  57
ENDBRANCH   1  56
TORSDOF 11
