REMARK SMILES CC[C@H](C)[C@H](NC(=O)[C@H](C)Oc1ccc2c(C)c(C)c(=O)oc2c1C)C(=O)NCCCNC(=O)c1ccc(-c2c3nc(c(-c4ccccc4)c4ccc([nH]4)c(-c4ccccc4)c4nc(c(-c5ccccc5)c5ccc2[nH]5)C=C4)C=C3)cc1
REMARK SMILES IDX 29 1 28 2 26 3 27 4 5 6 3 7 4 8 2 9 1 10 6 11 7 12 8 14 9 15
REMARK SMILES IDX 10 16 11 17 12 18 13 19 24 20 14 21 23 22 25 23 15 24 22 25
REMARK SMILES IDX 16 26 20 27 17 28 18 29 21 30 19 31 30 32 31 33 32 34 33 35
REMARK SMILES IDX 34 37 35 38 36 39 82 40 37 41 81 42 38 43 39 44 40 45 75 46
REMARK SMILES IDX 41 47 80 48 74 49 76 50 42 51 79 52 73 53 72 54 43 56 65 57
REMARK SMILES IDX 50 58 64 59 51 60 54 61 63 62 77 63 52 64 53 65 62 67 78 68
REMARK SMILES IDX 55 69 44 70 45 71 49 72 46 73 48 74 47 75 66 76 67 77 71 78
REMARK SMILES IDX 68 79 70 80 69 81 56 82 57 83 61 84 58 85 60 86 59 87
REMARK H PARENT 28 5 6 13 32 36 76 55 54 66
REMARK Flexibility Score: inf
ROOT
ATOM      1  C   UNL     1       0.312   6.866  -1.364  1.00  0.00     0.117 C 
ENDROOT
BRANCH   1   2
ATOM      2  N   UNL     1       0.154   6.312  -0.042  1.00  0.00    -0.354 N 
ATOM      3  C   UNL     1       0.390   5.063   0.414  1.00  0.00     0.242 C 
ATOM      4  O   UNL     1      -0.057   4.787   1.531  1.00  0.00    -0.273 OA
ATOM      5  H   UNL     1      -0.179   6.944   0.635  1.00  0.00     0.163 HD
BRANCH   3   6
ATOM      6  C   UNL     1       1.193   4.038  -0.399  1.00  0.00     0.174 C 
BRANCH   6   7
ATOM      7  C   UNL     1       2.647   4.461  -0.794  1.00  0.00     0.018 C 
ATOM      8  C   UNL     1       2.892   4.909  -2.247  1.00  0.00     0.010 C 
BRANCH   7   9
ATOM      9  C   UNL     1       3.357   5.461   0.149  1.00  0.00     0.002 C 
ATOM     10  C   UNL     1       3.302   5.139   1.634  1.00  0.00     0.004 C 
ENDBRANCH   7   9
ENDBRANCH   6   7
BRANCH   6  11
ATOM     11  N   UNL     1       0.410   3.485  -1.504  1.00  0.00    -0.341 N 
ATOM     12  C   UNL     1      -0.356   2.370  -1.623  1.00  0.00     0.261 C 
ATOM     13  H   UNL     1       0.444   4.030  -2.323  1.00  0.00     0.164 HD
ATOM     14  O   UNL     1      -0.865   2.200  -2.740  1.00  0.00    -0.271 OA
BRANCH  12  15
ATOM     15  C   UNL     1      -0.643   1.348  -0.480  1.00  0.00     0.258 C 
ATOM     16  C   UNL     1      -1.259   1.990   0.760  1.00  0.00     0.064 C 
BRANCH  15  17
ATOM     17  O   UNL     1       0.220   0.265  -0.130  1.00  0.00    -0.480 OA
BRANCH  17  18
ATOM     18  C   UNL     1       1.541   0.575  -0.022  1.00  0.00     0.127 A 
ATOM     19  C   UNL     1       2.037   0.926   1.233  1.00  0.00     0.047 A 
ATOM     20  C   UNL     1       2.406   0.452  -1.109  1.00  0.00     0.035 A 
ATOM     21  C   UNL     1       3.373   1.314   1.385  1.00  0.00     0.016 A 
ATOM     22  C   UNL     1       3.746   0.850  -0.926  1.00  0.00     0.145 A 
ATOM     23  C   UNL     1       1.953  -0.091  -2.435  1.00  0.00     0.052 C 
ATOM     24  C   UNL     1       4.245   1.332   0.289  1.00  0.00     0.021 A 
ATOM     25  O   UNL     1       4.578   0.790  -2.060  1.00  0.00    -0.422 OA
ATOM     26  C   UNL     1       5.601   1.924   0.321  1.00  0.00    -0.030 A 
ATOM     27  C   UNL     1       5.867   1.289  -2.062  1.00  0.00     0.339 A 
ATOM     28  C   UNL     1       6.084   2.594   1.585  1.00  0.00     0.045 C 
ATOM     29  C   UNL     1       6.343   1.929  -0.808  1.00  0.00     0.038 A 
ATOM     30  O   UNL     1       6.564   1.224  -3.069  1.00  0.00    -0.246 OA
ATOM     31  C   UNL     1       7.681   2.616  -0.909  1.00  0.00     0.052 C 
ENDBRANCH  17  18
ENDBRANCH  15  17
ENDBRANCH  12  15
ENDBRANCH   6  11
ENDBRANCH   3   6
ENDBRANCH   1   2
BRANCH   1  32
ATOM     32  C   UNL     1      -0.985   7.469  -1.862  1.00  0.00     0.042 C 
BRANCH  32  33
ATOM     33  C   UNL     1      -1.565   8.501  -0.911  1.00  0.00     0.118 C 
BRANCH  33  34
ATOM     34  N   UNL     1      -0.661   9.622  -0.688  1.00  0.00    -0.352 N 
ATOM     35  C   UNL     1      -0.860  10.945  -1.009  1.00  0.00     0.251 C 
ATOM     36  H   UNL     1       0.196   9.406  -0.253  1.00  0.00     0.163 HD
ATOM     37  O   UNL     1       0.038  11.762  -0.948  1.00  0.00    -0.269 OA
BRANCH  35  38
ATOM     38  C   UNL     1      -2.211  11.329  -1.453  1.00  0.00     0.039 A 
ATOM     39  C   UNL     1      -2.379  11.914  -2.708  1.00  0.00     0.014 A 
ATOM     40  C   UNL     1      -3.306  10.979  -0.657  1.00  0.00     0.014 A 
ATOM     41  C   UNL     1      -3.670  12.094  -3.199  1.00  0.00     0.010 A 
ATOM     42  C   UNL     1      -4.581  11.079  -1.184  1.00  0.00     0.010 A 
ATOM     43  C   UNL     1      -4.773  11.649  -2.452  1.00  0.00    -0.014 A 
BRANCH  43  44
ATOM     44  C   UNL     1      -6.160  11.830  -2.926  1.00  0.00     0.031 A 
ATOM     45  C   UNL     1      -7.062  12.754  -2.164  1.00  0.00     0.074 A 
ATOM     46  C   UNL     1      -6.622  11.122  -3.971  1.00  0.00     0.049 A 
ATOM     47  N   UNL     1      -8.347  12.950  -2.300  1.00  0.00    -0.248 NA
ATOM     48  C   UNL     1      -6.440  13.539  -1.082  1.00  0.00     0.031 C 
ATOM     49  C   UNL     1      -5.839  10.188  -4.782  1.00  0.00     0.029 A 
ATOM     50  N   UNL     1      -7.875  11.080  -4.527  1.00  0.00    -0.354 N 
ATOM     51  C   UNL     1      -8.686  13.866  -1.314  1.00  0.00     0.074 A 
ATOM     52  C   UNL     1      -7.490  14.145  -0.552  1.00  0.00     0.031 C 
ATOM     53  C   UNL     1      -6.623   9.688  -5.751  1.00  0.00     0.029 A 
ATOM     54  C   UNL     1      -7.969  10.235  -5.604  1.00  0.00     0.049 A 
ATOM     55  H   UNL     1      -8.634  11.605  -4.185  1.00  0.00     0.167 HD
ATOM     56  C   UNL     1      -9.885  14.444  -1.081  1.00  0.00     0.031 A 
ATOM     57  C   UNL     1      -9.025   9.937  -6.383  1.00  0.00     0.031 A 
ATOM     58  C   UNL     1     -11.066  14.178  -1.849  1.00  0.00     0.049 A 
ATOM     59  C   UNL     1     -10.353  10.577  -6.096  1.00  0.00     0.074 A 
ATOM     60  C   UNL     1     -12.332  14.712  -1.694  1.00  0.00     0.029 A 
ATOM     61  N   UNL     1     -11.119  13.314  -2.931  1.00  0.00    -0.354 N 
ATOM     62  N   UNL     1     -10.670  11.421  -5.144  1.00  0.00    -0.248 NA
ATOM     63  C   UNL     1     -11.465  10.229  -6.991  1.00  0.00     0.031 C 
ATOM     64  C   UNL     1     -13.158  14.155  -2.674  1.00  0.00     0.029 A 
ATOM     65  C   UNL     1     -12.395  13.307  -3.462  1.00  0.00     0.049 A 
ATOM     66  H   UNL     1     -10.361  12.785  -3.271  1.00  0.00     0.167 HD
ATOM     67  C   UNL     1     -12.010  11.724  -5.337  1.00  0.00     0.074 A 
ATOM     68  C   UNL     1     -12.447  10.974  -6.498  1.00  0.00     0.031 C 
ATOM     69  C   UNL     1     -12.805  12.554  -4.619  1.00  0.00     0.031 A 
BRANCH  56  70
ATOM     70  C   UNL     1      -9.958  15.435   0.042  1.00  0.00    -0.014 A 
ATOM     71  C   UNL     1      -9.378  16.707  -0.089  1.00  0.00     0.009 A 
ATOM     72  C   UNL     1     -10.626  15.107   1.230  1.00  0.00     0.009 A 
ATOM     73  C   UNL     1      -9.445  17.625   0.960  1.00  0.00     0.001 A 
ATOM     74  C   UNL     1     -10.712  16.036   2.268  1.00  0.00     0.001 A 
ATOM     75  C   UNL     1     -10.117  17.291   2.135  1.00  0.00     0.000 A 
ENDBRANCH  56  70
BRANCH  57  76
ATOM     76  C   UNL     1      -8.839   9.024  -7.537  1.00  0.00    -0.014 A 
ATOM     77  C   UNL     1      -8.708   9.551  -8.831  1.00  0.00     0.009 A 
ATOM     78  C   UNL     1      -8.717   7.639  -7.349  1.00  0.00     0.009 A 
ATOM     79  C   UNL     1      -8.456   8.708  -9.915  1.00  0.00     0.001 A 
ATOM     80  C   UNL     1      -8.450   6.801  -8.434  1.00  0.00     0.001 A 
ATOM     81  C   UNL     1      -8.320   7.336  -9.715  1.00  0.00     0.000 A 
ENDBRANCH  57  76
BRANCH  69  82
ATOM     82  C   UNL     1     -14.222  12.729  -5.076  1.00  0.00    -0.014 A 
ATOM     83  C   UNL     1     -15.196  11.761  -4.799  1.00  0.00     0.009 A 
ATOM     84  C   UNL     1     -14.603  13.930  -5.697  1.00  0.00     0.009 A 
ATOM     85  C   UNL     1     -16.529  11.988  -5.146  1.00  0.00     0.001 A 
ATOM     86  C   UNL     1     -15.939  14.161  -6.024  1.00  0.00     0.001 A 
ATOM     87  C   UNL     1     -16.900  13.190  -5.751  1.00  0.00     0.000 A 
ENDBRANCH  69  82
ENDBRANCH  43  44
ENDBRANCH  35  38
ENDBRANCH  33  34
ENDBRANCH  32  33
ENDBRANCH   1  32
TORSDOF 16
