REMARK SMILES Cc1ccc(S(=O)(=O)n2cc(C(=O)C(=O)N[C@H](Cc3c[nH]c4ccccc34)C(=O)NCC(=O)NCCCNC(=O)c3ccc(-c4c5nc(c(-c6ccccc6)c6ccc([nH]6)c(-c6ccccc6)c6nc(c(-c7ccccc7)c7ccc4[nH]7)C=C6)C=C5)cc3)c3ccccc32)cc1
REMARK SMILES IDX 32 1 33 2 34 3 31 5 30 6 28 7 29 8 17 10 16 11 14 12 15 13
REMARK SMILES IDX 12 15 13 16 11 17 9 18 10 19 94 20 89 21 93 22 90 23 92 24
REMARK SMILES IDX 91 25 6 26 7 27 8 28 5 29 1 30 2 31 3 32 96 33 4 34 95 35
REMARK SMILES IDX 18 36 19 37 20 38 27 39 21 40 22 41 26 42 23 44 25 45 24 46
REMARK SMILES IDX 35 47 36 48 37 49 38 50 39 51 40 53 41 54 42 55 88 56 43 57
REMARK SMILES IDX 87 58 44 59 45 60 46 61 81 62 47 63 86 64 80 65 82 66 48 67
REMARK SMILES IDX 85 68 79 69 78 70 49 72 71 73 56 74 70 75 57 76 60 77 69 78
REMARK SMILES IDX 83 79 58 80 59 81 68 83 84 84 61 85 50 86 51 87 55 88 52 89
REMARK SMILES IDX 54 90 53 91 72 92 73 93 77 94 74 95 76 96 75 97 62 98 63 99
REMARK SMILES IDX 67 100 64 101 66 102 65 103
REMARK H PARENT 34 4 30 9 16 14 21 43 38 52 82 71 60 82
REMARK Flexibility Score: inf
ROOT
ATOM      1  C   UNL     1     -13.161   4.800  -2.353  1.00  0.00     0.239 C 
ATOM      2  O   UNL     1     -14.077   5.591  -2.592  1.00  0.00    -0.273 OA
ATOM      3  N   UNL     1     -11.936   5.069  -2.892  1.00  0.00    -0.355 N 
ATOM      4  H   UNL     1     -11.913   5.823  -3.526  1.00  0.00     0.163 HD
ENDROOT
BRANCH   1   5
ATOM      5  C   UNL     1     -13.365   3.655  -1.351  1.00  0.00     0.216 C 
BRANCH   5   6
ATOM      6  N   UNL     1     -12.728   2.418  -1.732  1.00  0.00    -0.345 N 
ATOM      7  C   UNL     1     -11.912   1.538  -1.117  1.00  0.00     0.243 C 
ATOM      8  O   UNL     1     -11.628   0.571  -1.836  1.00  0.00    -0.273 OA
ATOM      9  H   UNL     1     -12.938   2.154  -2.657  1.00  0.00     0.164 HD
BRANCH   7  10
ATOM     10  C   UNL     1     -11.332   1.634   0.330  1.00  0.00     0.176 C 
BRANCH  10  11
ATOM     11  N   UNL     1     -12.114   2.306   1.432  1.00  0.00    -0.337 N 
ATOM     12  C   UNL     1     -12.173   3.586   1.978  1.00  0.00     0.293 C 
ATOM     13  O   UNL     1     -12.878   3.793   2.961  1.00  0.00    -0.265 OA
ATOM     14  H   UNL     1     -12.738   1.686   1.875  1.00  0.00     0.164 HD
BRANCH  12  15
ATOM     15  C   UNL     1     -11.406   4.745   1.346  1.00  0.00     0.252 C 
ATOM     16  O   UNL     1     -10.708   4.425   0.383  1.00  0.00    -0.283 OA
BRANCH  15  17
ATOM     17  C   UNL     1     -11.415   6.160   1.763  1.00  0.00     0.054 A 
ATOM     18  N   UNL     1     -11.568   8.223   2.683  1.00  0.00    -0.240 N 
ATOM     19  C   UNL     1     -11.970   6.877   2.826  1.00  0.00     0.117 A 
ATOM     20  C   UNL     1     -10.466   8.210   1.826  1.00  0.00     0.065 A 
ATOM     21  C   UNL     1     -10.781   7.165   0.967  1.00  0.00     0.012 A 
ATOM     22  C   UNL     1      -9.543   9.205   1.491  1.00  0.00     0.028 A 
ATOM     23  C   UNL     1     -10.422   7.279  -0.382  1.00  0.00     0.011 A 
ATOM     24  C   UNL     1      -9.243   9.313   0.129  1.00  0.00     0.002 A 
ATOM     25  C   UNL     1      -9.715   8.396  -0.806  1.00  0.00     0.001 A 
BRANCH  18  26
ATOM     26  S   UNL     1     -12.764   9.489   2.242  1.00  0.00     0.268 S 
ATOM     27  O   UNL     1     -13.912   8.760   1.736  1.00  0.00    -0.201 OA
ATOM     28  O   UNL     1     -12.033  10.424   1.402  1.00  0.00    -0.201 OA
BRANCH  26  29
ATOM     29  C   UNL     1     -13.301  10.463   3.616  1.00  0.00     0.088 A 
ATOM     30  C   UNL     1     -15.221  13.097   6.439  1.00  0.00     0.044 C 
ATOM     31  C   UNL     1     -14.545  12.164   5.475  1.00  0.00    -0.051 A 
ATOM     32  C   UNL     1     -14.044  12.687   4.285  1.00  0.00     0.005 A 
ATOM     33  C   UNL     1     -14.391  10.789   5.737  1.00  0.00     0.005 A 
ATOM     34  C   UNL     1     -13.433  11.844   3.365  1.00  0.00     0.022 A 
ATOM     35  C   UNL     1     -13.774   9.929   4.808  1.00  0.00     0.022 A 
ENDBRANCH  26  29
ENDBRANCH  18  26
ENDBRANCH  15  17
ENDBRANCH  12  15
ENDBRANCH  10  11
BRANCH  10  36
ATOM     36  C   UNL     1      -9.778   1.661   0.517  1.00  0.00     0.072 C 
BRANCH  36  37
ATOM     37  C   UNL     1      -8.824   1.472  -0.644  1.00  0.00    -0.020 A 
ATOM     38  C   UNL     1      -7.852   2.391  -1.011  1.00  0.00     0.087 A 
ATOM     39  C   UNL     1      -8.617   0.329  -1.503  1.00  0.00     0.003 A 
ATOM     40  N   UNL     1      -7.099   1.865  -2.028  1.00  0.00    -0.361 N 
ATOM     41  C   UNL     1      -7.626   0.664  -2.428  1.00  0.00     0.046 A 
ATOM     42  C   UNL     1      -9.190  -0.956  -1.617  1.00  0.00     0.010 A 
ATOM     43  H   UNL     1      -6.298   2.287  -2.415  1.00  0.00     0.166 HD
ATOM     44  C   UNL     1      -7.272  -0.141  -3.519  1.00  0.00     0.026 A 
ATOM     45  C   UNL     1      -8.836  -1.789  -2.690  1.00  0.00     0.001 A 
ATOM     46  C   UNL     1      -7.910  -1.375  -3.642  1.00  0.00     0.002 A 
ENDBRANCH  36  37
ENDBRANCH  10  36
ENDBRANCH   7  10
ENDBRANCH   5   6
ENDBRANCH   1   5
BRANCH   3  47
ATOM     47  C   UNL     1     -10.661   4.409  -2.670  1.00  0.00     0.117 C 
BRANCH  47  48
ATOM     48  C   UNL     1     -10.258   3.552  -3.854  1.00  0.00     0.042 C 
BRANCH  48  49
ATOM     49  C   UNL     1      -9.152   4.210  -4.668  1.00  0.00     0.118 C 
BRANCH  49  50
ATOM     50  N   UNL     1      -7.834   3.920  -4.116  1.00  0.00    -0.352 N 
ATOM     51  C   UNL     1      -6.560   3.872  -4.673  1.00  0.00     0.251 C 
ATOM     52  H   UNL     1      -7.849   3.715  -3.153  1.00  0.00     0.163 HD
ATOM     53  O   UNL     1      -5.639   3.422  -4.046  1.00  0.00    -0.269 OA
BRANCH  51  54
ATOM     54  C   UNL     1      -6.334   4.623  -5.942  1.00  0.00     0.039 A 
ATOM     55  C   UNL     1      -5.509   5.739  -5.771  1.00  0.00     0.014 A 
ATOM     56  C   UNL     1      -7.317   4.611  -6.918  1.00  0.00     0.014 A 
ATOM     57  C   UNL     1      -5.939   6.957  -6.273  1.00  0.00     0.010 A 
ATOM     58  C   UNL     1      -7.823   5.836  -7.303  1.00  0.00     0.010 A 
ATOM     59  C   UNL     1      -7.186   7.012  -6.888  1.00  0.00    -0.014 A 
BRANCH  59  60
ATOM     60  C   UNL     1      -7.945   8.256  -6.978  1.00  0.00     0.031 A 
ATOM     61  C   UNL     1      -8.166   8.876  -8.299  1.00  0.00     0.074 A 
ATOM     62  C   UNL     1      -8.398   8.881  -5.866  1.00  0.00     0.049 A 
ATOM     63  N   UNL     1      -8.331  10.142  -8.493  1.00  0.00    -0.248 NA
ATOM     64  C   UNL     1      -8.130   8.102  -9.534  1.00  0.00     0.031 C 
ATOM     65  C   UNL     1      -9.320  10.014  -5.800  1.00  0.00     0.029 A 
ATOM     66  N   UNL     1      -7.967   8.754  -4.557  1.00  0.00    -0.354 N 
ATOM     67  C   UNL     1      -8.710  10.308  -9.804  1.00  0.00     0.074 A 
ATOM     68  C   UNL     1      -8.477   9.028 -10.429  1.00  0.00     0.031 C 
ATOM     69  C   UNL     1      -9.177  10.622  -4.609  1.00  0.00     0.029 A 
ATOM     70  C   UNL     1      -8.062   9.989  -3.922  1.00  0.00     0.049 A 
ATOM     71  H   UNL     1      -7.645   7.922  -4.141  1.00  0.00     0.167 HD
ATOM     72  C   UNL     1      -9.321  11.464 -10.188  1.00  0.00     0.031 A 
ATOM     73  C   UNL     1      -6.976  10.652  -3.426  1.00  0.00     0.031 A 
ATOM     74  C   UNL     1      -9.329  12.461  -9.118  1.00  0.00     0.049 A 
ATOM     75  C   UNL     1      -6.733  11.996  -4.088  1.00  0.00     0.074 A 
ATOM     76  C   UNL     1     -10.299  12.891  -8.226  1.00  0.00     0.029 A 
ATOM     77  N   UNL     1      -8.119  12.965  -8.650  1.00  0.00    -0.354 N 
ATOM     78  N   UNL     1      -7.293  12.375  -5.204  1.00  0.00    -0.248 NA
ATOM     79  C   UNL     1      -5.792  12.990  -3.574  1.00  0.00     0.031 C 
ATOM     80  C   UNL     1      -9.651  13.594  -7.176  1.00  0.00     0.029 A 
ATOM     81  C   UNL     1      -8.294  13.615  -7.444  1.00  0.00     0.049 A 
ATOM     82  H   UNL     1      -7.256  12.871  -9.116  1.00  0.00     0.167 HD
ATOM     83  C   UNL     1      -6.792  13.594  -5.579  1.00  0.00     0.074 A 
ATOM     84  C   UNL     1      -5.874  13.950  -4.513  1.00  0.00     0.031 C 
ATOM     85  C   UNL     1      -7.152  14.196  -6.750  1.00  0.00     0.031 A 
BRANCH  72  86
ATOM     86  C   UNL     1     -10.189  11.537 -11.425  1.00  0.00    -0.014 A 
ATOM     87  C   UNL     1     -11.291  12.410 -11.451  1.00  0.00     0.009 A 
ATOM     88  C   UNL     1     -10.036  10.716 -12.555  1.00  0.00     0.009 A 
ATOM     89  C   UNL     1     -12.243  12.375 -12.480  1.00  0.00     0.001 A 
ATOM     90  C   UNL     1     -11.005  10.638 -13.564  1.00  0.00     0.001 A 
ATOM     91  C   UNL     1     -12.120  11.461 -13.518  1.00  0.00     0.000 A 
ENDBRANCH  72  86
BRANCH  73  92
ATOM     92  C   UNL     1      -5.895   9.775  -2.897  1.00  0.00    -0.014 A 
ATOM     93  C   UNL     1      -6.125   9.082  -1.697  1.00  0.00     0.009 A 
ATOM     94  C   UNL     1      -4.827   9.362  -3.698  1.00  0.00     0.009 A 
ATOM     95  C   UNL     1      -5.417   7.924  -1.372  1.00  0.00     0.001 A 
ATOM     96  C   UNL     1      -4.098   8.212  -3.363  1.00  0.00     0.001 A 
ATOM     97  C   UNL     1      -4.421   7.470  -2.226  1.00  0.00     0.000 A 
ENDBRANCH  73  92
BRANCH  85  98
ATOM     98  C   UNL     1      -6.503  15.422  -7.339  1.00  0.00    -0.014 A 
ATOM     99  C   UNL     1      -5.176  15.803  -7.098  1.00  0.00     0.009 A 
ATOM    100  C   UNL     1      -7.214  16.171  -8.303  1.00  0.00     0.009 A 
ATOM    101  C   UNL     1      -4.605  16.906  -7.749  1.00  0.00     0.001 A 
ATOM    102  C   UNL     1      -6.635  17.244  -8.986  1.00  0.00     0.001 A 
ATOM    103  C   UNL     1      -5.331  17.619  -8.699  1.00  0.00     0.000 A 
ENDBRANCH  85  98
ENDBRANCH  59  60
ENDBRANCH  51  54
ENDBRANCH  49  50
ENDBRANCH  48  49
ENDBRANCH  47  48
ENDBRANCH   3  47
TORSDOF 19
