REMARK SMILES C[C@H](C(=O)NCCCNC(=O)c1ccc(-c2c3nc(c(-c4ccccc4)c4ccc([nH]4)c(-c4ccccc4)c4nc(c(-c5ccccc5)c5ccc2[nH]5)C=C4)C=C3)cc1)c1ccc(-c2ccccc2)c(F)c1
REMARK SMILES IDX 7 1 6 2 5 3 3 4 4 5 2 7 1 8 60 9 61 10 72 11 62 12 70 13
REMARK SMILES IDX 63 14 71 15 64 16 65 17 69 18 66 19 68 20 67 21 8 22 9 23
REMARK SMILES IDX 10 24 11 26 12 27 13 28 59 29 14 30 58 31 15 32 16 33 17 34
REMARK SMILES IDX 52 35 18 36 57 37 51 38 53 39 19 40 56 41 50 42 49 43 20 45
REMARK SMILES IDX 42 46 27 47 41 48 28 49 31 50 40 51 54 52 29 53 30 54 39 56
REMARK SMILES IDX 55 57 32 58 21 59 22 60 26 61 23 62 25 63 24 64 43 65 44 66
REMARK SMILES IDX 48 67 45 68 47 69 46 70 33 71 34 72 38 73 35 74 37 75 36 76
REMARK H PARENT 5 6 9 25 53 44 31 55
REMARK Flexibility Score: inf
ROOT
ATOM      1  C   UNL     1      -0.382   1.954   2.590  1.00  0.00     0.042 C 
ENDROOT
BRANCH   1   2
ATOM      2  C   UNL     1      -0.498   1.290   1.232  1.00  0.00     0.117 C 
BRANCH   2   3
ATOM      3  N   UNL     1       0.764   0.979   0.585  1.00  0.00    -0.356 N 
ATOM      4  C   UNL     1       1.140  -0.086  -0.177  1.00  0.00     0.227 C 
ATOM      5  O   UNL     1       2.179   0.065  -0.833  1.00  0.00    -0.274 OA
ATOM      6  H   UNL     1       1.469   1.653   0.721  1.00  0.00     0.163 HD
BRANCH   4   7
ATOM      7  C   UNL     1       0.463  -1.463  -0.141  1.00  0.00     0.105 C 
ATOM      8  C   UNL     1       0.993  -2.164   1.122  1.00  0.00     0.023 C 
BRANCH   7   9
ATOM      9  C   UNL     1      -1.051  -1.549  -0.301  1.00  0.00    -0.033 A 
ATOM     10  C   UNL     1      -1.813  -0.519  -0.863  1.00  0.00     0.005 A 
ATOM     11  C   UNL     1      -1.745  -2.698   0.107  1.00  0.00     0.044 A 
ATOM     12  C   UNL     1      -3.214  -0.532  -0.778  1.00  0.00     0.012 A 
ATOM     13  C   UNL     1      -3.141  -2.732   0.129  1.00  0.00     0.131 A 
ATOM     14  C   UNL     1      -3.915  -1.627  -0.243  1.00  0.00     0.017 A 
ATOM     15  F   UNL     1      -3.722  -3.866   0.552  1.00  0.00    -0.206 F 
BRANCH  14  16
ATOM     16  C   UNL     1      -5.384  -1.585  -0.057  1.00  0.00    -0.015 A 
ATOM     17  C   UNL     1      -6.220  -0.902  -0.958  1.00  0.00     0.009 A 
ATOM     18  C   UNL     1      -6.001  -2.190   1.055  1.00  0.00     0.009 A 
ATOM     19  C   UNL     1      -7.602  -0.819  -0.755  1.00  0.00     0.001 A 
ATOM     20  C   UNL     1      -7.384  -2.119   1.256  1.00  0.00     0.001 A 
ATOM     21  C   UNL     1      -8.183  -1.429   0.352  1.00  0.00     0.000 A 
ENDBRANCH  14  16
ENDBRANCH   7   9
ENDBRANCH   4   7
ENDBRANCH   2   3
ENDBRANCH   1   2
BRANCH   1  22
ATOM     22  C   UNL     1       0.522   3.170   2.670  1.00  0.00     0.118 C 
BRANCH  22  23
ATOM     23  N   UNL     1       0.042   4.333   1.938  1.00  0.00    -0.352 N 
ATOM     24  C   UNL     1      -0.226   5.610   2.378  1.00  0.00     0.251 C 
ATOM     25  H   UNL     1      -0.116   4.184   0.978  1.00  0.00     0.163 HD
ATOM     26  O   UNL     1      -0.703   6.431   1.595  1.00  0.00    -0.269 OA
BRANCH  24  27
ATOM     27  C   UNL     1       0.014   6.002   3.788  1.00  0.00     0.039 A 
ATOM     28  C   UNL     1      -0.897   6.856   4.419  1.00  0.00     0.014 A 
ATOM     29  C   UNL     1       1.128   5.549   4.496  1.00  0.00     0.014 A 
ATOM     30  C   UNL     1      -0.722   7.196   5.765  1.00  0.00     0.010 A 
ATOM     31  C   UNL     1       1.230   5.779   5.864  1.00  0.00     0.010 A 
ATOM     32  C   UNL     1       0.327   6.633   6.510  1.00  0.00    -0.014 A 
BRANCH  32  33
ATOM     33  C   UNL     1       0.536   6.974   7.942  1.00  0.00     0.031 A 
ATOM     34  C   UNL     1       1.824   7.625   8.380  1.00  0.00     0.074 A 
ATOM     35  C   UNL     1      -0.401   6.664   8.859  1.00  0.00     0.049 A 
ATOM     36  N   UNL     1       2.212   7.969   9.583  1.00  0.00    -0.248 NA
ATOM     37  C   UNL     1       2.824   7.894   7.333  1.00  0.00     0.031 C 
ATOM     38  C   UNL     1      -1.670   5.986   8.584  1.00  0.00     0.029 A 
ATOM     39  N   UNL     1      -0.429   6.880  10.215  1.00  0.00    -0.354 N 
ATOM     40  C   UNL     1       3.498   8.475   9.434  1.00  0.00     0.074 A 
ATOM     41  C   UNL     1       3.856   8.320   8.043  1.00  0.00     0.031 C 
ATOM     42  C   UNL     1      -2.366   5.875   9.727  1.00  0.00     0.029 A 
ATOM     43  C   UNL     1      -1.579   6.437  10.821  1.00  0.00     0.049 A 
ATOM     44  H   UNL     1       0.307   7.311  10.707  1.00  0.00     0.167 HD
ATOM     45  C   UNL     1       4.302   9.052  10.359  1.00  0.00     0.031 A 
ATOM     46  C   UNL     1      -1.961   6.479  12.111  1.00  0.00     0.031 A 
ATOM     47  C   UNL     1       3.947   9.218  11.743  1.00  0.00     0.049 A 
ATOM     48  C   UNL     1      -1.054   7.122  13.125  1.00  0.00     0.074 A 
ATOM     49  C   UNL     1       4.671   9.825  12.753  1.00  0.00     0.029 A 
ATOM     50  N   UNL     1       2.763   8.772  12.310  1.00  0.00    -0.354 N 
ATOM     51  N   UNL     1       0.132   7.655  12.955  1.00  0.00    -0.248 NA
ATOM     52  C   UNL     1      -1.553   7.191  14.506  1.00  0.00     0.031 C 
ATOM     53  C   UNL     1       3.947   9.701  13.944  1.00  0.00     0.029 A 
ATOM     54  C   UNL     1       2.742   9.079  13.660  1.00  0.00     0.049 A 
ATOM     55  H   UNL     1       2.044   8.307  11.824  1.00  0.00     0.167 HD
ATOM     56  C   UNL     1       0.505   8.154  14.197  1.00  0.00     0.074 A 
ATOM     57  C   UNL     1      -0.587   7.873  15.105  1.00  0.00     0.031 C 
ATOM     58  C   UNL     1       1.648   8.792  14.552  1.00  0.00     0.031 A 
BRANCH  45  59
ATOM     59  C   UNL     1       5.645   9.545   9.890  1.00  0.00    -0.014 A 
ATOM     60  C   UNL     1       5.754  10.623   8.994  1.00  0.00     0.009 A 
ATOM     61  C   UNL     1       6.819   8.928  10.349  1.00  0.00     0.009 A 
ATOM     62  C   UNL     1       7.004  11.037   8.529  1.00  0.00     0.001 A 
ATOM     63  C   UNL     1       8.070   9.368   9.912  1.00  0.00     0.001 A 
ATOM     64  C   UNL     1       8.161  10.412   8.991  1.00  0.00     0.000 A 
ENDBRANCH  45  59
BRANCH  46  65
ATOM     65  C   UNL     1      -3.279   5.920  12.515  1.00  0.00    -0.014 A 
ATOM     66  C   UNL     1      -4.322   6.766  12.923  1.00  0.00     0.009 A 
ATOM     67  C   UNL     1      -3.501   4.534  12.495  1.00  0.00     0.009 A 
ATOM     68  C   UNL     1      -5.548   6.235  13.330  1.00  0.00     0.001 A 
ATOM     69  C   UNL     1      -4.739   4.008  12.871  1.00  0.00     0.001 A 
ATOM     70  C   UNL     1      -5.757   4.857  13.299  1.00  0.00     0.000 A 
ENDBRANCH  46  65
BRANCH  58  71
ATOM     71  C   UNL     1       1.752   9.279  15.972  1.00  0.00    -0.014 A 
ATOM     72  C   UNL     1       1.884   8.389  17.050  1.00  0.00     0.009 A 
ATOM     73  C   UNL     1       1.745  10.659  16.229  1.00  0.00     0.009 A 
ATOM     74  C   UNL     1       1.959   8.872  18.358  1.00  0.00     0.001 A 
ATOM     75  C   UNL     1       1.856  11.140  17.534  1.00  0.00     0.001 A 
ATOM     76  C   UNL     1       1.949  10.246  18.598  1.00  0.00     0.000 A 
ENDBRANCH  58  71
ENDBRANCH  32  33
ENDBRANCH  24  27
ENDBRANCH  22  23
ENDBRANCH   1  22
TORSDOF 12
