REMARK SMILES O=C(NCCCNC(=O)[C@H]1Cc2ccc(Cl)cc2C[N@@H+]1Cc1ccc(Cl)cc1)c1ccc(-c2c3nc(c(-c4ccccc4)c4ccc([nH]4)c(-c4ccccc4)c4nc(c(-c5ccccc5)c5ccc2[nH]5)C=C4)C=C3)cc1
REMARK SMILES IDX 5 1 4 2 3 3 1 4 2 5 29 7 30 8 76 9 31 10 75 11 32 12 33 13
REMARK SMILES IDX 34 14 69 15 35 16 74 17 68 18 70 19 36 20 73 21 67 22 66 23
REMARK SMILES IDX 37 25 59 26 44 27 58 28 45 29 48 30 57 31 71 32 46 33 47 34
REMARK SMILES IDX 56 36 72 37 49 38 38 39 39 40 43 41 40 42 42 43 41 44 60 45
REMARK SMILES IDX 61 46 65 47 62 48 64 49 63 50 50 51 51 52 55 53 52 54 54 55
REMARK SMILES IDX 53 56 6 57 7 58 8 59 9 61 10 62 11 63 20 64 12 65 19 66
REMARK SMILES IDX 13 68 18 69 14 70 17 71 15 72 16 73 21 74 22 75 23 76 28 77
REMARK SMILES IDX 24 78 27 79 25 80 26 81
REMARK H PARENT 3 6 70 24 48 35 7 60 20 67
REMARK Flexibility Score: inf
ROOT
ATOM      1  C   UNL     1       4.479  -1.502   2.047  1.00  0.00     0.042 C 
ENDROOT
BRANCH   1   2
ATOM      2  C   UNL     1       4.405  -1.343   0.527  1.00  0.00     0.118 C 
BRANCH   2   3
ATOM      3  N   UNL     1       3.028  -1.208   0.082  1.00  0.00    -0.352 N 
ATOM      4  O   UNL     1       1.088  -0.130  -0.219  1.00  0.00    -0.269 OA
ATOM      5  C   UNL     1       2.314  -0.091  -0.269  1.00  0.00     0.251 C 
ATOM      6  H   UNL     1       2.527  -2.054   0.023  1.00  0.00     0.163 HD
BRANCH   5   7
ATOM      7  C   UNL     1       2.985   1.133  -0.763  1.00  0.00     0.039 A 
ATOM      8  C   UNL     1       2.367   2.370  -0.540  1.00  0.00     0.014 A 
ATOM      9  C   UNL     1       4.107   1.056  -1.591  1.00  0.00     0.014 A 
ATOM     10  C   UNL     1       2.855   3.522  -1.165  1.00  0.00     0.010 A 
ATOM     11  C   UNL     1       4.628   2.212  -2.168  1.00  0.00     0.010 A 
ATOM     12  C   UNL     1       3.977   3.444  -2.000  1.00  0.00    -0.014 A 
BRANCH  12  13
ATOM     13  C   UNL     1       4.412   4.593  -2.830  1.00  0.00     0.031 A 
ATOM     14  C   UNL     1       4.251   4.508  -4.325  1.00  0.00     0.074 A 
ATOM     15  C   UNL     1       4.994   5.669  -2.271  1.00  0.00     0.049 A 
ATOM     16  N   UNL     1       4.741   5.285  -5.255  1.00  0.00    -0.248 NA
ATOM     17  C   UNL     1       3.452   3.382  -4.841  1.00  0.00     0.031 C 
ATOM     18  C   UNL     1       5.187   5.881  -0.838  1.00  0.00     0.029 A 
ATOM     19  N   UNL     1       5.548   6.781  -2.854  1.00  0.00    -0.354 N 
ATOM     20  C   UNL     1       4.349   4.718  -6.462  1.00  0.00     0.074 A 
ATOM     21  C   UNL     1       3.596   3.524  -6.151  1.00  0.00     0.031 C 
ATOM     22  C   UNL     1       5.817   7.054  -0.652  1.00  0.00     0.029 A 
ATOM     23  C   UNL     1       6.112   7.649  -1.953  1.00  0.00     0.049 A 
ATOM     24  H   UNL     1       5.541   6.941  -3.826  1.00  0.00     0.167 HD
ATOM     25  C   UNL     1       4.590   5.158  -7.717  1.00  0.00     0.031 A 
ATOM     26  C   UNL     1       6.813   8.783  -2.154  1.00  0.00     0.031 A 
ATOM     27  C   UNL     1       5.296   6.371  -8.022  1.00  0.00     0.049 A 
ATOM     28  C   UNL     1       7.067   9.255  -3.559  1.00  0.00     0.074 A 
ATOM     29  C   UNL     1       5.563   6.920  -9.264  1.00  0.00     0.029 A 
ATOM     30  N   UNL     1       5.826   7.232  -7.075  1.00  0.00    -0.354 N 
ATOM     31  N   UNL     1       6.703   8.703  -4.691  1.00  0.00    -0.248 NA
ATOM     32  C   UNL     1       7.827  10.505  -3.718  1.00  0.00     0.031 C 
ATOM     33  C   UNL     1       6.279   8.102  -9.069  1.00  0.00     0.029 A 
ATOM     34  C   UNL     1       6.421   8.308  -7.706  1.00  0.00     0.049 A 
ATOM     35  H   UNL     1       5.784   7.098  -6.101  1.00  0.00     0.167 HD
ATOM     36  C   UNL     1       7.172   9.543  -5.692  1.00  0.00     0.074 A 
ATOM     37  C   UNL     1       7.839  10.649  -5.037  1.00  0.00     0.031 C 
ATOM     38  C   UNL     1       7.061   9.407  -7.034  1.00  0.00     0.031 A 
BRANCH  25  39
ATOM     39  C   UNL     1       4.089   4.332  -8.865  1.00  0.00    -0.014 A 
ATOM     40  C   UNL     1       5.002   3.627  -9.665  1.00  0.00     0.009 A 
ATOM     41  C   UNL     1       2.729   4.320  -9.209  1.00  0.00     0.009 A 
ATOM     42  C   UNL     1       4.563   2.933 -10.794  1.00  0.00     0.001 A 
ATOM     43  C   UNL     1       2.291   3.606 -10.325  1.00  0.00     0.001 A 
ATOM     44  C   UNL     1       3.208   2.920 -11.121  1.00  0.00     0.000 A 
ENDBRANCH  25  39
BRANCH  26  45
ATOM     45  C   UNL     1       7.332   9.541  -0.987  1.00  0.00    -0.014 A 
ATOM     46  C   UNL     1       8.403   9.043  -0.230  1.00  0.00     0.009 A 
ATOM     47  C   UNL     1       6.738  10.754  -0.608  1.00  0.00     0.009 A 
ATOM     48  C   UNL     1       8.862   9.737   0.891  1.00  0.00     0.001 A 
ATOM     49  C   UNL     1       7.216  11.459   0.500  1.00  0.00     0.001 A 
ATOM     50  C   UNL     1       8.272  10.947   1.252  1.00  0.00     0.000 A 
ENDBRANCH  26  45
BRANCH  38  51
ATOM     51  C   UNL     1       7.639  10.483  -7.904  1.00  0.00    -0.014 A 
ATOM     52  C   UNL     1       6.780  11.377  -8.563  1.00  0.00     0.009 A 
ATOM     53  C   UNL     1       9.012  10.518  -8.184  1.00  0.00     0.009 A 
ATOM     54  C   UNL     1       7.284  12.276  -9.503  1.00  0.00     0.001 A 
ATOM     55  C   UNL     1       9.515  11.431  -9.112  1.00  0.00     0.001 A 
ATOM     56  C   UNL     1       8.651  12.301  -9.777  1.00  0.00     0.000 A 
ENDBRANCH  38  51
ENDBRANCH  12  13
ENDBRANCH   5   7
ENDBRANCH   2   3
ENDBRANCH   1   2
BRANCH   1  57
ATOM     57  C   UNL     1       3.817  -2.789   2.544  1.00  0.00     0.118 C 
BRANCH  57  58
ATOM     58  N   UNL     1       4.643  -3.950   2.267  1.00  0.00    -0.351 N 
ATOM     59  C   UNL     1       5.682  -4.580   2.864  1.00  0.00     0.278 C 
ATOM     60  H   UNL     1       4.379  -4.395   1.429  1.00  0.00     0.163 HD
ATOM     61  O   UNL     1       6.271  -5.338   2.079  1.00  0.00    -0.268 OA
BRANCH  59  62
ATOM     62  C   UNL     1       6.152  -4.475   4.352  1.00  0.00     0.279 C 
ATOM     63  C   UNL     1       5.715  -3.161   5.014  1.00  0.00     0.111 C 
ATOM     64  N   UNL     1       5.708  -5.647   5.171  1.00  0.00    -0.317 N 
ATOM     65  C   UNL     1       6.000  -3.042   6.482  1.00  0.00    -0.033 A 
ATOM     66  C   UNL     1       6.175  -5.556   6.571  1.00  0.00     0.300 C 
ATOM     67  H   UNL     1       4.691  -5.575   5.140  1.00  0.00     0.349 HD
ATOM     68  C   UNL     1       6.015  -1.787   7.107  1.00  0.00     0.006 A 
ATOM     69  C   UNL     1       6.066  -4.210   7.244  1.00  0.00     0.011 A 
ATOM     70  C   UNL     1       6.110  -1.698   8.495  1.00  0.00     0.021 A 
ATOM     71  C   UNL     1       6.159  -4.112   8.640  1.00  0.00     0.030 A 
ATOM     72  C   UNL     1       6.173  -2.861   9.257  1.00  0.00     0.041 A 
ATOM     73  Cl  UNL     1       6.271  -2.754  10.971  1.00  0.00    -0.084 Cl
BRANCH  64  74
ATOM     74  C   UNL     1       6.027  -6.992   4.613  1.00  0.00     0.299 C 
BRANCH  74  75
ATOM     75  C   UNL     1       7.493  -7.388   4.455  1.00  0.00     0.006 A 
ATOM     76  C   UNL     1       8.272  -7.795   5.551  1.00  0.00     0.011 A 
ATOM     77  C   UNL     1       8.104  -7.392   3.191  1.00  0.00     0.011 A 
ATOM     78  C   UNL     1       9.636  -8.071   5.407  1.00  0.00     0.021 A 
ATOM     79  C   UNL     1       9.464  -7.676   3.039  1.00  0.00     0.021 A 
ATOM     80  C   UNL     1      10.231  -7.992   4.152  1.00  0.00     0.041 A 
ATOM     81  Cl  UNL     1      11.914  -8.300   3.977  1.00  0.00    -0.084 Cl
ENDBRANCH  74  75
ENDBRANCH  64  74
ENDBRANCH  59  62
ENDBRANCH  57  58
ENDBRANCH   1  57
TORSDOF 12
