REMARK SMILES Cc1c(CC(=O)NCCCNC(=O)c2ccc(-c3c4nc(c(-c5ccccc5)c5ccc([nH]5)c(-c5ccccc5)c5nc(c(-c6ccccc6)c6ccc3[nH]6)C=C5)C=C4)cc2)c2ccccc2n1C(=O)c1ccc(Cl)cc1
REMARK SMILES IDX 8 1 7 2 5 3 6 4 4 6 3 7 1 8 2 9 68 10 62 11 67 12 63 13
REMARK SMILES IDX 66 14 64 15 65 16 69 17 70 18 71 19 72 20 77 21 73 22 76 23
REMARK SMILES IDX 74 24 75 25 9 26 10 27 11 28 12 29 13 31 14 32 15 33 61 34
REMARK SMILES IDX 16 35 60 36 17 37 18 38 19 39 54 40 20 41 59 42 53 43 55 44
REMARK SMILES IDX 21 45 58 46 52 47 51 48 22 50 44 51 29 52 43 53 30 54 33 55
REMARK SMILES IDX 42 56 56 57 31 58 32 59 41 61 57 62 34 63 23 64 24 65 28 66
REMARK SMILES IDX 25 67 27 68 26 69 45 70 46 71 50 72 47 73 49 74 48 75 35 76
REMARK SMILES IDX 36 77 40 78 37 79 39 80 38 81
REMARK H PARENT 7 5 11 30 55 49 33 60
REMARK Flexibility Score: inf
ROOT
ATOM      1  C   UNL     1      -2.619  -0.154  -0.499  1.00  0.00     0.117 C 
ENDROOT
BRANCH   1   2
ATOM      2  N   UNL     1      -2.888  -0.418  -1.901  1.00  0.00    -0.356 N 
ATOM      3  C   UNL     1      -2.017  -0.589  -2.937  1.00  0.00     0.224 C 
ATOM      4  O   UNL     1      -2.486  -0.782  -4.061  1.00  0.00    -0.275 OA
ATOM      5  H   UNL     1      -3.841  -0.483  -2.140  1.00  0.00     0.163 HD
BRANCH   3   6
ATOM      6  C   UNL     1      -0.518  -0.594  -2.692  1.00  0.00     0.138 C 
BRANCH   6   7
ATOM      7  C   UNL     1       0.019   0.739  -2.259  1.00  0.00    -0.010 A 
ATOM      8  C   UNL     1       1.227   0.072  -0.056  1.00  0.00     0.065 C 
ATOM      9  C   UNL     1       0.756   1.020  -1.116  1.00  0.00     0.028 A 
ATOM     10  N   UNL     1       0.988   2.403  -1.054  1.00  0.00    -0.280 N 
ATOM     11  C   UNL     1      -0.098   1.954  -2.991  1.00  0.00     0.004 A 
ATOM     12  C   UNL     1       0.565   2.956  -2.274  1.00  0.00     0.056 A 
ATOM     13  C   UNL     1      -0.700   2.270  -4.231  1.00  0.00     0.010 A 
ATOM     14  C   UNL     1       0.692   4.247  -2.832  1.00  0.00     0.027 A 
ATOM     15  C   UNL     1      -0.632   3.567  -4.737  1.00  0.00     0.001 A 
ATOM     16  C   UNL     1       0.067   4.542  -4.047  1.00  0.00     0.002 A 
BRANCH  10  17
ATOM     17  C   UNL     1       1.555   3.090   0.063  1.00  0.00     0.262 C 
ATOM     18  O   UNL     1       1.926   2.443   1.032  1.00  0.00    -0.268 OA
BRANCH  17  19
ATOM     19  C   UNL     1       1.754   4.548   0.155  1.00  0.00     0.040 A 
ATOM     20  C   UNL     1       0.672   5.434   0.134  1.00  0.00     0.015 A 
ATOM     21  C   UNL     1       3.067   5.021   0.252  1.00  0.00     0.015 A 
ATOM     22  C   UNL     1       0.918   6.809   0.104  1.00  0.00     0.021 A 
ATOM     23  C   UNL     1       3.305   6.395   0.235  1.00  0.00     0.021 A 
ATOM     24  C   UNL     1       2.232   7.281   0.137  1.00  0.00     0.041 A 
ATOM     25  Cl  UNL     1       2.534   8.971   0.029  1.00  0.00    -0.084 Cl
ENDBRANCH  17  19
ENDBRANCH  10  17
ENDBRANCH   6   7
ENDBRANCH   3   6
ENDBRANCH   1   2
BRANCH   1  26
ATOM     26  C   UNL     1      -2.932   1.292  -0.105  1.00  0.00     0.042 C 
BRANCH  26  27
ATOM     27  C   UNL     1      -4.403   1.669  -0.284  1.00  0.00     0.118 C 
BRANCH  27  28
ATOM     28  N   UNL     1      -5.328   0.808   0.426  1.00  0.00    -0.352 N 
ATOM     29  C   UNL     1      -5.856   0.769   1.684  1.00  0.00     0.251 C 
ATOM     30  H   UNL     1      -5.656   0.069  -0.137  1.00  0.00     0.163 HD
ATOM     31  O   UNL     1      -6.729  -0.081   1.875  1.00  0.00    -0.269 OA
BRANCH  29  32
ATOM     32  C   UNL     1      -5.413   1.600   2.835  1.00  0.00     0.039 A 
ATOM     33  C   UNL     1      -4.507   2.659   2.783  1.00  0.00     0.014 A 
ATOM     34  C   UNL     1      -5.928   1.215   4.089  1.00  0.00     0.014 A 
ATOM     35  C   UNL     1      -4.038   3.235   3.961  1.00  0.00     0.010 A 
ATOM     36  C   UNL     1      -5.476   1.796   5.265  1.00  0.00     0.010 A 
ATOM     37  C   UNL     1      -4.487   2.768   5.201  1.00  0.00    -0.014 A 
BRANCH  37  38
ATOM     38  C   UNL     1      -3.993   3.416   6.412  1.00  0.00     0.031 A 
ATOM     39  C   UNL     1      -4.359   4.853   6.516  1.00  0.00     0.074 A 
ATOM     40  C   UNL     1      -3.356   2.760   7.406  1.00  0.00     0.049 A 
ATOM     41  N   UNL     1      -3.560   5.867   6.527  1.00  0.00    -0.248 NA
ATOM     42  C   UNL     1      -5.784   5.217   6.467  1.00  0.00     0.031 C 
ATOM     43  C   UNL     1      -3.176   1.310   7.541  1.00  0.00     0.029 A 
ATOM     44  N   UNL     1      -2.819   3.241   8.568  1.00  0.00    -0.354 N 
ATOM     45  C   UNL     1      -4.367   6.993   6.683  1.00  0.00     0.074 A 
ATOM     46  C   UNL     1      -5.722   6.550   6.486  1.00  0.00     0.031 C 
ATOM     47  C   UNL     1      -2.803   1.018   8.809  1.00  0.00     0.029 A 
ATOM     48  C   UNL     1      -2.558   2.260   9.521  1.00  0.00     0.049 A 
ATOM     49  H   UNL     1      -2.633   4.196   8.717  1.00  0.00     0.167 HD
ATOM     50  C   UNL     1      -3.865   8.142   7.214  1.00  0.00     0.031 A 
ATOM     51  C   UNL     1      -2.191   2.455  10.811  1.00  0.00     0.031 A 
ATOM     52  C   UNL     1      -2.427   8.118   7.235  1.00  0.00     0.049 A 
ATOM     53  C   UNL     1      -1.596   3.801  10.913  1.00  0.00     0.074 A 
ATOM     54  C   UNL     1      -1.406   8.302   6.333  1.00  0.00     0.029 A 
ATOM     55  N   UNL     1      -1.906   7.481   8.331  1.00  0.00    -0.354 N 
ATOM     56  N   UNL     1      -0.465   4.123  10.357  1.00  0.00    -0.248 NA
ATOM     57  C   UNL     1      -2.412   4.916  11.377  1.00  0.00     0.031 C 
ATOM     58  C   UNL     1      -0.295   7.571   6.846  1.00  0.00     0.029 A 
ATOM     59  C   UNL     1      -0.652   7.005   8.070  1.00  0.00     0.049 A 
ATOM     60  H   UNL     1      -2.373   7.381   9.191  1.00  0.00     0.167 HD
ATOM     61  C   UNL     1      -0.635   5.444   9.998  1.00  0.00     0.074 A 
ATOM     62  C   UNL     1      -1.747   5.925  10.808  1.00  0.00     0.031 C 
ATOM     63  C   UNL     1      -0.080   5.929   8.852  1.00  0.00     0.031 A 
BRANCH  50  64
ATOM     64  C   UNL     1      -4.628   9.041   8.167  1.00  0.00    -0.014 A 
ATOM     65  C   UNL     1      -5.875   8.714   8.727  1.00  0.00     0.009 A 
ATOM     66  C   UNL     1      -3.938  10.118   8.762  1.00  0.00     0.009 A 
ATOM     67  C   UNL     1      -6.388   9.386   9.843  1.00  0.00     0.001 A 
ATOM     68  C   UNL     1      -4.433  10.773   9.898  1.00  0.00     0.001 A 
ATOM     69  C   UNL     1      -5.654  10.398  10.445  1.00  0.00     0.000 A 
ENDBRANCH  50  64
BRANCH  51  70
ATOM     70  C   UNL     1      -2.532   1.688  12.028  1.00  0.00    -0.014 A 
ATOM     71  C   UNL     1      -3.803   1.102  12.144  1.00  0.00     0.009 A 
ATOM     72  C   UNL     1      -1.761   1.825  13.196  1.00  0.00     0.009 A 
ATOM     73  C   UNL     1      -4.317   0.734  13.393  1.00  0.00     0.001 A 
ATOM     74  C   UNL     1      -2.276   1.454  14.446  1.00  0.00     0.001 A 
ATOM     75  C   UNL     1      -3.562   0.930  14.546  1.00  0.00     0.000 A 
ENDBRANCH  51  70
BRANCH  63  76
ATOM     76  C   UNL     1       1.073   5.178   8.249  1.00  0.00    -0.014 A 
ATOM     77  C   UNL     1       2.280   5.874   8.084  1.00  0.00     0.009 A 
ATOM     78  C   UNL     1       0.972   3.876   7.733  1.00  0.00     0.009 A 
ATOM     79  C   UNL     1       3.349   5.301   7.398  1.00  0.00     0.001 A 
ATOM     80  C   UNL     1       2.055   3.291   7.068  1.00  0.00     0.001 A 
ATOM     81  C   UNL     1       3.237   4.010   6.891  1.00  0.00     0.000 A 
ENDBRANCH  63  76
ENDBRANCH  37  38
ENDBRANCH  29  32
ENDBRANCH  27  28
ENDBRANCH  26  27
ENDBRANCH   1  26
TORSDOF 13
