REMARK SMILES O=C(/C=C/c1ccc(O)cc1)NC[C@@H]1CC[C@H](C(=O)NCCCNC(=O)c2ccc(-c3c4nc(c(-c5ccccc5)c5ccc([nH]5)c(-c5ccccc5)c5nc(c(-c6ccccc6)c6ccc3[nH]6)C=C5)C=C4)cc2)O1
REMARK SMILES IDX 18 1 19 2 20 3 17 5 14 6 15 7 75 8 16 9 13 10 12 11 1 12
REMARK SMILES IDX 2 13 3 15 4 16 5 17 6 18 11 19 7 20 10 21 8 22 9 23 21 25
REMARK SMILES IDX 22 26 23 27 24 28 25 29 26 31 27 32 28 33 74 34 29 35 73 36
REMARK SMILES IDX 30 37 31 38 32 39 67 40 33 41 72 42 66 43 68 44 34 45 71 46
REMARK SMILES IDX 65 47 64 48 35 50 57 51 42 52 56 53 43 54 46 55 55 56 69 57
REMARK SMILES IDX 44 58 45 59 54 61 70 62 47 63 36 64 37 65 41 66 38 67 40 68
REMARK SMILES IDX 39 69 58 70 59 71 63 72 60 73 62 74 61 75 48 76 49 77 53 78
REMARK SMILES IDX 50 79 52 80 51 81
REMARK H PARENT 20 4 12 14 9 24 24 30 68 49 46 60
REMARK Flexibility Score: inf
ROOT
ATOM      1  C   UNL     1       0.861   5.069  -3.251  1.00  0.00     0.249 C 
ATOM      2  O   UNL     1       0.660   6.155  -3.805  1.00  0.00    -0.272 OA
ATOM      3  N   UNL     1      -0.197   4.490  -2.615  1.00  0.00    -0.354 N 
ATOM      4  H   UNL     1      -1.038   5.000  -2.656  1.00  0.00     0.163 HD
ENDROOT
BRANCH   1   5
ATOM      5  C   UNL     1       2.279   4.451  -3.227  1.00  0.00     0.207 C 
ATOM      6  C   UNL     1       3.276   2.434  -2.593  1.00  0.00     0.138 C 
ATOM      7  C   UNL     1       3.231   3.304  -1.349  1.00  0.00     0.037 C 
ATOM      8  O   UNL     1       2.384   3.059  -3.537  1.00  0.00    -0.363 OA
ATOM      9  C   UNL     1       2.997   4.689  -1.905  1.00  0.00     0.045 C 
BRANCH   6  10
ATOM     10  C   UNL     1       2.868   0.964  -2.404  1.00  0.00     0.148 C 
BRANCH  10  11
ATOM     11  N   UNL     1       3.404   0.338  -1.210  1.00  0.00    -0.350 N 
ATOM     12  O   UNL     1       1.444   0.448  -0.022  1.00  0.00    -0.270 OA
ATOM     13  C   UNL     1       2.625   0.141  -0.097  1.00  0.00     0.244 C 
ATOM     14  H   UNL     1       4.345   0.048  -1.198  1.00  0.00     0.163 HD
BRANCH  13  15
ATOM     15  C   UNL     1       3.281  -0.517   1.061  1.00  0.00     0.072 C 
ATOM     16  C   UNL     1       4.598  -0.489   1.307  1.00  0.00     0.014 C 
BRANCH  16  17
ATOM     17  C   UNL     1       5.214  -1.066   2.509  1.00  0.00    -0.025 A 
ATOM     18  C   UNL     1       4.806  -2.291   3.057  1.00  0.00     0.012 A 
ATOM     19  C   UNL     1       6.287  -0.383   3.098  1.00  0.00     0.012 A 
ATOM     20  C   UNL     1       5.446  -2.812   4.187  1.00  0.00     0.047 A 
ATOM     21  C   UNL     1       6.925  -0.901   4.226  1.00  0.00     0.047 A 
ATOM     22  C   UNL     1       6.500  -2.109   4.763  1.00  0.00     0.115 A 
BRANCH  22  23
ATOM     23  O   UNL     1       7.153  -2.578   5.863  1.00  0.00    -0.508 OA
ATOM     24  H   UNL     1       6.893  -3.390   6.252  1.00  0.00     0.293 HD
ENDBRANCH  22  23
ENDBRANCH  16  17
ENDBRANCH  13  15
ENDBRANCH  10  11
ENDBRANCH   6  10
ENDBRANCH   1   5
BRANCH   3  25
ATOM     25  C   UNL     1      -0.271   3.239  -1.890  1.00  0.00     0.117 C 
BRANCH  25  26
ATOM     26  C   UNL     1      -0.299   3.452  -0.382  1.00  0.00     0.042 C 
BRANCH  26  27
ATOM     27  C   UNL     1      -1.679   3.796   0.154  1.00  0.00     0.118 C 
BRANCH  27  28
ATOM     28  N   UNL     1      -2.615   2.685   0.033  1.00  0.00    -0.352 N 
ATOM     29  C   UNL     1      -3.369   2.050   0.985  1.00  0.00     0.251 C 
ATOM     30  H   UNL     1      -2.723   2.334  -0.880  1.00  0.00     0.163 HD
ATOM     31  O   UNL     1      -3.965   1.014   0.698  1.00  0.00    -0.269 OA
BRANCH  29  32
ATOM     32  C   UNL     1      -3.470   2.591   2.357  1.00  0.00     0.039 A 
ATOM     33  C   UNL     1      -3.496   1.696   3.431  1.00  0.00     0.014 A 
ATOM     34  C   UNL     1      -3.584   3.964   2.591  1.00  0.00     0.014 A 
ATOM     35  C   UNL     1      -3.591   2.180   4.737  1.00  0.00     0.010 A 
ATOM     36  C   UNL     1      -3.590   4.449   3.895  1.00  0.00     0.010 A 
ATOM     37  C   UNL     1      -3.613   3.562   4.980  1.00  0.00    -0.014 A 
BRANCH  37  38
ATOM     38  C   UNL     1      -3.688   4.097   6.361  1.00  0.00     0.031 A 
ATOM     39  C   UNL     1      -4.889   4.891   6.798  1.00  0.00     0.074 A 
ATOM     40  C   UNL     1      -2.655   3.912   7.205  1.00  0.00     0.049 A 
ATOM     41  N   UNL     1      -5.120   5.473   7.948  1.00  0.00    -0.248 NA
ATOM     42  C   UNL     1      -5.959   5.079   5.805  1.00  0.00     0.031 C 
ATOM     43  C   UNL     1      -1.415   3.199   6.886  1.00  0.00     0.029 A 
ATOM     44  N   UNL     1      -2.483   4.313   8.505  1.00  0.00    -0.354 N 
ATOM     45  C   UNL     1      -6.346   6.111   7.807  1.00  0.00     0.074 A 
ATOM     46  C   UNL     1      -6.786   5.890   6.447  1.00  0.00     0.031 C 
ATOM     47  C   UNL     1      -0.627   3.183   7.973  1.00  0.00     0.029 A 
ATOM     48  C   UNL     1      -1.287   3.914   9.050  1.00  0.00     0.049 A 
ATOM     49  H   UNL     1      -3.153   4.837   9.001  1.00  0.00     0.167 HD
ATOM     50  C   UNL     1      -7.055   6.803   8.731  1.00  0.00     0.031 A 
ATOM     51  C   UNL     1      -0.780   4.113  10.281  1.00  0.00     0.031 A 
ATOM     52  C   UNL     1      -6.627   7.007  10.088  1.00  0.00     0.049 A 
ATOM     53  C   UNL     1      -1.592   4.872  11.293  1.00  0.00     0.074 A 
ATOM     54  C   UNL     1      -7.294   7.647  11.117  1.00  0.00     0.029 A 
ATOM     55  N   UNL     1      -5.418   6.569  10.606  1.00  0.00    -0.354 N 
ATOM     56  N   UNL     1      -2.777   5.416  11.162  1.00  0.00    -0.248 NA
ATOM     57  C   UNL     1      -1.000   5.027  12.629  1.00  0.00     0.031 C 
ATOM     58  C   UNL     1      -6.471   7.631  12.248  1.00  0.00     0.029 A 
ATOM     59  C   UNL     1      -5.313   6.936  11.936  1.00  0.00     0.049 A 
ATOM     60  H   UNL     1      -4.734   6.071  10.102  1.00  0.00     0.167 HD
ATOM     61  C   UNL     1      -3.087   5.951  12.405  1.00  0.00     0.074 A 
ATOM     62  C   UNL     1      -1.970   5.652  13.279  1.00  0.00     0.031 C 
ATOM     63  C   UNL     1      -4.196   6.628  12.790  1.00  0.00     0.031 A 
BRANCH  50  64
ATOM     64  C   UNL     1      -8.370   7.389   8.296  1.00  0.00    -0.014 A 
ATOM     65  C   UNL     1      -9.476   6.568   8.018  1.00  0.00     0.009 A 
ATOM     66  C   UNL     1      -8.513   8.780   8.185  1.00  0.00     0.009 A 
ATOM     67  C   UNL     1     -10.685   7.127   7.600  1.00  0.00     0.001 A 
ATOM     68  C   UNL     1      -9.732   9.338   7.795  1.00  0.00     0.001 A 
ATOM     69  C   UNL     1     -10.813   8.511   7.492  1.00  0.00     0.000 A 
ENDBRANCH  50  64
BRANCH  51  70
ATOM     70  C   UNL     1       0.550   3.555  10.637  1.00  0.00    -0.014 A 
ATOM     71  C   UNL     1       0.650   2.468  11.519  1.00  0.00     0.009 A 
ATOM     72  C   UNL     1       1.724   4.105  10.101  1.00  0.00     0.009 A 
ATOM     73  C   UNL     1       1.900   1.962  11.880  1.00  0.00     0.001 A 
ATOM     74  C   UNL     1       2.972   3.578  10.441  1.00  0.00     0.001 A 
ATOM     75  C   UNL     1       3.059   2.514  11.337  1.00  0.00     0.000 A 
ENDBRANCH  51  70
BRANCH  63  76
ATOM     76  C   UNL     1      -4.272   7.052  14.229  1.00  0.00    -0.014 A 
ATOM     77  C   UNL     1      -3.479   8.098  14.726  1.00  0.00     0.009 A 
ATOM     78  C   UNL     1      -5.173   6.409  15.093  1.00  0.00     0.009 A 
ATOM     79  C   UNL     1      -3.560   8.465  16.070  1.00  0.00     0.001 A 
ATOM     80  C   UNL     1      -5.272   6.798  16.429  1.00  0.00     0.001 A 
ATOM     81  C   UNL     1      -4.458   7.818  16.919  1.00  0.00     0.000 A 
ENDBRANCH  63  76
ENDBRANCH  37  38
ENDBRANCH  29  32
ENDBRANCH  27  28
ENDBRANCH  26  27
ENDBRANCH  25  26
ENDBRANCH   3  25
TORSDOF 15
