REMARK SMILES COc1ccc(C(=O)NCCCNC(=O)c2ccc(-c3c4nc(c(-c5ccccc5)c5ccc([nH]5)c(-c5ccccc5)c5nc(c(-c6ccccc6)c6ccc3[nH]6)C=C5)C=C4)cc2)cc1CN1CC(=O)N(C)CC1=O
REMARK SMILES IDX 11 1 10 2 9 3 7 4 8 5 6 7 3 8 4 9 65 10 5 11 64 12 2 13 1 14
REMARK SMILES IDX 66 15 67 16 68 17 74 18 69 19 73 20 75 21 70 22 71 23 72 24
REMARK SMILES IDX 12 25 13 26 14 27 15 29 16 30 17 31 63 32 18 33 62 34 19 35
REMARK SMILES IDX 20 36 21 37 56 38 22 39 61 40 55 41 57 42 23 43 60 44 54 45
REMARK SMILES IDX 53 46 24 48 46 49 31 50 45 51 32 52 35 53 44 54 58 55 33 56
REMARK SMILES IDX 34 57 43 59 59 60 36 61 25 62 26 63 30 64 27 65 29 66 28 67
REMARK SMILES IDX 47 68 48 69 52 70 49 71 51 72 50 73 37 74 38 75 42 76 39 77
REMARK SMILES IDX 41 78 40 79
REMARK H PARENT 9 6 13 28 57 47 35 58
REMARK Flexibility Score: inf
ROOT
ATOM      1  C   UNL     1       4.929  -5.697  -2.952  1.00  0.00     0.042 C 
ENDROOT
BRANCH   1   2
ATOM      2  C   UNL     1       3.666  -5.329  -3.735  1.00  0.00     0.118 C 
BRANCH   2   3
ATOM      3  N   UNL     1       2.500  -6.058  -3.261  1.00  0.00    -0.352 N 
ATOM      4  C   UNL     1       1.443  -5.709  -2.457  1.00  0.00     0.251 C 
ATOM      5  O   UNL     1       0.532  -6.532  -2.343  1.00  0.00    -0.269 OA
ATOM      6  H   UNL     1       2.461  -6.988  -3.581  1.00  0.00     0.163 HD
BRANCH   4   7
ATOM      7  C   UNL     1       1.326  -4.409  -1.732  1.00  0.00     0.040 A 
ATOM      8  C   UNL     1       0.968  -2.031  -0.264  1.00  0.00     0.123 A 
ATOM      9  C   UNL     1      -0.132  -2.824  -0.594  1.00  0.00     0.047 A 
ATOM     10  C   UNL     1       2.260  -2.421  -0.625  1.00  0.00     0.014 A 
ATOM     11  C   UNL     1       0.046  -3.999  -1.331  1.00  0.00     0.017 A 
ATOM     12  C   UNL     1       2.415  -3.621  -1.352  1.00  0.00     0.023 A 
BRANCH   8  13
ATOM     13  O   UNL     1       0.765  -0.919   0.506  1.00  0.00    -0.496 OA
ATOM     14  C   UNL     1       0.410   0.205  -0.301  1.00  0.00     0.278 C 
ENDBRANCH   8  13
BRANCH  10  15
ATOM     15  C   UNL     1       3.486  -1.614  -0.263  1.00  0.00     0.159 C 
BRANCH  15  16
ATOM     16  N   UNL     1       4.352  -2.345   0.653  1.00  0.00    -0.327 N 
ATOM     17  C   UNL     1       4.346  -1.951   2.052  1.00  0.00     0.220 C 
ATOM     18  C   UNL     1       5.396  -3.114   0.161  1.00  0.00     0.242 C 
ATOM     19  C   UNL     1       4.891  -2.962   3.062  1.00  0.00     0.242 C 
ATOM     20  C   UNL     1       5.894  -4.176   1.142  1.00  0.00     0.219 C 
ATOM     21  O   UNL     1       5.712  -3.146  -1.016  1.00  0.00    -0.273 OA
ATOM     22  O   UNL     1       4.691  -2.810   4.265  1.00  0.00    -0.273 OA
ATOM     23  N   UNL     1       5.788  -3.892   2.564  1.00  0.00    -0.335 N 
ATOM     24  C   UNL     1       6.482  -4.788   3.469  1.00  0.00     0.147 C 
ENDBRANCH  15  16
ENDBRANCH  10  15
ENDBRANCH   4   7
ENDBRANCH   2   3
ENDBRANCH   1   2
BRANCH   1  25
ATOM     25  C   UNL     1       5.566  -7.022  -3.372  1.00  0.00     0.118 C 
BRANCH  25  26
ATOM     26  N   UNL     1       6.221  -6.923  -4.667  1.00  0.00    -0.352 N 
ATOM     27  C   UNL     1       7.518  -7.170  -5.039  1.00  0.00     0.251 C 
ATOM     28  H   UNL     1       5.635  -6.628  -5.401  1.00  0.00     0.163 HD
ATOM     29  O   UNL     1       7.893  -6.800  -6.152  1.00  0.00    -0.269 OA
BRANCH  27  30
ATOM     30  C   UNL     1       8.478  -7.870  -4.152  1.00  0.00     0.039 A 
ATOM     31  C   UNL     1       9.823  -7.482  -4.200  1.00  0.00     0.014 A 
ATOM     32  C   UNL     1       8.108  -8.963  -3.364  1.00  0.00     0.014 A 
ATOM     33  C   UNL     1      10.784  -8.164  -3.447  1.00  0.00     0.010 A 
ATOM     34  C   UNL     1       9.061  -9.615  -2.573  1.00  0.00     0.010 A 
ATOM     35  C   UNL     1      10.410  -9.231  -2.617  1.00  0.00    -0.014 A 
BRANCH  35  36
ATOM     36  C   UNL     1      11.426  -9.952  -1.805  1.00  0.00     0.031 A 
ATOM     37  C   UNL     1      11.793 -11.377  -2.122  1.00  0.00     0.074 A 
ATOM     38  C   UNL     1      12.003  -9.333  -0.757  1.00  0.00     0.049 A 
ATOM     39  N   UNL     1      12.647 -12.163  -1.513  1.00  0.00    -0.248 NA
ATOM     40  C   UNL     1      11.101 -12.007  -3.257  1.00  0.00     0.031 C 
ATOM     41  C   UNL     1      11.722  -7.965  -0.320  1.00  0.00     0.029 A 
ATOM     42  N   UNL     1      12.949  -9.779   0.132  1.00  0.00    -0.354 N 
ATOM     43  C   UNL     1      12.576 -13.384  -2.173  1.00  0.00     0.074 A 
ATOM     44  C   UNL     1      11.580 -13.243  -3.214  1.00  0.00     0.031 C 
ATOM     45  C   UNL     1      12.496  -7.675   0.739  1.00  0.00     0.029 A 
ATOM     46  C   UNL     1      13.306  -8.843   1.071  1.00  0.00     0.049 A 
ATOM     47  H   UNL     1      13.335 -10.684   0.100  1.00  0.00     0.167 HD
ATOM     48  C   UNL     1      13.283 -14.517  -1.944  1.00  0.00     0.031 A 
ATOM     49  C   UNL     1      14.188  -8.914   2.086  1.00  0.00     0.031 A 
ATOM     50  C   UNL     1      14.300 -14.658  -0.936  1.00  0.00     0.049 A 
ATOM     51  C   UNL     1      14.969 -10.176   2.308  1.00  0.00     0.074 A 
ATOM     52  C   UNL     1      15.121 -15.745  -0.685  1.00  0.00     0.029 A 
ATOM     53  N   UNL     1      14.634 -13.683  -0.011  1.00  0.00    -0.354 N 
ATOM     54  N   UNL     1      14.937 -11.296   1.629  1.00  0.00    -0.248 NA
ATOM     55  C   UNL     1      15.917 -10.178   3.432  1.00  0.00     0.031 C 
ATOM     56  C   UNL     1      15.930 -15.439   0.415  1.00  0.00     0.029 A 
ATOM     57  C   UNL     1      15.634 -14.150   0.825  1.00  0.00     0.049 A 
ATOM     58  H   UNL     1      14.223 -12.790   0.043  1.00  0.00     0.167 HD
ATOM     59  C   UNL     1      15.874 -12.127   2.229  1.00  0.00     0.074 A 
ATOM     60  C   UNL     1      16.466 -11.379   3.318  1.00  0.00     0.031 C 
ATOM     61  C   UNL     1      16.214 -13.397   1.905  1.00  0.00     0.031 A 
BRANCH  48  62
ATOM     62  C   UNL     1      12.976 -15.711  -2.801  1.00  0.00    -0.014 A 
ATOM     63  C   UNL     1      13.422 -15.786  -4.129  1.00  0.00     0.009 A 
ATOM     64  C   UNL     1      12.277 -16.798  -2.254  1.00  0.00     0.009 A 
ATOM     65  C   UNL     1      13.150 -16.917  -4.902  1.00  0.00     0.001 A 
ATOM     66  C   UNL     1      12.024 -17.936  -3.022  1.00  0.00     0.001 A 
ATOM     67  C   UNL     1      12.455 -17.992  -4.347  1.00  0.00     0.000 A 
ENDBRANCH  48  62
BRANCH  49  68
ATOM     68  C   UNL     1      14.399  -7.739   2.968  1.00  0.00    -0.014 A 
ATOM     69  C   UNL     1      15.568  -6.971   2.854  1.00  0.00     0.009 A 
ATOM     70  C   UNL     1      13.445  -7.391   3.936  1.00  0.00     0.009 A 
ATOM     71  C   UNL     1      15.788  -5.890   3.709  1.00  0.00     0.001 A 
ATOM     72  C   UNL     1      13.659  -6.296   4.775  1.00  0.00     0.001 A 
ATOM     73  C   UNL     1      14.832  -5.552   4.667  1.00  0.00     0.000 A 
ENDBRANCH  49  68
BRANCH  61  74
ATOM     74  C   UNL     1      17.291 -14.045   2.723  1.00  0.00    -0.014 A 
ATOM     75  C   UNL     1      17.029 -14.521   4.016  1.00  0.00     0.009 A 
ATOM     76  C   UNL     1      18.578 -14.198   2.186  1.00  0.00     0.009 A 
ATOM     77  C   UNL     1      18.046 -15.113   4.768  1.00  0.00     0.001 A 
ATOM     78  C   UNL     1      19.587 -14.809   2.932  1.00  0.00     0.001 A 
ATOM     79  C   UNL     1      19.322 -15.258   4.225  1.00  0.00     0.000 A 
ENDBRANCH  61  74
ENDBRANCH  35  36
ENDBRANCH  27  30
ENDBRANCH  25  26
ENDBRANCH   1  25
TORSDOF 13
