REMARK SMILES O=C(CC[C@H](O)c1cncn1C1CC1)NCCCNC(=O)c1ccc(-c2c3nc(c(-c4ccccc4)c4ccc([nH]4)c(-c4ccccc4)c4nc(c(-c5ccccc5)c5ccc2[nH]5)C=C4)C=C3)cc1
REMARK SMILES IDX 16 1 15 2 1 3 2 4 3 6 4 7 5 8 7 9 8 10 11 11 9 12 10 13
REMARK SMILES IDX 12 14 13 15 14 16 6 17 17 19 18 20 19 21 20 22 21 24 22 25
REMARK SMILES IDX 23 26 69 27 24 28 68 29 25 30 26 31 27 32 62 33 28 34 67 35
REMARK SMILES IDX 61 36 63 37 29 38 66 39 60 40 59 41 30 43 52 44 37 45 51 46
REMARK SMILES IDX 38 47 41 48 50 49 64 50 39 51 40 52 49 54 65 55 42 56 31 57
REMARK SMILES IDX 32 58 36 59 33 60 35 61 34 62 53 63 54 64 58 65 55 66 57 67
REMARK SMILES IDX 56 68 43 69 44 70 48 71 45 72 47 73 46 74
REMARK H PARENT 15 5 6 18 19 23 63 42 41 53
REMARK Flexibility Score: inf
ROOT
ATOM      1  C   UNL     1       1.872  -2.465   0.251  1.00  0.00     0.117 C 
ENDROOT
BRANCH   1   2
ATOM      2  N   UNL     1       3.010  -1.582   0.469  1.00  0.00    -0.356 N 
ATOM      3  O   UNL     1       4.297  -3.148   1.529  1.00  0.00    -0.275 OA
ATOM      4  C   UNL     1       4.143  -2.000   1.120  1.00  0.00     0.220 C 
ATOM      5  H   UNL     1       2.965  -0.656   0.138  1.00  0.00     0.163 HD
BRANCH   4   6
ATOM      6  C   UNL     1       5.173  -0.925   1.409  1.00  0.00     0.103 C 
BRANCH   6   7
ATOM      7  C   UNL     1       5.816  -0.257   0.195  1.00  0.00     0.048 C 
BRANCH   7   8
ATOM      8  C   UNL     1       5.059   0.936  -0.346  1.00  0.00     0.163 C 
BRANCH   8   9
ATOM      9  C   UNL     1       5.838   2.038  -0.987  1.00  0.00     0.066 A 
ATOM     10  C   UNL     1       5.418   3.366  -0.983  1.00  0.00     0.137 A 
ATOM     11  N   UNL     1       7.072   2.101  -1.618  1.00  0.00    -0.329 N 
ATOM     12  N   UNL     1       6.349   4.214  -1.492  1.00  0.00    -0.245 NA
ATOM     13  C   UNL     1       7.337   3.434  -1.847  1.00  0.00     0.199 A 
BRANCH  11  14
ATOM     14  C   UNL     1       8.019   1.132  -2.153  1.00  0.00     0.088 C 
ATOM     15  C   UNL     1       8.400  -0.255  -1.703  1.00  0.00     0.027 C 
ATOM     16  C   UNL     1       7.548  -0.093  -2.913  1.00  0.00     0.027 C 
ENDBRANCH  11  14
ENDBRANCH   8   9
BRANCH   8  17
ATOM     17  O   UNL     1       4.037   0.516  -1.244  1.00  0.00    -0.387 OA
ATOM     18  H   UNL     1       4.442   0.126  -2.034  1.00  0.00     0.211 HD
ENDBRANCH   8  17
ENDBRANCH   7   8
ENDBRANCH   6   7
ENDBRANCH   4   6
ENDBRANCH   1   2
BRANCH   1  19
ATOM     19  C   UNL     1       0.798  -2.362   1.343  1.00  0.00     0.042 C 
BRANCH  19  20
ATOM     20  C   UNL     1       0.144  -0.993   1.404  1.00  0.00     0.118 C 
BRANCH  20  21
ATOM     21  N   UNL     1      -0.656  -0.643   0.218  1.00  0.00    -0.352 N 
ATOM     22  C   UNL     1      -1.388   0.513  -0.048  1.00  0.00     0.251 C 
ATOM     23  H   UNL     1      -0.677  -1.326  -0.490  1.00  0.00     0.163 HD
ATOM     24  O   UNL     1      -2.240   0.532  -0.916  1.00  0.00    -0.269 OA
BRANCH  22  25
ATOM     25  C   UNL     1      -1.102   1.730   0.743  1.00  0.00     0.039 A 
ATOM     26  C   UNL     1      -2.059   2.696   1.073  1.00  0.00     0.014 A 
ATOM     27  C   UNL     1       0.198   1.872   1.189  1.00  0.00     0.014 A 
ATOM     28  C   UNL     1      -1.659   3.780   1.859  1.00  0.00     0.010 A 
ATOM     29  C   UNL     1       0.450   2.663   2.259  1.00  0.00     0.010 A 
ATOM     30  C   UNL     1      -0.381   3.749   2.429  1.00  0.00    -0.014 A 
BRANCH  30  31
ATOM     31  C   UNL     1       0.207   4.814   3.216  1.00  0.00     0.031 A 
ATOM     32  C   UNL     1      -0.381   4.987   4.556  1.00  0.00     0.074 A 
ATOM     33  C   UNL     1       1.402   5.360   2.890  1.00  0.00     0.049 A 
ATOM     34  N   UNL     1      -1.107   5.970   4.958  1.00  0.00    -0.248 NA
ATOM     35  C   UNL     1      -0.271   3.881   5.519  1.00  0.00     0.031 C 
ATOM     36  C   UNL     1       2.309   5.021   1.781  1.00  0.00     0.029 A 
ATOM     37  N   UNL     1       2.127   6.268   3.591  1.00  0.00    -0.354 N 
ATOM     38  C   UNL     1      -1.401   5.707   6.288  1.00  0.00     0.074 A 
ATOM     39  C   UNL     1      -1.040   4.330   6.512  1.00  0.00     0.031 C 
ATOM     40  C   UNL     1       3.533   5.549   2.019  1.00  0.00     0.029 A 
ATOM     41  C   UNL     1       3.457   6.379   3.208  1.00  0.00     0.049 A 
ATOM     42  H   UNL     1       1.739   6.807   4.318  1.00  0.00     0.167 HD
ATOM     43  C   UNL     1      -1.692   6.714   7.158  1.00  0.00     0.031 A 
ATOM     44  C   UNL     1       4.424   7.077   3.856  1.00  0.00     0.031 A 
ATOM     45  C   UNL     1      -1.851   7.972   6.466  1.00  0.00     0.049 A 
ATOM     46  C   UNL     1       3.736   8.063   4.728  1.00  0.00     0.074 A 
ATOM     47  C   UNL     1      -2.702   8.436   5.483  1.00  0.00     0.029 A 
ATOM     48  N   UNL     1      -0.761   8.815   6.454  1.00  0.00    -0.354 N 
ATOM     49  N   UNL     1       3.038   9.059   4.260  1.00  0.00    -0.248 NA
ATOM     50  C   UNL     1       3.411   7.666   6.091  1.00  0.00     0.031 C 
ATOM     51  C   UNL     1      -1.870   9.206   4.617  1.00  0.00     0.029 A 
ATOM     52  C   UNL     1      -0.585   9.242   5.162  1.00  0.00     0.049 A 
ATOM     53  H   UNL     1      -0.210   9.066   7.231  1.00  0.00     0.167 HD
ATOM     54  C   UNL     1       1.906   9.107   5.063  1.00  0.00     0.074 A 
ATOM     55  C   UNL     1       2.243   8.302   6.238  1.00  0.00     0.031 C 
ATOM     56  C   UNL     1       0.705   9.535   4.570  1.00  0.00     0.031 A 
BRANCH  43  57
ATOM     57  C   UNL     1      -1.452   6.661   8.642  1.00  0.00    -0.014 A 
ATOM     58  C   UNL     1      -1.857   7.761   9.421  1.00  0.00     0.009 A 
ATOM     59  C   UNL     1      -0.630   5.710   9.272  1.00  0.00     0.009 A 
ATOM     60  C   UNL     1      -1.397   7.938  10.729  1.00  0.00     0.001 A 
ATOM     61  C   UNL     1      -0.201   5.862  10.593  1.00  0.00     0.001 A 
ATOM     62  C   UNL     1      -0.560   6.992  11.312  1.00  0.00     0.000 A 
ENDBRANCH  43  57
BRANCH  44  63
ATOM     63  C   UNL     1       5.870   6.773   3.972  1.00  0.00    -0.014 A 
ATOM     64  C   UNL     1       6.777   7.732   4.452  1.00  0.00     0.009 A 
ATOM     65  C   UNL     1       6.327   5.446   3.862  1.00  0.00     0.009 A 
ATOM     66  C   UNL     1       8.073   7.366   4.848  1.00  0.00     0.001 A 
ATOM     67  C   UNL     1       7.620   5.081   4.255  1.00  0.00     0.001 A 
ATOM     68  C   UNL     1       8.488   6.039   4.764  1.00  0.00     0.000 A 
ENDBRANCH  44  63
BRANCH  56  69
ATOM     69  C   UNL     1       0.679  10.123   3.176  1.00  0.00    -0.014 A 
ATOM     70  C   UNL     1       1.065   9.400   2.031  1.00  0.00     0.009 A 
ATOM     71  C   UNL     1       0.081  11.377   2.990  1.00  0.00     0.009 A 
ATOM     72  C   UNL     1       0.884   9.927   0.748  1.00  0.00     0.001 A 
ATOM     73  C   UNL     1      -0.121  11.894   1.707  1.00  0.00     0.001 A 
ATOM     74  C   UNL     1       0.284  11.172   0.587  1.00  0.00     0.000 A 
ENDBRANCH  56  69
ENDBRANCH  30  31
ENDBRANCH  22  25
ENDBRANCH  20  21
ENDBRANCH  19  20
ENDBRANCH   1  19
TORSDOF 15
