REMARK SMILES O=C(NCCCNC(=O)[C@H]1[C@H]2CC[C@H](CC2)[C@@H]1C(=O)Nc1sc2c(c1C(=O)N1CCCCC1)CCCC2)c1ccc(-c2c3nc(c(-c4ccccc4)c4ccc([nH]4)c(-c4ccccc4)c4nc(c(-c5ccccc5)c5ccc2[nH]5)C=C4)C=C3)cc1
REMARK SMILES IDX 5 1 4 2 3 3 1 4 2 5 38 7 39 8 85 9 40 10 84 11 41 12 42 13
REMARK SMILES IDX 43 14 78 15 44 16 83 17 77 18 79 19 45 20 82 21 76 22 75 23
REMARK SMILES IDX 46 25 68 26 53 27 67 28 54 29 57 30 66 31 80 32 55 33 56 34
REMARK SMILES IDX 65 36 81 37 58 38 47 39 48 40 52 41 49 42 51 43 50 44 69 45
REMARK SMILES IDX 70 46 74 47 71 48 73 49 72 50 59 51 60 52 64 53 61 54 63 55
REMARK SMILES IDX 62 56 6 57 7 58 8 59 9 61 10 62 11 63 17 64 12 65 16 66
REMARK SMILES IDX 14 67 13 68 15 69 18 70 19 71 20 72 21 74 22 75 25 76 23 77
REMARK SMILES IDX 24 78 37 79 34 80 36 81 35 82 26 83 27 84 28 85 29 86 33 87
REMARK SMILES IDX 30 88 32 89 31 90
REMARK H PARENT 3 6 79 24 57 35 7 60 20 73
REMARK Flexibility Score: inf
ROOT
ATOM      1  C   UNL     1       3.385  -3.020  -0.723  1.00  0.00     0.042 C 
ENDROOT
BRANCH   1   2
ATOM      2  C   UNL     1       3.314  -1.496  -0.574  1.00  0.00     0.118 C 
BRANCH   2   3
ATOM      3  N   UNL     1       1.971  -0.963  -0.416  1.00  0.00    -0.352 N 
ATOM      4  O   UNL     1       0.325   0.282   0.502  1.00  0.00    -0.269 OA
ATOM      5  C   UNL     1       1.509  -0.020   0.481  1.00  0.00     0.251 C 
ATOM      6  H   UNL     1       1.296  -1.324  -1.036  1.00  0.00     0.163 HD
BRANCH   5   7
ATOM      7  C   UNL     1       2.438   0.610   1.453  1.00  0.00     0.039 A 
ATOM      8  C   UNL     1       3.586   1.274   1.028  1.00  0.00     0.014 A 
ATOM      9  C   UNL     1       2.136   0.563   2.815  1.00  0.00     0.014 A 
ATOM     10  C   UNL     1       4.509   1.754   1.968  1.00  0.00     0.010 A 
ATOM     11  C   UNL     1       3.024   1.113   3.752  1.00  0.00     0.010 A 
ATOM     12  C   UNL     1       4.244   1.679   3.346  1.00  0.00    -0.014 A 
BRANCH  12  13
ATOM     13  C   UNL     1       5.218   2.205   4.352  1.00  0.00     0.031 A 
ATOM     14  C   UNL     1       5.809   1.306   5.413  1.00  0.00     0.074 A 
ATOM     15  C   UNL     1       5.571   3.508   4.341  1.00  0.00     0.049 A 
ATOM     16  N   UNL     1       6.595   1.615   6.419  1.00  0.00    -0.248 NA
ATOM     17  C   UNL     1       5.466  -0.123   5.344  1.00  0.00     0.031 C 
ATOM     18  C   UNL     1       5.099   4.508   3.382  1.00  0.00     0.029 A 
ATOM     19  N   UNL     1       6.413   4.215   5.167  1.00  0.00    -0.354 N 
ATOM     20  C   UNL     1       6.799   0.434   7.125  1.00  0.00     0.074 A 
ATOM     21  C   UNL     1       6.049  -0.597   6.437  1.00  0.00     0.031 C 
ATOM     22  C   UNL     1       5.684   5.685   3.650  1.00  0.00     0.029 A 
ATOM     23  C   UNL     1       6.518   5.545   4.839  1.00  0.00     0.049 A 
ATOM     24  H   UNL     1       6.894   3.807   5.923  1.00  0.00     0.167 HD
ATOM     25  C   UNL     1       7.540   0.219   8.241  1.00  0.00     0.031 A 
ATOM     26  C   UNL     1       7.183   6.554   5.434  1.00  0.00     0.031 A 
ATOM     27  C   UNL     1       8.316   1.225   8.921  1.00  0.00     0.049 A 
ATOM     28  C   UNL     1       7.972   6.297   6.686  1.00  0.00     0.074 A 
ATOM     29  C   UNL     1       9.137   1.076  10.029  1.00  0.00     0.029 A 
ATOM     30  N   UNL     1       8.370   2.562   8.565  1.00  0.00    -0.354 N 
ATOM     31  N   UNL     1       8.166   5.170   7.324  1.00  0.00    -0.248 NA
ATOM     32  C   UNL     1       8.632   7.459   7.299  1.00  0.00     0.031 C 
ATOM     33  C   UNL     1       9.649   2.332  10.371  1.00  0.00     0.029 A 
ATOM     34  C   UNL     1       9.191   3.253   9.444  1.00  0.00     0.049 A 
ATOM     35  H   UNL     1       7.896   2.962   7.801  1.00  0.00     0.167 HD
ATOM     36  C   UNL     1       8.990   5.482   8.398  1.00  0.00     0.074 A 
ATOM     37  C   UNL     1       9.272   6.900   8.317  1.00  0.00     0.031 C 
ATOM     38  C   UNL     1       9.471   4.662   9.363  1.00  0.00     0.031 A 
BRANCH  25  39
ATOM     39  C   UNL     1       7.527  -1.166   8.830  1.00  0.00    -0.014 A 
ATOM     40  C   UNL     1       8.203  -2.232   8.217  1.00  0.00     0.009 A 
ATOM     41  C   UNL     1       6.872  -1.391  10.052  1.00  0.00     0.009 A 
ATOM     42  C   UNL     1       8.193  -3.503   8.798  1.00  0.00     0.001 A 
ATOM     43  C   UNL     1       6.887  -2.655  10.644  1.00  0.00     0.001 A 
ATOM     44  C   UNL     1       7.539  -3.712  10.012  1.00  0.00     0.000 A 
ENDBRANCH  25  39
BRANCH  26  45
ATOM     45  C   UNL     1       7.126   7.921   4.856  1.00  0.00    -0.014 A 
ATOM     46  C   UNL     1       8.257   8.478   4.240  1.00  0.00     0.009 A 
ATOM     47  C   UNL     1       5.945   8.678   4.922  1.00  0.00     0.009 A 
ATOM     48  C   UNL     1       8.213   9.773   3.720  1.00  0.00     0.001 A 
ATOM     49  C   UNL     1       5.896   9.961   4.375  1.00  0.00     0.001 A 
ATOM     50  C   UNL     1       7.032  10.510   3.782  1.00  0.00     0.000 A 
ENDBRANCH  26  45
BRANCH  38  51
ATOM     51  C   UNL     1      10.392   5.269  10.385  1.00  0.00    -0.014 A 
ATOM     52  C   UNL     1       9.912   6.130  11.383  1.00  0.00     0.009 A 
ATOM     53  C   UNL     1      11.761   4.960  10.355  1.00  0.00     0.009 A 
ATOM     54  C   UNL     1      10.791   6.701  12.307  1.00  0.00     0.001 A 
ATOM     55  C   UNL     1      12.633   5.510  11.296  1.00  0.00     0.001 A 
ATOM     56  C   UNL     1      12.149   6.388  12.265  1.00  0.00     0.000 A 
ENDBRANCH  38  51
ENDBRANCH  12  13
ENDBRANCH   5   7
ENDBRANCH   2   3
ENDBRANCH   1   2
BRANCH   1  57
ATOM     57  C   UNL     1       3.173  -3.551  -2.143  1.00  0.00     0.117 C 
BRANCH  57  58
ATOM     58  N   UNL     1       4.117  -3.031  -3.123  1.00  0.00    -0.356 N 
ATOM     59  C   UNL     1       5.165  -3.494  -3.848  1.00  0.00     0.224 C 
ATOM     60  H   UNL     1       3.946  -2.080  -3.313  1.00  0.00     0.163 HD
ATOM     61  O   UNL     1       5.565  -2.673  -4.686  1.00  0.00    -0.275 OA
BRANCH  59  62
ATOM     62  C   UNL     1       5.920  -4.831  -3.640  1.00  0.00     0.094 C 
ATOM     63  C   UNL     1       5.053  -6.088  -3.384  1.00  0.00     0.002 C 
ATOM     64  C   UNL     1       6.881  -5.096  -4.865  1.00  0.00     0.094 C 
ATOM     65  C   UNL     1       4.151  -6.363  -4.590  1.00  0.00     0.005 C 
ATOM     66  C   UNL     1       5.989  -7.297  -3.170  1.00  0.00     0.005 C 
ATOM     67  C   UNL     1       6.508  -6.493  -5.483  1.00  0.00     0.002 C 
ATOM     68  C   UNL     1       5.008  -6.499  -5.852  1.00  0.00     0.005 C 
ATOM     69  C   UNL     1       6.737  -7.619  -4.460  1.00  0.00     0.005 C 
BRANCH  64  70
ATOM     70  C   UNL     1       8.443  -4.981  -4.731  1.00  0.00     0.229 C 
ATOM     71  O   UNL     1       9.166  -5.930  -5.061  1.00  0.00    -0.274 OA
ATOM     72  N   UNL     1       9.062  -3.762  -4.600  1.00  0.00    -0.317 N 
ATOM     73  H   UNL     1       9.754  -3.572  -5.274  1.00  0.00     0.170 HD
BRANCH  72  74
ATOM     74  C   UNL     1       8.863  -2.767  -3.671  1.00  0.00     0.108 A 
ATOM     75  S   UNL     1       8.352  -3.220  -2.119  1.00  0.00    -0.122 S 
ATOM     76  C   UNL     1       9.229  -1.417  -3.710  1.00  0.00     0.078 A 
ATOM     77  C   UNL     1       7.893  -1.636  -1.800  1.00  0.00     0.011 A 
ATOM     78  C   UNL     1       8.532  -0.735  -2.627  1.00  0.00    -0.019 A 
ATOM     79  C   UNL     1       6.911  -1.301  -0.742  1.00  0.00     0.047 C 
ATOM     80  C   UNL     1       8.352   0.736  -2.407  1.00  0.00     0.037 C 
ATOM     81  C   UNL     1       6.332   0.084  -1.029  1.00  0.00     0.006 C 
ATOM     82  C   UNL     1       7.442   1.101  -1.231  1.00  0.00     0.005 C 
BRANCH  76  83
ATOM     83  C   UNL     1      10.006  -0.857  -4.837  1.00  0.00     0.257 C 
ATOM     84  O   UNL     1      10.366  -1.574  -5.773  1.00  0.00    -0.269 OA
ATOM     85  N   UNL     1      10.235   0.522  -4.874  1.00  0.00    -0.339 N 
ATOM     86  C   UNL     1      10.148   1.165  -6.175  1.00  0.00     0.120 C 
ATOM     87  C   UNL     1      11.140   1.192  -3.941  1.00  0.00     0.120 C 
ATOM     88  C   UNL     1       9.602   2.575  -6.004  1.00  0.00     0.022 C 
ATOM     89  C   UNL     1      10.783   2.678  -3.761  1.00  0.00     0.022 C 
ATOM     90  C   UNL     1      10.497   3.399  -5.079  1.00  0.00     0.004 C 
ENDBRANCH  76  83
ENDBRANCH  72  74
ENDBRANCH  64  70
ENDBRANCH  59  62
ENDBRANCH  57  58
ENDBRANCH   1  57
TORSDOF 13
