REMARK SMILES CCc1ccc2oc(-c3ccccc3)c(OCC(=O)NCCCNC(=O)c3ccc(-c4c5nc(c(-c6ccccc6)c6ccc([nH]6)c(-c6ccccc6)c6nc(c(-c7ccccc7)c7ccc4[nH]7)C=C6)C=C5)cc3)c(=O)c2c1
REMARK SMILES IDX 21 1 20 2 18 3 19 4 17 6 16 7 15 8 3 9 4 10 78 11 5 12 77 13
REMARK SMILES IDX 6 14 75 15 7 16 76 17 8 18 2 19 1 20 9 21 10 22 14 23 11 24
REMARK SMILES IDX 13 25 12 26 22 27 23 28 24 29 25 30 26 32 27 33 28 34 74 35
REMARK SMILES IDX 29 36 73 37 30 38 31 39 32 40 67 41 33 42 72 43 66 44 68 45
REMARK SMILES IDX 34 46 71 47 65 48 64 49 35 51 57 52 42 53 56 54 43 55 46 56
REMARK SMILES IDX 55 57 69 58 44 59 45 60 54 62 70 63 47 64 36 65 37 66 41 67
REMARK SMILES IDX 38 68 40 69 39 70 58 71 59 72 63 73 60 74 62 75 61 76 48 77
REMARK SMILES IDX 49 78 53 79 50 80 52 81 51 82
REMARK H PARENT 20 5 24 31 68 50 46 61
REMARK Flexibility Score: inf
ROOT
ATOM      1  C   UNL     1       1.321  -3.279   9.884  1.00  0.00     0.117 C 
ENDROOT
BRANCH   1   2
ATOM      2  N   UNL     1       1.200  -4.072   8.677  1.00  0.00    -0.353 N 
ATOM      3  C   UNL     1       2.102  -4.248   7.667  1.00  0.00     0.257 C 
ATOM      4  O   UNL     1       1.837  -5.098   6.816  1.00  0.00    -0.271 OA
ATOM      5  H   UNL     1       0.347  -4.551   8.571  1.00  0.00     0.163 HD
BRANCH   3   6
ATOM      6  C   UNL     1       3.425  -3.468   7.678  1.00  0.00     0.329 C 
BRANCH   6   7
ATOM      7  O   UNL     1       3.376  -2.057   7.816  1.00  0.00    -0.476 OA
BRANCH   7   8
ATOM      8  C   UNL     1       2.873  -1.262   6.795  1.00  0.00     0.211 A 
ATOM      9  C   UNL     1       0.849  -0.404   2.346  1.00  0.00    -0.047 A 
ATOM     10  C   UNL     1       0.654   0.924   2.752  1.00  0.00     0.007 A 
ATOM     11  C   UNL     1       1.462  -1.297   3.236  1.00  0.00     0.020 A 
ATOM     12  C   UNL     1       1.088   1.356   4.008  1.00  0.00     0.048 A 
ATOM     13  C   UNL     1       1.887  -0.860   4.497  1.00  0.00     0.069 A 
ATOM     14  C   UNL     1       1.706   0.460   4.878  1.00  0.00     0.138 A 
ATOM     15  C   UNL     1       2.551  -1.779   5.429  1.00  0.00     0.235 A 
ATOM     16  O   UNL     1       2.131   0.943   6.082  1.00  0.00    -0.452 OA
ATOM     17  O   UNL     1       2.853  -2.904   5.046  1.00  0.00    -0.285 OA
ATOM     18  C   UNL     1       2.693   0.063   6.994  1.00  0.00     0.180 A 
BRANCH   9  19
ATOM     19  C   UNL     1       0.385  -0.886   0.992  1.00  0.00     0.032 C 
ATOM     20  C   UNL     1       0.984  -0.100  -0.166  1.00  0.00     0.009 C 
ENDBRANCH   9  19
BRANCH  18  21
ATOM     21  C   UNL     1       3.124   0.758   8.227  1.00  0.00     0.021 A 
ATOM     22  C   UNL     1       2.241   1.608   8.910  1.00  0.00     0.012 A 
ATOM     23  C   UNL     1       4.452   0.670   8.672  1.00  0.00     0.012 A 
ATOM     24  C   UNL     1       2.676   2.344  10.016  1.00  0.00     0.001 A 
ATOM     25  C   UNL     1       4.886   1.407   9.776  1.00  0.00     0.001 A 
ATOM     26  C   UNL     1       3.998   2.245  10.447  1.00  0.00     0.000 A 
ENDBRANCH  18  21
ENDBRANCH   7   8
ENDBRANCH   6   7
ENDBRANCH   3   6
ENDBRANCH   1   2
BRANCH   1  27
ATOM     27  C   UNL     1       0.377  -2.083   9.896  1.00  0.00     0.042 C 
BRANCH  27  28
ATOM     28  C   UNL     1      -1.104  -2.429   9.756  1.00  0.00     0.118 C 
BRANCH  28  29
ATOM     29  N   UNL     1      -1.605  -3.284  10.824  1.00  0.00    -0.352 N 
ATOM     30  C   UNL     1      -2.653  -3.108  11.693  1.00  0.00     0.251 C 
ATOM     31  H   UNL     1      -1.110  -4.127  10.942  1.00  0.00     0.163 HD
ATOM     32  O   UNL     1      -2.821  -3.913  12.607  1.00  0.00    -0.269 OA
BRANCH  30  33
ATOM     33  C   UNL     1      -3.567  -1.951  11.568  1.00  0.00     0.039 A 
ATOM     34  C   UNL     1      -3.964  -1.285  12.732  1.00  0.00     0.014 A 
ATOM     35  C   UNL     1      -4.061  -1.535  10.329  1.00  0.00     0.014 A 
ATOM     36  C   UNL     1      -4.789  -0.160  12.649  1.00  0.00     0.010 A 
ATOM     37  C   UNL     1      -4.827  -0.373  10.239  1.00  0.00     0.010 A 
ATOM     38  C   UNL     1      -5.194   0.330  11.397  1.00  0.00    -0.014 A 
BRANCH  38  39
ATOM     39  C   UNL     1      -5.976   1.588  11.281  1.00  0.00     0.031 A 
ATOM     40  C   UNL     1      -7.374   1.573  10.727  1.00  0.00     0.074 A 
ATOM     41  C   UNL     1      -5.398   2.761  11.609  1.00  0.00     0.049 A 
ATOM     42  N   UNL     1      -8.177   2.579  10.487  1.00  0.00    -0.248 NA
ATOM     43  C   UNL     1      -7.935   0.259  10.375  1.00  0.00     0.031 C 
ATOM     44  C   UNL     1      -4.035   2.923  12.120  1.00  0.00     0.029 A 
ATOM     45  N   UNL     1      -5.884   4.044  11.550  1.00  0.00    -0.354 N 
ATOM     46  C   UNL     1      -9.326   2.024   9.938  1.00  0.00     0.074 A 
ATOM     47  C   UNL     1      -9.101   0.597   9.845  1.00  0.00     0.031 C 
ATOM     48  C   UNL     1      -3.802   4.226  12.346  1.00  0.00     0.029 A 
ATOM     49  C   UNL     1      -4.980   4.994  11.959  1.00  0.00     0.049 A 
ATOM     50  H   UNL     1      -6.794   4.263  11.243  1.00  0.00     0.167 HD
ATOM     51  C   UNL     1     -10.469   2.642   9.557  1.00  0.00     0.031 A 
ATOM     52  C   UNL     1      -5.081   6.336  12.009  1.00  0.00     0.031 A 
ATOM     53  C   UNL     1     -10.703   4.058   9.663  1.00  0.00     0.049 A 
ATOM     54  C   UNL     1      -6.360   6.997  11.579  1.00  0.00     0.074 A 
ATOM     55  C   UNL     1     -11.855   4.766   9.364  1.00  0.00     0.029 A 
ATOM     56  N   UNL     1      -9.768   4.983  10.099  1.00  0.00    -0.354 N 
ATOM     57  N   UNL     1      -7.461   6.449  11.127  1.00  0.00    -0.248 NA
ATOM     58  C   UNL     1      -6.412   8.463  11.677  1.00  0.00     0.031 C 
ATOM     59  C   UNL     1     -11.601   6.125   9.574  1.00  0.00     0.029 A 
ATOM     60  C   UNL     1     -10.308   6.257  10.053  1.00  0.00     0.049 A 
ATOM     61  H   UNL     1      -8.855   4.766  10.397  1.00  0.00     0.167 HD
ATOM     62  C   UNL     1      -8.345   7.498  10.912  1.00  0.00     0.074 A 
ATOM     63  C   UNL     1      -7.657   8.713  11.297  1.00  0.00     0.031 C 
ATOM     64  C   UNL     1      -9.613   7.458  10.438  1.00  0.00     0.031 A 
BRANCH  51  65
ATOM     65  C   UNL     1     -11.562   1.786   8.979  1.00  0.00    -0.014 A 
ATOM     66  C   UNL     1     -12.305   0.911   9.787  1.00  0.00     0.009 A 
ATOM     67  C   UNL     1     -11.882   1.891   7.617  1.00  0.00     0.009 A 
ATOM     68  C   UNL     1     -13.324   0.133   9.235  1.00  0.00     0.001 A 
ATOM     69  C   UNL     1     -12.920   1.132   7.073  1.00  0.00     0.001 A 
ATOM     70  C   UNL     1     -13.634   0.248   7.880  1.00  0.00     0.000 A 
ENDBRANCH  51  65
BRANCH  52  71
ATOM     71  C   UNL     1      -3.936   7.150  12.493  1.00  0.00    -0.014 A 
ATOM     72  C   UNL     1      -3.996   7.792  13.739  1.00  0.00     0.009 A 
ATOM     73  C   UNL     1      -2.781   7.295  11.708  1.00  0.00     0.009 A 
ATOM     74  C   UNL     1      -2.933   8.585  14.177  1.00  0.00     0.001 A 
ATOM     75  C   UNL     1      -1.709   8.066  12.161  1.00  0.00     0.001 A 
ATOM     76  C   UNL     1      -1.790   8.718  13.391  1.00  0.00     0.000 A 
ENDBRANCH  52  71
BRANCH  64  77
ATOM     77  C   UNL     1     -10.352   8.762  10.340  1.00  0.00    -0.014 A 
ATOM     78  C   UNL     1     -10.042   9.702   9.344  1.00  0.00     0.009 A 
ATOM     79  C   UNL     1     -11.398   9.037  11.234  1.00  0.00     0.009 A 
ATOM     80  C   UNL     1     -10.746  10.905   9.267  1.00  0.00     0.001 A 
ATOM     81  C   UNL     1     -12.118  10.228  11.137  1.00  0.00     0.001 A 
ATOM     82  C   UNL     1     -11.786  11.165  10.160  1.00  0.00     0.000 A 
ENDBRANCH  64  77
ENDBRANCH  38  39
ENDBRANCH  30  33
ENDBRANCH  28  29
ENDBRANCH  27  28
ENDBRANCH   1  27
TORSDOF 14
