REMARK SMILES O=C(NCCCNC(=O)[C@H]1CCCCC[C@@H]1NC(=O)c1cncc(Br)c1)c1ccc(-c2c3nc(c(-c4ccccc4)c4ccc([nH]4)c(-c4ccccc4)c4nc(c(-c5ccccc5)c5ccc2[nH]5)C=C4)C=C3)cc1
REMARK SMILES IDX 6 1 5 2 4 3 3 4 1 5 2 6 27 8 28 9 74 10 29 11 73 12 30 13
REMARK SMILES IDX 31 14 32 15 67 16 33 17 72 18 66 19 68 20 34 21 71 22 65 23
REMARK SMILES IDX 64 24 35 26 57 27 42 28 56 29 43 30 46 31 55 32 69 33 44 34
REMARK SMILES IDX 45 35 54 37 70 38 47 39 36 40 37 41 41 42 38 43 40 44 39 45
REMARK SMILES IDX 58 46 59 47 63 48 60 49 62 50 61 51 48 52 49 53 53 54 50 55
REMARK SMILES IDX 52 56 51 57 7 58 8 59 9 61 10 62 11 63 12 64 13 65 14 66
REMARK SMILES IDX 16 68 15 69 17 71 18 72 19 74 20 75 21 76 26 77 22 78 24 79
REMARK SMILES IDX 23 80 25 81
REMARK H PARENT 3 7 68 25 46 36 7 60 17 73
REMARK Flexibility Score: 90.00
ROOT
ATOM      1  C   UNL     1       9.204  -2.784   6.414  1.00  0.00     0.117 C 
ENDROOT
BRANCH   1   2
ATOM      2  C   UNL     1      10.317  -1.911   6.959  1.00  0.00     0.042 C 
BRANCH   2   3
ATOM      3  C   UNL     1      11.012  -2.602   8.121  1.00  0.00     0.118 C 
BRANCH   3   4
ATOM      4  N   UNL     1      11.745  -3.789   7.679  1.00  0.00    -0.352 N 
ATOM      5  O   UNL     1      13.514  -4.914   6.840  1.00  0.00    -0.269 OA
ATOM      6  C   UNL     1      13.092  -3.962   7.491  1.00  0.00     0.251 C 
ATOM      7  H   UNL     1      11.190  -4.579   7.490  1.00  0.00     0.163 HD
BRANCH   6   8
ATOM      8  C   UNL     1      14.027  -2.992   8.083  1.00  0.00     0.039 A 
ATOM      9  C   UNL     1      13.784  -2.499   9.366  1.00  0.00     0.014 A 
ATOM     10  C   UNL     1      15.152  -2.582   7.366  1.00  0.00     0.014 A 
ATOM     11  C   UNL     1      14.557  -1.468   9.865  1.00  0.00     0.010 A 
ATOM     12  C   UNL     1      16.009  -1.636   7.927  1.00  0.00     0.010 A 
ATOM     13  C   UNL     1      15.702  -1.058   9.170  1.00  0.00    -0.014 A 
BRANCH  13  14
ATOM     14  C   UNL     1      16.620  -0.094   9.811  1.00  0.00     0.031 A 
ATOM     15  C   UNL     1      16.900   1.236   9.185  1.00  0.00     0.074 A 
ATOM     16  C   UNL     1      17.207  -0.453  10.969  1.00  0.00     0.049 A 
ATOM     17  N   UNL     1      17.739   2.162   9.571  1.00  0.00    -0.248 NA
ATOM     18  C   UNL     1      16.154   1.567   7.961  1.00  0.00     0.031 C 
ATOM     19  C   UNL     1      16.993  -1.727  11.664  1.00  0.00     0.029 A 
ATOM     20  N   UNL     1      18.100   0.212  11.764  1.00  0.00    -0.354 N 
ATOM     21  C   UNL     1      17.652   3.168   8.619  1.00  0.00     0.074 A 
ATOM     22  C   UNL     1      16.689   2.734   7.630  1.00  0.00     0.031 C 
ATOM     23  C   UNL     1      17.711  -1.738  12.794  1.00  0.00     0.029 A 
ATOM     24  C   UNL     1      18.501  -0.517  12.855  1.00  0.00     0.049 A 
ATOM     25  H   UNL     1      18.422   1.123  11.573  1.00  0.00     0.167 HD
ATOM     26  C   UNL     1      18.325   4.343   8.577  1.00  0.00     0.031 A 
ATOM     27  C   UNL     1      19.442  -0.260  13.780  1.00  0.00     0.031 A 
ATOM     28  C   UNL     1      19.287   4.749   9.568  1.00  0.00     0.049 A 
ATOM     29  C   UNL     1      20.205   1.023  13.687  1.00  0.00     0.074 A 
ATOM     30  C   UNL     1      20.000   5.932   9.644  1.00  0.00     0.029 A 
ATOM     31  N   UNL     1      19.678   3.974  10.651  1.00  0.00    -0.354 N 
ATOM     32  N   UNL     1      20.094   1.981  12.799  1.00  0.00    -0.248 NA
ATOM     33  C   UNL     1      21.221   1.264  14.718  1.00  0.00     0.031 C 
ATOM     34  C   UNL     1      20.869   5.846  10.736  1.00  0.00     0.029 A 
ATOM     35  C   UNL     1      20.648   4.639  11.382  1.00  0.00     0.049 A 
ATOM     36  H   UNL     1      19.319   3.084  10.868  1.00  0.00     0.167 HD
ATOM     37  C   UNL     1      21.012   2.951  13.172  1.00  0.00     0.074 A 
ATOM     38  C   UNL     1      21.663   2.467  14.374  1.00  0.00     0.031 C 
ATOM     39  C   UNL     1      21.285   4.136  12.574  1.00  0.00     0.031 A 
BRANCH  26  40
ATOM     40  C   UNL     1      18.083   5.236   7.390  1.00  0.00    -0.014 A 
ATOM     41  C   UNL     1      16.857   5.891   7.194  1.00  0.00     0.009 A 
ATOM     42  C   UNL     1      19.109   5.427   6.451  1.00  0.00     0.009 A 
ATOM     43  C   UNL     1      16.648   6.678   6.058  1.00  0.00     0.001 A 
ATOM     44  C   UNL     1      18.909   6.239   5.333  1.00  0.00     0.001 A 
ATOM     45  C   UNL     1      17.674   6.853   5.130  1.00  0.00     0.000 A 
ENDBRANCH  26  40
BRANCH  27  46
ATOM     46  C   UNL     1      19.716  -1.273  14.829  1.00  0.00    -0.014 A 
ATOM     47  C   UNL     1      19.314  -1.061  16.154  1.00  0.00     0.009 A 
ATOM     48  C   UNL     1      20.311  -2.500  14.487  1.00  0.00     0.009 A 
ATOM     49  C   UNL     1      19.506  -2.055  17.116  1.00  0.00     0.001 A 
ATOM     50  C   UNL     1      20.473  -3.503  15.443  1.00  0.00     0.001 A 
ATOM     51  C   UNL     1      20.075  -3.277  16.759  1.00  0.00     0.000 A 
ENDBRANCH  27  46
BRANCH  39  52
ATOM     52  C   UNL     1      22.308   5.013  13.234  1.00  0.00    -0.014 A 
ATOM     53  C   UNL     1      23.678   4.720  13.160  1.00  0.00     0.009 A 
ATOM     54  C   UNL     1      21.893   6.189  13.880  1.00  0.00     0.009 A 
ATOM     55  C   UNL     1      24.613   5.582  13.736  1.00  0.00     0.001 A 
ATOM     56  C   UNL     1      22.831   7.062  14.430  1.00  0.00     0.001 A 
ATOM     57  C   UNL     1      24.189   6.755  14.362  1.00  0.00     0.000 A 
ENDBRANCH  39  52
ENDBRANCH  13  14
ENDBRANCH   6   8
ENDBRANCH   3   4
ENDBRANCH   2   3
ENDBRANCH   1   2
BRANCH   1  58
ATOM     58  N   UNL     1       8.041  -2.756   7.284  1.00  0.00    -0.356 N 
ATOM     59  C   UNL     1       6.808  -2.205   7.248  1.00  0.00     0.225 C 
ATOM     60  H   UNL     1       8.188  -3.270   8.111  1.00  0.00     0.163 HD
ATOM     61  O   UNL     1       6.164  -2.345   8.297  1.00  0.00    -0.275 OA
BRANCH  59  62
ATOM     62  C   UNL     1       6.135  -1.582   6.011  1.00  0.00     0.101 C 
BRANCH  62  63
ATOM     63  C   UNL     1       4.903  -0.753   6.435  1.00  0.00     0.015 C 
BRANCH  63  64
ATOM     64  C   UNL     1       5.209   0.509   7.228  1.00  0.00     0.001 C 
BRANCH  64  65
ATOM     65  C   UNL     1       5.516   1.703   6.341  1.00  0.00     0.000 C 
BRANCH  65  66
ATOM     66  C   UNL     1       6.758   1.529   5.480  1.00  0.00     0.002 CG0
ATOM     67  G   UNL     1       6.643   0.429   4.421  1.00  0.00     0.000 G0
ENDBRANCH  65  66
ENDBRANCH  64  65
ENDBRANCH  63  64
ENDBRANCH  62  63
BRANCH  62  68
ATOM     68  C   UNL     1       7.033  -0.981   4.923  1.00  0.00     0.094 C 
BRANCH  68  69
ATOM     69  C   UNL     1       6.643   0.429   4.421  1.00  0.00     0.026 CG0
ATOM     70  G   UNL     1       6.758   1.529   5.480  1.00  0.00     0.000 G0
ENDBRANCH  68  69
BRANCH  68  71
ATOM     71  N   UNL     1       7.250  -1.849   3.703  1.00  0.00    -0.348 N 
ATOM     72  C   UNL     1       7.430  -3.200   3.466  1.00  0.00     0.253 C 
ATOM     73  H   UNL     1       7.266  -1.322   2.872  1.00  0.00     0.164 HD
ATOM     74  O   UNL     1       8.126  -3.547   2.514  1.00  0.00    -0.269 OA
BRANCH  72  75
ATOM     75  C   UNL     1       6.836  -4.257   4.298  1.00  0.00     0.059 A 
ATOM     76  C   UNL     1       7.653  -5.183   4.932  1.00  0.00     0.124 A 
ATOM     77  C   UNL     1       5.458  -4.380   4.455  1.00  0.00     0.032 A 
ATOM     78  N   UNL     1       7.207  -6.071   5.856  1.00  0.00    -0.263 NA
ATOM     79  C   UNL     1       4.973  -5.270   5.409  1.00  0.00     0.037 A 
ATOM     80  C   UNL     1       5.874  -6.067   6.100  1.00  0.00     0.126 A 
ATOM     81  Br  UNL     1       3.132  -5.316   5.811  1.00  0.00    -0.049 Br
ENDBRANCH  72  75
ENDBRANCH  68  71
ENDBRANCH  62  68
ENDBRANCH  59  62
ENDBRANCH   1  58
TORSDOF 12
