REMARK SMILES C#CCN(CC(=O)NCCCNC(=O)c1ccc(-c2c3nc(c(-c4ccccc4)c4ccc([nH]4)c(-c4ccccc4)c4nc(c(-c5ccccc5)c5ccc2[nH]5)C=C4)C=C3)cc1)C(=O)CCNC(=O)C(C)(C)C
REMARK SMILES IDX 6 1 7 2 8 3 5 5 4 6 3 7 2 8 1 9 63 10 64 11 65 12 66 13
REMARK SMILES IDX 67 14 68 15 69 17 70 18 71 19 72 20 73 21 9 22 10 23 11 24
REMARK SMILES IDX 12 25 13 26 14 28 15 29 16 30 62 31 17 32 61 33 18 34 19 35
REMARK SMILES IDX 20 36 55 37 21 38 60 39 54 40 56 41 22 42 59 43 53 44 52 45
REMARK SMILES IDX 23 47 45 48 30 49 44 50 31 51 34 52 43 53 57 54 32 55 33 56
REMARK SMILES IDX 42 58 58 59 35 60 24 61 25 62 29 63 26 64 28 65 27 66 46 67
REMARK SMILES IDX 47 68 51 69 48 70 50 71 49 72 36 73 37 74 41 75 38 76 40 77
REMARK SMILES IDX 39 78
REMARK H PARENT 8 4 67 16 12 27 56 46 34 57
REMARK Flexibility Score: inf
ROOT
ATOM      1  C   UNL     1      -4.730   0.130  -1.983  1.00  0.00     0.239 C 
ATOM      2  O   UNL     1      -5.243   0.427  -3.064  1.00  0.00    -0.273 OA
ATOM      3  N   UNL     1      -5.517   0.209  -0.879  1.00  0.00    -0.354 N 
ATOM      4  H   UNL     1      -6.433   0.533  -1.037  1.00  0.00     0.163 HD
ENDROOT
BRANCH   1   5
ATOM      5  C   UNL     1      -3.273  -0.338  -1.887  1.00  0.00     0.220 C 
BRANCH   5   6
ATOM      6  N   UNL     1      -2.353   0.555  -1.168  1.00  0.00    -0.322 N 
BRANCH   6   7
ATOM      7  C   UNL     1      -1.764   0.044   0.066  1.00  0.00     0.209 C 
BRANCH   7   8
ATOM      8  C   UNL     1      -0.244   0.044   0.066  1.00  0.00    -0.085 C 
ATOM      9  C   UNL     1       1.060   0.044   0.066  1.00  0.00     0.006 C 
ENDBRANCH   7   8
ENDBRANCH   6   7
BRANCH   6  10
ATOM     10  C   UNL     1      -2.031   1.852  -1.550  1.00  0.00     0.225 C 
ATOM     11  O   UNL     1      -1.376   2.595  -0.812  1.00  0.00    -0.275 OA
BRANCH  10  12
ATOM     12  C   UNL     1      -2.494   2.405  -2.887  1.00  0.00     0.121 C 
BRANCH  12  13
ATOM     13  C   UNL     1      -1.541   2.086  -4.036  1.00  0.00     0.125 C 
BRANCH  13  14
ATOM     14  N   UNL     1      -1.738   0.754  -4.575  1.00  0.00    -0.355 N 
ATOM     15  C   UNL     1      -2.629   0.237  -5.463  1.00  0.00     0.225 C 
ATOM     16  H   UNL     1      -1.098   0.091  -4.228  1.00  0.00     0.163 HD
ATOM     17  O   UNL     1      -2.705  -0.998  -5.466  1.00  0.00    -0.275 OA
BRANCH  15  18
ATOM     18  C   UNL     1      -3.406   1.093  -6.486  1.00  0.00     0.041 C 
ATOM     19  C   UNL     1      -4.260   2.218  -5.895  1.00  0.00     0.021 C 
ATOM     20  C   UNL     1      -2.393   1.659  -7.490  1.00  0.00     0.021 C 
ATOM     21  C   UNL     1      -4.374   0.162  -7.256  1.00  0.00     0.021 C 
ENDBRANCH  15  18
ENDBRANCH  13  14
ENDBRANCH  12  13
ENDBRANCH  10  12
ENDBRANCH   6  10
ENDBRANCH   5   6
ENDBRANCH   1   5
BRANCH   3  22
ATOM     22  C   UNL     1      -5.207  -0.114   0.494  1.00  0.00     0.117 C 
BRANCH  22  23
ATOM     23  C   UNL     1      -4.969   1.136   1.333  1.00  0.00     0.042 C 
BRANCH  23  24
ATOM     24  C   UNL     1      -6.172   2.070   1.411  1.00  0.00     0.118 C 
BRANCH  24  25
ATOM     25  N   UNL     1      -7.362   1.401   1.912  1.00  0.00    -0.352 N 
ATOM     26  C   UNL     1      -8.089   1.610   3.054  1.00  0.00     0.251 C 
ATOM     27  H   UNL     1      -7.700   0.678   1.336  1.00  0.00     0.163 HD
ATOM     28  O   UNL     1      -8.913   0.770   3.402  1.00  0.00    -0.269 OA
BRANCH  26  29
ATOM     29  C   UNL     1      -7.899   2.833   3.862  1.00  0.00     0.039 A 
ATOM     30  C   UNL     1      -8.001   2.736   5.253  1.00  0.00     0.014 A 
ATOM     31  C   UNL     1      -7.699   4.079   3.263  1.00  0.00     0.014 A 
ATOM     32  C   UNL     1      -7.874   3.881   6.040  1.00  0.00     0.010 A 
ATOM     33  C   UNL     1      -7.491   5.207   4.051  1.00  0.00     0.010 A 
ATOM     34  C   UNL     1      -7.601   5.123   5.446  1.00  0.00    -0.014 A 
BRANCH  34  35
ATOM     35  C   UNL     1      -7.470   6.349   6.269  1.00  0.00     0.031 A 
ATOM     36  C   UNL     1      -8.475   7.461   6.132  1.00  0.00     0.074 A 
ATOM     37  C   UNL     1      -6.430   6.474   7.115  1.00  0.00     0.049 A 
ATOM     38  N   UNL     1      -8.520   8.613   6.752  1.00  0.00    -0.248 NA
ATOM     39  C   UNL     1      -9.557   7.264   5.154  1.00  0.00     0.031 C 
ATOM     40  C   UNL     1      -5.370   5.483   7.308  1.00  0.00     0.029 A 
ATOM     41  N   UNL     1      -6.097   7.491   7.973  1.00  0.00    -0.354 N 
ATOM     42  C   UNL     1      -9.620   9.280   6.228  1.00  0.00     0.074 A 
ATOM     43  C   UNL     1     -10.184   8.430   5.204  1.00  0.00     0.031 C 
ATOM     44  C   UNL     1      -4.523   5.926   8.252  1.00  0.00     0.029 A 
ATOM     45  C   UNL     1      -4.962   7.242   8.704  1.00  0.00     0.049 A 
ATOM     46  H   UNL     1      -6.622   8.320   8.057  1.00  0.00     0.167 HD
ATOM     47  C   UNL     1     -10.130  10.484   6.582  1.00  0.00     0.031 A 
ATOM     48  C   UNL     1      -4.345   7.991   9.637  1.00  0.00     0.031 A 
ATOM     49  C   UNL     1      -9.580  11.322   7.612  1.00  0.00     0.049 A 
ATOM     50  C   UNL     1      -4.931   9.323  10.011  1.00  0.00     0.074 A 
ATOM     51  C   UNL     1     -10.054  12.533   8.085  1.00  0.00     0.029 A 
ATOM     52  N   UNL     1      -8.431  11.032   8.331  1.00  0.00    -0.354 N 
ATOM     53  N   UNL     1      -6.010   9.909   9.553  1.00  0.00    -0.248 NA
ATOM     54  C   UNL     1      -4.217  10.091  11.041  1.00  0.00     0.031 C 
ATOM     55  C   UNL     1      -9.166  12.997   9.061  1.00  0.00     0.029 A 
ATOM     56  C   UNL     1      -8.168  12.051   9.230  1.00  0.00     0.049 A 
ATOM     57  H   UNL     1      -7.883  10.222   8.218  1.00  0.00     0.167 HD
ATOM     58  C   UNL     1      -6.119  11.103  10.255  1.00  0.00     0.074 A 
ATOM     59  C   UNL     1      -5.006  11.146  11.182  1.00  0.00     0.031 C 
ATOM     60  C   UNL     1      -7.054  12.077  10.142  1.00  0.00     0.031 A 
BRANCH  47  61
ATOM     61  C   UNL     1     -11.350  10.962   5.843  1.00  0.00    -0.014 A 
ATOM     62  C   UNL     1     -12.600  10.353   6.036  1.00  0.00     0.009 A 
ATOM     63  C   UNL     1     -11.254  12.053   4.966  1.00  0.00     0.009 A 
ATOM     64  C   UNL     1     -13.722  10.803   5.337  1.00  0.00     0.001 A 
ATOM     65  C   UNL     1     -12.384  12.519   4.290  1.00  0.00     0.001 A 
ATOM     66  C   UNL     1     -13.614  11.888   4.469  1.00  0.00     0.000 A 
ENDBRANCH  47  61
BRANCH  48  67
ATOM     67  C   UNL     1      -3.117   7.488  10.304  1.00  0.00    -0.014 A 
ATOM     68  C   UNL     1      -3.152   7.089  11.649  1.00  0.00     0.009 A 
ATOM     69  C   UNL     1      -1.903   7.410   9.604  1.00  0.00     0.009 A 
ATOM     70  C   UNL     1      -1.990   6.648  12.287  1.00  0.00     0.001 A 
ATOM     71  C   UNL     1      -0.749   6.944  10.237  1.00  0.00     0.001 A 
ATOM     72  C   UNL     1      -0.791   6.573  11.580  1.00  0.00     0.000 A 
ENDBRANCH  48  67
BRANCH  60  73
ATOM     73  C   UNL     1      -6.926  13.256  11.062  1.00  0.00    -0.014 A 
ATOM     74  C   UNL     1      -5.927  14.222  10.870  1.00  0.00     0.009 A 
ATOM     75  C   UNL     1      -7.840  13.417  12.116  1.00  0.00     0.009 A 
ATOM     76  C   UNL     1      -5.825  15.311  11.738  1.00  0.00     0.001 A 
ATOM     77  C   UNL     1      -7.752  14.521  12.964  1.00  0.00     0.001 A 
ATOM     78  C   UNL     1      -6.739  15.462  12.780  1.00  0.00     0.000 A 
ENDBRANCH  60  73
ENDBRANCH  34  35
ENDBRANCH  26  29
ENDBRANCH  24  25
ENDBRANCH  23  24
ENDBRANCH  22  23
ENDBRANCH   3  22
TORSDOF 18
