REMARK SMILES O=C(NCCCNC(=O)[C@@H](Cc1ccccc1)NS(=O)(=O)c1ccccc1C(F)(F)F)c1ccc(-c2c3nc(c(-c4ccccc4)c4ccc([nH]4)c(-c4ccccc4)c4nc(c(-c5ccccc5)c5ccc2[nH]5)C=C4)C=C3)cc1
REMARK SMILES IDX 6 1 5 2 4 3 3 4 1 5 2 6 32 8 33 9 79 10 34 11 78 12 35 13
REMARK SMILES IDX 36 14 37 15 72 16 38 17 77 18 71 19 73 20 39 21 76 22 70 23
REMARK SMILES IDX 69 24 40 26 62 27 47 28 61 29 48 30 51 31 60 32 74 33 49 34
REMARK SMILES IDX 50 35 59 37 75 38 52 39 41 40 42 41 46 42 43 43 45 44 44 45
REMARK SMILES IDX 63 46 64 47 68 48 65 49 67 50 66 51 53 52 54 53 58 54 55 55
REMARK SMILES IDX 57 56 56 57 7 58 8 59 9 61 10 62 11 63 12 64 13 65 17 66
REMARK SMILES IDX 14 67 16 68 15 69 18 70 19 72 20 73 21 74 22 75 23 76 27 77
REMARK SMILES IDX 24 78 26 79 25 80 28 81 29 82 30 83 31 84
REMARK H PARENT 3 7 73 25 51 36 7 60 18 71
REMARK Flexibility Score: inf
ROOT
ATOM      1  C   UNL     1       4.230  -0.663   3.652  1.00  0.00     0.117 C 
ENDROOT
BRANCH   1   2
ATOM      2  C   UNL     1       4.659  -0.935   2.187  1.00  0.00     0.042 C 
BRANCH   2   3
ATOM      3  C   UNL     1       3.769  -1.890   1.402  1.00  0.00     0.118 C 
BRANCH   3   4
ATOM      4  N   UNL     1       2.543  -1.255   0.941  1.00  0.00    -0.352 N 
ATOM      5  O   UNL     1       1.037  -0.018  -0.104  1.00  0.00    -0.269 OA
ATOM      6  C   UNL     1       2.178  -0.488  -0.140  1.00  0.00     0.251 C 
ATOM      7  H   UNL     1       1.789  -1.415   1.554  1.00  0.00     0.163 HD
BRANCH   6   8
ATOM      8  C   UNL     1       3.030  -0.170  -1.328  1.00  0.00     0.039 A 
ATOM      9  C   UNL     1       4.151  -0.893  -1.722  1.00  0.00     0.014 A 
ATOM     10  C   UNL     1       2.606   0.878  -2.173  1.00  0.00     0.014 A 
ATOM     11  C   UNL     1       4.872  -0.541  -2.869  1.00  0.00     0.010 A 
ATOM     12  C   UNL     1       3.270   1.170  -3.378  1.00  0.00     0.010 A 
ATOM     13  C   UNL     1       4.418   0.461  -3.740  1.00  0.00    -0.014 A 
BRANCH  13  14
ATOM     14  C   UNL     1       5.103   0.649  -5.053  1.00  0.00     0.031 A 
ATOM     15  C   UNL     1       5.767   1.946  -5.427  1.00  0.00     0.074 A 
ATOM     16  C   UNL     1       5.153  -0.392  -5.913  1.00  0.00     0.049 A 
ATOM     17  N   UNL     1       6.450   2.240  -6.507  1.00  0.00    -0.248 NA
ATOM     18  C   UNL     1       5.645   3.060  -4.476  1.00  0.00     0.031 C 
ATOM     19  C   UNL     1       4.525  -1.698  -5.690  1.00  0.00     0.029 A 
ATOM     20  N   UNL     1       5.779  -0.534  -7.127  1.00  0.00    -0.354 N 
ATOM     21  C   UNL     1       6.820   3.573  -6.377  1.00  0.00     0.074 A 
ATOM     22  C   UNL     1       6.263   4.039  -5.124  1.00  0.00     0.031 C 
ATOM     23  C   UNL     1       4.857  -2.526  -6.689  1.00  0.00     0.029 A 
ATOM     24  C   UNL     1       5.652  -1.793  -7.667  1.00  0.00     0.049 A 
ATOM     25  H   UNL     1       6.271   0.195  -7.569  1.00  0.00     0.167 HD
ATOM     26  C   UNL     1       7.556   4.338  -7.220  1.00  0.00     0.031 A 
ATOM     27  C   UNL     1       6.104  -2.307  -8.826  1.00  0.00     0.031 A 
ATOM     28  C   UNL     1       8.108   3.875  -8.469  1.00  0.00     0.049 A 
ATOM     29  C   UNL     1       6.898  -1.433  -9.751  1.00  0.00     0.074 A 
ATOM     30  C   UNL     1       8.897   4.567  -9.373  1.00  0.00     0.029 A 
ATOM     31  N   UNL     1       7.921   2.606  -8.996  1.00  0.00    -0.354 N 
ATOM     32  N   UNL     1       7.274  -0.188  -9.586  1.00  0.00    -0.248 NA
ATOM     33  C   UNL     1       7.327  -2.032 -11.022  1.00  0.00     0.031 C 
ATOM     34  C   UNL     1       9.138   3.737 -10.473  1.00  0.00     0.029 A 
ATOM     35  C   UNL     1       8.553   2.505 -10.226  1.00  0.00     0.049 A 
ATOM     36  H   UNL     1       7.415   1.883  -8.560  1.00  0.00     0.167 HD
ATOM     37  C   UNL     1       7.991   0.144 -10.726  1.00  0.00     0.074 A 
ATOM     38  C   UNL     1       8.022  -1.040 -11.562  1.00  0.00     0.031 C 
ATOM     39  C   UNL     1       8.567   1.326 -11.053  1.00  0.00     0.031 A 
BRANCH  26  40
ATOM     40  C   UNL     1       7.780   5.778  -6.837  1.00  0.00    -0.014 A 
ATOM     41  C   UNL     1       8.618   6.132  -5.768  1.00  0.00     0.009 A 
ATOM     42  C   UNL     1       7.169   6.798  -7.584  1.00  0.00     0.009 A 
ATOM     43  C   UNL     1       8.805   7.476  -5.429  1.00  0.00     0.001 A 
ATOM     44  C   UNL     1       7.382   8.141  -7.262  1.00  0.00     0.001 A 
ATOM     45  C   UNL     1       8.190   8.478  -6.179  1.00  0.00     0.000 A 
ENDBRANCH  26  40
BRANCH  27  46
ATOM     46  C   UNL     1       5.785  -3.715  -9.186  1.00  0.00    -0.014 A 
ATOM     47  C   UNL     1       6.788  -4.694  -9.233  1.00  0.00     0.009 A 
ATOM     48  C   UNL     1       4.460  -4.089  -9.467  1.00  0.00     0.009 A 
ATOM     49  C   UNL     1       6.473  -6.014  -9.570  1.00  0.00     0.001 A 
ATOM     50  C   UNL     1       4.144  -5.415  -9.768  1.00  0.00     0.001 A 
ATOM     51  C   UNL     1       5.152  -6.374  -9.828  1.00  0.00     0.000 A 
ENDBRANCH  27  46
BRANCH  39  52
ATOM     52  C   UNL     1       9.301   1.387 -12.363  1.00  0.00    -0.014 A 
ATOM     53  C   UNL     1       8.612   1.386 -13.586  1.00  0.00     0.009 A 
ATOM     54  C   UNL     1      10.702   1.472 -12.371  1.00  0.00     0.009 A 
ATOM     55  C   UNL     1       9.314   1.434 -14.792  1.00  0.00     0.001 A 
ATOM     56  C   UNL     1      11.399   1.551 -13.578  1.00  0.00     0.001 A 
ATOM     57  C   UNL     1      10.706   1.522 -14.786  1.00  0.00     0.000 A 
ENDBRANCH  39  52
ENDBRANCH  13  14
ENDBRANCH   6   8
ENDBRANCH   3   4
ENDBRANCH   2   3
ENDBRANCH   1   2
BRANCH   1  58
ATOM     58  N   UNL     1       5.327  -0.978   4.575  1.00  0.00    -0.355 N 
ATOM     59  C   UNL     1       6.252  -0.330   5.328  1.00  0.00     0.238 C 
ATOM     60  H   UNL     1       5.420  -1.953   4.679  1.00  0.00     0.163 HD
ATOM     61  O   UNL     1       7.074  -1.098   5.857  1.00  0.00    -0.273 OA
BRANCH  59  62
ATOM     62  C   UNL     1       6.377   1.185   5.632  1.00  0.00     0.163 C 
BRANCH  62  63
ATOM     63  C   UNL     1       7.107   2.066   4.589  1.00  0.00     0.065 C 
BRANCH  63  64
ATOM     64  C   UNL     1       6.296   2.933   3.657  1.00  0.00    -0.046 A 
ATOM     65  C   UNL     1       6.393   4.325   3.612  1.00  0.00     0.004 A 
ATOM     66  C   UNL     1       5.433   2.330   2.762  1.00  0.00     0.004 A 
ATOM     67  C   UNL     1       5.564   5.069   2.762  1.00  0.00     0.000 A 
ATOM     68  C   UNL     1       4.572   3.046   1.936  1.00  0.00     0.000 A 
ATOM     69  C   UNL     1       4.633   4.429   1.944  1.00  0.00     0.000 A 
ENDBRANCH  63  64
ENDBRANCH  62  63
BRANCH  62  70
ATOM     70  N   UNL     1       5.167   1.736   6.265  1.00  0.00    -0.198 NA
ATOM     71  H   UNL     1       4.792   0.995   6.858  1.00  0.00     0.142 HD
BRANCH  70  72
ATOM     72  S   UNL     1       5.214   3.120   7.215  1.00  0.00     0.241 S 
ATOM     73  O   UNL     1       6.047   4.090   6.536  1.00  0.00    -0.207 OA
ATOM     74  O   UNL     1       3.852   3.390   7.585  1.00  0.00    -0.207 OA
BRANCH  72  75
ATOM     75  C   UNL     1       6.082   2.720   8.720  1.00  0.00     0.094 A 
ATOM     76  C   UNL     1       6.202   1.382   9.119  1.00  0.00     0.022 A 
ATOM     77  C   UNL     1       6.716   3.747   9.456  1.00  0.00     0.076 A 
ATOM     78  C   UNL     1       6.986   1.053  10.226  1.00  0.00     0.001 A 
ATOM     79  C   UNL     1       7.511   3.383  10.561  1.00  0.00     0.014 A 
ATOM     80  C   UNL     1       7.648   2.049  10.940  1.00  0.00     0.001 A 
BRANCH  77  81
ATOM     81  C   UNL     1       6.613   5.220   9.116  1.00  0.00     0.417 C 
ATOM     82  F   UNL     1       6.756   6.006  10.227  1.00  0.00    -0.166 F 
ATOM     83  F   UNL     1       7.593   5.631   8.267  1.00  0.00    -0.166 F 
ATOM     84  F   UNL     1       5.426   5.601   8.581  1.00  0.00    -0.166 F 
ENDBRANCH  77  81
ENDBRANCH  72  75
ENDBRANCH  70  72
ENDBRANCH  62  70
ENDBRANCH  59  62
ENDBRANCH   1  58
TORSDOF 16
