REMARK SMILES Cc1ccccc1C(=O)Nc1cc(C(=O)NCCCNC(=O)c2ccc(-c3c4nc(c(-c5ccccc5)c5ccc([nH]5)c(-c5ccccc5)c5nc(c(-c6ccccc6)c6ccc3[nH]6)C=C5)C=C4)cc2)ccc1N1CC[NH+](CC(=O)Nc2ccc(F)cc2)CC1
REMARK SMILES IDX 17 1 16 2 14 3 15 4 13 6 11 7 12 8 73 9 72 10 71 11 10 12
REMARK SMILES IDX 8 13 9 14 7 16 1 17 2 18 3 19 4 20 6 21 5 22 74 23 75 24
REMARK SMILES IDX 90 25 76 26 89 27 77 28 78 30 79 31 80 32 81 33 82 35 83 36
REMARK SMILES IDX 88 37 84 38 87 39 85 40 86 41 18 42 19 43 20 44 21 45 22 47
REMARK SMILES IDX 23 48 24 49 70 50 25 51 69 52 26 53 27 54 28 55 63 56 29 57
REMARK SMILES IDX 68 58 62 59 64 60 30 61 67 62 61 63 60 64 31 66 53 67 38 68
REMARK SMILES IDX 52 69 39 70 42 71 51 72 65 73 40 74 41 75 50 77 66 78 43 79
REMARK SMILES IDX 32 80 33 81 37 82 34 83 36 84 35 85 54 86 55 87 59 88 56 89
REMARK SMILES IDX 58 90 57 91 44 92 45 93 49 94 46 95 48 96 47 97
REMARK H PARENT 16 5 10 15 77 29 81 34 20 46 64 65 42 76
REMARK Flexibility Score: inf
ROOT
ATOM      1  C   UNL     1       1.058  -1.225  -2.958  1.00  0.00     0.118 C 
ENDROOT
BRANCH   1   2
ATOM      2  N   UNL     1       2.300  -1.994  -3.058  1.00  0.00    -0.352 N 
ATOM      3  C   UNL     1       3.526  -1.925  -2.421  1.00  0.00     0.251 C 
ATOM      4  O   UNL     1       4.310  -2.858  -2.601  1.00  0.00    -0.269 OA
ATOM      5  H   UNL     1       2.252  -2.717  -3.724  1.00  0.00     0.163 HD
BRANCH   3   6
ATOM      6  C   UNL     1       3.970  -0.796  -1.546  1.00  0.00     0.042 A 
ATOM      7  C   UNL     1       3.611   1.378  -0.519  1.00  0.00     0.065 A 
ATOM      8  C   UNL     1       3.201   0.325  -1.325  1.00  0.00     0.042 A 
ATOM      9  C   UNL     1       4.876   1.387   0.120  1.00  0.00     0.061 A 
ATOM     10  C   UNL     1       5.671   0.253  -0.117  1.00  0.00     0.029 A 
ATOM     11  C   UNL     1       5.223  -0.824  -0.922  1.00  0.00     0.016 A 
BRANCH   7  12
ATOM     12  N   UNL     1       2.724   2.457  -0.397  1.00  0.00    -0.320 N 
ATOM     13  C   UNL     1       1.387   2.483  -0.045  1.00  0.00     0.255 C 
ATOM     14  O   UNL     1       0.876   3.592   0.144  1.00  0.00    -0.269 OA
ATOM     15  H   UNL     1       3.116   3.338  -0.595  1.00  0.00     0.170 HD
BRANCH  13  16
ATOM     16  C   UNL     1       0.514   1.278   0.126  1.00  0.00     0.043 A 
ATOM     17  C   UNL     1       2.011  -0.181   1.668  1.00  0.00     0.045 C 
ATOM     18  C   UNL     1       0.785   0.091   0.842  1.00  0.00    -0.038 A 
ATOM     19  C   UNL     1      -0.170  -0.951   0.816  1.00  0.00     0.004 A 
ATOM     20  C   UNL     1      -1.403  -0.795   0.186  1.00  0.00     0.000 A 
ATOM     21  C   UNL     1      -0.757   1.426  -0.471  1.00  0.00     0.014 A 
ATOM     22  C   UNL     1      -1.708   0.405  -0.438  1.00  0.00     0.001 A 
ENDBRANCH  13  16
ENDBRANCH   7  12
BRANCH   9  23
ATOM     23  N   UNL     1       5.274   2.409   0.974  1.00  0.00    -0.359 N 
ATOM     24  C   UNL     1       6.646   2.575   1.527  1.00  0.00     0.178 C 
ATOM     25  C   UNL     1       4.289   3.053   1.838  1.00  0.00     0.178 C 
ATOM     26  C   UNL     1       6.893   4.014   2.158  1.00  0.00     0.284 C 
ATOM     27  C   UNL     1       4.588   4.551   1.805  1.00  0.00     0.284 C 
ATOM     28  N   UNL     1       5.749   4.832   2.637  1.00  0.00    -0.324 N 
ATOM     29  H   UNL     1       6.059   5.798   2.526  1.00  0.00     0.348 HD
BRANCH  28  30
ATOM     30  C   UNL     1       5.442   4.852   4.088  1.00  0.00     0.364 C 
BRANCH  30  31
ATOM     31  C   UNL     1       5.254   3.515   4.804  1.00  0.00     0.279 C 
ATOM     32  O   UNL     1       6.242   2.792   5.006  1.00  0.00    -0.268 OA
ATOM     33  N   UNL     1       4.068   3.045   5.303  1.00  0.00    -0.321 N 
ATOM     34  H   UNL     1       4.224   2.349   5.982  1.00  0.00     0.170 HD
BRANCH  33  35
ATOM     35  C   UNL     1       2.685   3.272   5.121  1.00  0.00     0.041 A 
ATOM     36  C   UNL     1       1.821   2.460   5.881  1.00  0.00     0.029 A 
ATOM     37  C   UNL     1       2.103   4.126   4.190  1.00  0.00     0.029 A 
ATOM     38  C   UNL     1       0.435   2.461   5.669  1.00  0.00     0.041 A 
ATOM     39  C   UNL     1       0.723   4.088   3.927  1.00  0.00     0.041 A 
ATOM     40  C   UNL     1      -0.100   3.255   4.668  1.00  0.00     0.123 A 
ATOM     41  F   UNL     1      -1.416   3.222   4.423  1.00  0.00    -0.207 F 
ENDBRANCH  33  35
ENDBRANCH  30  31
ENDBRANCH  28  30
ENDBRANCH   9  23
ENDBRANCH   3   6
ENDBRANCH   1   2
BRANCH   1  42
ATOM     42  C   UNL     1       1.083   0.115  -3.712  1.00  0.00     0.042 C 
BRANCH  42  43
ATOM     43  C   UNL     1       0.410   0.074  -5.064  1.00  0.00     0.118 C 
BRANCH  43  44
ATOM     44  N   UNL     1      -0.798   0.896  -5.175  1.00  0.00    -0.352 N 
ATOM     45  C   UNL     1      -1.665   0.960  -6.261  1.00  0.00     0.251 C 
ATOM     46  H   UNL     1      -1.019   1.462  -4.400  1.00  0.00     0.163 HD
ATOM     47  O   UNL     1      -2.673   1.634  -6.246  1.00  0.00    -0.269 OA
BRANCH  45  48
ATOM     48  C   UNL     1      -1.365   0.053  -7.396  1.00  0.00     0.039 A 
ATOM     49  C   UNL     1      -2.221  -1.039  -7.552  1.00  0.00     0.014 A 
ATOM     50  C   UNL     1      -0.070   0.040  -7.909  1.00  0.00     0.014 A 
ATOM     51  C   UNL     1      -1.680  -2.253  -7.955  1.00  0.00     0.010 A 
ATOM     52  C   UNL     1       0.490  -1.189  -8.202  1.00  0.00     0.010 A 
ATOM     53  C   UNL     1      -0.298  -2.345  -8.141  1.00  0.00    -0.014 A 
BRANCH  53  54
ATOM     54  C   UNL     1       0.391  -3.629  -8.192  1.00  0.00     0.031 A 
ATOM     55  C   UNL     1       0.799  -4.162  -9.502  1.00  0.00     0.074 A 
ATOM     56  C   UNL     1       0.598  -4.379  -7.085  1.00  0.00     0.049 A 
ATOM     57  N   UNL     1       0.755  -5.411  -9.828  1.00  0.00    -0.248 NA
ATOM     58  C   UNL     1       1.220  -3.286 -10.587  1.00  0.00     0.031 C 
ATOM     59  C   UNL     1       1.365  -5.620  -7.000  1.00  0.00     0.029 A 
ATOM     60  N   UNL     1      -0.058  -4.304  -5.856  1.00  0.00    -0.354 N 
ATOM     61  C   UNL     1       1.433  -5.533 -11.018  1.00  0.00     0.074 A 
ATOM     62  C   UNL     1       1.590  -4.181 -11.504  1.00  0.00     0.031 C 
ATOM     63  C   UNL     1       0.897  -6.342  -5.970  1.00  0.00     0.029 A 
ATOM     64  C   UNL     1      -0.243  -5.629  -5.421  1.00  0.00     0.049 A 
ATOM     65  H   UNL     1      -0.336  -3.486  -5.385  1.00  0.00     0.167 HD
ATOM     66  C   UNL     1       1.950  -6.740 -11.386  1.00  0.00     0.031 A 
ATOM     67  C   UNL     1      -1.459  -6.170  -5.127  1.00  0.00     0.031 A 
ATOM     68  C   UNL     1       1.593  -7.803 -10.446  1.00  0.00     0.049 A 
ATOM     69  C   UNL     1      -1.780  -7.397  -5.953  1.00  0.00     0.074 A 
ATOM     70  C   UNL     1       2.297  -8.441  -9.436  1.00  0.00     0.029 A 
ATOM     71  N   UNL     1       0.258  -8.154 -10.272  1.00  0.00    -0.354 N 
ATOM     72  N   UNL     1      -1.110  -7.755  -7.012  1.00  0.00    -0.248 NA
ATOM     73  C   UNL     1      -2.924  -8.270  -5.700  1.00  0.00     0.031 C 
ATOM     74  C   UNL     1       1.368  -9.135  -8.620  1.00  0.00     0.029 A 
ATOM     75  C   UNL     1       0.103  -8.935  -9.143  1.00  0.00     0.049 A 
ATOM     76  H   UNL     1      -0.475  -7.883 -10.871  1.00  0.00     0.167 HD
ATOM     77  C   UNL     1      -1.701  -8.851  -7.586  1.00  0.00     0.074 A 
ATOM     78  C   UNL     1      -2.826  -9.145  -6.717  1.00  0.00     0.031 C 
ATOM     79  C   UNL     1      -1.216  -9.407  -8.736  1.00  0.00     0.031 A 
BRANCH  66  80
ATOM     80  C   UNL     1       3.064  -6.858 -12.405  1.00  0.00    -0.014 A 
ATOM     81  C   UNL     1       4.006  -7.897 -12.294  1.00  0.00     0.009 A 
ATOM     82  C   UNL     1       3.292  -5.940 -13.444  1.00  0.00     0.009 A 
ATOM     83  C   UNL     1       5.164  -7.941 -13.083  1.00  0.00     0.001 A 
ATOM     84  C   UNL     1       4.470  -5.945 -14.204  1.00  0.00     0.001 A 
ATOM     85  C   UNL     1       5.416  -6.940 -14.012  1.00  0.00     0.000 A 
ENDBRANCH  66  80
BRANCH  67  86
ATOM     86  C   UNL     1      -2.462  -5.175  -4.664  1.00  0.00    -0.014 A 
ATOM     87  C   UNL     1      -2.223  -4.528  -3.435  1.00  0.00     0.009 A 
ATOM     88  C   UNL     1      -3.357  -4.591  -5.571  1.00  0.00     0.009 A 
ATOM     89  C   UNL     1      -2.749  -3.258  -3.184  1.00  0.00     0.001 A 
ATOM     90  C   UNL     1      -3.893  -3.325  -5.305  1.00  0.00     0.001 A 
ATOM     91  C   UNL     1      -3.554  -2.642  -4.137  1.00  0.00     0.000 A 
ENDBRANCH  67  86
BRANCH  79  92
ATOM     92  C   UNL     1      -1.868 -10.500  -9.552  1.00  0.00    -0.014 A 
ATOM     93  C   UNL     1      -3.225 -10.842  -9.495  1.00  0.00     0.009 A 
ATOM     94  C   UNL     1      -1.094 -11.174 -10.525  1.00  0.00     0.009 A 
ATOM     95  C   UNL     1      -3.765 -11.841 -10.320  1.00  0.00     0.001 A 
ATOM     96  C   UNL     1      -1.636 -12.137 -11.381  1.00  0.00     0.001 A 
ATOM     97  C   UNL     1      -2.973 -12.482 -11.267  1.00  0.00     0.000 A 
ENDBRANCH  79  92
ENDBRANCH  53  54
ENDBRANCH  45  48
ENDBRANCH  43  44
ENDBRANCH  42  43
ENDBRANCH   1  42
TORSDOF 16
