REMARK SMILES CC[C@@H]1CCCN(S(=O)(=O)c2cc(C(=O)NCCCNC(=O)c3ccc(-c4c5nc(c(-c6ccccc6)c6ccc([nH]6)c(-c6ccccc6)c6nc(c(-c7ccccc7)c7ccc4[nH]7)C=C6)C=C5)cc3)ccc2F)C1
REMARK SMILES IDX 17 1 16 2 14 3 15 4 13 6 11 7 12 8 73 9 72 10 74 11 71 12
REMARK SMILES IDX 8 13 9 14 10 15 7 16 3 17 4 18 75 19 5 20 6 21 2 22 1 23
REMARK SMILES IDX 18 24 19 25 20 26 21 27 22 29 23 30 24 31 70 32 25 33 69 34
REMARK SMILES IDX 26 35 27 36 28 37 63 38 29 39 68 40 62 41 64 42 30 43 67 44
REMARK SMILES IDX 61 45 60 46 31 48 53 49 38 50 52 51 39 52 42 53 51 54 65 55
REMARK SMILES IDX 40 56 41 57 50 59 66 60 43 61 32 62 33 63 37 64 34 65 36 66
REMARK SMILES IDX 35 67 54 68 55 69 59 70 56 71 58 72 57 73 44 74 45 75 49 76
REMARK SMILES IDX 46 77 48 78 47 79
REMARK H PARENT 16 5 20 28 64 47 42 58
REMARK Flexibility Score: inf
ROOT
ATOM      1  C   UNL     1       1.610   7.740  -4.099  1.00  0.00     0.118 C 
ENDROOT
BRANCH   1   2
ATOM      2  N   UNL     1       2.704   6.787  -4.095  1.00  0.00    -0.352 N 
ATOM      3  C   UNL     1       3.151   5.877  -3.171  1.00  0.00     0.251 C 
ATOM      4  O   UNL     1       4.042   5.109  -3.538  1.00  0.00    -0.269 OA
ATOM      5  H   UNL     1       3.233   6.796  -4.925  1.00  0.00     0.163 HD
BRANCH   3   6
ATOM      6  C   UNL     1       2.644   5.764  -1.769  1.00  0.00     0.041 A 
ATOM      7  C   UNL     1       2.615   4.442   0.290  1.00  0.00     0.119 A 
ATOM      8  C   UNL     1       2.943   4.576  -1.069  1.00  0.00     0.038 A 
ATOM      9  C   UNL     1       2.003   5.494   0.956  1.00  0.00     0.143 A 
ATOM     10  C   UNL     1       1.670   6.656   0.275  1.00  0.00     0.041 A 
ATOM     11  F   UNL     1       1.707   5.428   2.260  1.00  0.00    -0.206 F 
ATOM     12  C   UNL     1       2.004   6.796  -1.074  1.00  0.00     0.017 A 
BRANCH   7  13
ATOM     13  S   UNL     1       3.184   3.050   1.216  1.00  0.00     0.246 S 
ATOM     14  O   UNL     1       3.664   3.526   2.498  1.00  0.00    -0.207 OA
ATOM     15  O   UNL     1       4.067   2.292   0.354  1.00  0.00    -0.207 OA
BRANCH  13  16
ATOM     16  N   UNL     1       1.799   2.053   1.508  1.00  0.00    -0.197 NA
ATOM     17  C   UNL     1       1.063  -0.201   2.385  1.00  0.00     0.004 C 
ATOM     18  C   UNL     1      -0.094   0.493   3.114  1.00  0.00     0.006 C 
ATOM     19  C   UNL     1       2.229   0.774   2.180  1.00  0.00     0.106 C 
ATOM     20  C   UNL     1      -0.497   1.786   2.429  1.00  0.00     0.017 C 
ATOM     21  C   UNL     1       0.697   2.717   2.262  1.00  0.00     0.102 C 
BRANCH  17  22
ATOM     22  C   UNL     1       0.608  -0.970   1.123  1.00  0.00     0.001 C 
ATOM     23  C   UNL     1       0.760  -0.277  -0.223  1.00  0.00     0.004 C 
ENDBRANCH  17  22
ENDBRANCH  13  16
ENDBRANCH   7  13
ENDBRANCH   3   6
ENDBRANCH   1   2
BRANCH   1  24
ATOM     24  C   UNL     1       2.071   9.153  -3.734  1.00  0.00     0.042 C 
BRANCH  24  25
ATOM     25  C   UNL     1       2.802   9.884  -4.857  1.00  0.00     0.118 C 
BRANCH  25  26
ATOM     26  N   UNL     1       1.905  10.260  -5.940  1.00  0.00    -0.352 N 
ATOM     27  C   UNL     1       1.593  11.494  -6.452  1.00  0.00     0.251 C 
ATOM     28  H   UNL     1       1.448   9.505  -6.376  1.00  0.00     0.163 HD
ATOM     29  O   UNL     1       0.642  11.594  -7.225  1.00  0.00    -0.269 OA
BRANCH  27  30
ATOM     30  C   UNL     1       2.370  12.704  -6.096  1.00  0.00     0.039 A 
ATOM     31  C   UNL     1       1.687  13.918  -5.955  1.00  0.00     0.014 A 
ATOM     32  C   UNL     1       3.763  12.678  -5.984  1.00  0.00     0.014 A 
ATOM     33  C   UNL     1       2.391  15.092  -5.670  1.00  0.00     0.010 A 
ATOM     34  C   UNL     1       4.459  13.838  -5.638  1.00  0.00     0.010 A 
ATOM     35  C   UNL     1       3.782  15.058  -5.491  1.00  0.00    -0.014 A 
BRANCH  35  36
ATOM     36  C   UNL     1       4.548  16.291  -5.180  1.00  0.00     0.031 A 
ATOM     37  C   UNL     1       5.535  16.840  -6.175  1.00  0.00     0.074 A 
ATOM     38  C   UNL     1       4.401  16.888  -3.982  1.00  0.00     0.049 A 
ATOM     39  N   UNL     1       6.354  17.855  -6.053  1.00  0.00    -0.248 NA
ATOM     40  C   UNL     1       5.630  16.143  -7.467  1.00  0.00     0.031 C 
ATOM     41  C   UNL     1       3.498  16.445  -2.918  1.00  0.00     0.029 A 
ATOM     42  N   UNL     1       5.020  17.994  -3.454  1.00  0.00    -0.354 N 
ATOM     43  C   UNL     1       7.078  17.900  -7.239  1.00  0.00     0.074 A 
ATOM     44  C   UNL     1       6.625  16.792  -8.052  1.00  0.00     0.031 C 
ATOM     45  C   UNL     1       3.609  17.280  -1.872  1.00  0.00     0.029 A 
ATOM     46  C   UNL     1       4.614  18.294  -2.176  1.00  0.00     0.049 A 
ATOM     47  H   UNL     1       5.691  18.521  -3.944  1.00  0.00     0.167 HD
ATOM     48  C   UNL     1       8.024  18.790  -7.623  1.00  0.00     0.031 A 
ATOM     49  C   UNL     1       5.011  19.271  -1.340  1.00  0.00     0.031 A 
ATOM     50  C   UNL     1       8.461  19.905  -6.827  1.00  0.00     0.049 A 
ATOM     51  C   UNL     1       6.058  20.249  -1.791  1.00  0.00     0.074 A 
ATOM     52  C   UNL     1       9.377  20.892  -7.151  1.00  0.00     0.029 A 
ATOM     53  N   UNL     1       8.009  20.184  -5.547  1.00  0.00    -0.354 N 
ATOM     54  N   UNL     1       6.698  20.305  -2.934  1.00  0.00    -0.248 NA
ATOM     55  C   UNL     1       6.430  21.305  -0.839  1.00  0.00     0.031 C 
ATOM     56  C   UNL     1       9.504  21.749  -6.053  1.00  0.00     0.029 A 
ATOM     57  C   UNL     1       8.636  21.319  -5.062  1.00  0.00     0.049 A 
ATOM     58  H   UNL     1       7.340  19.654  -5.055  1.00  0.00     0.167 HD
ATOM     59  C   UNL     1       7.527  21.416  -2.848  1.00  0.00     0.074 A 
ATOM     60  C   UNL     1       7.301  22.010  -1.547  1.00  0.00     0.031 C 
ATOM     61  C   UNL     1       8.397  21.900  -3.767  1.00  0.00     0.031 A 
BRANCH  48  62
ATOM     62  C   UNL     1       8.659  18.584  -8.969  1.00  0.00    -0.014 A 
ATOM     63  C   UNL     1       7.950  18.837 -10.154  1.00  0.00     0.009 A 
ATOM     64  C   UNL     1       9.994  18.157  -9.054  1.00  0.00     0.009 A 
ATOM     65  C   UNL     1       8.553  18.631 -11.397  1.00  0.00     0.001 A 
ATOM     66  C   UNL     1      10.602  17.978 -10.297  1.00  0.00     0.001 A 
ATOM     67  C   UNL     1       9.879  18.206 -11.467  1.00  0.00     0.000 A 
ENDBRANCH  48  62
BRANCH  49  68
ATOM     68  C   UNL     1       4.401  19.386   0.009  1.00  0.00    -0.014 A 
ATOM     69  C   UNL     1       3.495  20.419   0.291  1.00  0.00     0.009 A 
ATOM     70  C   UNL     1       4.720  18.465   1.018  1.00  0.00     0.009 A 
ATOM     71  C   UNL     1       2.938  20.543   1.566  1.00  0.00     0.001 A 
ATOM     72  C   UNL     1       4.142  18.577   2.285  1.00  0.00     0.001 A 
ATOM     73  C   UNL     1       3.259  19.619   2.560  1.00  0.00     0.000 A 
ENDBRANCH  49  68
BRANCH  61  74
ATOM     74  C   UNL     1       9.141  23.154  -3.411  1.00  0.00    -0.014 A 
ATOM     75  C   UNL     1      10.205  23.134  -2.497  1.00  0.00     0.009 A 
ATOM     76  C   UNL     1       8.795  24.365  -4.030  1.00  0.00     0.009 A 
ATOM     77  C   UNL     1      10.889  24.311  -2.187  1.00  0.00     0.001 A 
ATOM     78  C   UNL     1       9.496  25.535  -3.736  1.00  0.00     0.001 A 
ATOM     79  C   UNL     1      10.537  25.509  -2.810  1.00  0.00     0.000 A 
ENDBRANCH  61  74
ENDBRANCH  35  36
ENDBRANCH  27  30
ENDBRANCH  25  26
ENDBRANCH  24  25
ENDBRANCH   1  24
TORSDOF 13
