REMARK SMILES CCc1c(C(=O)NCC(=O)NCCCNC(=O)c2ccc(-c3c4nc(c(-c5ccccc5)c5ccc([nH]5)c(-c5ccccc5)c5nc(c(-c6ccccc6)c6ccc3[nH]6)C=C5)C=C4)cc2)nnn1-c1ccc(Cl)cc1
REMARK SMILES IDX 12 1 11 2 9 3 10 4 8 6 7 7 5 8 6 9 4 11 3 12 68 13 66 14
REMARK SMILES IDX 67 15 2 16 1 17 69 18 70 19 75 20 71 21 74 22 72 23 73 24
REMARK SMILES IDX 13 25 14 26 15 27 16 28 17 30 18 31 19 32 65 33 20 34 64 35
REMARK SMILES IDX 21 36 22 37 23 38 58 39 24 40 63 41 57 42 59 43 25 44 62 45
REMARK SMILES IDX 56 46 55 47 26 49 48 50 33 51 47 52 34 53 37 54 46 55 60 56
REMARK SMILES IDX 35 57 36 58 45 60 61 61 38 62 27 63 28 64 32 65 29 66 31 67
REMARK SMILES IDX 30 68 49 69 50 70 54 71 51 72 53 73 52 74 39 75 40 76 44 77
REMARK SMILES IDX 41 78 43 79 42 80
REMARK H PARENT 11 5 7 10 15 29 59 48 37 59
REMARK Flexibility Score: inf
ROOT
ATOM      1  C   UNL     1       3.146  -0.830   1.454  1.00  0.00     0.117 C 
ENDROOT
BRANCH   1   2
ATOM      2  N   UNL     1       3.408   0.571   1.183  1.00  0.00    -0.355 N 
ATOM      3  C   UNL     1       3.442   1.261   0.011  1.00  0.00     0.239 C 
ATOM      4  O   UNL     1       3.436   2.495   0.097  1.00  0.00    -0.273 OA
ATOM      5  H   UNL     1       3.594   1.114   1.982  1.00  0.00     0.163 HD
BRANCH   3   6
ATOM      6  C   UNL     1       3.290   0.600  -1.364  1.00  0.00     0.216 C 
BRANCH   6   7
ATOM      7  N   UNL     1       3.903  -0.680  -1.631  1.00  0.00    -0.342 N 
ATOM      8  C   UNL     1       3.492  -1.974  -1.785  1.00  0.00     0.274 C 
ATOM      9  O   UNL     1       4.417  -2.738  -2.086  1.00  0.00    -0.267 OA
ATOM     10  H   UNL     1       4.879  -0.599  -1.728  1.00  0.00     0.164 HD
BRANCH   8  11
ATOM     11  C   UNL     1       2.149  -2.522  -1.529  1.00  0.00     0.174 A 
ATOM     12  C   UNL     1       0.824  -2.070  -1.494  1.00  0.00     0.077 A 
ATOM     13  N   UNL     1       0.091  -3.228  -1.202  1.00  0.00    -0.217 N 
ATOM     14  N   UNL     1       2.143  -3.852  -1.134  1.00  0.00    -0.124 NA
ATOM     15  N   UNL     1       0.918  -4.215  -0.823  1.00  0.00    -0.061 NA
BRANCH  12  16
ATOM     16  C   UNL     1       0.144  -0.743  -1.591  1.00  0.00     0.055 C 
ATOM     17  C   UNL     1      -0.054  -0.106  -0.218  1.00  0.00     0.011 C 
ENDBRANCH  12  16
BRANCH  13  18
ATOM     18  C   UNL     1      -1.310  -3.429  -1.167  1.00  0.00     0.067 A 
ATOM     19  C   UNL     1      -1.870  -4.172  -0.120  1.00  0.00     0.030 A 
ATOM     20  C   UNL     1      -2.135  -2.889  -2.162  1.00  0.00     0.030 A 
ATOM     21  C   UNL     1      -3.260  -4.275  -0.013  1.00  0.00     0.023 A 
ATOM     22  C   UNL     1      -3.521  -3.002  -2.055  1.00  0.00     0.023 A 
ATOM     23  C   UNL     1      -4.078  -3.675  -0.970  1.00  0.00     0.041 A 
ATOM     24  Cl  UNL     1      -5.788  -3.763  -0.813  1.00  0.00    -0.084 Cl
ENDBRANCH  13  18
ENDBRANCH   8  11
ENDBRANCH   6   7
ENDBRANCH   3   6
ENDBRANCH   1   2
BRANCH   1  25
ATOM     25  C   UNL     1       4.384  -1.607   1.885  1.00  0.00     0.042 C 
BRANCH  25  26
ATOM     26  C   UNL     1       4.744  -1.340   3.340  1.00  0.00     0.118 C 
BRANCH  26  27
ATOM     27  N   UNL     1       3.753  -1.885   4.271  1.00  0.00    -0.352 N 
ATOM     28  C   UNL     1       3.620  -1.636   5.625  1.00  0.00     0.251 C 
ATOM     29  H   UNL     1       3.097  -2.508   3.883  1.00  0.00     0.163 HD
ATOM     30  O   UNL     1       2.990  -2.380   6.351  1.00  0.00    -0.269 OA
BRANCH  28  31
ATOM     31  C   UNL     1       4.280  -0.438   6.171  1.00  0.00     0.039 A 
ATOM     32  C   UNL     1       5.095  -0.528   7.300  1.00  0.00     0.014 A 
ATOM     33  C   UNL     1       4.143   0.758   5.472  1.00  0.00     0.014 A 
ATOM     34  C   UNL     1       5.867   0.575   7.654  1.00  0.00     0.010 A 
ATOM     35  C   UNL     1       5.002   1.796   5.743  1.00  0.00     0.010 A 
ATOM     36  C   UNL     1       5.849   1.725   6.847  1.00  0.00    -0.014 A 
BRANCH  36  37
ATOM     37  C   UNL     1       6.824   2.792   7.074  1.00  0.00     0.031 A 
ATOM     38  C   UNL     1       8.241   2.342   7.176  1.00  0.00     0.074 A 
ATOM     39  C   UNL     1       6.538   4.109   6.993  1.00  0.00     0.049 A 
ATOM     40  N   UNL     1       8.999   2.371   8.222  1.00  0.00    -0.248 NA
ATOM     41  C   UNL     1       8.856   1.684   6.011  1.00  0.00     0.031 C 
ATOM     42  C   UNL     1       5.277   4.742   6.593  1.00  0.00     0.029 A 
ATOM     43  N   UNL     1       7.374   5.175   7.139  1.00  0.00    -0.354 N 
ATOM     44  C   UNL     1      10.251   1.930   7.803  1.00  0.00     0.074 A 
ATOM     45  C   UNL     1      10.060   1.364   6.491  1.00  0.00     0.031 C 
ATOM     46  C   UNL     1       5.499   6.038   6.286  1.00  0.00     0.029 A 
ATOM     47  C   UNL     1       6.864   6.370   6.648  1.00  0.00     0.049 A 
ATOM     48  H   UNL     1       8.263   5.104   7.557  1.00  0.00     0.167 HD
ATOM     49  C   UNL     1      11.386   2.306   8.457  1.00  0.00     0.031 A 
ATOM     50  C   UNL     1       7.519   7.548   6.527  1.00  0.00     0.031 A 
ATOM     51  C   UNL     1      11.096   2.855   9.759  1.00  0.00     0.049 A 
ATOM     52  C   UNL     1       8.674   7.507   7.449  1.00  0.00     0.074 A 
ATOM     53  C   UNL     1      10.441   2.409  10.890  1.00  0.00     0.029 A 
ATOM     54  N   UNL     1      11.173   4.221   9.888  1.00  0.00    -0.354 N 
ATOM     55  N   UNL     1       8.559   7.502   8.744  1.00  0.00    -0.248 NA
ATOM     56  C   UNL     1       9.958   7.065   6.933  1.00  0.00     0.031 C 
ATOM     57  C   UNL     1       9.738   3.550  11.381  1.00  0.00     0.029 A 
ATOM     58  C   UNL     1      10.060   4.638  10.568  1.00  0.00     0.049 A 
ATOM     59  H   UNL     1      11.898   4.797   9.552  1.00  0.00     0.167 HD
ATOM     60  C   UNL     1       9.550   6.636   9.177  1.00  0.00     0.074 A 
ATOM     61  C   UNL     1      10.458   6.507   8.039  1.00  0.00     0.031 C 
ATOM     62  C   UNL     1       9.383   5.889  10.309  1.00  0.00     0.031 A 
BRANCH  49  63
ATOM     63  C   UNL     1      12.691   2.605   7.750  1.00  0.00    -0.014 A 
ATOM     64  C   UNL     1      13.801   2.998   8.523  1.00  0.00     0.009 A 
ATOM     65  C   UNL     1      12.786   2.817   6.362  1.00  0.00     0.009 A 
ATOM     66  C   UNL     1      14.895   3.656   7.948  1.00  0.00     0.001 A 
ATOM     67  C   UNL     1      13.897   3.432   5.779  1.00  0.00     0.001 A 
ATOM     68  C   UNL     1      14.937   3.883   6.577  1.00  0.00     0.000 A 
ENDBRANCH  49  63
BRANCH  50  69
ATOM     69  C   UNL     1       7.358   8.613   5.516  1.00  0.00    -0.014 A 
ATOM     70  C   UNL     1       7.931   9.878   5.722  1.00  0.00     0.009 A 
ATOM     71  C   UNL     1       6.898   8.302   4.224  1.00  0.00     0.009 A 
ATOM     72  C   UNL     1       8.094  10.775   4.659  1.00  0.00     0.001 A 
ATOM     73  C   UNL     1       7.055   9.201   3.164  1.00  0.00     0.001 A 
ATOM     74  C   UNL     1       7.673  10.428   3.377  1.00  0.00     0.000 A 
ENDBRANCH  50  69
BRANCH  62  75
ATOM     75  C   UNL     1       8.239   6.244  11.229  1.00  0.00    -0.014 A 
ATOM     76  C   UNL     1       6.891   6.241  10.828  1.00  0.00     0.009 A 
ATOM     77  C   UNL     1       8.527   6.469  12.583  1.00  0.00     0.009 A 
ATOM     78  C   UNL     1       5.868   6.499  11.748  1.00  0.00     0.001 A 
ATOM     79  C   UNL     1       7.505   6.702  13.506  1.00  0.00     0.001 A 
ATOM     80  C   UNL     1       6.177   6.726  13.087  1.00  0.00     0.000 A 
ENDBRANCH  62  75
ENDBRANCH  36  37
ENDBRANCH  28  31
ENDBRANCH  26  27
ENDBRANCH  25  26
ENDBRANCH   1  25
TORSDOF 14
