REMARK SMILES O=C(NCCCNC(=O)c1ccccc1Nc1cccc(C(F)(F)F)c1)c1ccc(-c2c3nc(c(-c4ccccc4)c4ccc([nH]4)c(-c4ccccc4)c4nc(c(-c5ccccc5)c5ccc2[nH]5)C=C4)C=C3)cc1
REMARK SMILES IDX 5 1 4 2 3 3 1 4 2 5 27 7 28 8 74 9 29 10 73 11 30 12 31 13
REMARK SMILES IDX 32 14 67 15 33 16 72 17 66 18 68 19 34 20 71 21 65 22 64 23
REMARK SMILES IDX 35 25 57 26 42 27 56 28 43 29 46 30 55 31 69 32 44 33 45 34
REMARK SMILES IDX 54 36 70 37 47 38 36 39 37 40 41 41 38 42 40 43 39 44 58 45
REMARK SMILES IDX 59 46 63 47 60 48 62 49 61 50 48 51 49 52 53 53 50 54 52 55
REMARK SMILES IDX 51 56 6 57 7 58 8 59 9 61 10 62 11 63 15 64 12 65 14 66
REMARK SMILES IDX 13 67 16 68 17 70 18 71 26 72 19 73 21 74 20 75 22 76 23 77
REMARK SMILES IDX 24 78 25 79
REMARK H PARENT 3 6 68 24 46 35 7 60 16 69
REMARK Flexibility Score: inf
ROOT
ATOM      1  C   UNL     1       5.114  -2.254  -0.925  1.00  0.00     0.042 C 
ENDROOT
BRANCH   1   2
ATOM      2  C   UNL     1       4.687  -0.816  -1.182  1.00  0.00     0.118 C 
BRANCH   2   3
ATOM      3  N   UNL     1       3.249  -0.602  -1.067  1.00  0.00    -0.352 N 
ATOM      4  O   UNL     1       1.281   0.006  -0.158  1.00  0.00    -0.269 OA
ATOM      5  C   UNL     1       2.508   0.063  -0.119  1.00  0.00     0.251 C 
ATOM      6  H   UNL     1       2.718  -1.003  -1.793  1.00  0.00     0.163 HD
BRANCH   5   7
ATOM      7  C   UNL     1       3.171   0.812   0.972  1.00  0.00     0.039 A 
ATOM      8  C   UNL     1       4.302   1.588   0.730  1.00  0.00     0.014 A 
ATOM      9  C   UNL     1       2.648   0.738   2.268  1.00  0.00     0.014 A 
ATOM     10  C   UNL     1       5.032   2.096   1.797  1.00  0.00     0.010 A 
ATOM     11  C   UNL     1       3.318   1.358   3.329  1.00  0.00     0.010 A 
ATOM     12  C   UNL     1       4.549   1.993   3.112  1.00  0.00    -0.014 A 
BRANCH  12  13
ATOM     13  C   UNL     1       5.350   2.577   4.221  1.00  0.00     0.031 A 
ATOM     14  C   UNL     1       5.905   1.715   5.325  1.00  0.00     0.074 A 
ATOM     15  C   UNL     1       5.639   3.893   4.191  1.00  0.00     0.049 A 
ATOM     16  N   UNL     1       6.690   2.056   6.318  1.00  0.00    -0.248 NA
ATOM     17  C   UNL     1       5.526   0.293   5.326  1.00  0.00     0.031 C 
ATOM     18  C   UNL     1       5.160   4.840   3.180  1.00  0.00     0.029 A 
ATOM     19  N   UNL     1       6.439   4.655   5.003  1.00  0.00    -0.354 N 
ATOM     20  C   UNL     1       6.870   0.905   7.076  1.00  0.00     0.074 A 
ATOM     21  C   UNL     1       6.098  -0.141   6.441  1.00  0.00     0.031 C 
ATOM     22  C   UNL     1       5.740   6.031   3.382  1.00  0.00     0.029 A 
ATOM     23  C   UNL     1       6.575   5.954   4.574  1.00  0.00     0.049 A 
ATOM     24  H   UNL     1       6.874   4.306   5.815  1.00  0.00     0.167 HD
ATOM     25  C   UNL     1       7.612   0.732   8.197  1.00  0.00     0.031 A 
ATOM     26  C   UNL     1       7.289   6.975   5.081  1.00  0.00     0.031 A 
ATOM     27  C   UNL     1       8.399   1.764   8.819  1.00  0.00     0.049 A 
ATOM     28  C   UNL     1       8.102   6.755   6.321  1.00  0.00     0.074 A 
ATOM     29  C   UNL     1       9.215   1.673   9.934  1.00  0.00     0.029 A 
ATOM     30  N   UNL     1       8.470   3.077   8.380  1.00  0.00    -0.354 N 
ATOM     31  N   UNL     1       8.280   5.652   7.006  1.00  0.00    -0.248 NA
ATOM     32  C   UNL     1       8.809   7.924   6.859  1.00  0.00     0.031 C 
ATOM     33  C   UNL     1       9.746   2.941  10.195  1.00  0.00     0.029 A 
ATOM     34  C   UNL     1       9.299   3.810   9.213  1.00  0.00     0.049 A 
ATOM     35  H   UNL     1       8.002   3.435   7.591  1.00  0.00     0.167 HD
ATOM     36  C   UNL     1       9.131   5.990   8.048  1.00  0.00     0.074 A 
ATOM     37  C   UNL     1       9.451   7.394   7.891  1.00  0.00     0.031 C 
ATOM     38  C   UNL     1       9.603   5.207   9.048  1.00  0.00     0.031 A 
BRANCH  25  39
ATOM     39  C   UNL     1       7.584  -0.624   8.847  1.00  0.00    -0.014 A 
ATOM     40  C   UNL     1       8.249  -1.723   8.282  1.00  0.00     0.009 A 
ATOM     41  C   UNL     1       6.914  -0.791  10.070  1.00  0.00     0.009 A 
ATOM     42  C   UNL     1       8.216  -2.970   8.913  1.00  0.00     0.001 A 
ATOM     43  C   UNL     1       6.904  -2.032  10.711  1.00  0.00     0.001 A 
ATOM     44  C   UNL     1       7.548  -3.122  10.128  1.00  0.00     0.000 A 
ENDBRANCH  25  39
BRANCH  26  45
ATOM     45  C   UNL     1       7.267   8.298   4.407  1.00  0.00    -0.014 A 
ATOM     46  C   UNL     1       8.402   8.773   3.733  1.00  0.00     0.009 A 
ATOM     47  C   UNL     1       6.105   9.085   4.422  1.00  0.00     0.009 A 
ATOM     48  C   UNL     1       8.378  10.019   3.102  1.00  0.00     0.001 A 
ATOM     49  C   UNL     1       6.075  10.316   3.766  1.00  0.00     0.001 A 
ATOM     50  C   UNL     1       7.214  10.786   3.114  1.00  0.00     0.000 A 
ENDBRANCH  26  45
BRANCH  38  51
ATOM     51  C   UNL     1      10.538   5.851  10.029  1.00  0.00    -0.014 A 
ATOM     52  C   UNL     1      10.069   6.758  10.992  1.00  0.00     0.009 A 
ATOM     53  C   UNL     1      11.905   5.536   9.996  1.00  0.00     0.009 A 
ATOM     54  C   UNL     1      10.960   7.366  11.880  1.00  0.00     0.001 A 
ATOM     55  C   UNL     1      12.788   6.125  10.902  1.00  0.00     0.001 A 
ATOM     56  C   UNL     1      12.316   7.047  11.835  1.00  0.00     0.000 A 
ENDBRANCH  38  51
ENDBRANCH  12  13
ENDBRANCH   5   7
ENDBRANCH   2   3
ENDBRANCH   1   2
BRANCH   1  57
ATOM     57  C   UNL     1       4.610  -3.255  -1.953  1.00  0.00     0.118 C 
BRANCH  57  58
ATOM     58  N   UNL     1       5.021  -2.927  -3.310  1.00  0.00    -0.352 N 
ATOM     59  C   UNL     1       5.751  -3.660  -4.209  1.00  0.00     0.253 C 
ATOM     60  H   UNL     1       4.729  -2.043  -3.631  1.00  0.00     0.163 HD
ATOM     61  O   UNL     1       6.095  -3.141  -5.268  1.00  0.00    -0.269 OA
BRANCH  59  62
ATOM     62  C   UNL     1       6.146  -5.056  -3.920  1.00  0.00     0.063 A 
ATOM     63  C   UNL     1       7.513  -5.349  -4.051  1.00  0.00     0.016 A 
ATOM     64  C   UNL     1       5.217  -6.065  -3.591  1.00  0.00     0.051 A 
ATOM     65  C   UNL     1       7.980  -6.638  -3.808  1.00  0.00     0.001 A 
ATOM     66  C   UNL     1       5.720  -7.350  -3.331  1.00  0.00     0.027 A 
ATOM     67  C   UNL     1       7.084  -7.636  -3.440  1.00  0.00     0.002 A 
BRANCH  64  68
ATOM     68  N   UNL     1       3.835  -5.802  -3.487  1.00  0.00    -0.355 N 
ATOM     69  H   UNL     1       3.491  -5.163  -4.152  1.00  0.00     0.167 HD
BRANCH  68  70
ATOM     70  C   UNL     1       2.864  -6.295  -2.598  1.00  0.00     0.039 A 
ATOM     71  C   UNL     1       1.516  -6.255  -2.974  1.00  0.00     0.026 A 
ATOM     72  C   UNL     1       3.191  -6.863  -1.360  1.00  0.00     0.039 A 
ATOM     73  C   UNL     1       0.521  -6.769  -2.139  1.00  0.00     0.003 A 
ATOM     74  C   UNL     1       2.201  -7.374  -0.501  1.00  0.00     0.058 A 
ATOM     75  C   UNL     1       0.862  -7.328  -0.910  1.00  0.00     0.013 A 
BRANCH  74  76
ATOM     76  C   UNL     1       2.569  -7.983   0.828  1.00  0.00     0.416 C 
ATOM     77  F   UNL     1       1.794  -7.523   1.849  1.00  0.00    -0.166 F 
ATOM     78  F   UNL     1       2.431  -9.337   0.834  1.00  0.00    -0.166 F 
ATOM     79  F   UNL     1       3.857  -7.737   1.202  1.00  0.00    -0.166 F 
ENDBRANCH  74  76
ENDBRANCH  68  70
ENDBRANCH  64  68
ENDBRANCH  59  62
ENDBRANCH  57  58
ENDBRANCH   1  57
TORSDOF 13
