REMARK SMILES CCc1ncc(C[N@H+]2CCC[C@@H](c3cccc(C(=O)NCCCNC(=O)c4ccc(-c5c6nc(c(-c7ccccc7)c7ccc([nH]7)c(-c7ccccc7)c7nc(c(-c8ccccc8)c8ccc5[nH]8)C=C7)C=C6)cc4)c3)C2)cn1
REMARK SMILES IDX 21 1 20 2 18 3 19 4 17 6 13 7 14 8 75 9 15 10 16 11 12 12
REMARK SMILES IDX 8 13 9 14 76 15 10 17 11 18 7 19 6 20 3 21 4 22 78 23 5 24
REMARK SMILES IDX 77 25 2 26 1 27 22 28 23 29 24 30 25 31 26 33 27 34 28 35
REMARK SMILES IDX 74 36 29 37 73 38 30 39 31 40 32 41 67 42 33 43 72 44 66 45
REMARK SMILES IDX 68 46 34 47 71 48 65 49 64 50 35 52 57 53 42 54 56 55 43 56
REMARK SMILES IDX 46 57 55 58 69 59 44 60 45 61 54 63 70 64 47 65 36 66 37 67
REMARK SMILES IDX 41 68 38 69 40 70 39 71 58 72 59 73 63 74 60 75 62 76 61 77
REMARK SMILES IDX 48 78 49 79 53 80 50 81 52 82 51 83
REMARK H PARENT 20 5 8 16 24 32 68 51 46 62
REMARK Flexibility Score: inf
ROOT
ATOM      1  C   UNL     1      -1.551 -11.332   4.266  1.00  0.00     0.118 C 
ENDROOT
BRANCH   1   2
ATOM      2  N   UNL     1      -2.117 -11.751   2.988  1.00  0.00    -0.352 N 
ATOM      3  C   UNL     1      -2.491 -11.100   1.833  1.00  0.00     0.251 C 
ATOM      4  O   UNL     1      -2.937 -11.791   0.916  1.00  0.00    -0.269 OA
ATOM      5  H   UNL     1      -2.265 -12.723   2.939  1.00  0.00     0.163 HD
BRANCH   3   6
ATOM      6  C   UNL     1      -2.463  -9.621   1.668  1.00  0.00     0.040 A 
ATOM      7  C   UNL     1      -1.935  -7.420   2.547  1.00  0.00    -0.039 A 
ATOM      8  C   UNL     1      -2.764  -6.835   1.589  1.00  0.00     0.004 A 
ATOM      9  C   UNL     1      -1.674  -8.789   2.447  1.00  0.00     0.018 A 
ATOM     10  C   UNL     1      -3.409  -7.634   0.644  1.00  0.00     0.001 A 
ATOM     11  C   UNL     1      -3.303  -9.026   0.719  1.00  0.00     0.014 A 
BRANCH   7  12
ATOM     12  C   UNL     1      -1.322  -6.683   3.722  1.00  0.00     0.074 C 
ATOM     13  N   UNL     1       0.618  -5.268   4.413  1.00  0.00    -0.331 N 
ATOM     14  C   UNL     1      -0.299  -4.290   5.017  1.00  0.00     0.262 C 
ATOM     15  C   UNL     1      -0.023  -5.995   3.305  1.00  0.00     0.270 C 
ATOM     16  H   UNL     1       0.835  -5.947   5.143  1.00  0.00     0.348 HD
ATOM     17  C   UNL     1      -1.579  -4.959   5.525  1.00  0.00     0.062 C 
ATOM     18  C   UNL     1      -2.289  -5.700   4.397  1.00  0.00     0.020 C 
BRANCH  13  19
ATOM     19  C   UNL     1       1.913  -4.678   4.011  1.00  0.00     0.302 C 
BRANCH  19  20
ATOM     20  C   UNL     1       1.842  -3.701   2.875  1.00  0.00     0.043 A 
ATOM     21  C   UNL     1       1.272  -1.995   0.842  1.00  0.00     0.127 A 
ATOM     22  N   UNL     1       1.355  -1.486   2.087  1.00  0.00    -0.241 NA
ATOM     23  N   UNL     1       1.516  -3.280   0.528  1.00  0.00    -0.241 NA
ATOM     24  C   UNL     1       1.655  -2.351   3.074  1.00  0.00     0.124 A 
ATOM     25  C   UNL     1       1.812  -4.099   1.554  1.00  0.00     0.124 A 
BRANCH  21  26
ATOM     26  C   UNL     1       0.710  -1.125  -0.249  1.00  0.00     0.074 C 
ATOM     27  C   UNL     1       1.128   0.331  -0.138  1.00  0.00     0.012 C 
ENDBRANCH  21  26
ENDBRANCH  19  20
ENDBRANCH  13  19
ENDBRANCH   7  12
ENDBRANCH   3   6
ENDBRANCH   1   2
BRANCH   1  28
ATOM     28  C   UNL     1      -2.463 -11.562   5.456  1.00  0.00     0.042 C 
BRANCH  28  29
ATOM     29  C   UNL     1      -2.619 -13.024   5.823  1.00  0.00     0.118 C 
BRANCH  29  30
ATOM     30  N   UNL     1      -1.354 -13.640   6.217  1.00  0.00    -0.352 N 
ATOM     31  C   UNL     1      -0.872 -13.993   7.457  1.00  0.00     0.251 C 
ATOM     32  H   UNL     1      -0.744 -13.836   5.470  1.00  0.00     0.163 HD
ATOM     33  O   UNL     1       0.307 -14.291   7.593  1.00  0.00    -0.269 OA
BRANCH  31  34
ATOM     34  C   UNL     1      -1.773 -13.992   8.627  1.00  0.00     0.039 A 
ATOM     35  C   UNL     1      -1.309 -13.511   9.855  1.00  0.00     0.014 A 
ATOM     36  C   UNL     1      -3.078 -14.469   8.512  1.00  0.00     0.014 A 
ATOM     37  C   UNL     1      -2.187 -13.418  10.938  1.00  0.00     0.010 A 
ATOM     38  C   UNL     1      -3.976 -14.271   9.549  1.00  0.00     0.010 A 
ATOM     39  C   UNL     1      -3.541 -13.748  10.776  1.00  0.00    -0.014 A 
BRANCH  39  40
ATOM     40  C   UNL     1      -4.540 -13.575  11.859  1.00  0.00     0.031 A 
ATOM     41  C   UNL     1      -5.316 -14.766  12.349  1.00  0.00     0.074 A 
ATOM     42  C   UNL     1      -4.841 -12.339  12.304  1.00  0.00     0.049 A 
ATOM     43  N   UNL     1      -6.354 -14.807  13.144  1.00  0.00    -0.248 NA
ATOM     44  C   UNL     1      -4.894 -16.083  11.842  1.00  0.00     0.031 C 
ATOM     45  C   UNL     1      -4.190 -11.098  11.877  1.00  0.00     0.029 A 
ATOM     46  N   UNL     1      -5.797 -11.922  13.196  1.00  0.00    -0.354 N 
ATOM     47  C   UNL     1      -6.732 -16.143  13.197  1.00  0.00     0.074 A 
ATOM     48  C   UNL     1      -5.844 -16.872  12.320  1.00  0.00     0.031 C 
ATOM     49  C   UNL     1      -4.755 -10.063  12.517  1.00  0.00     0.029 A 
ATOM     50  C   UNL     1      -5.843 -10.558  13.355  1.00  0.00     0.049 A 
ATOM     51  H   UNL     1      -6.392 -12.541  13.677  1.00  0.00     0.167 HD
ATOM     52  C   UNL     1      -7.722 -16.714  13.923  1.00  0.00     0.031 A 
ATOM     53  C   UNL     1      -6.682  -9.788  14.074  1.00  0.00     0.031 A 
ATOM     54  C   UNL     1      -8.586 -15.987  14.811  1.00  0.00     0.049 A 
ATOM     55  C   UNL     1      -7.775 -10.443  14.872  1.00  0.00     0.074 A 
ATOM     56  C   UNL     1      -9.569 -16.481  15.651  1.00  0.00     0.029 A 
ATOM     57  N   UNL     1      -8.572 -14.611  14.972  1.00  0.00    -0.354 N 
ATOM     58  N   UNL     1      -8.076 -11.716  14.968  1.00  0.00    -0.248 NA
ATOM     59  C   UNL     1      -8.638  -9.558  15.666  1.00  0.00     0.031 C 
ATOM     60  C   UNL     1     -10.190 -15.396  16.277  1.00  0.00     0.029 A 
ATOM     61  C   UNL     1      -9.549 -14.234  15.877  1.00  0.00     0.049 A 
ATOM     62  H   UNL     1      -7.959 -13.993  14.512  1.00  0.00     0.167 HD
ATOM     63  C   UNL     1      -9.141 -11.787  15.857  1.00  0.00     0.074 A 
ATOM     64  C   UNL     1      -9.429 -10.431  16.276  1.00  0.00     0.031 C 
ATOM     65  C   UNL     1      -9.816 -12.880  16.289  1.00  0.00     0.031 A 
BRANCH  52  66
ATOM     66  C   UNL     1      -7.929 -18.196  13.768  1.00  0.00    -0.014 A 
ATOM     67  C   UNL     1      -6.981 -19.122  14.231  1.00  0.00     0.009 A 
ATOM     68  C   UNL     1      -9.106 -18.673  13.170  1.00  0.00     0.009 A 
ATOM     69  C   UNL     1      -7.185 -20.493  14.056  1.00  0.00     0.001 A 
ATOM     70  C   UNL     1      -9.323 -20.045  13.026  1.00  0.00     0.001 A 
ATOM     71  C   UNL     1      -8.357 -20.953  13.458  1.00  0.00     0.000 A 
ENDBRANCH  52  66
BRANCH  53  72
ATOM     72  C   UNL     1      -6.516  -8.311  14.073  1.00  0.00    -0.014 A 
ATOM     73  C   UNL     1      -6.043  -7.647  15.215  1.00  0.00     0.009 A 
ATOM     74  C   UNL     1      -6.814  -7.558  12.926  1.00  0.00     0.009 A 
ATOM     75  C   UNL     1      -5.893  -6.258  15.215  1.00  0.00     0.001 A 
ATOM     76  C   UNL     1      -6.635  -6.173  12.920  1.00  0.00     0.001 A 
ATOM     77  C   UNL     1      -6.183  -5.523  14.067  1.00  0.00     0.000 A 
ENDBRANCH  53  72
BRANCH  65  78
ATOM     78  C   UNL     1     -10.903 -12.669  17.305  1.00  0.00    -0.014 A 
ATOM     79  C   UNL     1     -12.137 -12.106  16.950  1.00  0.00     0.009 A 
ATOM     80  C   UNL     1     -10.711 -13.119  18.622  1.00  0.00     0.009 A 
ATOM     81  C   UNL     1     -13.153 -11.981  17.901  1.00  0.00     0.001 A 
ATOM     82  C   UNL     1     -11.737 -13.019  19.561  1.00  0.00     0.001 A 
ATOM     83  C   UNL     1     -12.955 -12.445  19.201  1.00  0.00     0.000 A 
ENDBRANCH  65  78
ENDBRANCH  39  40
ENDBRANCH  31  34
ENDBRANCH  29  30
ENDBRANCH  28  29
ENDBRANCH   1  28
TORSDOF 14
