REMARK SMILES O=C(NCCCNC(=O)c1ccc(-c2c(F)cccc2F)cn1)c1ccc(-c2c3nc(c(-c4ccccc4)c4ccc([nH]4)c(-c4ccccc4)c4nc(c(-c5ccccc5)c5ccc2[nH]5)C=C4)C=C3)cc1
REMARK SMILES IDX 4 1 3 2 1 3 2 4 24 6 25 7 71 8 26 9 70 10 27 11 28 12 29 13
REMARK SMILES IDX 64 14 30 15 69 16 63 17 65 18 31 19 68 20 62 21 61 22 32 24
REMARK SMILES IDX 54 25 39 26 53 27 40 28 43 29 52 30 66 31 41 32 42 33 51 35
REMARK SMILES IDX 67 36 44 37 33 38 34 39 38 40 35 41 37 42 36 43 55 44 56 45
REMARK SMILES IDX 60 46 57 47 59 48 58 49 45 50 46 51 50 52 47 53 49 54 48 55
REMARK SMILES IDX 5 56 6 57 7 58 8 59 9 61 10 62 11 63 23 64 12 65 22 66 13 67
REMARK SMILES IDX 14 68 15 69 20 70 16 71 17 72 19 73 21 74 18 75
REMARK H PARENT 3 5 65 23 43 34 7 60
REMARK Flexibility Score: inf
ROOT
ATOM      1  C   UNL     1       4.639  -0.790   1.000  1.00  0.00     0.118 C 
ENDROOT
BRANCH   1   2
ATOM      2  N   UNL     1       3.197  -0.804   0.794  1.00  0.00    -0.352 N 
ATOM      3  O   UNL     1       1.200  -0.128   0.003  1.00  0.00    -0.269 OA
ATOM      4  C   UNL     1       2.427  -0.131  -0.118  1.00  0.00     0.251 C 
ATOM      5  H   UNL     1       2.696  -1.390   1.407  1.00  0.00     0.163 HD
BRANCH   4   6
ATOM      6  C   UNL     1       3.053   0.607  -1.233  1.00  0.00     0.039 A 
ATOM      7  C   UNL     1       4.119   0.059  -1.951  1.00  0.00     0.014 A 
ATOM      8  C   UNL     1       2.538   1.856  -1.592  1.00  0.00     0.014 A 
ATOM      9  C   UNL     1       4.762   0.814  -2.926  1.00  0.00     0.010 A 
ATOM     10  C   UNL     1       3.126   2.574  -2.634  1.00  0.00     0.010 A 
ATOM     11  C   UNL     1       4.260   2.071  -3.290  1.00  0.00    -0.014 A 
BRANCH  11  12
ATOM     12  C   UNL     1       4.882   2.824  -4.405  1.00  0.00     0.031 A 
ATOM     13  C   UNL     1       5.524   4.160  -4.169  1.00  0.00     0.074 A 
ATOM     14  C   UNL     1       4.831   2.308  -5.648  1.00  0.00     0.049 A 
ATOM     15  N   UNL     1       6.040   4.991  -5.038  1.00  0.00    -0.248 NA
ATOM     16  C   UNL     1       5.585   4.628  -2.776  1.00  0.00     0.031 C 
ATOM     17  C   UNL     1       4.232   1.019  -6.002  1.00  0.00     0.029 A 
ATOM     18  N   UNL     1       5.276   2.809  -6.844  1.00  0.00    -0.354 N 
ATOM     19  C   UNL     1       6.461   6.093  -4.305  1.00  0.00     0.074 A 
ATOM     20  C   UNL     1       6.119   5.833  -2.922  1.00  0.00     0.031 C 
ATOM     21  C   UNL     1       4.357   0.826  -7.322  1.00  0.00     0.029 A 
ATOM     22  C   UNL     1       4.979   2.004  -7.915  1.00  0.00     0.049 A 
ATOM     23  H   UNL     1       5.761   3.662  -6.926  1.00  0.00     0.167 HD
ATOM     24  C   UNL     1       7.073   7.218  -4.746  1.00  0.00     0.031 A 
ATOM     25  C   UNL     1       5.146   2.203  -9.235  1.00  0.00     0.031 A 
ATOM     26  C   UNL     1       7.397   7.472  -6.126  1.00  0.00     0.049 A 
ATOM     27  C   UNL     1       5.780   3.477  -9.707  1.00  0.00     0.074 A 
ATOM     28  C   UNL     1       8.056   8.561  -6.670  1.00  0.00     0.029 A 
ATOM     29  N   UNL     1       7.070   6.634  -7.182  1.00  0.00    -0.354 N 
ATOM     30  N   UNL     1       6.215   4.491  -8.999  1.00  0.00    -0.248 NA
ATOM     31  C   UNL     1       5.951   3.635 -11.158  1.00  0.00     0.031 C 
ATOM     32  C   UNL     1       8.067   8.413  -8.061  1.00  0.00     0.029 A 
ATOM     33  C   UNL     1       7.480   7.198  -8.379  1.00  0.00     0.049 A 
ATOM     34  H   UNL     1       6.614   5.765  -7.094  1.00  0.00     0.167 HD
ATOM     35  C   UNL     1       6.733   5.397  -9.913  1.00  0.00     0.074 A 
ATOM     36  C   UNL     1       6.564   4.809 -11.227  1.00  0.00     0.031 C 
ATOM     37  C   UNL     1       7.304   6.604  -9.680  1.00  0.00     0.031 A 
BRANCH  24  38
ATOM     38  C   UNL     1       7.384   8.281  -3.727  1.00  0.00    -0.014 A 
ATOM     39  C   UNL     1       8.358   8.090  -2.734  1.00  0.00     0.009 A 
ATOM     40  C   UNL     1       6.694   9.504  -3.771  1.00  0.00     0.009 A 
ATOM     41  C   UNL     1       8.596   9.080  -1.776  1.00  0.00     0.001 A 
ATOM     42  C   UNL     1       6.958  10.504  -2.833  1.00  0.00     0.001 A 
ATOM     43  C   UNL     1       7.898  10.286  -1.828  1.00  0.00     0.000 A 
ENDBRANCH  24  38
BRANCH  25  44
ATOM     44  C   UNL     1       4.670   1.168 -10.187  1.00  0.00    -0.014 A 
ATOM     45  C   UNL     1       5.580   0.358 -10.880  1.00  0.00     0.009 A 
ATOM     46  C   UNL     1       3.293   0.944 -10.356  1.00  0.00     0.009 A 
ATOM     47  C   UNL     1       5.120  -0.651 -11.729  1.00  0.00     0.001 A 
ATOM     48  C   UNL     1       2.838  -0.085 -11.181  1.00  0.00     0.001 A 
ATOM     49  C   UNL     1       3.752  -0.878 -11.872  1.00  0.00     0.000 A 
ENDBRANCH  25  44
BRANCH  37  50
ATOM     50  C   UNL     1       7.830   7.362 -10.866  1.00  0.00    -0.014 A 
ATOM     51  C   UNL     1       6.966   8.001 -11.768  1.00  0.00     0.009 A 
ATOM     52  C   UNL     1       9.217   7.500 -11.036  1.00  0.00     0.009 A 
ATOM     53  C   UNL     1       7.484   8.751 -12.827  1.00  0.00     0.001 A 
ATOM     54  C   UNL     1       9.730   8.274 -12.077  1.00  0.00     0.001 A 
ATOM     55  C   UNL     1       8.864   8.894 -12.975  1.00  0.00     0.000 A 
ENDBRANCH  37  50
ENDBRANCH  11  12
ENDBRANCH   4   6
ENDBRANCH   1   2
BRANCH   1  56
ATOM     56  C   UNL     1       5.039  -0.106   2.299  1.00  0.00     0.042 C 
BRANCH  56  57
ATOM     57  C   UNL     1       4.515  -0.796   3.549  1.00  0.00     0.118 C 
BRANCH  57  58
ATOM     58  N   UNL     1       5.001  -2.160   3.671  1.00  0.00    -0.351 N 
ATOM     59  C   UNL     1       5.806  -2.719   4.639  1.00  0.00     0.269 C 
ATOM     60  H   UNL     1       4.714  -2.775   2.958  1.00  0.00     0.163 HD
ATOM     61  O   UNL     1       6.235  -3.858   4.471  1.00  0.00    -0.268 OA
BRANCH  59  62
ATOM     62  C   UNL     1       6.114  -1.958   5.881  1.00  0.00     0.128 A 
ATOM     63  C   UNL     1       5.082  -1.399   6.623  1.00  0.00     0.035 A 
ATOM     64  N   UNL     1       7.418  -1.874   6.234  1.00  0.00    -0.250 NA
ATOM     65  C   UNL     1       5.407  -0.676   7.767  1.00  0.00     0.013 A 
ATOM     66  C   UNL     1       7.693  -1.194   7.373  1.00  0.00     0.120 A 
ATOM     67  C   UNL     1       6.741  -0.567   8.184  1.00  0.00     0.006 A 
BRANCH  67  68
ATOM     68  C   UNL     1       7.108   0.142   9.420  1.00  0.00     0.055 A 
ATOM     69  C   UNL     1       6.375  -0.023  10.606  1.00  0.00     0.134 A 
ATOM     70  C   UNL     1       8.206   1.013   9.482  1.00  0.00     0.134 A 
ATOM     71  F   UNL     1       5.314  -0.846  10.637  1.00  0.00    -0.206 F 
ATOM     72  C   UNL     1       6.715   0.634  11.789  1.00  0.00     0.040 A 
ATOM     73  C   UNL     1       8.560   1.678  10.658  1.00  0.00     0.040 A 
ATOM     74  F   UNL     1       8.949   1.240   8.388  1.00  0.00    -0.206 F 
ATOM     75  C   UNL     1       7.813   1.488  11.817  1.00  0.00     0.006 A 
ENDBRANCH  67  68
ENDBRANCH  59  62
ENDBRANCH  57  58
ENDBRANCH  56  57
ENDBRANCH   1  56
TORSDOF 11
