REMARK SMILES C=C(C)[C@@H]1CC=C(CN2C[C@]34C=C[C@H](O3)[C@H](C(=O)NCCCNC(=O)c3ccc(-c5c6nc(c(-c7ccccc7)c7ccc([nH]7)c(-c7ccccc7)c7nc(c(-c8ccccc8)c8ccc5[nH]8)C=C7)C=C6)cc3)[C@@H]4C2=O)CC1
REMARK SMILES IDX 20 1 19 2 17 3 18 4 16 6 9 7 10 8 75 9 11 10 74 11 76 12
REMARK SMILES IDX 12 13 15 14 13 15 14 16 8 17 7 18 4 19 5 20 78 21 6 22 77 23
REMARK SMILES IDX 2 24 1 25 3 26 21 27 22 28 23 29 24 30 25 32 26 33 27 34
REMARK SMILES IDX 73 35 28 36 72 37 29 38 30 39 31 40 66 41 32 42 71 43 65 44
REMARK SMILES IDX 67 45 33 46 70 47 64 48 63 49 34 51 56 52 41 53 55 54 42 55
REMARK SMILES IDX 45 56 54 57 68 58 43 59 44 60 53 62 69 63 46 64 35 65 36 66
REMARK SMILES IDX 40 67 37 68 39 69 38 70 57 71 58 72 62 73 59 74 61 75 60 76
REMARK SMILES IDX 47 77 48 78 52 79 49 80 51 81 50 82
REMARK H PARENT 19 5 23 31 67 50 45 61
REMARK Flexibility Score: inf
ROOT
ATOM      1  C   UNL     1       1.722  -1.391  -7.786  1.00  0.00     0.117 C 
ENDROOT
BRANCH   1   2
ATOM      2  N   UNL     1       1.983  -0.330  -8.730  1.00  0.00    -0.356 N 
ATOM      3  C   UNL     1       3.017   0.509  -8.899  1.00  0.00     0.227 C 
ATOM      4  O   UNL     1       3.081   0.983 -10.049  1.00  0.00    -0.275 OA
ATOM      5  H   UNL     1       1.256  -0.195  -9.380  1.00  0.00     0.163 HD
BRANCH   3   6
ATOM      6  C   UNL     1       4.014   1.061  -7.889  1.00  0.00     0.127 C 
ATOM      7  N   UNL     1       3.511   0.201  -4.376  1.00  0.00    -0.335 N 
ATOM      8  C   UNL     1       4.109   1.515  -4.239  1.00  0.00     0.160 C 
ATOM      9  C   UNL     1       3.907  -0.404  -5.570  1.00  0.00     0.230 C 
ATOM     10  C   UNL     1       4.261   1.919  -5.676  1.00  0.00     0.117 C 
ATOM     11  C   UNL     1       4.519   0.634  -6.490  1.00  0.00     0.132 C 
ATOM     12  O   UNL     1       3.879  -1.603  -5.785  1.00  0.00    -0.274 OA
ATOM     13  C   UNL     1       5.138   3.052  -6.095  1.00  0.00     0.009 C 
ATOM     14  O   UNL     1       3.004   2.350  -6.267  1.00  0.00    -0.360 OA
ATOM     15  C   UNL     1       4.680   3.419  -7.300  1.00  0.00     0.004 C 
ATOM     16  C   UNL     1       3.520   2.510  -7.611  1.00  0.00     0.155 C 
BRANCH   7  17
ATOM     17  C   UNL     1       2.855  -0.508  -3.288  1.00  0.00     0.150 C 
BRANCH  17  18
ATOM     18  C   UNL     1       2.144   0.457  -2.369  1.00  0.00    -0.055 C 
ATOM     19  C   UNL     1       0.783   2.455  -0.711  1.00  0.00     0.018 C 
ATOM     20  C   UNL     1       2.001   1.678  -0.169  1.00  0.00     0.035 C 
ATOM     21  C   UNL     1       0.855   2.629  -2.236  1.00  0.00     0.013 C 
ATOM     22  C   UNL     1       2.557   0.639  -1.101  1.00  0.00    -0.025 C 
ATOM     23  C   UNL     1       1.004   1.273  -2.939  1.00  0.00     0.033 C 
BRANCH  19  24
ATOM     24  C   UNL     1       0.579   3.787   0.009  1.00  0.00    -0.077 C 
ATOM     25  C   UNL     1      -0.544   4.026   0.709  1.00  0.00     0.008 C 
ATOM     26  C   UNL     1       1.655   4.840  -0.087  1.00  0.00     0.039 C 
ENDBRANCH  19  24
ENDBRANCH  17  18
ENDBRANCH   7  17
ENDBRANCH   3   6
ENDBRANCH   1   2
BRANCH   1  27
ATOM     27  C   UNL     1       1.033  -0.915  -6.517  1.00  0.00     0.042 C 
BRANCH  27  28
ATOM     28  C   UNL     1      -0.485  -0.853  -6.610  1.00  0.00     0.118 C 
BRANCH  28  29
ATOM     29  N   UNL     1      -1.075  -2.181  -6.519  1.00  0.00    -0.352 N 
ATOM     30  C   UNL     1      -1.610  -2.872  -5.461  1.00  0.00     0.251 C 
ATOM     31  H   UNL     1      -1.094  -2.672  -7.371  1.00  0.00     0.163 HD
ATOM     32  O   UNL     1      -1.735  -4.091  -5.574  1.00  0.00    -0.269 OA
BRANCH  30  33
ATOM     33  C   UNL     1      -2.064  -2.219  -4.203  1.00  0.00     0.039 A 
ATOM     34  C   UNL     1      -2.079  -2.993  -3.034  1.00  0.00     0.014 A 
ATOM     35  C   UNL     1      -2.616  -0.936  -4.165  1.00  0.00     0.014 A 
ATOM     36  C   UNL     1      -2.640  -2.493  -1.854  1.00  0.00     0.010 A 
ATOM     37  C   UNL     1      -3.104  -0.405  -2.965  1.00  0.00     0.010 A 
ATOM     38  C   UNL     1      -3.157  -1.190  -1.805  1.00  0.00    -0.014 A 
BRANCH  38  39
ATOM     39  C   UNL     1      -3.803  -0.676  -0.566  1.00  0.00     0.031 A 
ATOM     40  C   UNL     1      -5.280  -0.365  -0.540  1.00  0.00     0.074 A 
ATOM     41  C   UNL     1      -3.068  -0.494   0.549  1.00  0.00     0.049 A 
ATOM     42  N   UNL     1      -6.016   0.072   0.454  1.00  0.00    -0.248 NA
ATOM     43  C   UNL     1      -6.026  -0.555  -1.795  1.00  0.00     0.031 C 
ATOM     44  C   UNL     1      -1.629  -0.732   0.665  1.00  0.00     0.029 A 
ATOM     45  N   UNL     1      -3.439  -0.079   1.805  1.00  0.00    -0.354 N 
ATOM     46  C   UNL     1      -7.300   0.221  -0.059  1.00  0.00     0.074 A 
ATOM     47  C   UNL     1      -7.237  -0.131  -1.461  1.00  0.00     0.031 C 
ATOM     48  C   UNL     1      -1.246  -0.497   1.931  1.00  0.00     0.029 A 
ATOM     49  C   UNL     1      -2.404  -0.064   2.707  1.00  0.00     0.049 A 
ATOM     50  H   UNL     1      -4.360   0.184   2.036  1.00  0.00     0.167 HD
ATOM     51  C   UNL     1      -8.436   0.597   0.577  1.00  0.00     0.031 A 
ATOM     52  C   UNL     1      -2.387   0.255   4.015  1.00  0.00     0.031 A 
ATOM     53  C   UNL     1      -8.519   0.932   1.974  1.00  0.00     0.049 A 
ATOM     54  C   UNL     1      -3.663   0.663   4.698  1.00  0.00     0.074 A 
ATOM     55  C   UNL     1      -9.635   1.295   2.710  1.00  0.00     0.029 A 
ATOM     56  N   UNL     1      -7.445   0.936   2.849  1.00  0.00    -0.354 N 
ATOM     57  N   UNL     1      -4.873   0.758   4.203  1.00  0.00    -0.248 NA
ATOM     58  C   UNL     1      -3.569   0.997   6.127  1.00  0.00     0.031 C 
ATOM     59  C   UNL     1      -9.229   1.554   4.024  1.00  0.00     0.029 A 
ATOM     60  C   UNL     1      -7.869   1.308   4.114  1.00  0.00     0.049 A 
ATOM     61  H   UNL     1      -6.519   0.708   2.607  1.00  0.00     0.167 HD
ATOM     62  C   UNL     1      -5.684   1.143   5.263  1.00  0.00     0.074 A 
ATOM     63  C   UNL     1      -4.836   1.238   6.432  1.00  0.00     0.031 C 
ATOM     64  C   UNL     1      -7.014   1.402   5.266  1.00  0.00     0.031 A 
BRANCH  51  65
ATOM     65  C   UNL     1      -9.699   0.666  -0.237  1.00  0.00    -0.014 A 
ATOM     66  C   UNL     1     -10.357  -0.503  -0.652  1.00  0.00     0.009 A 
ATOM     67  C   UNL     1     -10.271   1.912  -0.541  1.00  0.00     0.009 A 
ATOM     68  C   UNL     1     -11.547  -0.425  -1.377  1.00  0.00     0.001 A 
ATOM     69  C   UNL     1     -11.474   1.986  -1.245  1.00  0.00     0.001 A 
ATOM     70  C   UNL     1     -12.108   0.818  -1.669  1.00  0.00     0.000 A 
ENDBRANCH  51  65
BRANCH  52  71
ATOM     71  C   UNL     1      -1.117   0.186   4.784  1.00  0.00    -0.014 A 
ATOM     72  C   UNL     1      -0.928  -0.807   5.757  1.00  0.00     0.009 A 
ATOM     73  C   UNL     1      -0.102   1.130   4.567  1.00  0.00     0.009 A 
ATOM     74  C   UNL     1       0.240  -0.833   6.523  1.00  0.00     0.001 A 
ATOM     75  C   UNL     1       1.076   1.084   5.315  1.00  0.00     0.001 A 
ATOM     76  C   UNL     1       1.242   0.110   6.299  1.00  0.00     0.000 A 
ENDBRANCH  52  71
BRANCH  64  77
ATOM     77  C   UNL     1      -7.630   1.791   6.580  1.00  0.00    -0.014 A 
ATOM     78  C   UNL     1      -7.396   3.055   7.145  1.00  0.00     0.009 A 
ATOM     79  C   UNL     1      -8.463   0.887   7.256  1.00  0.00     0.009 A 
ATOM     80  C   UNL     1      -7.950   3.389   8.382  1.00  0.00     0.001 A 
ATOM     81  C   UNL     1      -9.037   1.233   8.480  1.00  0.00     0.001 A 
ATOM     82  C   UNL     1      -8.771   2.479   9.047  1.00  0.00     0.000 A 
ENDBRANCH  64  77
ENDBRANCH  38  39
ENDBRANCH  30  33
ENDBRANCH  28  29
ENDBRANCH  27  28
ENDBRANCH   1  27
TORSDOF 13
