REMARK SMILES CN(C(=O)N[C@](C)(C(=O)NCCCNC(=O)c1ccc(-c2c3nc(c(-c4ccccc4)c4ccc([nH]4)c(-c4ccccc4)c4nc(c(-c5ccccc5)c5ccc2[nH]5)C=C4)C=C3)cc1)C(F)(F)F)[C@@H]1CCC[N@@H+](C)C1
REMARK SMILES IDX 11 1 10 2 8 3 9 4 6 6 7 7 5 8 3 9 4 10 2 12 1 13 69 14 74 15
REMARK SMILES IDX 73 16 72 17 75 18 71 20 70 21 65 22 66 23 67 24 68 25 12 26
REMARK SMILES IDX 13 27 14 28 15 29 16 31 17 32 18 33 64 34 19 35 63 36 20 37
REMARK SMILES IDX 21 38 22 39 57 40 23 41 62 42 56 43 58 44 24 45 61 46 55 47
REMARK SMILES IDX 54 48 25 50 47 51 32 52 46 53 33 54 36 55 45 56 59 57 34 58
REMARK SMILES IDX 35 59 44 61 60 62 37 63 26 64 27 65 31 66 28 67 30 68 29 69
REMARK SMILES IDX 48 70 49 71 53 72 50 73 52 74 51 75 38 76 39 77 43 78 40 79
REMARK SMILES IDX 42 80 41 81
REMARK H PARENT 10 5 5 11 73 19 14 30 58 49 36 60
REMARK Flexibility Score: inf
ROOT
ATOM      1  C   UNL     1       0.398   0.219   6.932  1.00  0.00     0.117 C 
ENDROOT
BRANCH   1   2
ATOM      2  N   UNL     1       0.159  -1.202   6.719  1.00  0.00    -0.354 N 
ATOM      3  C   UNL     1       0.360  -2.067   5.681  1.00  0.00     0.255 C 
ATOM      4  O   UNL     1       0.026  -3.228   5.936  1.00  0.00    -0.272 OA
ATOM      5  H   UNL     1      -0.241  -1.640   7.504  1.00  0.00     0.163 HD
BRANCH   3   6
ATOM      6  C   UNL     1       1.048  -1.658   4.341  1.00  0.00     0.213 C 
ATOM      7  C   UNL     1       0.312  -0.492   3.670  1.00  0.00     0.056 C 
BRANCH   6   8
ATOM      8  N   UNL     1       2.409  -1.250   4.812  1.00  0.00    -0.316 N 
ATOM      9  C   UNL     1       3.659  -0.972   4.452  1.00  0.00     0.318 C 
ATOM     10  O   UNL     1       4.308  -0.592   5.429  1.00  0.00    -0.249 OA
ATOM     11  H   UNL     1       2.357  -1.144   5.790  1.00  0.00     0.166 HD
BRANCH   9  12
ATOM     12  N   UNL     1       4.185  -1.118   3.209  1.00  0.00    -0.319 N 
ATOM     13  C   UNL     1       3.438  -1.442   2.016  1.00  0.00     0.149 C 
BRANCH  12  14
ATOM     14  C   UNL     1       5.650  -0.944   2.973  1.00  0.00     0.141 C 
ATOM     15  C   UNL     1       6.829   2.422   4.331  1.00  0.00     0.332 C 
ATOM     16  N   UNL     1       6.446   1.016   4.350  1.00  0.00    -0.336 N 
ATOM     17  C   UNL     1       7.468   0.188   4.998  1.00  0.00     0.262 C 
ATOM     18  C   UNL     1       6.129   0.527   3.008  1.00  0.00     0.287 C 
ATOM     19  H   UNL     1       5.596   0.940   4.909  1.00  0.00     0.347 HD
ATOM     20  C   UNL     1       7.090  -1.294   5.088  1.00  0.00     0.064 C 
ATOM     21  C   UNL     1       6.574  -1.875   3.774  1.00  0.00     0.037 C 
ENDBRANCH  12  14
ENDBRANCH   9  12
ENDBRANCH   6   8
BRANCH   6  22
ATOM     22  C   UNL     1       0.924  -2.924   3.454  1.00  0.00     0.420 C 
ATOM     23  F   UNL     1      -0.333  -3.436   3.460  1.00  0.00    -0.168 F 
ATOM     24  F   UNL     1       1.153  -2.647   2.145  1.00  0.00    -0.168 F 
ATOM     25  F   UNL     1       1.784  -3.903   3.806  1.00  0.00    -0.168 F 
ENDBRANCH   6  22
ENDBRANCH   3   6
ENDBRANCH   1   2
BRANCH   1  26
ATOM     26  C   UNL     1      -0.890   1.040   6.879  1.00  0.00     0.042 C 
BRANCH  26  27
ATOM     27  C   UNL     1      -1.997   0.567   7.817  1.00  0.00     0.118 C 
BRANCH  27  28
ATOM     28  N   UNL     1      -1.659   0.712   9.224  1.00  0.00    -0.352 N 
ATOM     29  C   UNL     1      -2.262   1.459  10.207  1.00  0.00     0.251 C 
ATOM     30  H   UNL     1      -0.875   0.194   9.518  1.00  0.00     0.163 HD
ATOM     31  O   UNL     1      -1.724   1.566  11.304  1.00  0.00    -0.269 OA
BRANCH  29  32
ATOM     32  C   UNL     1      -3.540   2.160   9.947  1.00  0.00     0.039 A 
ATOM     33  C   UNL     1      -3.692   3.468  10.415  1.00  0.00     0.014 A 
ATOM     34  C   UNL     1      -4.590   1.539   9.266  1.00  0.00     0.014 A 
ATOM     35  C   UNL     1      -4.865   4.175  10.139  1.00  0.00     0.010 A 
ATOM     36  C   UNL     1      -5.723   2.271   8.918  1.00  0.00     0.010 A 
ATOM     37  C   UNL     1      -5.874   3.597   9.351  1.00  0.00    -0.014 A 
BRANCH  37  38
ATOM     38  C   UNL     1      -7.080   4.372   8.959  1.00  0.00     0.031 A 
ATOM     39  C   UNL     1      -8.449   3.933   9.398  1.00  0.00     0.074 A 
ATOM     40  C   UNL     1      -6.947   5.439   8.146  1.00  0.00     0.049 A 
ATOM     41  N   UNL     1      -9.615   4.459   9.116  1.00  0.00    -0.248 NA
ATOM     42  C   UNL     1      -8.522   2.730  10.241  1.00  0.00     0.031 C 
ATOM     43  C   UNL     1      -5.681   5.941   7.607  1.00  0.00     0.029 A 
ATOM     44  N   UNL     1      -7.891   6.287   7.622  1.00  0.00    -0.354 N 
ATOM     45  C   UNL     1     -10.557   3.640   9.727  1.00  0.00     0.074 A 
ATOM     46  C   UNL     1      -9.831   2.557  10.352  1.00  0.00     0.031 C 
ATOM     47  C   UNL     1      -5.924   7.022   6.851  1.00  0.00     0.029 A 
ATOM     48  C   UNL     1      -7.363   7.264   6.812  1.00  0.00     0.049 A 
ATOM     49  H   UNL     1      -8.854   6.205   7.809  1.00  0.00     0.167 HD
ATOM     50  C   UNL     1     -11.904   3.784   9.775  1.00  0.00     0.031 A 
ATOM     51  C   UNL     1      -7.965   8.238   6.105  1.00  0.00     0.031 A 
ATOM     52  C   UNL     1     -12.625   4.864   9.153  1.00  0.00     0.049 A 
ATOM     53  C   UNL     1      -9.460   8.375   6.167  1.00  0.00     0.074 A 
ATOM     54  C   UNL     1     -13.980   5.139   9.209  1.00  0.00     0.029 A 
ATOM     55  N   UNL     1     -12.052   5.838   8.350  1.00  0.00    -0.354 N 
ATOM     56  N   UNL     1     -10.329   7.646   6.824  1.00  0.00    -0.248 NA
ATOM     57  C   UNL     1     -10.056   9.477   5.399  1.00  0.00     0.031 C 
ATOM     58  C   UNL     1     -14.237   6.237   8.382  1.00  0.00     0.029 A 
ATOM     59  C   UNL     1     -13.032   6.691   7.870  1.00  0.00     0.049 A 
ATOM     60  H   UNL     1     -11.091   5.913   8.151  1.00  0.00     0.167 HD
ATOM     61  C   UNL     1     -11.571   8.212   6.567  1.00  0.00     0.074 A 
ATOM     62  C   UNL     1     -11.339   9.357   5.711  1.00  0.00     0.031 C 
ATOM     63  C   UNL     1     -12.793   7.819   7.004  1.00  0.00     0.031 A 
BRANCH  50  64
ATOM     64  C   UNL     1     -12.687   2.725  10.505  1.00  0.00    -0.014 A 
ATOM     65  C   UNL     1     -12.591   2.567  11.898  1.00  0.00     0.009 A 
ATOM     66  C   UNL     1     -13.553   1.884   9.789  1.00  0.00     0.009 A 
ATOM     67  C   UNL     1     -13.306   1.558  12.548  1.00  0.00     0.001 A 
ATOM     68  C   UNL     1     -14.293   0.900  10.446  1.00  0.00     0.001 A 
ATOM     69  C   UNL     1     -14.159   0.728  11.822  1.00  0.00     0.000 A 
ENDBRANCH  50  64
BRANCH  51  70
ATOM     70  C   UNL     1      -7.145   9.162   5.279  1.00  0.00    -0.014 A 
ATOM     71  C   UNL     1      -6.982  10.505   5.651  1.00  0.00     0.009 A 
ATOM     72  C   UNL     1      -6.500   8.697   4.121  1.00  0.00     0.009 A 
ATOM     73  C   UNL     1      -6.206  11.367   4.872  1.00  0.00     0.001 A 
ATOM     74  C   UNL     1      -5.699   9.553   3.361  1.00  0.00     0.001 A 
ATOM     75  C   UNL     1      -5.560  10.888   3.732  1.00  0.00     0.000 A 
ENDBRANCH  51  70
BRANCH  63  76
ATOM     76  C   UNL     1     -13.975   8.646   6.581  1.00  0.00    -0.014 A 
ATOM     77  C   UNL     1     -14.433   8.644   5.254  1.00  0.00     0.009 A 
ATOM     78  C   UNL     1     -14.667   9.408   7.536  1.00  0.00     0.009 A 
ATOM     79  C   UNL     1     -15.538   9.415   4.886  1.00  0.00     0.001 A 
ATOM     80  C   UNL     1     -15.791  10.152   7.172  1.00  0.00     0.001 A 
ATOM     81  C   UNL     1     -16.219  10.163   5.846  1.00  0.00     0.000 A 
ENDBRANCH  63  76
ENDBRANCH  37  38
ENDBRANCH  29  32
ENDBRANCH  27  28
ENDBRANCH  26  27
ENDBRANCH   1  26
TORSDOF 14
