REMARK SMILES COc1ccccc1[C@@H]1C[N@@H+](Cc2cn3cc(C)ccc3n2)C[C@H]1C(=O)NCCCNC(=O)c1ccc(-c2c3nc(c(-c4ccccc4)c4ccc([nH]4)c(-c4ccccc4)c4nc(c(-c5ccccc5)c5ccc2[nH]5)C=C4)C=C3)cc1
REMARK SMILES IDX 29 1 28 2 27 3 25 4 26 5 24 7 9 8 10 9 11 10 23 11 8 13 3 14
REMARK SMILES IDX 4 15 5 16 7 17 6 18 2 19 1 20 12 21 13 22 14 23 22 24 15 25
REMARK SMILES IDX 21 26 16 27 20 28 17 29 19 30 18 31 30 32 31 33 32 34 33 36
REMARK SMILES IDX 34 37 35 38 81 39 36 40 80 41 37 42 38 43 39 44 74 45 40 46
REMARK SMILES IDX 79 47 73 48 75 49 41 50 78 51 72 52 71 53 42 55 64 56 49 57
REMARK SMILES IDX 63 58 50 59 53 60 62 61 76 62 51 63 52 64 61 66 77 67 54 68
REMARK SMILES IDX 43 69 44 70 48 71 45 72 47 73 46 74 65 75 66 76 70 77 67 78
REMARK SMILES IDX 69 79 68 80 55 81 56 82 60 83 57 84 59 85 58 86
REMARK H PARENT 27 6 11 12 31 35 75 54 53 65
REMARK Flexibility Score: inf
ROOT
ATOM      1  C   UNL     1       6.801  -2.000  -2.200  1.00  0.00     0.042 C 
ENDROOT
BRANCH   1   2
ATOM      2  C   UNL     1       5.359  -1.732  -2.691  1.00  0.00     0.117 C 
BRANCH   2   3
ATOM      3  N   UNL     1       4.234  -2.506  -2.141  1.00  0.00    -0.356 N 
ATOM      4  C   UNL     1       3.132  -2.296  -1.361  1.00  0.00     0.229 C 
ATOM      5  O   UNL     1       2.431  -3.316  -1.218  1.00  0.00    -0.275 OA
ATOM      6  H   UNL     1       4.293  -3.450  -2.415  1.00  0.00     0.163 HD
BRANCH   4   7
ATOM      7  C   UNL     1       2.629  -0.995  -0.685  1.00  0.00     0.146 C 
ATOM      8  C   UNL     1       2.554  -1.021   0.879  1.00  0.00     0.096 C 
ATOM      9  C   UNL     1       3.039   0.366   1.336  1.00  0.00     0.272 C 
ATOM     10  N   UNL     1       3.959   0.819   0.284  1.00  0.00    -0.329 N 
ATOM     11  C   UNL     1       3.353   0.320  -0.960  1.00  0.00     0.276 C 
ATOM     12  H   UNL     1       4.046   1.835   0.259  1.00  0.00     0.348 HD
BRANCH   8  13
ATOM     13  C   UNL     1       1.442  -1.617   1.728  1.00  0.00     0.004 A 
ATOM     14  C   UNL     1       0.166  -1.101   1.980  1.00  0.00     0.122 A 
ATOM     15  C   UNL     1      -0.669  -1.721   2.933  1.00  0.00     0.047 A 
ATOM     16  C   UNL     1      -0.249  -2.825   3.678  1.00  0.00     0.004 A 
ATOM     17  C   UNL     1       1.838  -2.741   2.515  1.00  0.00     0.008 A 
ATOM     18  C   UNL     1       1.022  -3.326   3.481  1.00  0.00     0.001 A 
BRANCH  14  19
ATOM     19  O   UNL     1      -0.329   0.099   1.548  1.00  0.00    -0.496 OA
ATOM     20  C   UNL     1      -0.362   0.295   0.146  1.00  0.00     0.278 C 
ENDBRANCH  14  19
ENDBRANCH   8  13
BRANCH  10  21
ATOM     21  C   UNL     1       5.392   0.492   0.510  1.00  0.00     0.321 C 
BRANCH  21  22
ATOM     22  C   UNL     1       5.721  -0.902   0.989  1.00  0.00     0.114 A 
ATOM     23  C   UNL     1       6.490  -1.379   2.038  1.00  0.00     0.122 A 
ATOM     24  N   UNL     1       5.236  -1.972   0.292  1.00  0.00    -0.228 NA
ATOM     25  N   UNL     1       6.362  -2.758   2.018  1.00  0.00    -0.306 N 
ATOM     26  C   UNL     1       5.506  -3.051   0.977  1.00  0.00     0.137 A 
ATOM     27  C   UNL     1       6.924  -3.755   2.813  1.00  0.00     0.096 A 
ATOM     28  C   UNL     1       5.062  -4.387   0.807  1.00  0.00     0.048 A 
ATOM     29  C   UNL     1       6.586  -5.046   2.597  1.00  0.00    -0.034 A 
ATOM     30  C   UNL     1       5.576  -5.352   1.585  1.00  0.00     0.009 A 
ATOM     31  C   UNL     1       7.170  -6.193   3.350  1.00  0.00     0.046 C 
ENDBRANCH  21  22
ENDBRANCH  10  21
ENDBRANCH   4   7
ENDBRANCH   2   3
ENDBRANCH   1   2
BRANCH   1  32
ATOM     32  C   UNL     1       7.214  -3.452  -2.226  1.00  0.00     0.118 C 
BRANCH  32  33
ATOM     33  N   UNL     1       8.576  -3.680  -2.696  1.00  0.00    -0.352 N 
ATOM     34  C   UNL     1       9.415  -4.774  -2.579  1.00  0.00     0.251 C 
ATOM     35  H   UNL     1       8.969  -2.920  -3.184  1.00  0.00     0.163 HD
ATOM     36  O   UNL     1      10.561  -4.682  -2.987  1.00  0.00    -0.269 OA
BRANCH  34  37
ATOM     37  C   UNL     1       8.950  -6.059  -1.989  1.00  0.00     0.039 A 
ATOM     38  C   UNL     1       9.862  -7.101  -1.750  1.00  0.00     0.014 A 
ATOM     39  C   UNL     1       7.610  -6.279  -1.706  1.00  0.00     0.014 A 
ATOM     40  C   UNL     1       9.384  -8.356  -1.363  1.00  0.00     0.010 A 
ATOM     41  C   UNL     1       7.180  -7.417  -1.103  1.00  0.00     0.010 A 
ATOM     42  C   UNL     1       8.017  -8.507  -1.116  1.00  0.00    -0.014 A 
BRANCH  42  43
ATOM     43  C   UNL     1       7.370  -9.756  -0.766  1.00  0.00     0.031 A 
ATOM     44  C   UNL     1       7.818 -10.280   0.537  1.00  0.00     0.074 A 
ATOM     45  C   UNL     1       6.237 -10.180  -1.375  1.00  0.00     0.049 A 
ATOM     46  N   UNL     1       8.564 -11.303   0.770  1.00  0.00    -0.248 NA
ATOM     47  C   UNL     1       7.563  -9.440   1.717  1.00  0.00     0.031 C 
ATOM     48  C   UNL     1       5.457  -9.534  -2.446  1.00  0.00     0.029 A 
ATOM     49  N   UNL     1       5.461 -11.249  -1.062  1.00  0.00    -0.354 N 
ATOM     50  C   UNL     1       8.671 -11.368   2.154  1.00  0.00     0.074 A 
ATOM     51  C   UNL     1       8.265 -10.080   2.651  1.00  0.00     0.031 C 
ATOM     52  C   UNL     1       4.236 -10.113  -2.537  1.00  0.00     0.029 A 
ATOM     53  C   UNL     1       4.200 -11.262  -1.653  1.00  0.00     0.049 A 
ATOM     54  H   UNL     1       5.768 -11.965  -0.460  1.00  0.00     0.167 HD
ATOM     55  C   UNL     1       8.770 -12.567   2.791  1.00  0.00     0.031 A 
ATOM     56  C   UNL     1       3.203 -12.152  -1.407  1.00  0.00     0.031 A 
ATOM     57  C   UNL     1       9.083 -13.625   1.860  1.00  0.00     0.049 A 
ATOM     58  C   UNL     1       3.831 -13.330  -0.763  1.00  0.00     0.074 A 
ATOM     59  C   UNL     1      10.109 -13.851   0.964  1.00  0.00     0.029 A 
ATOM     60  N   UNL     1       8.033 -14.409   1.437  1.00  0.00    -0.354 N 
ATOM     61  N   UNL     1       4.679 -14.110  -1.373  1.00  0.00    -0.248 NA
ATOM     62  C   UNL     1       3.889 -13.358   0.690  1.00  0.00     0.031 C 
ATOM     63  C   UNL     1       9.464 -14.352  -0.206  1.00  0.00     0.029 A 
ATOM     64  C   UNL     1       8.103 -14.502   0.071  1.00  0.00     0.049 A 
ATOM     65  H   UNL     1       7.353 -14.827   2.013  1.00  0.00     0.167 HD
ATOM     66  C   UNL     1       5.658 -14.374  -0.426  1.00  0.00     0.074 A 
ATOM     67  C   UNL     1       5.068 -13.968   0.851  1.00  0.00     0.031 C 
ATOM     68  C   UNL     1       6.950 -14.615  -0.798  1.00  0.00     0.031 A 
BRANCH  55  69
ATOM     69  C   UNL     1       8.136 -12.845   4.133  1.00  0.00    -0.014 A 
ATOM     70  C   UNL     1       8.296 -14.127   4.686  1.00  0.00     0.009 A 
ATOM     71  C   UNL     1       7.172 -12.015   4.737  1.00  0.00     0.009 A 
ATOM     72  C   UNL     1       7.471 -14.581   5.721  1.00  0.00     0.001 A 
ATOM     73  C   UNL     1       6.375 -12.449   5.798  1.00  0.00     0.001 A 
ATOM     74  C   UNL     1       6.502 -13.746   6.268  1.00  0.00     0.000 A 
ENDBRANCH  55  69
BRANCH  56  75
ATOM     75  C   UNL     1       1.732 -11.980  -1.447  1.00  0.00    -0.014 A 
ATOM     76  C   UNL     1       0.875 -13.094  -1.498  1.00  0.00     0.009 A 
ATOM     77  C   UNL     1       1.158 -10.733  -1.141  1.00  0.00     0.009 A 
ATOM     78  C   UNL     1      -0.493 -12.971  -1.209  1.00  0.00     0.001 A 
ATOM     79  C   UNL     1      -0.207 -10.611  -0.853  1.00  0.00     0.001 A 
ATOM     80  C   UNL     1      -1.030 -11.732  -0.871  1.00  0.00     0.000 A 
ENDBRANCH  56  75
BRANCH  68  81
ATOM     81  C   UNL     1       7.245 -14.777  -2.274  1.00  0.00    -0.014 A 
ATOM     82  C   UNL     1       7.055 -13.751  -3.219  1.00  0.00     0.009 A 
ATOM     83  C   UNL     1       7.905 -15.941  -2.689  1.00  0.00     0.009 A 
ATOM     84  C   UNL     1       7.501 -13.896  -4.539  1.00  0.00     0.001 A 
ATOM     85  C   UNL     1       8.368 -16.078  -3.999  1.00  0.00     0.001 A 
ATOM     86  C   UNL     1       8.165 -15.057  -4.925  1.00  0.00     0.000 A 
ENDBRANCH  68  81
ENDBRANCH  42  43
ENDBRANCH  34  37
ENDBRANCH  32  33
ENDBRANCH   1  32
TORSDOF 14
