REMARK SMILES N#C[C@@H]1CN(C(=O)NCCCC(=O)NCCCNC(=O)c2ccc(-c3c4nc(c(-c5ccccc5)c5ccc([nH]5)c(-c5ccccc5)c5nc(c(-c6ccccc6)c6ccc3[nH]6)C=C5)C=C4)cc2)CCO1
REMARK SMILES IDX 12 1 13 2 14 3 11 5 10 6 9 7 8 8 6 9 7 10 5 12 3 13 4 14
REMARK SMILES IDX 71 15 70 16 69 17 2 18 1 19 15 20 16 21 17 22 18 23 19 24
REMARK SMILES IDX 20 26 21 27 22 28 68 29 23 30 67 31 24 32 25 33 26 34 61 35
REMARK SMILES IDX 27 36 66 37 60 38 62 39 28 40 65 41 59 42 58 43 29 45 51 46
REMARK SMILES IDX 36 47 50 48 37 49 40 50 49 51 63 52 38 53 39 54 48 56 64 57
REMARK SMILES IDX 41 58 30 59 31 60 35 61 32 62 34 63 33 64 52 65 53 66 57 67
REMARK SMILES IDX 54 68 56 69 55 70 42 71 43 72 47 73 44 74 46 75 45 76
REMARK H PARENT 14 4 8 11 18 25 62 44 40 55
REMARK Flexibility Score: inf
ROOT
ATOM      1  C   UNL     1       1.838   6.271  -1.582  1.00  0.00     0.220 C 
ATOM      2  O   UNL     1       2.061   7.158  -0.756  1.00  0.00    -0.275 OA
ATOM      3  N   UNL     1       0.762   5.464  -1.383  1.00  0.00    -0.356 N 
ATOM      4  H   UNL     1       0.179   5.735  -0.638  1.00  0.00     0.163 HD
ENDROOT
BRANCH   1   5
ATOM      5  C   UNL     1       2.745   6.082  -2.779  1.00  0.00     0.102 C 
BRANCH   5   6
ATOM      6  C   UNL     1       4.115   5.519  -2.393  1.00  0.00     0.031 C 
BRANCH   6   7
ATOM      7  C   UNL     1       4.089   4.063  -1.933  1.00  0.00     0.118 C 
BRANCH   7   8
ATOM      8  N   UNL     1       3.646   3.157  -2.978  1.00  0.00    -0.338 N 
ATOM      9  C   UNL     1       3.748   1.831  -3.184  1.00  0.00     0.317 C 
ATOM     10  O   UNL     1       3.432   1.448  -4.312  1.00  0.00    -0.249 OA
ATOM     11  H   UNL     1       3.161   3.618  -3.700  1.00  0.00     0.165 HD
BRANCH   9  12
ATOM     12  N   UNL     1       4.194   0.969  -2.227  1.00  0.00    -0.319 N 
ATOM     13  C   UNL     1       3.822   0.059   0.070  1.00  0.00     0.240 C 
ATOM     14  C   UNL     1       4.369   1.209  -0.792  1.00  0.00     0.169 C 
ATOM     15  O   UNL     1       4.352  -1.212  -0.363  1.00  0.00    -0.360 OA
ATOM     16  C   UNL     1       4.051  -1.473  -1.745  1.00  0.00     0.183 C 
ATOM     17  C   UNL     1       4.607  -0.377  -2.656  1.00  0.00     0.150 C 
BRANCH  13  18
ATOM     18  C   UNL     1       2.302   0.059   0.070  1.00  0.00     0.096 C 
ATOM     19  N   UNL     1       1.041   0.059   0.070  1.00  0.00    -0.195 NA
ENDBRANCH  13  18
ENDBRANCH   9  12
ENDBRANCH   7   8
ENDBRANCH   6   7
ENDBRANCH   5   6
ENDBRANCH   1   5
BRANCH   3  20
ATOM     20  C   UNL     1       0.327   4.266  -2.088  1.00  0.00     0.117 C 
BRANCH  20  21
ATOM     21  C   UNL     1       0.461   3.026  -1.206  1.00  0.00     0.042 C 
BRANCH  21  22
ATOM     22  C   UNL     1      -0.609   2.918  -0.120  1.00  0.00     0.118 C 
BRANCH  22  23
ATOM     23  N   UNL     1      -1.859   2.385  -0.634  1.00  0.00    -0.352 N 
ATOM     24  C   UNL     1      -2.567   1.262  -0.280  1.00  0.00     0.251 C 
ATOM     25  H   UNL     1      -2.267   2.917  -1.355  1.00  0.00     0.163 HD
ATOM     26  O   UNL     1      -3.497   0.909  -1.005  1.00  0.00    -0.269 OA
BRANCH  24  27
ATOM     27  C   UNL     1      -2.269   0.474   0.946  1.00  0.00     0.039 A 
ATOM     28  C   UNL     1      -2.517  -0.906   0.917  1.00  0.00     0.014 A 
ATOM     29  C   UNL     1      -1.861   1.063   2.145  1.00  0.00     0.014 A 
ATOM     30  C   UNL     1      -2.342  -1.685   2.066  1.00  0.00     0.010 A 
ATOM     31  C   UNL     1      -1.620   0.275   3.276  1.00  0.00     0.010 A 
ATOM     32  C   UNL     1      -1.884  -1.104   3.257  1.00  0.00    -0.014 A 
BRANCH  32  33
ATOM     33  C   UNL     1      -1.737  -1.916   4.496  1.00  0.00     0.031 A 
ATOM     34  C   UNL     1      -2.632  -1.663   5.682  1.00  0.00     0.074 A 
ATOM     35  C   UNL     1      -0.796  -2.877   4.572  1.00  0.00     0.049 A 
ATOM     36  N   UNL     1      -2.651  -2.260   6.849  1.00  0.00    -0.248 NA
ATOM     37  C   UNL     1      -3.623  -0.584   5.547  1.00  0.00     0.031 C 
ATOM     38  C   UNL     1       0.152  -3.222   3.512  1.00  0.00     0.029 A 
ATOM     39  N   UNL     1      -0.491  -3.748   5.590  1.00  0.00    -0.354 N 
ATOM     40  C   UNL     1      -3.637  -1.618   7.588  1.00  0.00     0.074 A 
ATOM     41  C   UNL     1      -4.165  -0.559   6.756  1.00  0.00     0.031 C 
ATOM     42  C   UNL     1       0.910  -4.254   3.922  1.00  0.00     0.029 A 
ATOM     43  C   UNL     1       0.521  -4.623   5.281  1.00  0.00     0.049 A 
ATOM     44  H   UNL     1      -0.953  -3.744   6.459  1.00  0.00     0.167 HD
ATOM     45  C   UNL     1      -4.080  -1.891   8.839  1.00  0.00     0.031 A 
ATOM     46  C   UNL     1       1.071  -5.617   6.005  1.00  0.00     0.031 A 
ATOM     47  C   UNL     1      -3.584  -2.956   9.668  1.00  0.00     0.049 A 
ATOM     48  C   UNL     1       0.560  -5.905   7.389  1.00  0.00     0.074 A 
ATOM     49  C   UNL     1      -4.006  -3.335  10.931  1.00  0.00     0.029 A 
ATOM     50  N   UNL     1      -2.558  -3.816   9.314  1.00  0.00    -0.354 N 
ATOM     51  N   UNL     1      -0.401  -5.314   8.055  1.00  0.00    -0.248 NA
ATOM     52  C   UNL     1       1.207  -7.008   8.116  1.00  0.00     0.031 C 
ATOM     53  C   UNL     1      -3.213  -4.407  11.355  1.00  0.00     0.029 A 
ATOM     54  C   UNL     1      -2.325  -4.718  10.339  1.00  0.00     0.049 A 
ATOM     55  H   UNL     1      -2.068  -3.791   8.461  1.00  0.00     0.167 HD
ATOM     56  C   UNL     1      -0.493  -5.989   9.265  1.00  0.00     0.074 A 
ATOM     57  C   UNL     1       0.503  -7.039   9.239  1.00  0.00     0.031 C 
ATOM     58  C   UNL     1      -1.333  -5.760  10.303  1.00  0.00     0.031 A 
BRANCH  45  59
ATOM     59  C   UNL     1      -5.167  -1.010   9.389  1.00  0.00    -0.014 A 
ATOM     60  C   UNL     1      -6.485  -1.103   8.916  1.00  0.00     0.009 A 
ATOM     61  C   UNL     1      -4.872  -0.091  10.408  1.00  0.00     0.009 A 
ATOM     62  C   UNL     1      -7.479  -0.266   9.426  1.00  0.00     0.001 A 
ATOM     63  C   UNL     1      -5.874   0.726  10.934  1.00  0.00     0.001 A 
ATOM     64  C   UNL     1      -7.174   0.645  10.436  1.00  0.00     0.000 A 
ENDBRANCH  45  59
BRANCH  46  65
ATOM     65  C   UNL     1       2.154  -6.447   5.418  1.00  0.00    -0.014 A 
ATOM     66  C   UNL     1       1.890  -7.761   5.001  1.00  0.00     0.009 A 
ATOM     67  C   UNL     1       3.452  -5.935   5.277  1.00  0.00     0.009 A 
ATOM     68  C   UNL     1       2.910  -8.552   4.471  1.00  0.00     0.001 A 
ATOM     69  C   UNL     1       4.465  -6.722   4.726  1.00  0.00     0.001 A 
ATOM     70  C   UNL     1       4.196  -8.031   4.330  1.00  0.00     0.000 A 
ENDBRANCH  46  65
BRANCH  58  71
ATOM     71  C   UNL     1      -1.236  -6.683  11.482  1.00  0.00    -0.014 A 
ATOM     72  C   UNL     1      -0.183  -6.577  12.403  1.00  0.00     0.009 A 
ATOM     73  C   UNL     1      -2.235  -7.646  11.695  1.00  0.00     0.009 A 
ATOM     74  C   UNL     1      -0.117  -7.439  13.500  1.00  0.00     0.001 A 
ATOM     75  C   UNL     1      -2.178  -8.491  12.804  1.00  0.00     0.001 A 
ATOM     76  C   UNL     1      -1.115  -8.392  13.701  1.00  0.00     0.000 A 
ENDBRANCH  58  71
ENDBRANCH  32  33
ENDBRANCH  24  27
ENDBRANCH  22  23
ENDBRANCH  21  22
ENDBRANCH  20  21
ENDBRANCH   3  20
TORSDOF 15
