REMARK SMILES CCc1cc(OC(F)(F)F)cc2c1O[C@H](C(F)(F)F)C(C(=O)NCCCNC(=O)c1ccc(-c3c4nc(c(-c5ccccc5)c5ccc([nH]5)c(-c5ccccc5)c5nc(c(-c6ccccc6)c6ccc3[nH]6)C=C5)C=C4)cc1)=C2
REMARK SMILES IDX 25 1 24 2 23 3 21 4 22 5 20 7 3 8 4 9 13 10 5 11 12 12 14 13
REMARK SMILES IDX 11 14 78 15 15 16 2 17 1 18 6 19 7 20 8 21 9 22 10 23 16 24
REMARK SMILES IDX 17 25 18 26 19 27 26 28 27 29 28 30 29 32 30 33 31 34 77 35
REMARK SMILES IDX 32 36 76 37 33 38 34 39 35 40 70 41 36 42 75 43 69 44 71 45
REMARK SMILES IDX 37 46 74 47 68 48 67 49 38 51 60 52 45 53 59 54 46 55 49 56
REMARK SMILES IDX 58 57 72 58 47 59 48 60 57 62 73 63 50 64 39 65 40 66 44 67
REMARK SMILES IDX 41 68 43 69 42 70 61 71 62 72 66 73 63 74 65 75 64 76 51 77
REMARK SMILES IDX 52 78 56 79 53 80 55 81 54 82
REMARK H PARENT 23 6 27 31 71 50 49 61
REMARK Flexibility Score: inf
ROOT
ATOM      1  C   UNL     1       3.002   0.879   8.161  1.00  0.00     0.042 C 
ENDROOT
BRANCH   1   2
ATOM      2  C   UNL     1       1.833   1.573   7.462  1.00  0.00     0.118 C 
BRANCH   2   3
ATOM      3  N   UNL     1       2.305   2.553   6.502  1.00  0.00    -0.352 N 
ATOM      4  C   UNL     1       2.527   2.504   5.165  1.00  0.00     0.251 C 
ATOM      5  O   UNL     1       2.877   3.547   4.615  1.00  0.00    -0.270 OA
ATOM      6  H   UNL     1       2.503   3.430   6.901  1.00  0.00     0.163 HD
BRANCH   4   7
ATOM      7  C   UNL     1       2.268   1.296   4.334  1.00  0.00     0.067 C 
ATOM      8  C   UNL     1       0.872  -1.652   1.676  1.00  0.00    -0.002 A 
ATOM      9  C   UNL     1       0.934  -3.002   2.088  1.00  0.00     0.054 A 
ATOM     10  C   UNL     1       1.321  -0.666   2.567  1.00  0.00     0.131 A 
ATOM     11  C   UNL     1       1.448  -3.362   3.336  1.00  0.00     0.130 A 
ATOM     12  C   UNL     1       1.859  -1.019   3.812  1.00  0.00     0.021 A 
ATOM     13  O   UNL     1       1.143   0.650   2.231  1.00  0.00    -0.475 OA
ATOM     14  C   UNL     1       1.921  -2.363   4.187  1.00  0.00     0.058 A 
ATOM     15  C   UNL     1       2.260   0.024   4.755  1.00  0.00     0.025 C 
ATOM     16  C   UNL     1       2.042   1.601   2.864  1.00  0.00     0.314 C 
BRANCH   8  17
ATOM     17  C   UNL     1       0.256  -1.365   0.320  1.00  0.00     0.036 C 
ATOM     18  C   UNL     1       0.797  -0.175  -0.463  1.00  0.00     0.009 C 
ENDBRANCH   8  17
BRANCH  11  19
ATOM     19  O   UNL     1       1.532  -4.623   3.852  1.00  0.00    -0.406 OA
BRANCH  19  20
ATOM     20  C   UNL     1       1.026  -5.696   3.075  1.00  0.00     0.573 C 
ATOM     21  F   UNL     1      -0.287  -5.529   2.808  1.00  0.00    -0.132 F 
ATOM     22  F   UNL     1       1.712  -5.822   1.920  1.00  0.00    -0.132 F 
ATOM     23  F   UNL     1       1.169  -6.841   3.778  1.00  0.00    -0.132 F 
ENDBRANCH  19  20
ENDBRANCH  11  19
BRANCH  16  24
ATOM     24  C   UNL     1       3.356   1.710   2.062  1.00  0.00     0.429 C 
ATOM     25  F   UNL     1       4.060   0.551   2.076  1.00  0.00    -0.167 F 
ATOM     26  F   UNL     1       3.105   2.003   0.761  1.00  0.00    -0.167 F 
ATOM     27  F   UNL     1       4.185   2.673   2.521  1.00  0.00    -0.167 F 
ENDBRANCH  16  24
ENDBRANCH   4   7
ENDBRANCH   2   3
ENDBRANCH   1   2
BRANCH   1  28
ATOM     28  C   UNL     1       3.694   1.764   9.194  1.00  0.00     0.118 C 
BRANCH  28  29
ATOM     29  N   UNL     1       2.853   1.992  10.359  1.00  0.00    -0.352 N 
ATOM     30  C   UNL     1       3.086   1.716  11.682  1.00  0.00     0.251 C 
ATOM     31  H   UNL     1       1.981   2.408  10.168  1.00  0.00     0.163 HD
ATOM     32  O   UNL     1       2.156   1.767  12.482  1.00  0.00    -0.269 OA
BRANCH  30  33
ATOM     33  C   UNL     1       4.440   1.355  12.154  1.00  0.00     0.039 A 
ATOM     34  C   UNL     1       4.567   0.363  13.132  1.00  0.00     0.014 A 
ATOM     35  C   UNL     1       5.574   2.026  11.688  1.00  0.00     0.014 A 
ATOM     36  C   UNL     1       5.831   0.017  13.613  1.00  0.00     0.010 A 
ATOM     37  C   UNL     1       6.840   1.635  12.120  1.00  0.00     0.010 A 
ATOM     38  C   UNL     1       6.979   0.635  13.094  1.00  0.00    -0.014 A 
BRANCH  38  39
ATOM     39  C   UNL     1       8.333   0.257  13.568  1.00  0.00     0.031 A 
ATOM     40  C   UNL     1       9.178   1.248  14.318  1.00  0.00     0.074 A 
ATOM     41  C   UNL     1       8.825  -0.959  13.268  1.00  0.00     0.049 A 
ATOM     42  N   UNL     1      10.405   1.122  14.757  1.00  0.00    -0.248 NA
ATOM     43  C   UNL     1       8.574   2.563  14.588  1.00  0.00     0.031 C 
ATOM     44  C   UNL     1       8.121  -1.994  12.509  1.00  0.00     0.029 A 
ATOM     45  N   UNL     1      10.041  -1.525  13.556  1.00  0.00    -0.354 N 
ATOM     46  C   UNL     1      10.725   2.343  15.338  1.00  0.00     0.074 A 
ATOM     47  C   UNL     1       9.581   3.211  15.154  1.00  0.00     0.031 C 
ATOM     48  C   UNL     1       8.912  -3.074  12.403  1.00  0.00     0.029 A 
ATOM     49  C   UNL     1      10.187  -2.795  13.056  1.00  0.00     0.049 A 
ATOM     50  H   UNL     1      10.742  -1.064  14.070  1.00  0.00     0.167 HD
ATOM     51  C   UNL     1      11.860   2.705  15.983  1.00  0.00     0.031 A 
ATOM     52  C   UNL     1      11.233  -3.640  13.110  1.00  0.00     0.031 A 
ATOM     53  C   UNL     1      12.995   1.841  16.169  1.00  0.00     0.049 A 
ATOM     54  C   UNL     1      12.481  -3.220  13.832  1.00  0.00     0.074 A 
ATOM     55  C   UNL     1      14.172   2.097  16.850  1.00  0.00     0.029 A 
ATOM     56  N   UNL     1      13.094   0.552  15.669  1.00  0.00    -0.354 N 
ATOM     57  N   UNL     1      12.744  -2.084  14.431  1.00  0.00    -0.248 NA
ATOM     58  C   UNL     1      13.570  -4.204  13.897  1.00  0.00     0.031 C 
ATOM     59  C   UNL     1      15.001   0.976  16.726  1.00  0.00     0.029 A 
ATOM     60  C   UNL     1      14.319   0.005  16.009  1.00  0.00     0.049 A 
ATOM     61  H   UNL     1      12.395   0.093  15.148  1.00  0.00     0.167 HD
ATOM     62  C   UNL     1      14.020  -2.222  14.961  1.00  0.00     0.074 A 
ATOM     63  C   UNL     1      14.470  -3.559  14.627  1.00  0.00     0.031 C 
ATOM     64  C   UNL     1      14.754  -1.323  15.661  1.00  0.00     0.031 A 
BRANCH  51  65
ATOM     65  C   UNL     1      11.924   4.106  16.524  1.00  0.00    -0.014 A 
ATOM     66  C   UNL     1      11.137   4.498  17.620  1.00  0.00     0.009 A 
ATOM     67  C   UNL     1      12.788   5.045  15.940  1.00  0.00     0.009 A 
ATOM     68  C   UNL     1      11.183   5.812  18.091  1.00  0.00     0.001 A 
ATOM     69  C   UNL     1      12.853   6.350  16.431  1.00  0.00     0.001 A 
ATOM     70  C   UNL     1      12.042   6.736  17.498  1.00  0.00     0.000 A 
ENDBRANCH  51  65
BRANCH  52  71
ATOM     71  C   UNL     1      11.133  -4.976  12.470  1.00  0.00    -0.014 A 
ATOM     72  C   UNL     1      10.998  -6.133  13.252  1.00  0.00     0.009 A 
ATOM     73  C   UNL     1      11.148  -5.098  11.072  1.00  0.00     0.009 A 
ATOM     74  C   UNL     1      10.900  -7.387  12.646  1.00  0.00     0.001 A 
ATOM     75  C   UNL     1      11.024  -6.351  10.468  1.00  0.00     0.001 A 
ATOM     76  C   UNL     1      10.907  -7.495  11.256  1.00  0.00     0.000 A 
ENDBRANCH  52  71
BRANCH  64  77
ATOM     77  C   UNL     1      16.110  -1.765  16.130  1.00  0.00    -0.014 A 
ATOM     78  C   UNL     1      17.182  -1.895  15.234  1.00  0.00     0.009 A 
ATOM     79  C   UNL     1      16.325  -2.022  17.493  1.00  0.00     0.009 A 
ATOM     80  C   UNL     1      18.437  -2.303  15.690  1.00  0.00     0.001 A 
ATOM     81  C   UNL     1      17.587  -2.405  17.950  1.00  0.00     0.001 A 
ATOM     82  C   UNL     1      18.639  -2.554  17.047  1.00  0.00     0.000 A 
ENDBRANCH  64  77
ENDBRANCH  38  39
ENDBRANCH  30  33
ENDBRANCH  28  29
ENDBRANCH   1  28
TORSDOF 14
