REMARK SMILES Cc1cc(C)n([C@@H](C(=O)NCCCNC(=O)c2ccc(-c3c4nc(c(-c5ccccc5)c5ccc([nH]5)c(-c5ccccc5)c5nc(c(-c6ccccc6)c6ccc3[nH]6)C=C5)C=C4)cc2)C(C)C)n1
REMARK SMILES IDX 12 1 11 2 10 3 8 4 9 5 7 7 6 8 1 9 2 10 3 11 68 12 4 13 5 14
REMARK SMILES IDX 65 15 66 16 67 17 13 18 14 19 15 20 16 22 17 23 18 24 64 25
REMARK SMILES IDX 19 26 63 27 20 28 21 29 22 30 57 31 23 32 62 33 56 34 58 35
REMARK SMILES IDX 24 36 61 37 55 38 54 39 25 41 47 42 32 43 46 44 33 45 36 46
REMARK SMILES IDX 45 47 59 48 34 49 35 50 44 52 60 53 37 54 26 55 27 56 31 57
REMARK SMILES IDX 28 58 30 59 29 60 48 61 49 62 53 63 50 64 52 65 51 66 38 67
REMARK SMILES IDX 39 68 43 69 40 70 42 71 41 72
REMARK H PARENT 10 6 14 21 58 40 36 51
REMARK Flexibility Score: inf
ROOT
ATOM      1  C   UNL     1       3.140   2.663  -2.368  1.00  0.00     0.042 C 
ENDROOT
BRANCH   1   2
ATOM      2  C   UNL     1       3.235   4.016  -1.656  1.00  0.00     0.117 C 
BRANCH   2   3
ATOM      3  N   UNL     1       2.335   5.019  -2.219  1.00  0.00    -0.354 N 
ATOM      4  C   UNL     1       1.105   5.431  -1.775  1.00  0.00     0.245 C 
ATOM      5  O   UNL     1       0.503   6.257  -2.467  1.00  0.00    -0.273 OA
ATOM      6  H   UNL     1       2.659   5.464  -3.036  1.00  0.00     0.163 HD
BRANCH   4   7
ATOM      7  C   UNL     1       0.533   4.875  -0.467  1.00  0.00     0.199 C 
BRANCH   7   8
ATOM      8  N   UNL     1       0.120   3.484  -0.676  1.00  0.00    -0.257 N 
ATOM      9  C   UNL     1       0.830   0.085   0.056  1.00  0.00     0.069 C 
ATOM     10  C   UNL     1       0.285   1.373  -0.432  1.00  0.00     0.060 A 
ATOM     11  C   UNL     1      -0.718   1.587  -1.397  1.00  0.00     0.048 A 
ATOM     12  N   UNL     1       0.771   2.527   0.030  1.00  0.00    -0.177 NA
ATOM     13  C   UNL     1      -0.809   2.956  -1.545  1.00  0.00     0.037 A 
ATOM     14  C   UNL     1      -1.684   3.741  -2.451  1.00  0.00     0.066 C 
ENDBRANCH   7   8
BRANCH   7  15
ATOM     15  C   UNL     1      -0.579   5.748   0.179  1.00  0.00     0.017 C 
ATOM     16  C   UNL     1      -1.049   5.146   1.512  1.00  0.00     0.010 C 
ATOM     17  C   UNL     1      -0.105   7.184   0.448  1.00  0.00     0.010 C 
ENDBRANCH   7  15
ENDBRANCH   4   7
ENDBRANCH   2   3
ENDBRANCH   1   2
BRANCH   1  18
ATOM     18  C   UNL     1       3.788   2.671  -3.741  1.00  0.00     0.118 C 
BRANCH  18  19
ATOM     19  N   UNL     1       5.247   2.788  -3.695  1.00  0.00    -0.352 N 
ATOM     20  C   UNL     1       6.132   2.809  -4.762  1.00  0.00     0.251 C 
ATOM     21  H   UNL     1       5.648   2.861  -2.798  1.00  0.00     0.163 HD
ATOM     22  O   UNL     1       7.318   2.584  -4.613  1.00  0.00    -0.269 OA
BRANCH  20  23
ATOM     23  C   UNL     1       5.589   3.127  -6.095  1.00  0.00     0.039 A 
ATOM     24  C   UNL     1       5.956   2.410  -7.237  1.00  0.00     0.014 A 
ATOM     25  C   UNL     1       4.641   4.141  -6.158  1.00  0.00     0.014 A 
ATOM     26  C   UNL     1       5.289   2.672  -8.433  1.00  0.00     0.010 A 
ATOM     27  C   UNL     1       3.859   4.258  -7.272  1.00  0.00     0.010 A 
ATOM     28  C   UNL     1       4.228   3.588  -8.433  1.00  0.00    -0.014 A 
BRANCH  28  29
ATOM     29  C   UNL     1       3.413   3.826  -9.616  1.00  0.00     0.031 A 
ATOM     30  C   UNL     1       2.694   2.632 -10.139  1.00  0.00     0.074 A 
ATOM     31  C   UNL     1       3.113   5.081 -10.021  1.00  0.00     0.049 A 
ATOM     32  N   UNL     1       2.831   2.066 -11.291  1.00  0.00    -0.248 NA
ATOM     33  C   UNL     1       1.786   1.913  -9.228  1.00  0.00     0.031 C 
ATOM     34  C   UNL     1       3.464   6.356  -9.377  1.00  0.00     0.029 A 
ATOM     35  N   UNL     1       2.296   5.479 -11.028  1.00  0.00    -0.354 N 
ATOM     36  C   UNL     1       1.900   1.030 -11.329  1.00  0.00     0.074 A 
ATOM     37  C   UNL     1       1.410   0.879  -9.983  1.00  0.00     0.031 C 
ATOM     38  C   UNL     1       2.662   7.338  -9.847  1.00  0.00     0.029 A 
ATOM     39  C   UNL     1       1.885   6.805 -10.948  1.00  0.00     0.049 A 
ATOM     40  H   UNL     1       2.016   4.879 -11.757  1.00  0.00     0.167 HD
ATOM     41  C   UNL     1       1.433   0.535 -12.511  1.00  0.00     0.031 A 
ATOM     42  C   UNL     1       0.946   7.410 -11.716  1.00  0.00     0.031 A 
ATOM     43  C   UNL     1       2.243   0.970 -13.620  1.00  0.00     0.049 A 
ATOM     44  C   UNL     1       0.763   6.570 -12.921  1.00  0.00     0.074 A 
ATOM     45  C   UNL     1       3.563   0.804 -13.988  1.00  0.00     0.029 A 
ATOM     46  N   UNL     1       1.782   2.047 -14.339  1.00  0.00    -0.354 N 
ATOM     47  N   UNL     1       1.690   6.390 -13.817  1.00  0.00    -0.248 NA
ATOM     48  C   UNL     1      -0.281   5.559 -12.889  1.00  0.00     0.031 C 
ATOM     49  C   UNL     1       3.954   2.070 -14.515  1.00  0.00     0.029 A 
ATOM     50  C   UNL     1       2.834   2.907 -14.516  1.00  0.00     0.049 A 
ATOM     51  H   UNL     1       0.863   2.177 -14.668  1.00  0.00     0.167 HD
ATOM     52  C   UNL     1       1.604   5.046 -14.149  1.00  0.00     0.074 A 
ATOM     53  C   UNL     1       0.310   4.610 -13.623  1.00  0.00     0.031 C 
ATOM     54  C   UNL     1       2.705   4.347 -14.557  1.00  0.00     0.031 A 
BRANCH  41  55
ATOM     55  C   UNL     1       0.033   0.007 -12.717  1.00  0.00    -0.014 A 
ATOM     56  C   UNL     1      -0.323  -0.476 -13.991  1.00  0.00     0.009 A 
ATOM     57  C   UNL     1      -1.021   0.219 -11.809  1.00  0.00     0.009 A 
ATOM     58  C   UNL     1      -1.663  -0.652 -14.360  1.00  0.00     0.001 A 
ATOM     59  C   UNL     1      -2.357   0.005 -12.160  1.00  0.00     0.001 A 
ATOM     60  C   UNL     1      -2.680  -0.401 -13.446  1.00  0.00     0.000 A 
ENDBRANCH  41  55
BRANCH  42  61
ATOM     61  C   UNL     1      -0.002   8.485 -11.352  1.00  0.00    -0.014 A 
ATOM     62  C   UNL     1      -0.645   9.243 -12.343  1.00  0.00     0.009 A 
ATOM     63  C   UNL     1      -0.494   8.576 -10.036  1.00  0.00     0.009 A 
ATOM     64  C   UNL     1      -1.764  10.030 -12.036  1.00  0.00     0.001 A 
ATOM     65  C   UNL     1      -1.611   9.361  -9.730  1.00  0.00     0.001 A 
ATOM     66  C   UNL     1      -2.256  10.076 -10.734  1.00  0.00     0.000 A 
ENDBRANCH  42  61
BRANCH  54  67
ATOM     67  C   UNL     1       3.971   5.123 -14.842  1.00  0.00    -0.014 A 
ATOM     68  C   UNL     1       4.663   5.862 -13.864  1.00  0.00     0.009 A 
ATOM     69  C   UNL     1       4.574   4.963 -16.098  1.00  0.00     0.009 A 
ATOM     70  C   UNL     1       5.906   6.441 -14.146  1.00  0.00     0.001 A 
ATOM     71  C   UNL     1       5.823   5.523 -16.373  1.00  0.00     0.001 A 
ATOM     72  C   UNL     1       6.487   6.265 -15.399  1.00  0.00     0.000 A 
ENDBRANCH  54  67
ENDBRANCH  28  29
ENDBRANCH  20  23
ENDBRANCH  18  19
ENDBRANCH   1  18
TORSDOF 12
