REMARK SMILES O=C(NCCCNC(=O)c1cc(SCC(=O)N2CCOCC2)ccn1)c1ccc(-c2c3nc(c(-c4ccccc4)c4ccc([nH]4)c(-c4ccccc4)c4nc(c(-c5ccccc5)c5ccc2[nH]5)C=C4)C=C3)cc1
REMARK SMILES IDX 5 1 4 2 3 3 1 4 2 5 26 7 27 8 73 9 28 10 72 11 29 12 30 13
REMARK SMILES IDX 31 14 66 15 32 16 71 17 65 18 67 19 33 20 70 21 64 22 63 23
REMARK SMILES IDX 34 25 56 26 41 27 55 28 42 29 45 30 54 31 68 32 43 33 44 34
REMARK SMILES IDX 53 36 69 37 46 38 35 39 36 40 40 41 37 42 39 43 38 44 57 45
REMARK SMILES IDX 58 46 62 47 59 48 61 49 60 50 47 51 48 52 52 53 49 54 51 55
REMARK SMILES IDX 50 56 6 57 7 58 8 59 9 61 10 62 11 63 25 64 12 65 24 66
REMARK SMILES IDX 23 67 13 68 14 69 15 70 16 71 17 72 18 73 22 74 19 75 21 76
REMARK SMILES IDX 20 77
REMARK H PARENT 3 6 67 24 45 35 7 60
REMARK Flexibility Score: inf
ROOT
ATOM      1  C   UNL     1       4.875   0.202  -2.455  1.00  0.00     0.042 C 
ENDROOT
BRANCH   1   2
ATOM      2  C   UNL     1       4.514   0.810  -1.113  1.00  0.00     0.118 C 
BRANCH   2   3
ATOM      3  N   UNL     1       3.087   0.723  -0.818  1.00  0.00    -0.352 N 
ATOM      4  O   UNL     1       1.186  -0.046   0.115  1.00  0.00    -0.269 OA
ATOM      5  C   UNL     1       2.412   0.021   0.151  1.00  0.00     0.251 C 
ATOM      6  H   UNL     1       2.512   1.257  -1.412  1.00  0.00     0.163 HD
BRANCH   5   7
ATOM      7  C   UNL     1       3.152  -0.683   1.220  1.00  0.00     0.039 A 
ATOM      8  C   UNL     1       4.286  -0.114   1.795  1.00  0.00     0.014 A 
ATOM      9  C   UNL     1       2.699  -1.929   1.667  1.00  0.00     0.014 A 
ATOM     10  C   UNL     1       5.075  -0.865   2.654  1.00  0.00     0.010 A 
ATOM     11  C   UNL     1       3.426  -2.633   2.633  1.00  0.00     0.010 A 
ATOM     12  C   UNL     1       4.644  -2.124   3.104  1.00  0.00    -0.014 A 
BRANCH  12  13
ATOM     13  C   UNL     1       5.470  -2.828   4.117  1.00  0.00     0.031 A 
ATOM     14  C   UNL     1       6.121  -4.151   3.824  1.00  0.00     0.074 A 
ATOM     15  C   UNL     1       5.698  -2.208   5.292  1.00  0.00     0.049 A 
ATOM     16  N   UNL     1       6.956  -4.835   4.567  1.00  0.00    -0.248 NA
ATOM     17  C   UNL     1       5.794  -4.796   2.543  1.00  0.00     0.031 C 
ATOM     18  C   UNL     1       5.106  -0.928   5.697  1.00  0.00     0.029 A 
ATOM     19  N   UNL     1       6.521  -2.536   6.337  1.00  0.00    -0.354 N 
ATOM     20  C   UNL     1       7.241  -5.992   3.855  1.00  0.00     0.074 A 
ATOM     21  C   UNL     1       6.470  -5.934   2.631  1.00  0.00     0.031 C 
ATOM     22  C   UNL     1       5.647  -0.541   6.860  1.00  0.00     0.029 A 
ATOM     23  C   UNL     1       6.568  -1.574   7.317  1.00  0.00     0.049 A 
ATOM     24  H   UNL     1       7.028  -3.378   6.382  1.00  0.00     0.167 HD
ATOM     25  C   UNL     1       8.075  -7.007   4.188  1.00  0.00     0.031 A 
ATOM     26  C   UNL     1       7.270  -1.524   8.462  1.00  0.00     0.031 A 
ATOM     27  C   UNL     1       8.841  -7.064   5.406  1.00  0.00     0.049 A 
ATOM     28  C   UNL     1       8.185  -2.660   8.802  1.00  0.00     0.074 A 
ATOM     29  C   UNL     1       9.713  -8.051   5.832  1.00  0.00     0.029 A 
ATOM     30  N   UNL     1       8.829  -6.089   6.392  1.00  0.00    -0.354 N 
ATOM     31  N   UNL     1       8.450  -3.740   8.108  1.00  0.00    -0.248 NA
ATOM     32  C   UNL     1       8.898  -2.571  10.082  1.00  0.00     0.031 C 
ATOM     33  C   UNL     1      10.201  -7.691   7.094  1.00  0.00     0.029 A 
ATOM     34  C   UNL     1       9.669  -6.457   7.431  1.00  0.00     0.049 A 
ATOM     35  H   UNL     1       8.302  -5.259   6.359  1.00  0.00     0.167 HD
ATOM     36  C   UNL     1       9.359  -4.461   8.867  1.00  0.00     0.074 A 
ATOM     37  C   UNL     1       9.629  -3.675  10.055  1.00  0.00     0.031 C 
ATOM     38  C   UNL     1       9.912  -5.671   8.611  1.00  0.00     0.031 A 
BRANCH  25  39
ATOM     39  C   UNL     1       8.191  -8.156   3.224  1.00  0.00    -0.014 A 
ATOM     40  C   UNL     1       8.899  -8.024   2.019  1.00  0.00     0.009 A 
ATOM     41  C   UNL     1       7.634  -9.402   3.551  1.00  0.00     0.009 A 
ATOM     42  C   UNL     1       9.024  -9.111   1.150  1.00  0.00     0.001 A 
ATOM     43  C   UNL     1       7.781 -10.493   2.692  1.00  0.00     0.001 A 
ATOM     44  C   UNL     1       8.471 -10.345   1.490  1.00  0.00     0.000 A 
ENDBRANCH  25  39
BRANCH  26  45
ATOM     45  C   UNL     1       7.113  -0.362   9.374  1.00  0.00    -0.014 A 
ATOM     46  C   UNL     1       8.157   0.556   9.557  1.00  0.00     0.009 A 
ATOM     47  C   UNL     1       5.902  -0.161  10.057  1.00  0.00     0.009 A 
ATOM     48  C   UNL     1       7.998   1.641  10.423  1.00  0.00     0.001 A 
ATOM     49  C   UNL     1       5.736   0.941  10.896  1.00  0.00     0.001 A 
ATOM     50  C   UNL     1       6.787   1.836  11.086  1.00  0.00     0.000 A 
ENDBRANCH  26  45
BRANCH  38  51
ATOM     51  C   UNL     1      10.866  -6.203   9.639  1.00  0.00    -0.014 A 
ATOM     52  C   UNL     1      10.403  -6.683  10.875  1.00  0.00     0.009 A 
ATOM     53  C   UNL     1      12.242  -6.226   9.369  1.00  0.00     0.009 A 
ATOM     54  C   UNL     1      11.306  -7.137  11.837  1.00  0.00     0.001 A 
ATOM     55  C   UNL     1      13.140  -6.705  10.323  1.00  0.00     0.001 A 
ATOM     56  C   UNL     1      12.673  -7.149  11.560  1.00  0.00     0.000 A 
ENDBRANCH  38  51
ENDBRANCH  12  13
ENDBRANCH   5   7
ENDBRANCH   2   3
ENDBRANCH   1   2
BRANCH   1  57
ATOM     57  C   UNL     1       4.293   0.965  -3.630  1.00  0.00     0.118 C 
BRANCH  57  58
ATOM     58  N   UNL     1       4.864   2.292  -3.788  1.00  0.00    -0.351 N 
ATOM     59  C   UNL     1       5.749   2.749  -4.741  1.00  0.00     0.269 C 
ATOM     60  H   UNL     1       4.580   2.958  -3.121  1.00  0.00     0.163 HD
ATOM     61  O   UNL     1       6.189   3.893  -4.663  1.00  0.00    -0.268 OA
BRANCH  59  62
ATOM     62  C   UNL     1       6.159   1.844  -5.850  1.00  0.00     0.129 A 
ATOM     63  C   UNL     1       5.191   1.260  -6.662  1.00  0.00     0.049 A 
ATOM     64  N   UNL     1       7.488   1.589  -5.943  1.00  0.00    -0.251 NA
ATOM     65  C   UNL     1       5.597   0.277  -7.551  1.00  0.00     0.012 A 
ATOM     66  C   UNL     1       7.863   0.702  -6.879  1.00  0.00     0.113 A 
ATOM     67  C   UNL     1       6.966   0.018  -7.681  1.00  0.00     0.035 A 
BRANCH  65  68
ATOM     68  S   UNL     1       4.512  -0.708  -8.558  1.00  0.00    -0.116 SA
BRANCH  68  69
ATOM     69  C   UNL     1       2.892  -0.682  -7.750  1.00  0.00     0.175 C 
BRANCH  69  70
ATOM     70  C   UNL     1       2.759  -0.975  -6.264  1.00  0.00     0.233 C 
ATOM     71  O   UNL     1       2.188  -0.129  -5.562  1.00  0.00    -0.274 OA
ATOM     72  N   UNL     1       3.066  -2.211  -5.734  1.00  0.00    -0.337 N 
ATOM     73  C   UNL     1       4.067  -3.168  -6.206  1.00  0.00     0.148 C 
ATOM     74  C   UNL     1       2.376  -2.668  -4.518  1.00  0.00     0.148 C 
ATOM     75  C   UNL     1       3.453  -4.558  -6.375  1.00  0.00     0.181 C 
ATOM     76  C   UNL     1       1.792  -4.068  -4.759  1.00  0.00     0.181 C 
ATOM     77  O   UNL     1       2.817  -4.992  -5.163  1.00  0.00    -0.378 OA
ENDBRANCH  69  70
ENDBRANCH  68  69
ENDBRANCH  65  68
ENDBRANCH  59  62
ENDBRANCH  57  58
ENDBRANCH   1  57
TORSDOF 13
