REMARK SMILES O=C(NCCCNC(=O)C1CCN(C(=O)CSCc2ccccc2)CC1)c1ccc(-c2c3nc(c(-c4ccccc4)c4ccc([nH]4)c(-c4ccccc4)c4nc(c(-c5ccccc5)c5ccc2[nH]5)C=C4)C=C3)cc1
REMARK SMILES IDX 6 1 5 2 4 3 3 4 1 5 2 6 27 8 28 9 74 10 29 11 73 12 30 13
REMARK SMILES IDX 31 14 32 15 67 16 33 17 72 18 66 19 68 20 34 21 71 22 65 23
REMARK SMILES IDX 64 24 35 26 57 27 42 28 56 29 43 30 46 31 55 32 69 33 44 34
REMARK SMILES IDX 45 35 54 37 70 38 47 39 36 40 37 41 41 42 38 43 40 44 39 45
REMARK SMILES IDX 58 46 59 47 63 48 60 49 62 50 61 51 48 52 49 53 53 54 50 55
REMARK SMILES IDX 52 56 51 57 7 58 8 59 9 61 10 62 11 63 26 64 12 65 25 66
REMARK SMILES IDX 13 67 14 68 15 69 16 70 17 71 18 72 19 73 20 74 24 75 21 76
REMARK SMILES IDX 23 77 22 78
REMARK H PARENT 3 7 68 25 46 36 7 60
REMARK Flexibility Score: inf
ROOT
ATOM      1  C   UNL     1       4.893   2.840  -1.780  1.00  0.00     0.117 C 
ENDROOT
BRANCH   1   2
ATOM      2  C   UNL     1       5.169   1.486  -1.161  1.00  0.00     0.042 C 
BRANCH   2   3
ATOM      3  C   UNL     1       4.527   1.285   0.201  1.00  0.00     0.118 C 
BRANCH   3   4
ATOM      4  N   UNL     1       3.088   1.070   0.144  1.00  0.00    -0.352 N 
ATOM      5  O   UNL     1       1.139  -0.045  -0.004  1.00  0.00    -0.269 OA
ATOM      6  C   UNL     1       2.346  -0.090   0.186  1.00  0.00     0.251 C 
ATOM      7  H   UNL     1       2.555   1.894   0.062  1.00  0.00     0.163 HD
BRANCH   6   8
ATOM      8  C   UNL     1       3.007  -1.395   0.417  1.00  0.00     0.039 A 
ATOM      9  C   UNL     1       4.037  -1.525   1.343  1.00  0.00     0.014 A 
ATOM     10  C   UNL     1       2.579  -2.518  -0.299  1.00  0.00     0.014 A 
ATOM     11  C   UNL     1       4.786  -2.690   1.390  1.00  0.00     0.010 A 
ATOM     12  C   UNL     1       3.239  -3.742  -0.137  1.00  0.00     0.010 A 
ATOM     13  C   UNL     1       4.376  -3.828   0.679  1.00  0.00    -0.014 A 
BRANCH  13  14
ATOM     14  C   UNL     1       5.114  -5.100   0.890  1.00  0.00     0.031 A 
ATOM     15  C   UNL     1       5.811  -5.804  -0.240  1.00  0.00     0.074 A 
ATOM     16  C   UNL     1       5.194  -5.589   2.144  1.00  0.00     0.049 A 
ATOM     17  N   UNL     1       6.529  -6.900  -0.202  1.00  0.00    -0.248 NA
ATOM     18  C   UNL     1       5.685  -5.218  -1.583  1.00  0.00     0.031 C 
ATOM     19  C   UNL     1       4.554  -4.997   3.324  1.00  0.00     0.029 A 
ATOM     20  N   UNL     1       5.876  -6.666   2.648  1.00  0.00    -0.354 N 
ATOM     21  C   UNL     1       6.914  -7.149  -1.514  1.00  0.00     0.074 A 
ATOM     22  C   UNL     1       6.338  -6.101  -2.328  1.00  0.00     0.031 C 
ATOM     23  C   UNL     1       4.939  -5.665   4.419  1.00  0.00     0.029 A 
ATOM     24  C   UNL     1       5.778  -6.785   4.013  1.00  0.00     0.049 A 
ATOM     25  H   UNL     1       6.387  -7.293   2.086  1.00  0.00     0.167 HD
ATOM     26  C   UNL     1       7.678  -8.161  -1.993  1.00  0.00     0.031 A 
ATOM     27  C   UNL     1       6.288  -7.702   4.853  1.00  0.00     0.031 A 
ATOM     28  C   UNL     1       8.257  -9.197  -1.178  1.00  0.00     0.049 A 
ATOM     29  C   UNL     1       7.110  -8.820   4.290  1.00  0.00     0.074 A 
ATOM     30  C   UNL     1       9.066 -10.251  -1.570  1.00  0.00     0.029 A 
ATOM     31  N   UNL     1       8.089  -9.312   0.193  1.00  0.00    -0.354 N 
ATOM     32  N   UNL     1       7.473  -9.030   3.049  1.00  0.00    -0.248 NA
ATOM     33  C   UNL     1       7.584  -9.832   5.242  1.00  0.00     0.031 C 
ATOM     34  C   UNL     1       9.349 -11.029  -0.442  1.00  0.00     0.029 A 
ATOM     35  C   UNL     1       8.759 -10.431   0.660  1.00  0.00     0.049 A 
ATOM     36  H   UNL     1       7.571  -8.690   0.753  1.00  0.00     0.167 HD
ATOM     37  C   UNL     1       8.223 -10.196   3.069  1.00  0.00     0.074 A 
ATOM     38  C   UNL     1       8.287 -10.630   4.451  1.00  0.00     0.031 C 
ATOM     39  C   UNL     1       8.801 -10.853   2.035  1.00  0.00     0.031 A 
BRANCH  26  40
ATOM     40  C   UNL     1       7.908  -8.217  -3.478  1.00  0.00    -0.014 A 
ATOM     41  C   UNL     1       8.775  -7.318  -4.119  1.00  0.00     0.009 A 
ATOM     42  C   UNL     1       7.289  -9.222  -4.239  1.00  0.00     0.009 A 
ATOM     43  C   UNL     1       8.996  -7.409  -5.495  1.00  0.00     0.001 A 
ATOM     44  C   UNL     1       7.530  -9.325  -5.610  1.00  0.00     0.001 A 
ATOM     45  C   UNL     1       8.377  -8.414  -6.239  1.00  0.00     0.000 A 
ENDBRANCH  26  40
BRANCH  27  46
ATOM     46  C   UNL     1       6.004  -7.610   6.308  1.00  0.00    -0.014 A 
ATOM     47  C   UNL     1       7.020  -7.284   7.217  1.00  0.00     0.009 A 
ATOM     48  C   UNL     1       4.703  -7.827   6.791  1.00  0.00     0.009 A 
ATOM     49  C   UNL     1       6.743  -7.193   8.583  1.00  0.00     0.001 A 
ATOM     50  C   UNL     1       4.422  -7.705   8.152  1.00  0.00     0.001 A 
ATOM     51  C   UNL     1       5.444  -7.396   9.048  1.00  0.00     0.000 A 
ENDBRANCH  27  46
BRANCH  39  52
ATOM     52  C   UNL     1       9.564 -12.100   2.373  1.00  0.00    -0.014 A 
ATOM     53  C   UNL     1       8.898 -13.284   2.724  1.00  0.00     0.009 A 
ATOM     54  C   UNL     1      10.966 -12.092   2.326  1.00  0.00     0.009 A 
ATOM     55  C   UNL     1       9.624 -14.428   3.058  1.00  0.00     0.001 A 
ATOM     56  C   UNL     1      11.689 -13.245   2.634  1.00  0.00     0.001 A 
ATOM     57  C   UNL     1      11.018 -14.408   3.010  1.00  0.00     0.000 A 
ENDBRANCH  39  52
ENDBRANCH  13  14
ENDBRANCH   6   8
ENDBRANCH   3   4
ENDBRANCH   2   3
ENDBRANCH   1   2
BRANCH   1  58
ATOM     58  N   UNL     1       5.263   3.957  -0.931  1.00  0.00    -0.356 N 
ATOM     59  C   UNL     1       5.686   5.206  -1.257  1.00  0.00     0.223 C 
ATOM     60  H   UNL     1       5.196   3.782   0.035  1.00  0.00     0.163 HD
ATOM     61  O   UNL     1       5.879   5.988  -0.325  1.00  0.00    -0.275 OA
BRANCH  59  62
ATOM     62  C   UNL     1       5.944   5.584  -2.713  1.00  0.00     0.082 C 
ATOM     63  C   UNL     1       6.341   7.080  -2.818  1.00  0.00     0.035 C 
ATOM     64  C   UNL     1       4.739   5.330  -3.632  1.00  0.00     0.035 C 
ATOM     65  C   UNL     1       5.138   8.022  -2.636  1.00  0.00     0.120 C 
ATOM     66  C   UNL     1       3.582   6.241  -3.241  1.00  0.00     0.120 C 
ATOM     67  N   UNL     1       4.026   7.600  -3.490  1.00  0.00    -0.342 N 
ATOM     68  C   UNL     1       3.710   8.324  -4.634  1.00  0.00     0.232 C 
ATOM     69  O   UNL     1       4.319   9.356  -4.928  1.00  0.00    -0.274 OA
BRANCH  68  70
ATOM     70  C   UNL     1       2.564   7.841  -5.522  1.00  0.00     0.169 C 
BRANCH  70  71
ATOM     71  S   UNL     1       2.955   6.351  -6.510  1.00  0.00    -0.147 SA
BRANCH  71  72
ATOM     72  C   UNL     1       4.464   6.899  -7.370  1.00  0.00     0.105 C 
BRANCH  72  73
ATOM     73  C   UNL     1       4.181   7.971  -8.385  1.00  0.00    -0.038 A 
ATOM     74  C   UNL     1       4.689   9.264  -8.211  1.00  0.00     0.004 A 
ATOM     75  C   UNL     1       3.382   7.698  -9.506  1.00  0.00     0.004 A 
ATOM     76  C   UNL     1       4.383  10.271  -9.124  1.00  0.00     0.000 A 
ATOM     77  C   UNL     1       3.075   8.707 -10.417  1.00  0.00     0.000 A 
ATOM     78  C   UNL     1       3.572   9.994 -10.223  1.00  0.00     0.000 A 
ENDBRANCH  72  73
ENDBRANCH  71  72
ENDBRANCH  70  71
ENDBRANCH  68  70
ENDBRANCH  59  62
ENDBRANCH   1  58
TORSDOF 14
