REMARK SMILES O=C(CCCC[C@@H]1CCSS1)NCCCNC(=O)c1ccc(-c2c3nc(c(-c4ccccc4)c4ccc([nH]4)c(-c4ccccc4)c4nc(c(-c5ccccc5)c5ccc2[nH]5)C=C4)C=C3)cc1
REMARK SMILES IDX 13 1 12 2 1 3 2 4 3 6 4 7 5 8 6 9 7 10 8 11 11 12 9 13 10 14
REMARK SMILES IDX 14 15 15 16 16 17 17 18 18 20 19 21 20 22 66 23 21 24 65 25
REMARK SMILES IDX 22 26 23 27 24 28 59 29 25 30 64 31 58 32 60 33 26 34 63 35
REMARK SMILES IDX 57 36 56 37 27 39 49 40 34 41 48 42 35 43 38 44 47 45 61 46
REMARK SMILES IDX 36 47 37 48 46 50 62 51 39 52 28 53 29 54 33 55 30 56 32 57
REMARK SMILES IDX 31 58 50 59 51 60 55 61 52 62 54 63 53 64 40 65 41 66 45 67
REMARK SMILES IDX 42 68 44 69 43 70
REMARK H PARENT 12 5 16 19 60 38 38 49
REMARK Flexibility Score: inf
ROOT
ATOM      1  C   UNL     1       1.858  -1.714  -1.849  1.00  0.00     0.117 C 
ENDROOT
BRANCH   1   2
ATOM      2  N   UNL     1       2.480  -0.809  -0.904  1.00  0.00    -0.356 N 
ATOM      3  O   UNL     1       0.565  -0.290   0.248  1.00  0.00    -0.275 OA
ATOM      4  C   UNL     1       1.783  -0.219   0.122  1.00  0.00     0.219 C 
ATOM      5  H   UNL     1       3.439  -0.609  -1.001  1.00  0.00     0.163 HD
BRANCH   4   6
ATOM      6  C   UNL     1       2.648   0.542   1.105  1.00  0.00     0.100 C 
BRANCH   6   7
ATOM      7  C   UNL     1       3.567  -0.373   1.923  1.00  0.00     0.010 C 
BRANCH   7   8
ATOM      8  C   UNL     1       4.911  -0.783   1.294  1.00  0.00     0.002 C 
BRANCH   8   9
ATOM      9  C   UNL     1       5.728   0.305   0.581  1.00  0.00     0.015 C 
BRANCH   9  10
ATOM     10  C   UNL     1       6.545   1.250   1.477  1.00  0.00     0.059 C 
ATOM     11  C   UNL     1       5.827   1.810   2.706  1.00  0.00     0.027 C 
ATOM     12  S   UNL     1       7.092   2.687   0.486  1.00  0.00    -0.091 SA
ATOM     13  C   UNL     1       6.623   2.962   3.309  1.00  0.00     0.083 C 
ATOM     14  S   UNL     1       6.926   4.110   1.951  1.00  0.00    -0.094 SA
ENDBRANCH   9  10
ENDBRANCH   8   9
ENDBRANCH   7   8
ENDBRANCH   6   7
ENDBRANCH   4   6
ENDBRANCH   1   2
BRANCH   1  15
ATOM     15  C   UNL     1       2.240  -1.408  -3.290  1.00  0.00     0.042 C 
BRANCH  15  16
ATOM     16  C   UNL     1       3.734  -1.481  -3.587  1.00  0.00     0.118 C 
BRANCH  16  17
ATOM     17  N   UNL     1       4.297  -2.815  -3.432  1.00  0.00    -0.352 N 
ATOM     18  C   UNL     1       5.026  -3.564  -4.327  1.00  0.00     0.251 C 
ATOM     19  H   UNL     1       4.132  -3.243  -2.560  1.00  0.00     0.163 HD
ATOM     20  O   UNL     1       5.329  -4.721  -4.065  1.00  0.00    -0.269 OA
BRANCH  18  21
ATOM     21  C   UNL     1       5.412  -2.977  -5.629  1.00  0.00     0.039 A 
ATOM     22  C   UNL     1       5.142  -3.692  -6.799  1.00  0.00     0.014 A 
ATOM     23  C   UNL     1       6.001  -1.712  -5.695  1.00  0.00     0.014 A 
ATOM     24  C   UNL     1       5.375  -3.098  -8.042  1.00  0.00     0.010 A 
ATOM     25  C   UNL     1       6.169  -1.096  -6.932  1.00  0.00     0.010 A 
ATOM     26  C   UNL     1       5.843  -1.776  -8.117  1.00  0.00    -0.014 A 
BRANCH  26  27
ATOM     27  C   UNL     1       5.973  -1.065  -9.414  1.00  0.00     0.031 A 
ATOM     28  C   UNL     1       7.321  -0.597  -9.886  1.00  0.00     0.074 A 
ATOM     29  C   UNL     1       4.868  -0.748 -10.117  1.00  0.00     0.049 A 
ATOM     30  N   UNL     1       7.619   0.163 -10.909  1.00  0.00    -0.248 NA
ATOM     31  C   UNL     1       8.483  -1.018  -9.088  1.00  0.00     0.031 C 
ATOM     32  C   UNL     1       3.496  -1.115  -9.758  1.00  0.00     0.029 A 
ATOM     33  N   UNL     1       4.723  -0.022 -11.274  1.00  0.00    -0.354 N 
ATOM     34  C   UNL     1       8.997   0.334 -10.861  1.00  0.00     0.074 A 
ATOM     35  C   UNL     1       9.471  -0.373  -9.691  1.00  0.00     0.031 C 
ATOM     36  C   UNL     1       2.653  -0.625 -10.681  1.00  0.00     0.029 A 
ATOM     37  C   UNL     1       3.416   0.131 -11.669  1.00  0.00     0.049 A 
ATOM     38  H   UNL     1       5.484   0.353 -11.773  1.00  0.00     0.167 HD
ATOM     39  C   UNL     1       9.797   1.008 -11.720  1.00  0.00     0.031 A 
ATOM     40  C   UNL     1       2.887   0.818 -12.698  1.00  0.00     0.031 A 
ATOM     41  C   UNL     1       9.332   1.698 -12.893  1.00  0.00     0.049 A 
ATOM     42  C   UNL     1       3.795   1.575 -13.627  1.00  0.00     0.074 A 
ATOM     43  C   UNL     1      10.075   2.364 -13.852  1.00  0.00     0.029 A 
ATOM     44  N   UNL     1       8.002   1.810 -13.266  1.00  0.00    -0.354 N 
ATOM     45  N   UNL     1       5.100   1.685 -13.596  1.00  0.00    -0.248 NA
ATOM     46  C   UNL     1       3.155   2.298 -14.736  1.00  0.00     0.031 C 
ATOM     47  C   UNL     1       9.190   2.915 -14.785  1.00  0.00     0.029 A 
ATOM     48  C   UNL     1       7.901   2.550 -14.432  1.00  0.00     0.049 A 
ATOM     49  H   UNL     1       7.242   1.422 -12.775  1.00  0.00     0.167 HD
ATOM     50  C   UNL     1       5.440   2.461 -14.696  1.00  0.00     0.074 A 
ATOM     51  C   UNL     1       4.206   2.790 -15.378  1.00  0.00     0.031 C 
ATOM     52  C   UNL     1       6.668   2.860 -15.106  1.00  0.00     0.031 A 
BRANCH  39  53
ATOM     53  C   UNL     1      11.268   1.040 -11.413  1.00  0.00    -0.014 A 
ATOM     54  C   UNL     1      12.067  -0.103 -11.565  1.00  0.00     0.009 A 
ATOM     55  C   UNL     1      11.868   2.241 -11.003  1.00  0.00     0.009 A 
ATOM     56  C   UNL     1      13.432  -0.054 -11.277  1.00  0.00     0.001 A 
ATOM     57  C   UNL     1      13.238   2.293 -10.742  1.00  0.00     0.001 A 
ATOM     58  C   UNL     1      14.017   1.144 -10.870  1.00  0.00     0.000 A 
ENDBRANCH  39  53
BRANCH  40  59
ATOM     59  C   UNL     1       1.416   0.822 -12.912  1.00  0.00    -0.014 A 
ATOM     60  C   UNL     1       0.855   0.114 -13.986  1.00  0.00     0.009 A 
ATOM     61  C   UNL     1       0.568   1.533 -12.049  1.00  0.00     0.009 A 
ATOM     62  C   UNL     1      -0.524   0.138 -14.205  1.00  0.00     0.001 A 
ATOM     63  C   UNL     1      -0.813   1.533 -12.256  1.00  0.00     0.001 A 
ATOM     64  C   UNL     1      -1.357   0.843 -13.338  1.00  0.00     0.000 A 
ENDBRANCH  40  59
BRANCH  52  65
ATOM     65  C   UNL     1       6.748   3.656 -16.376  1.00  0.00    -0.014 A 
ATOM     66  C   UNL     1       6.371   5.007 -16.416  1.00  0.00     0.009 A 
ATOM     67  C   UNL     1       7.268   3.058 -17.535  1.00  0.00     0.009 A 
ATOM     68  C   UNL     1       6.494   5.737 -17.600  1.00  0.00     0.001 A 
ATOM     69  C   UNL     1       7.411   3.796 -18.710  1.00  0.00     0.001 A 
ATOM     70  C   UNL     1       7.019   5.133 -18.743  1.00  0.00     0.000 A 
ENDBRANCH  52  65
ENDBRANCH  26  27
ENDBRANCH  18  21
ENDBRANCH  16  17
ENDBRANCH  15  16
ENDBRANCH   1  15
TORSDOF 14
