REMARK SMILES C[C@@](NC(=O)c1cc(Br)c[nH]1)(C(=O)NCCCNC(=O)c1ccc(-c2c3nc(c(-c4ccccc4)c4ccc([nH]4)c(-c4ccccc4)c4nc(c(-c5ccccc5)c5ccc2[nH]5)C=C4)C=C3)cc1)C(F)(F)F
REMARK SMILES IDX 16 1 15 2 14 3 12 4 13 5 2 7 1 8 3 9 4 10 5 12 6 13 7 14
REMARK SMILES IDX 11 15 8 16 10 17 9 19 69 20 70 21 71 22 72 23 17 24 18 25
REMARK SMILES IDX 19 26 20 28 21 29 22 30 68 31 23 32 67 33 24 34 25 35 26 36
REMARK SMILES IDX 61 37 27 38 66 39 60 40 62 41 28 42 65 43 59 44 58 45 29 47
REMARK SMILES IDX 51 48 36 49 50 50 37 51 40 52 49 53 63 54 38 55 39 56 48 58
REMARK SMILES IDX 64 59 41 60 30 61 31 62 35 63 32 64 34 65 33 66 52 67 53 68
REMARK SMILES IDX 57 69 54 70 56 71 55 72 42 73 43 74 47 75 44 76 46 77 45 78
REMARK H PARENT 14 6 3 11 11 18 18 27 62 46 40 57
REMARK Flexibility Score: inf
ROOT
ATOM      1  C   UNL     1      -1.149  -2.786   1.246  1.00  0.00     0.042 C 
ENDROOT
BRANCH   1   2
ATOM      2  C   UNL     1      -0.791  -2.140  -0.082  1.00  0.00     0.117 C 
BRANCH   2   3
ATOM      3  N   UNL     1      -1.272  -0.770  -0.164  1.00  0.00    -0.354 N 
ATOM      4  C   UNL     1      -0.753   0.325  -0.790  1.00  0.00     0.254 C 
ATOM      5  O   UNL     1      -1.418   1.360  -0.706  1.00  0.00    -0.272 OA
ATOM      6  H   UNL     1      -2.117  -0.604   0.313  1.00  0.00     0.163 HD
BRANCH   4   7
ATOM      7  C   UNL     1       0.640   0.309  -1.439  1.00  0.00     0.212 C 
ATOM      8  C   UNL     1       1.667   0.309  -0.284  1.00  0.00     0.056 C 
BRANCH   7   9
ATOM      9  N   UNL     1       0.907  -0.887  -2.296  1.00  0.00    -0.329 N 
ATOM     10  C   UNL     1       0.206  -1.439  -3.339  1.00  0.00     0.268 C 
ATOM     11  H   UNL     1       1.737  -1.366  -2.071  1.00  0.00     0.165 HD
ATOM     12  O   UNL     1       0.826  -2.209  -4.071  1.00  0.00    -0.268 OA
BRANCH  10  13
ATOM     13  C   UNL     1      -1.223  -1.267  -3.429  1.00  0.00     0.105 A 
ATOM     14  C   UNL     1      -2.168  -2.287  -3.450  1.00  0.00     0.049 A 
ATOM     15  N   UNL     1      -1.926  -0.087  -3.558  1.00  0.00    -0.356 N 
ATOM     16  C   UNL     1      -3.438  -1.689  -3.404  1.00  0.00     0.036 A 
ATOM     17  C   UNL     1      -3.275  -0.332  -3.466  1.00  0.00     0.098 A 
ATOM     18  H   UNL     1      -1.522   0.799  -3.696  1.00  0.00     0.166 HD
ATOM     19  Br  UNL     1      -5.044  -2.634  -3.246  1.00  0.00    -0.049 Br
ENDBRANCH  10  13
ENDBRANCH   7   9
BRANCH   7  20
ATOM     20  C   UNL     1       0.830   1.626  -2.220  1.00  0.00     0.420 C 
ATOM     21  F   UNL     1       0.775   2.727  -1.441  1.00  0.00    -0.168 F 
ATOM     22  F   UNL     1       2.057   1.635  -2.809  1.00  0.00    -0.168 F 
ATOM     23  F   UNL     1      -0.073   1.768  -3.219  1.00  0.00    -0.168 F 
ENDBRANCH   7  20
ENDBRANCH   4   7
ENDBRANCH   2   3
ENDBRANCH   1   2
BRANCH   1  24
ATOM     24  C   UNL     1      -2.646  -2.979   1.452  1.00  0.00     0.118 C 
BRANCH  24  25
ATOM     25  N   UNL     1      -3.230  -3.974   0.564  1.00  0.00    -0.352 N 
ATOM     26  C   UNL     1      -4.004  -5.064   0.890  1.00  0.00     0.251 C 
ATOM     27  H   UNL     1      -3.047  -3.851  -0.396  1.00  0.00     0.163 HD
ATOM     28  O   UNL     1      -4.312  -5.893   0.041  1.00  0.00    -0.269 OA
BRANCH  26  29
ATOM     29  C   UNL     1      -4.432  -5.245   2.292  1.00  0.00     0.039 A 
ATOM     30  C   UNL     1      -4.212  -6.473   2.918  1.00  0.00     0.014 A 
ATOM     31  C   UNL     1      -4.991  -4.177   3.000  1.00  0.00     0.014 A 
ATOM     32  C   UNL     1      -4.475  -6.605   4.283  1.00  0.00     0.010 A 
ATOM     33  C   UNL     1      -5.173  -4.286   4.373  1.00  0.00     0.010 A 
ATOM     34  C   UNL     1      -4.915  -5.499   5.029  1.00  0.00    -0.014 A 
BRANCH  34  35
ATOM     35  C   UNL     1      -5.114  -5.584   6.497  1.00  0.00     0.031 A 
ATOM     36  C   UNL     1      -6.483  -5.373   7.082  1.00  0.00     0.074 A 
ATOM     37  C   UNL     1      -4.054  -5.766   7.309  1.00  0.00     0.049 A 
ATOM     38  N   UNL     1      -6.844  -5.314   8.338  1.00  0.00    -0.248 NA
ATOM     39  C   UNL     1      -7.585  -5.167   6.128  1.00  0.00     0.031 C 
ATOM     40  C   UNL     1      -2.665  -5.931   6.873  1.00  0.00     0.029 A 
ATOM     41  N   UNL     1      -3.981  -5.833   8.678  1.00  0.00    -0.354 N 
ATOM     42  C   UNL     1      -8.204  -5.034   8.325  1.00  0.00     0.074 A 
ATOM     43  C   UNL     1      -8.595  -4.891   6.939  1.00  0.00     0.031 C 
ATOM     44  C   UNL     1      -1.884  -6.110   7.951  1.00  0.00     0.029 A 
ATOM     45  C   UNL     1      -2.708  -6.037   9.152  1.00  0.00     0.049 A 
ATOM     46  H   UNL     1      -4.767  -5.744   9.264  1.00  0.00     0.167 HD
ATOM     47  C   UNL     1      -9.057  -4.924   9.369  1.00  0.00     0.031 A 
ATOM     48  C   UNL     1      -2.256  -6.152  10.415  1.00  0.00     0.031 A 
ATOM     49  C   UNL     1      -8.680  -5.100  10.745  1.00  0.00     0.049 A 
ATOM     50  C   UNL     1      -3.228  -6.058  11.557  1.00  0.00     0.074 A 
ATOM     51  C   UNL     1      -9.485  -5.077  11.870  1.00  0.00     0.029 A 
ATOM     52  N   UNL     1      -7.387  -5.341  11.180  1.00  0.00    -0.354 N 
ATOM     53  N   UNL     1      -4.522  -5.851  11.523  1.00  0.00    -0.248 NA
ATOM     54  C   UNL     1      -2.677  -6.224  12.909  1.00  0.00     0.031 C 
ATOM     55  C   UNL     1      -8.672  -5.274  12.992  1.00  0.00     0.029 A 
ATOM     56  C   UNL     1      -7.368  -5.457  12.559  1.00  0.00     0.049 A 
ATOM     57  H   UNL     1      -6.599  -5.418  10.595  1.00  0.00     0.167 HD
ATOM     58  C   UNL     1      -4.944  -5.886  12.845  1.00  0.00     0.074 A 
ATOM     59  C   UNL     1      -3.771  -6.146  13.655  1.00  0.00     0.031 C 
ATOM     60  C   UNL     1      -6.192  -5.718  13.345  1.00  0.00     0.031 A 
BRANCH  47  61
ATOM     61  C   UNL     1     -10.489  -4.599   9.054  1.00  0.00    -0.014 A 
ATOM     62  C   UNL     1     -11.334  -5.549   8.458  1.00  0.00     0.009 A 
ATOM     63  C   UNL     1     -11.004  -3.332   9.370  1.00  0.00     0.009 A 
ATOM     64  C   UNL     1     -12.656  -5.223   8.148  1.00  0.00     0.001 A 
ATOM     65  C   UNL     1     -12.334  -3.018   9.083  1.00  0.00     0.001 A 
ATOM     66  C   UNL     1     -13.155  -3.960   8.464  1.00  0.00     0.000 A 
ENDBRANCH  47  61
BRANCH  48  67
ATOM     67  C   UNL     1      -0.814  -6.399  10.669  1.00  0.00    -0.014 A 
ATOM     68  C   UNL     1      -0.377  -7.668  11.079  1.00  0.00     0.009 A 
ATOM     69  C   UNL     1       0.129  -5.373  10.506  1.00  0.00     0.009 A 
ATOM     70  C   UNL     1       0.975  -7.898  11.344  1.00  0.00     0.001 A 
ATOM     71  C   UNL     1       1.483  -5.613  10.750  1.00  0.00     0.001 A 
ATOM     72  C   UNL     1       1.904  -6.873  11.176  1.00  0.00     0.000 A 
ENDBRANCH  48  67
BRANCH  60  73
ATOM     73  C   UNL     1      -6.356  -5.843  14.831  1.00  0.00    -0.014 A 
ATOM     74  C   UNL     1      -5.944  -4.816  15.694  1.00  0.00     0.009 A 
ATOM     75  C   UNL     1      -6.967  -6.985  15.369  1.00  0.00     0.009 A 
ATOM     76  C   UNL     1      -6.118  -4.945  17.073  1.00  0.00     0.001 A 
ATOM     77  C   UNL     1      -7.160  -7.101  16.746  1.00  0.00     0.001 A 
ATOM     78  C   UNL     1      -6.729  -6.084  17.597  1.00  0.00     0.000 A 
ENDBRANCH  60  73
ENDBRANCH  34  35
ENDBRANCH  26  29
ENDBRANCH  24  25
ENDBRANCH   1  24
TORSDOF 13
