REMARK SMILES CC(C)[NH2+][C@]1(C(=O)NCCCNC(=O)c2ccc(-c3c4nc(c(-c5ccccc5)c5ccc([nH]5)c(-c5ccccc5)c5nc(c(-c6ccccc6)c6ccc3[nH]6)C=C5)C=C4)cc2)CCC[C@@H]1CCSc1cnccn1
REMARK SMILES IDX 9 1 8 2 6 3 7 4 5 6 63 7 66 8 64 9 65 10 4 11 2 14 1 15 3 16
REMARK SMILES IDX 67 17 68 18 69 19 70 20 71 21 75 22 72 23 74 24 73 25 10 26
REMARK SMILES IDX 11 27 12 28 13 29 14 31 15 32 16 33 62 34 17 35 61 36 18 37
REMARK SMILES IDX 19 38 20 39 55 40 21 41 60 42 54 43 56 44 22 45 59 46 53 47
REMARK SMILES IDX 52 48 23 50 45 51 30 52 44 53 31 54 34 55 43 56 57 57 32 58
REMARK SMILES IDX 33 59 42 61 58 62 35 63 24 64 25 65 29 66 26 67 28 68 27 69
REMARK SMILES IDX 46 70 47 71 51 72 48 73 50 74 49 75 36 76 37 77 41 78 38 79
REMARK SMILES IDX 40 80 39 81
REMARK H PARENT 8 5 4 12 4 13 12 30 56 49 34 60
REMARK Flexibility Score: inf
ROOT
ATOM      1  C   UNL     1      -0.764  -0.389  -3.456  1.00  0.00     0.118 C 
ENDROOT
BRANCH   1   2
ATOM      2  N   UNL     1      -0.487  -0.516  -2.035  1.00  0.00    -0.351 N 
ATOM      3  C   UNL     1      -0.762  -1.454  -1.085  1.00  0.00     0.281 C 
ATOM      4  O   UNL     1      -0.266  -1.216   0.023  1.00  0.00    -0.268 OA
ATOM      5  H   UNL     1       0.014   0.251  -1.676  1.00  0.00     0.163 HD
BRANCH   3   6
ATOM      6  C   UNL     1      -1.679  -2.699  -1.305  1.00  0.00     0.178 C 
ATOM      7  C   UNL     1      -1.333  -3.420  -2.633  1.00  0.00     0.079 C 
ATOM      8  C   UNL     1      -1.311  -3.851  -0.294  1.00  0.00     0.061 C 
ATOM      9  C   UNL     1      -1.599  -4.910  -2.460  1.00  0.00     0.008 C 
ATOM     10  C   UNL     1      -1.796  -5.137  -0.976  1.00  0.00     0.011 C 
BRANCH   6  11
ATOM     11  N   UNL     1      -3.131  -2.393  -1.337  1.00  0.00    -0.331 N 
ATOM     12  H   UNL     1      -3.425  -2.468  -2.311  1.00  0.00     0.347 HD
ATOM     13  H   UNL     1      -3.521  -3.060  -0.670  1.00  0.00     0.347 HD
BRANCH  11  14
ATOM     14  C   UNL     1      -3.629  -1.107  -0.846  1.00  0.00     0.176 C 
ATOM     15  C   UNL     1      -5.092  -1.005  -1.300  1.00  0.00     0.075 C 
ATOM     16  C   UNL     1      -3.568  -0.895   0.664  1.00  0.00     0.075 C 
ENDBRANCH  11  14
ENDBRANCH   6  11
BRANCH   8  17
ATOM     17  C   UNL     1      -1.831  -3.744   1.153  1.00  0.00     0.022 C 
BRANCH  17  18
ATOM     18  C   UNL     1      -1.500  -4.932   2.076  1.00  0.00     0.077 C 
BRANCH  18  19
ATOM     19  S   UNL     1       0.112  -4.855   2.934  1.00  0.00    -0.105 SA
BRANCH  19  20
ATOM     20  C   UNL     1       1.226  -5.115   1.584  1.00  0.00     0.114 A 
ATOM     21  C   UNL     1       1.323  -6.330   0.913  1.00  0.00     0.146 A 
ATOM     22  N   UNL     1       1.957  -4.046   1.197  1.00  0.00    -0.247 NA
ATOM     23  N   UNL     1       2.106  -6.512  -0.182  1.00  0.00    -0.260 NA
ATOM     24  C   UNL     1       2.742  -4.221   0.111  1.00  0.00     0.132 A 
ATOM     25  C   UNL     1       2.811  -5.424  -0.568  1.00  0.00     0.131 A 
ENDBRANCH  19  20
ENDBRANCH  18  19
ENDBRANCH  17  18
ENDBRANCH   8  17
ENDBRANCH   3   6
ENDBRANCH   1   2
BRANCH   1  26
ATOM     26  C   UNL     1      -1.980   0.469  -3.790  1.00  0.00     0.042 C 
BRANCH  26  27
ATOM     27  C   UNL     1      -1.934   1.873  -3.193  1.00  0.00     0.118 C 
BRANCH  27  28
ATOM     28  N   UNL     1      -0.906   2.693  -3.818  1.00  0.00    -0.352 N 
ATOM     29  C   UNL     1      -1.025   3.774  -4.648  1.00  0.00     0.251 C 
ATOM     30  H   UNL     1       0.019   2.429  -3.611  1.00  0.00     0.163 HD
ATOM     31  O   UNL     1      -0.033   4.157  -5.282  1.00  0.00    -0.269 OA
BRANCH  29  32
ATOM     32  C   UNL     1      -2.303   4.503  -4.798  1.00  0.00     0.039 A 
ATOM     33  C   UNL     1      -2.639   5.020  -6.054  1.00  0.00     0.014 A 
ATOM     34  C   UNL     1      -3.119   4.778  -3.697  1.00  0.00     0.014 A 
ATOM     35  C   UNL     1      -3.789   5.800  -6.207  1.00  0.00     0.010 A 
ATOM     36  C   UNL     1      -4.302   5.499  -3.863  1.00  0.00     0.010 A 
ATOM     37  C   UNL     1      -4.630   6.047  -5.112  1.00  0.00    -0.014 A 
BRANCH  37  38
ATOM     38  C   UNL     1      -5.804   6.949  -5.239  1.00  0.00     0.031 A 
ATOM     39  C   UNL     1      -5.816   8.271  -4.517  1.00  0.00     0.074 A 
ATOM     40  C   UNL     1      -6.867   6.582  -5.979  1.00  0.00     0.049 A 
ATOM     41  N   UNL     1      -6.753   9.186  -4.478  1.00  0.00    -0.248 NA
ATOM     42  C   UNL     1      -4.627   8.598  -3.712  1.00  0.00     0.031 C 
ATOM     43  C   UNL     1      -7.000   5.319  -6.707  1.00  0.00     0.029 A 
ATOM     44  N   UNL     1      -8.040   7.244  -6.241  1.00  0.00    -0.354 N 
ATOM     45  C   UNL     1      -6.279  10.177  -3.627  1.00  0.00     0.074 A 
ATOM     46  C   UNL     1      -4.992   9.735  -3.138  1.00  0.00     0.031 C 
ATOM     47  C   UNL     1      -8.177   5.310  -7.355  1.00  0.00     0.029 A 
ATOM     48  C   UNL     1      -8.889   6.552  -7.069  1.00  0.00     0.049 A 
ATOM     49  H   UNL     1      -8.253   8.131  -5.870  1.00  0.00     0.167 HD
ATOM     50  C   UNL     1      -6.850  11.359  -3.295  1.00  0.00     0.031 A 
ATOM     51  C   UNL     1     -10.101   6.885  -7.551  1.00  0.00     0.031 A 
ATOM     52  C   UNL     1      -8.113  11.822  -3.802  1.00  0.00     0.049 A 
ATOM     53  C   UNL     1     -10.700   8.217  -7.197  1.00  0.00     0.074 A 
ATOM     54  C   UNL     1      -8.753  13.025  -3.560  1.00  0.00     0.029 A 
ATOM     55  N   UNL     1      -8.924  11.103  -4.665  1.00  0.00    -0.354 N 
ATOM     56  N   UNL     1     -10.217   9.162  -6.428  1.00  0.00    -0.248 NA
ATOM     57  C   UNL     1     -12.004   8.536  -7.796  1.00  0.00     0.031 C 
ATOM     58  C   UNL     1      -9.966  13.023  -4.258  1.00  0.00     0.029 A 
ATOM     59  C   UNL     1     -10.059  11.835  -4.964  1.00  0.00     0.049 A 
ATOM     60  H   UNL     1      -8.722  10.204  -5.013  1.00  0.00     0.167 HD
ATOM     61  C   UNL     1     -11.140  10.199  -6.478  1.00  0.00     0.074 A 
ATOM     62  C   UNL     1     -12.207   9.770  -7.358  1.00  0.00     0.031 C 
ATOM     63  C   UNL     1     -11.105  11.400  -5.851  1.00  0.00     0.031 A 
BRANCH  50  64
ATOM     64  C   UNL     1      -6.103  12.236  -2.330  1.00  0.00    -0.014 A 
ATOM     65  C   UNL     1      -4.934  12.911  -2.718  1.00  0.00     0.009 A 
ATOM     66  C   UNL     1      -6.582  12.404  -1.022  1.00  0.00     0.009 A 
ATOM     67  C   UNL     1      -4.238  13.704  -1.803  1.00  0.00     0.001 A 
ATOM     68  C   UNL     1      -5.899  13.220  -0.117  1.00  0.00     0.001 A 
ATOM     69  C   UNL     1      -4.723  13.860  -0.505  1.00  0.00     0.000 A 
ENDBRANCH  50  64
BRANCH  51  70
ATOM     70  C   UNL     1     -10.818   5.956  -8.462  1.00  0.00    -0.014 A 
ATOM     71  C   UNL     1     -10.909   6.239  -9.833  1.00  0.00     0.009 A 
ATOM     72  C   UNL     1     -11.417   4.789  -7.966  1.00  0.00     0.009 A 
ATOM     73  C   UNL     1     -11.608   5.384 -10.687  1.00  0.00     0.001 A 
ATOM     74  C   UNL     1     -12.096   3.923  -8.827  1.00  0.00     0.001 A 
ATOM     75  C   UNL     1     -12.199   4.226 -10.184  1.00  0.00     0.000 A 
ENDBRANCH  51  70
BRANCH  63  76
ATOM     76  C   UNL     1     -12.229  12.354  -6.135  1.00  0.00    -0.014 A 
ATOM     77  C   UNL     1     -13.504  12.163  -5.583  1.00  0.00     0.009 A 
ATOM     78  C   UNL     1     -11.994  13.478  -6.942  1.00  0.00     0.009 A 
ATOM     79  C   UNL     1     -14.533  13.065  -5.861  1.00  0.00     0.001 A 
ATOM     80  C   UNL     1     -13.019  14.390  -7.199  1.00  0.00     0.001 A 
ATOM     81  C   UNL     1     -14.289  14.178  -6.666  1.00  0.00     0.000 A 
ENDBRANCH  63  76
ENDBRANCH  37  38
ENDBRANCH  29  32
ENDBRANCH  27  28
ENDBRANCH  26  27
ENDBRANCH   1  26
TORSDOF 16
