REMARK SMILES O=C(COc1ncc(C(F)(F)F)cc1Cl)NCCCNC(=O)c1ccc(-c2c3nc(c(-c4ccccc4)c4ccc([nH]4)c(-c4ccccc4)c4nc(c(-c5ccccc5)c5ccc2[nH]5)C=C4)C=C3)cc1
REMARK SMILES IDX 17 1 16 2 1 3 2 4 3 6 4 7 5 8 6 9 14 10 7 11 13 12 15 13
REMARK SMILES IDX 8 14 9 15 10 16 11 17 12 18 18 19 19 20 20 21 21 22 22 24
REMARK SMILES IDX 23 25 24 26 70 27 25 28 69 29 26 30 27 31 28 32 63 33 29 34
REMARK SMILES IDX 68 35 62 36 64 37 30 38 67 39 61 40 60 41 31 43 53 44 38 45
REMARK SMILES IDX 52 46 39 47 42 48 51 49 65 50 40 51 41 52 50 54 66 55 43 56
REMARK SMILES IDX 32 57 33 58 37 59 34 60 36 61 35 62 54 63 55 64 59 65 56 66
REMARK SMILES IDX 58 67 57 68 44 69 45 70 49 71 46 72 48 73 47 74
REMARK H PARENT 16 5 20 23 64 42 42 53
REMARK Flexibility Score: inf
ROOT
ATOM      1  C   UNL     1       1.917   1.760  -1.768  1.00  0.00     0.117 C 
ENDROOT
BRANCH   1   2
ATOM      2  N   UNL     1       2.666   0.883  -0.891  1.00  0.00    -0.353 N 
ATOM      3  O   UNL     1       0.908   0.274   0.469  1.00  0.00    -0.271 OA
ATOM      4  C   UNL     1       2.060   0.108   0.081  1.00  0.00     0.258 C 
ATOM      5  H   UNL     1       3.644   0.836  -0.992  1.00  0.00     0.163 HD
BRANCH   4   6
ATOM      6  C   UNL     1       2.965  -0.997   0.627  1.00  0.00     0.331 C 
BRANCH   6   7
ATOM      7  O   UNL     1       3.632  -1.659  -0.454  1.00  0.00    -0.467 OA
BRANCH   7   8
ATOM      8  C   UNL     1       2.895  -2.742  -0.874  1.00  0.00     0.233 A 
ATOM      9  N   UNL     1       2.978  -3.845  -0.093  1.00  0.00    -0.220 NA
ATOM     10  C   UNL     1       2.218  -2.716  -2.090  1.00  0.00     0.103 A 
ATOM     11  C   UNL     1       2.338  -4.957  -0.535  1.00  0.00     0.128 A 
ATOM     12  C   UNL     1       1.516  -3.852  -2.479  1.00  0.00     0.041 A 
ATOM     13  Cl  UNL     1       2.254  -1.389  -3.174  1.00  0.00    -0.078 Cl
ATOM     14  C   UNL     1       1.581  -5.008  -1.698  1.00  0.00     0.076 A 
BRANCH  14  15
ATOM     15  C   UNL     1       0.934  -6.282  -2.144  1.00  0.00     0.417 C 
ATOM     16  F   UNL     1       1.792  -7.074  -2.841  1.00  0.00    -0.166 F 
ATOM     17  F   UNL     1       0.472  -7.038  -1.113  1.00  0.00    -0.166 F 
ATOM     18  F   UNL     1      -0.133  -6.075  -2.965  1.00  0.00    -0.166 F 
ENDBRANCH  14  15
ENDBRANCH   7   8
ENDBRANCH   6   7
ENDBRANCH   4   6
ENDBRANCH   1   2
BRANCH   1  19
ATOM     19  C   UNL     1       2.417   3.191  -1.779  1.00  0.00     0.042 C 
BRANCH  19  20
ATOM     20  C   UNL     1       3.897   3.351  -2.099  1.00  0.00     0.118 C 
BRANCH  20  21
ATOM     21  N   UNL     1       4.288   2.861  -3.415  1.00  0.00    -0.352 N 
ATOM     22  C   UNL     1       4.979   3.492  -4.429  1.00  0.00     0.251 C 
ATOM     23  H   UNL     1       4.018   1.935  -3.611  1.00  0.00     0.163 HD
ATOM     24  O   UNL     1       5.152   2.925  -5.497  1.00  0.00    -0.269 OA
BRANCH  22  25
ATOM     25  C   UNL     1       5.476   4.875  -4.240  1.00  0.00     0.039 A 
ATOM     26  C   UNL     1       5.306   5.798  -5.277  1.00  0.00     0.014 A 
ATOM     27  C   UNL     1       6.086   5.271  -3.050  1.00  0.00     0.014 A 
ATOM     28  C   UNL     1       5.670   7.134  -5.084  1.00  0.00     0.010 A 
ATOM     29  C   UNL     1       6.349   6.618  -2.821  1.00  0.00     0.010 A 
ATOM     30  C   UNL     1       6.153   7.564  -3.838  1.00  0.00    -0.014 A 
BRANCH  30  31
ATOM     31  C   UNL     1       6.480   8.991  -3.580  1.00  0.00     0.031 A 
ATOM     32  C   UNL     1       7.886   9.385  -3.213  1.00  0.00     0.074 A 
ATOM     33  C   UNL     1       5.507   9.923  -3.608  1.00  0.00     0.049 A 
ATOM     34  N   UNL     1       8.356  10.562  -2.884  1.00  0.00    -0.248 NA
ATOM     35  C   UNL     1       8.890   8.309  -3.179  1.00  0.00     0.031 C 
ATOM     36  C   UNL     1       4.095   9.671  -3.905  1.00  0.00     0.029 A 
ATOM     37  N   UNL     1       5.559  11.275  -3.377  1.00  0.00    -0.354 N 
ATOM     38  C   UNL     1       9.698  10.361  -2.584  1.00  0.00     0.074 A 
ATOM     39  C   UNL     1       9.953   8.944  -2.709  1.00  0.00     0.031 C 
ATOM     40  C   UNL     1       3.424  10.834  -3.872  1.00  0.00     0.029 A 
ATOM     41  C   UNL     1       4.346  11.906  -3.511  1.00  0.00     0.049 A 
ATOM     42  H   UNL     1       6.389  11.749  -3.139  1.00  0.00     0.167 HD
ATOM     43  C   UNL     1      10.643  11.274  -2.258  1.00  0.00     0.031 A 
ATOM     44  C   UNL     1       4.011  13.201  -3.357  1.00  0.00     0.031 A 
ATOM     45  C   UNL     1      10.397  12.687  -2.152  1.00  0.00     0.049 A 
ATOM     46  C   UNL     1       5.077  14.196  -2.988  1.00  0.00     0.074 A 
ATOM     47  C   UNL     1      11.300  13.701  -1.885  1.00  0.00     0.029 A 
ATOM     48  N   UNL     1       9.157  13.285  -2.309  1.00  0.00    -0.354 N 
ATOM     49  N   UNL     1       6.356  13.999  -2.776  1.00  0.00    -0.248 NA
ATOM     50  C   UNL     1       4.653  15.597  -2.852  1.00  0.00     0.031 C 
ATOM     51  C   UNL     1      10.596  14.908  -1.830  1.00  0.00     0.029 A 
ATOM     52  C   UNL     1       9.266  14.652  -2.123  1.00  0.00     0.049 A 
ATOM     53  H   UNL     1       8.322  12.808  -2.521  1.00  0.00     0.167 HD
ATOM     54  C   UNL     1       6.894  15.253  -2.515  1.00  0.00     0.074 A 
ATOM     55  C   UNL     1       5.806  16.204  -2.610  1.00  0.00     0.031 C 
ATOM     56  C   UNL     1       8.175  15.587  -2.225  1.00  0.00     0.031 A 
BRANCH  43  57
ATOM     57  C   UNL     1      12.033  10.765  -1.991  1.00  0.00    -0.014 A 
ATOM     58  C   UNL     1      12.827  10.238  -3.023  1.00  0.00     0.009 A 
ATOM     59  C   UNL     1      12.566  10.835  -0.694  1.00  0.00     0.009 A 
ATOM     60  C   UNL     1      14.108   9.752  -2.753  1.00  0.00     0.001 A 
ATOM     61  C   UNL     1      13.859  10.379  -0.434  1.00  0.00     0.001 A 
ATOM     62  C   UNL     1      14.624   9.827  -1.460  1.00  0.00     0.000 A 
ENDBRANCH  43  57
BRANCH  44  63
ATOM     63  C   UNL     1       2.608  13.642  -3.573  1.00  0.00    -0.014 A 
ATOM     64  C   UNL     1       2.274  14.434  -4.683  1.00  0.00     0.009 A 
ATOM     65  C   UNL     1       1.597  13.289  -2.665  1.00  0.00     0.009 A 
ATOM     66  C   UNL     1       0.965  14.887  -4.863  1.00  0.00     0.001 A 
ATOM     67  C   UNL     1       0.283  13.718  -2.864  1.00  0.00     0.001 A 
ATOM     68  C   UNL     1      -0.030  14.525  -3.956  1.00  0.00     0.000 A 
ENDBRANCH  44  63
BRANCH  56  69
ATOM     69  C   UNL     1       8.482  17.046  -2.034  1.00  0.00    -0.014 A 
ATOM     70  C   UNL     1       8.048  17.743  -0.896  1.00  0.00     0.009 A 
ATOM     71  C   UNL     1       9.254  17.721  -2.993  1.00  0.00     0.009 A 
ATOM     72  C   UNL     1       8.353  19.097  -0.740  1.00  0.00     0.001 A 
ATOM     73  C   UNL     1       9.584  19.065  -2.818  1.00  0.00     0.001 A 
ATOM     74  C   UNL     1       9.124  19.755  -1.698  1.00  0.00     0.000 A 
ENDBRANCH  56  69
ENDBRANCH  30  31
ENDBRANCH  22  25
ENDBRANCH  20  21
ENDBRANCH  19  20
ENDBRANCH   1  19
TORSDOF 13
