REMARK SMILES CN(CC(=O)NCCCNC(=O)c1ccc(-c2c3nc(c(-c4ccccc4)c4ccc([nH]4)c(-c4ccccc4)c4nc(c(-c5ccccc5)c5ccc2[nH]5)C=C4)C=C3)cc1)c1ncc(-c2nnnn2-c2ccccc2)c(-c2ccc(Cl)cc2)n1
REMARK SMILES IDX 7 1 6 2 4 3 5 4 3 6 2 7 1 8 61 9 62 10 84 11 63 12 76 13
REMARK SMILES IDX 64 14 77 15 78 16 83 17 79 18 82 19 80 20 81 21 65 22 66 23
REMARK SMILES IDX 69 24 67 25 68 26 70 27 71 28 75 29 72 30 74 31 73 32 8 33
REMARK SMILES IDX 9 34 10 35 11 36 12 38 13 39 14 40 60 41 15 42 59 43 16 44
REMARK SMILES IDX 17 45 18 46 53 47 19 48 58 49 52 50 54 51 20 52 57 53 51 54
REMARK SMILES IDX 50 55 21 57 43 58 28 59 42 60 29 61 32 62 41 63 55 64 30 65
REMARK SMILES IDX 31 66 40 68 56 69 33 70 22 71 23 72 27 73 24 74 26 75 25 76
REMARK SMILES IDX 44 77 45 78 49 79 46 80 48 81 47 82 34 83 35 84 39 85 36 86
REMARK SMILES IDX 38 87 37 88
REMARK H PARENT 6 5 10 37 54 56 32 67
REMARK Flexibility Score: inf
ROOT
ATOM      1  C   UNL     1      -2.211   0.012   0.196  1.00  0.00     0.117 C 
ENDROOT
BRANCH   1   2
ATOM      2  N   UNL     1      -2.492   0.036  -1.223  1.00  0.00    -0.354 N 
ATOM      3  C   UNL     1      -1.642  -0.223  -2.264  1.00  0.00     0.239 C 
ATOM      4  O   UNL     1      -2.114  -0.231  -3.405  1.00  0.00    -0.273 OA
ATOM      5  H   UNL     1      -3.416   0.270  -1.473  1.00  0.00     0.163 HD
BRANCH   3   6
ATOM      6  C   UNL     1      -0.182  -0.607  -1.986  1.00  0.00     0.219 C 
BRANCH   6   7
ATOM      7  N   UNL     1       0.601   0.419  -1.286  1.00  0.00    -0.335 N 
ATOM      8  C   UNL     1       1.529   0.016  -0.252  1.00  0.00     0.147 C 
BRANCH   7   9
ATOM      9  C   UNL     1       0.929   1.539  -2.027  1.00  0.00     0.226 A 
ATOM     10  N   UNL     1       0.005   2.040  -2.850  1.00  0.00    -0.221 NA
ATOM     11  N   UNL     1       2.148   2.087  -1.904  1.00  0.00    -0.212 NA
ATOM     12  C   UNL     1       0.323   3.128  -3.572  1.00  0.00     0.129 A 
ATOM     13  C   UNL     1       2.461   3.169  -2.666  1.00  0.00     0.087 A 
ATOM     14  C   UNL     1       1.542   3.768  -3.511  1.00  0.00     0.066 A 
BRANCH  13  15
ATOM     15  C   UNL     1       3.862   3.609  -2.542  1.00  0.00     0.001 A 
ATOM     16  C   UNL     1       4.903   2.738  -2.915  1.00  0.00     0.012 A 
ATOM     17  C   UNL     1       4.207   4.895  -2.090  1.00  0.00     0.012 A 
ATOM     18  C   UNL     1       6.239   3.147  -2.873  1.00  0.00     0.021 A 
ATOM     19  C   UNL     1       5.543   5.307  -2.048  1.00  0.00     0.021 A 
ATOM     20  C   UNL     1       6.553   4.434  -2.447  1.00  0.00     0.041 A 
ATOM     21  Cl  UNL     1       8.193   4.949  -2.412  1.00  0.00    -0.084 Cl
ENDBRANCH  13  15
BRANCH  14  22
ATOM     22  C   UNL     1       1.797   4.942  -4.326  1.00  0.00     0.190 A 
ATOM     23  N   UNL     1       2.716   5.040  -5.269  1.00  0.00    -0.108 NA
ATOM     24  N   UNL     1       1.023   6.098  -4.366  1.00  0.00    -0.193 N 
ATOM     25  N   UNL     1       2.447   6.191  -5.957  1.00  0.00    -0.023 NA
ATOM     26  N   UNL     1       1.384   6.803  -5.462  1.00  0.00    -0.040 NA
BRANCH  24  27
ATOM     27  C   UNL     1       0.009   6.561  -3.489  1.00  0.00     0.069 A 
ATOM     28  C   UNL     1      -0.979   7.423  -3.984  1.00  0.00     0.028 A 
ATOM     29  C   UNL     1      -0.014   6.185  -2.138  1.00  0.00     0.028 A 
ATOM     30  C   UNL     1      -2.006   7.862  -3.146  1.00  0.00     0.002 A 
ATOM     31  C   UNL     1      -1.031   6.649  -1.300  1.00  0.00     0.002 A 
ATOM     32  C   UNL     1      -2.031   7.477  -1.806  1.00  0.00     0.000 A 
ENDBRANCH  24  27
ENDBRANCH  14  22
ENDBRANCH   7   9
ENDBRANCH   6   7
ENDBRANCH   3   6
ENDBRANCH   1   2
BRANCH   1  33
ATOM     33  C   UNL     1      -2.005   1.405   0.782  1.00  0.00     0.042 C 
BRANCH  33  34
ATOM     34  C   UNL     1      -3.232   2.309   0.700  1.00  0.00     0.118 C 
BRANCH  34  35
ATOM     35  N   UNL     1      -4.366   1.792   1.453  1.00  0.00    -0.352 N 
ATOM     36  C   UNL     1      -5.100   2.350   2.466  1.00  0.00     0.251 C 
ATOM     37  H   UNL     1      -4.654   0.888   1.190  1.00  0.00     0.163 HD
ATOM     38  O   UNL     1      -5.912   1.651   3.074  1.00  0.00    -0.269 OA
BRANCH  36  39
ATOM     39  C   UNL     1      -4.934   3.769   2.852  1.00  0.00     0.039 A 
ATOM     40  C   UNL     1      -5.020   4.104   4.208  1.00  0.00     0.014 A 
ATOM     41  C   UNL     1      -4.765   4.778   1.900  1.00  0.00     0.014 A 
ATOM     42  C   UNL     1      -4.892   5.436   4.611  1.00  0.00     0.010 A 
ATOM     43  C   UNL     1      -4.567   6.097   2.307  1.00  0.00     0.010 A 
ATOM     44  C   UNL     1      -4.641   6.441   3.665  1.00  0.00    -0.014 A 
BRANCH  44  45
ATOM     45  C   UNL     1      -4.476   7.858   4.081  1.00  0.00     0.031 A 
ATOM     46  C   UNL     1      -5.476   8.897   3.651  1.00  0.00     0.074 A 
ATOM     47  C   UNL     1      -3.404   8.220   4.810  1.00  0.00     0.049 A 
ATOM     48  N   UNL     1      -5.476  10.187   3.877  1.00  0.00    -0.248 NA
ATOM     49  C   UNL     1      -6.613   8.430   2.840  1.00  0.00     0.031 C 
ATOM     50  C   UNL     1      -2.344   7.319   5.267  1.00  0.00     0.029 A 
ATOM     51  N   UNL     1      -3.028   9.448   5.295  1.00  0.00    -0.354 N 
ATOM     52  C   UNL     1      -6.597  10.685   3.225  1.00  0.00     0.074 A 
ATOM     53  C   UNL     1      -7.227   9.569   2.555  1.00  0.00     0.031 C 
ATOM     54  C   UNL     1      -1.453   8.019   5.988  1.00  0.00     0.029 A 
ATOM     55  C   UNL     1      -1.859   9.421   6.016  1.00  0.00     0.049 A 
ATOM     56  H   UNL     1      -3.547  10.270   5.141  1.00  0.00     0.167 HD
ATOM     57  C   UNL     1      -7.072  11.954   3.200  1.00  0.00     0.031 A 
ATOM     58  C   UNL     1      -1.187  10.413   6.629  1.00  0.00     0.031 A 
ATOM     59  C   UNL     1      -6.461  13.063   3.881  1.00  0.00     0.049 A 
ATOM     60  C   UNL     1      -1.733  11.812   6.583  1.00  0.00     0.074 A 
ATOM     61  C   UNL     1      -6.899  14.375   3.959  1.00  0.00     0.029 A 
ATOM     62  N   UNL     1      -5.281  12.992   4.604  1.00  0.00    -0.354 N 
ATOM     63  N   UNL     1      -2.825  12.255   6.008  1.00  0.00    -0.248 NA
ATOM     64  C   UNL     1      -0.956  12.847   7.281  1.00  0.00     0.031 C 
ATOM     65  C   UNL     1      -5.960  15.106   4.695  1.00  0.00     0.029 A 
ATOM     66  C   UNL     1      -4.964  14.239   5.114  1.00  0.00     0.049 A 
ATOM     67  H   UNL     1      -4.747  12.175   4.735  1.00  0.00     0.167 HD
ATOM     68  C   UNL     1      -2.879  13.613   6.296  1.00  0.00     0.074 A 
ATOM     69  C   UNL     1      -1.720  13.916   7.111  1.00  0.00     0.031 C 
ATOM     70  C   UNL     1      -3.806  14.527   5.920  1.00  0.00     0.031 A 
BRANCH  57  71
ATOM     71  C   UNL     1      -8.320  12.207   2.401  1.00  0.00    -0.014 A 
ATOM     72  C   UNL     1      -9.570  11.738   2.835  1.00  0.00     0.009 A 
ATOM     73  C   UNL     1      -8.250  12.953   1.213  1.00  0.00     0.009 A 
ATOM     74  C   UNL     1     -10.718  11.977   2.077  1.00  0.00     0.001 A 
ATOM     75  C   UNL     1      -9.404  13.214   0.472  1.00  0.00     0.001 A 
ATOM     76  C   UNL     1     -10.635  12.718   0.899  1.00  0.00     0.000 A 
ENDBRANCH  57  71
BRANCH  58  77
ATOM     77  C   UNL     1       0.072  10.119   7.360  1.00  0.00    -0.014 A 
ATOM     78  C   UNL     1       0.106  10.163   8.762  1.00  0.00     0.009 A 
ATOM     79  C   UNL     1       1.248   9.805   6.661  1.00  0.00     0.009 A 
ATOM     80  C   UNL     1       1.299   9.925   9.449  1.00  0.00     0.001 A 
ATOM     81  C   UNL     1       2.433   9.541   7.352  1.00  0.00     0.001 A 
ATOM     82  C   UNL     1       2.459   9.611   8.744  1.00  0.00     0.000 A 
ENDBRANCH  58  77
BRANCH  70  83
ATOM     83  C   UNL     1      -3.617  15.934   6.409  1.00  0.00    -0.014 A 
ATOM     84  C   UNL     1      -2.617  16.761   5.876  1.00  0.00     0.009 A 
ATOM     85  C   UNL     1      -4.471  16.447   7.397  1.00  0.00     0.009 A 
ATOM     86  C   UNL     1      -2.454  18.065   6.348  1.00  0.00     0.001 A 
ATOM     87  C   UNL     1      -4.323  17.760   7.848  1.00  0.00     0.001 A 
ATOM     88  C   UNL     1      -3.309  18.564   7.330  1.00  0.00     0.000 A 
ENDBRANCH  70  83
ENDBRANCH  44  45
ENDBRANCH  36  39
ENDBRANCH  34  35
ENDBRANCH  33  34
ENDBRANCH   1  33
TORSDOF 15
