REMARK SMILES C[C@@H](NC(=O)N1CC[N@@H+]2CCCC[C@H]2C1)C(=O)NCCCNC(=O)c1ccc(-c2c3nc(c(-c4ccccc4)c4ccc([nH]4)c(-c4ccccc4)c4nc(c(-c5ccccc5)c5ccc2[nH]5)C=C4)C=C3)cc1
REMARK SMILES IDX 20 1 19 2 18 3 16 4 17 5 2 7 1 8 3 9 4 10 5 12 6 13 7 14
REMARK SMILES IDX 15 15 8 16 14 17 9 18 13 19 10 20 12 22 11 23 21 24 22 25
REMARK SMILES IDX 23 26 24 28 25 29 26 30 72 31 27 32 71 33 28 34 29 35 30 36
REMARK SMILES IDX 65 37 31 38 70 39 64 40 66 41 32 42 69 43 63 44 62 45 33 47
REMARK SMILES IDX 55 48 40 49 54 50 41 51 44 52 53 53 67 54 42 55 43 56 52 58
REMARK SMILES IDX 68 59 45 60 34 61 35 62 39 63 36 64 38 65 37 66 56 67 57 68
REMARK SMILES IDX 61 69 58 70 60 71 59 72 46 73 47 74 51 75 48 76 50 77 49 78
REMARK H PARENT 18 6 3 11 9 21 22 27 66 46 44 57
REMARK Flexibility Score: inf
ROOT
ATOM      1  C   UNL     1      -0.478  -2.203   2.295  1.00  0.00     0.042 C 
ENDROOT
BRANCH   1   2
ATOM      2  C   UNL     1      -0.285  -1.885   0.818  1.00  0.00     0.117 C 
BRANCH   2   3
ATOM      3  N   UNL     1      -0.814  -0.581   0.465  1.00  0.00    -0.354 N 
ATOM      4  C   UNL     1      -0.508   0.208  -0.604  1.00  0.00     0.242 C 
ATOM      5  O   UNL     1      -1.027   1.330  -0.641  1.00  0.00    -0.273 OA
ATOM      6  H   UNL     1      -1.486  -0.215   1.083  1.00  0.00     0.163 HD
BRANCH   4   7
ATOM      7  C   UNL     1       0.572  -0.175  -1.632  1.00  0.00     0.170 C 
ATOM      8  C   UNL     1       1.915   0.260  -1.032  1.00  0.00     0.041 C 
BRANCH   7   9
ATOM      9  N   UNL     1       0.640  -1.579  -2.027  1.00  0.00    -0.326 N 
ATOM     10  C   UNL     1      -0.279  -2.465  -2.467  1.00  0.00     0.318 C 
ATOM     11  H   UNL     1       1.546  -1.959  -1.959  1.00  0.00     0.166 HD
ATOM     12  O   UNL     1       0.122  -3.617  -2.641  1.00  0.00    -0.249 OA
BRANCH  10  13
ATOM     13  N   UNL     1      -1.599  -2.140  -2.505  1.00  0.00    -0.313 N 
ATOM     14  C   UNL     1      -2.204  -0.970  -3.137  1.00  0.00     0.183 C 
ATOM     15  C   UNL     1      -2.578  -3.182  -2.195  1.00  0.00     0.186 C 
ATOM     16  C   UNL     1      -3.405  -0.421  -2.331  1.00  0.00     0.284 C 
ATOM     17  C   UNL     1      -3.642  -2.603  -1.240  1.00  0.00     0.203 C 
ATOM     18  N   UNL     1      -4.356  -1.442  -1.825  1.00  0.00    -0.330 N 
ATOM     19  C   UNL     1      -4.653  -3.677  -0.828  1.00  0.00     0.067 C 
ATOM     20  C   UNL     1      -5.248  -0.835  -0.821  1.00  0.00     0.262 C 
ATOM     21  H   UNL     1      -4.909  -1.780  -2.612  1.00  0.00     0.348 HD
ATOM     22  C   UNL     1      -5.609  -3.118   0.220  1.00  0.00     0.012 C 
ATOM     23  C   UNL     1      -6.269  -1.835  -0.273  1.00  0.00     0.062 C 
ENDBRANCH  10  13
ENDBRANCH   7   9
ENDBRANCH   4   7
ENDBRANCH   2   3
ENDBRANCH   1   2
BRANCH   1  24
ATOM     24  C   UNL     1      -1.919  -2.529   2.668  1.00  0.00     0.118 C 
BRANCH  24  25
ATOM     25  N   UNL     1      -2.387  -3.800   2.137  1.00  0.00    -0.352 N 
ATOM     26  C   UNL     1      -3.345  -4.647   2.645  1.00  0.00     0.251 C 
ATOM     27  H   UNL     1      -1.960  -4.094   1.300  1.00  0.00     0.163 HD
ATOM     28  O   UNL     1      -3.574  -5.717   2.088  1.00  0.00    -0.269 OA
BRANCH  26  29
ATOM     29  C   UNL     1      -4.057  -4.301   3.896  1.00  0.00     0.039 A 
ATOM     30  C   UNL     1      -4.191  -5.295   4.868  1.00  0.00     0.014 A 
ATOM     31  C   UNL     1      -4.540  -3.012   4.141  1.00  0.00     0.014 A 
ATOM     32  C   UNL     1      -4.707  -4.970   6.122  1.00  0.00     0.010 A 
ATOM     33  C   UNL     1      -4.994  -2.671   5.411  1.00  0.00     0.010 A 
ATOM     34  C   UNL     1      -5.054  -3.642   6.419  1.00  0.00    -0.014 A 
BRANCH  34  35
ATOM     35  C   UNL     1      -5.383  -3.248   7.807  1.00  0.00     0.031 A 
ATOM     36  C   UNL     1      -6.765  -2.803   8.177  1.00  0.00     0.074 A 
ATOM     37  C   UNL     1      -4.394  -3.242   8.722  1.00  0.00     0.049 A 
ATOM     38  N   UNL     1      -7.233  -2.478   9.355  1.00  0.00    -0.248 NA
ATOM     39  C   UNL     1      -7.742  -2.687   7.085  1.00  0.00     0.031 C 
ATOM     40  C   UNL     1      -2.993  -3.582   8.454  1.00  0.00     0.029 A 
ATOM     41  N   UNL     1      -4.413  -2.947  10.060  1.00  0.00    -0.354 N 
ATOM     42  C   UNL     1      -8.558  -2.122   9.147  1.00  0.00     0.074 A 
ATOM     43  C   UNL     1      -8.805  -2.218   7.724  1.00  0.00     0.031 C 
ATOM     44  C   UNL     1      -2.297  -3.515   9.600  1.00  0.00     0.029 A 
ATOM     45  C   UNL     1      -3.195  -3.108  10.674  1.00  0.00     0.049 A 
ATOM     46  H   UNL     1      -5.222  -2.649  10.535  1.00  0.00     0.167 HD
ATOM     47  C   UNL     1      -9.489  -1.767  10.064  1.00  0.00     0.031 A 
ATOM     48  C   UNL     1      -2.844  -2.960  11.965  1.00  0.00     0.031 A 
ATOM     49  C   UNL     1      -9.232  -1.663  11.476  1.00  0.00     0.049 A 
ATOM     50  C   UNL     1      -3.900  -2.584  12.964  1.00  0.00     0.074 A 
ATOM     51  C   UNL     1     -10.117  -1.365  12.497  1.00  0.00     0.029 A 
ATOM     52  N   UNL     1      -7.989  -1.849  12.064  1.00  0.00    -0.354 N 
ATOM     53  N   UNL     1      -5.174  -2.348  12.767  1.00  0.00    -0.248 NA
ATOM     54  C   UNL     1      -3.472  -2.476  14.365  1.00  0.00     0.031 C 
ATOM     55  C   UNL     1      -9.400  -1.327  13.699  1.00  0.00     0.029 A 
ATOM     56  C   UNL     1      -8.079  -1.651  13.432  1.00  0.00     0.049 A 
ATOM     57  H   UNL     1      -7.165  -2.087  11.581  1.00  0.00     0.167 HD
ATOM     58  C   UNL     1      -5.708  -2.087  14.021  1.00  0.00     0.074 A 
ATOM     59  C   UNL     1      -4.621  -2.213  14.972  1.00  0.00     0.031 C 
ATOM     60  C   UNL     1      -6.982  -1.773  14.357  1.00  0.00     0.031 A 
BRANCH  47  61
ATOM     61  C   UNL     1     -10.873  -1.465   9.559  1.00  0.00    -0.014 A 
ATOM     62  C   UNL     1     -11.703  -2.486   9.069  1.00  0.00     0.009 A 
ATOM     63  C   UNL     1     -11.364  -0.151   9.596  1.00  0.00     0.009 A 
ATOM     64  C   UNL     1     -12.982  -2.192   8.592  1.00  0.00     0.001 A 
ATOM     65  C   UNL     1     -12.653   0.136   9.143  1.00  0.00     0.001 A 
ATOM     66  C   UNL     1     -13.457  -0.882   8.633  1.00  0.00     0.000 A 
ENDBRANCH  47  61
BRANCH  48  67
ATOM     67  C   UNL     1      -1.444  -3.217  12.388  1.00  0.00    -0.014 A 
ATOM     68  C   UNL     1      -1.125  -4.366  13.128  1.00  0.00     0.009 A 
ATOM     69  C   UNL     1      -0.417  -2.324  12.045  1.00  0.00     0.009 A 
ATOM     70  C   UNL     1       0.189  -4.602  13.538  1.00  0.00     0.001 A 
ATOM     71  C   UNL     1       0.900  -2.576  12.434  1.00  0.00     0.001 A 
ATOM     72  C   UNL     1       1.200  -3.710  13.187  1.00  0.00     0.000 A 
ENDBRANCH  48  67
BRANCH  60  73
ATOM     73  C   UNL     1      -7.267  -1.566  15.817  1.00  0.00    -0.014 A 
ATOM     74  C   UNL     1      -6.822  -0.416  16.488  1.00  0.00     0.009 A 
ATOM     75  C   UNL     1      -8.010  -2.525  16.522  1.00  0.00     0.009 A 
ATOM     76  C   UNL     1      -7.085  -0.249  17.848  1.00  0.00     0.001 A 
ATOM     77  C   UNL     1      -8.295  -2.341  17.875  1.00  0.00     0.001 A 
ATOM     78  C   UNL     1      -7.824  -1.209  18.539  1.00  0.00     0.000 A 
ENDBRANCH  60  73
ENDBRANCH  34  35
ENDBRANCH  26  29
ENDBRANCH  24  25
ENDBRANCH   1  24
TORSDOF 12
