REMARK SMILES COc1cc(C)c(S(=O)(=O)Nc2cc(C(=O)NCCCNC(=O)c3ccc(-c4c5nc(c(-c6ccccc6)c6ccc([nH]6)c(-c6ccccc6)c6nc(c(-c7ccccc7)c7ccc4[nH]7)C=C6)C=C5)cc3)ccc2F)cc1OC
REMARK SMILES IDX 18 1 17 2 15 3 16 4 14 6 12 7 13 8 74 9 73 10 75 11 72 12
REMARK SMILES IDX 11 13 8 15 9 16 10 17 7 18 3 19 4 20 77 21 5 22 76 23 6 24
REMARK SMILES IDX 2 25 1 26 78 27 79 28 19 29 20 30 21 31 22 32 23 34 24 35
REMARK SMILES IDX 25 36 71 37 26 38 70 39 27 40 28 41 29 42 64 43 30 44 69 45
REMARK SMILES IDX 63 46 65 47 31 48 68 49 62 50 61 51 32 53 54 54 39 55 53 56
REMARK SMILES IDX 40 57 43 58 52 59 66 60 41 61 42 62 51 64 67 65 44 66 33 67
REMARK SMILES IDX 34 68 38 69 35 70 37 71 36 72 55 73 56 74 60 75 57 76 59 77
REMARK SMILES IDX 58 78 45 79 46 80 50 81 47 82 49 83 48 84
REMARK H PARENT 17 5 11 14 21 33 65 52 43 63
REMARK Flexibility Score: inf
ROOT
ATOM      1  C   UNL     1       3.400   1.308  -4.327  1.00  0.00     0.118 C 
ENDROOT
BRANCH   1   2
ATOM      2  N   UNL     1       4.743   0.822  -4.051  1.00  0.00    -0.352 N 
ATOM      3  C   UNL     1       5.857   1.417  -3.506  1.00  0.00     0.251 C 
ATOM      4  O   UNL     1       6.843   0.700  -3.328  1.00  0.00    -0.269 OA
ATOM      5  H   UNL     1       4.882  -0.119  -4.306  1.00  0.00     0.163 HD
BRANCH   3   6
ATOM      6  C   UNL     1       5.929   2.847  -3.065  1.00  0.00     0.042 A 
ATOM      7  C   UNL     1       5.021   5.083  -2.797  1.00  0.00     0.085 A 
ATOM      8  C   UNL     1       5.010   3.838  -3.420  1.00  0.00     0.043 A 
ATOM      9  C   UNL     1       6.099   5.420  -1.974  1.00  0.00     0.147 A 
ATOM     10  C   UNL     1       7.083   4.490  -1.673  1.00  0.00     0.042 A 
ATOM     11  F   UNL     1       6.132   6.625  -1.385  1.00  0.00    -0.205 F 
ATOM     12  C   UNL     1       6.976   3.196  -2.190  1.00  0.00     0.017 A 
BRANCH   7  13
ATOM     13  N   UNL     1       3.918   5.985  -2.840  1.00  0.00    -0.277 N 
ATOM     14  H   UNL     1       4.100   6.913  -2.565  1.00  0.00     0.180 HD
BRANCH  13  15
ATOM     15  S   UNL     1       2.355   5.640  -3.305  1.00  0.00     0.262 S 
ATOM     16  O   UNL     1       2.413   5.259  -4.708  1.00  0.00    -0.201 OA
ATOM     17  O   UNL     1       1.556   6.760  -2.876  1.00  0.00    -0.201 OA
BRANCH  15  18
ATOM     18  C   UNL     1       1.724   4.204  -2.426  1.00  0.00     0.094 A 
ATOM     19  C   UNL     1       0.720   1.713  -1.512  1.00  0.00     0.161 A 
ATOM     20  C   UNL     1       1.763   2.369  -0.848  1.00  0.00     0.055 A 
ATOM     21  C   UNL     1       0.109   2.360  -2.591  1.00  0.00     0.162 A 
ATOM     22  C   UNL     1       2.238   3.644  -1.248  1.00  0.00    -0.027 A 
ATOM     23  C   UNL     1       0.639   3.567  -3.066  1.00  0.00     0.073 A 
ATOM     24  C   UNL     1       3.271   4.256  -0.351  1.00  0.00     0.046 C 
BRANCH  19  25
ATOM     25  O   UNL     1       0.284   0.454  -1.203  1.00  0.00    -0.493 OA
ATOM     26  C   UNL     1       0.772  -0.150  -0.012  1.00  0.00     0.278 C 
ENDBRANCH  19  25
BRANCH  21  27
ATOM     27  O   UNL     1      -0.962   1.885  -3.303  1.00  0.00    -0.493 OA
ATOM     28  C   UNL     1      -1.984   1.263  -2.522  1.00  0.00     0.278 C 
ENDBRANCH  21  27
ENDBRANCH  15  18
ENDBRANCH  13  15
ENDBRANCH   7  13
ENDBRANCH   3   6
ENDBRANCH   1   2
BRANCH   1  29
ATOM     29  C   UNL     1       3.309   2.025  -5.674  1.00  0.00     0.042 C 
BRANCH  29  30
ATOM     30  C   UNL     1       2.837   1.134  -6.806  1.00  0.00     0.118 C 
BRANCH  30  31
ATOM     31  N   UNL     1       1.562   1.554  -7.391  1.00  0.00    -0.352 N 
ATOM     32  C   UNL     1       0.846   0.920  -8.392  1.00  0.00     0.251 C 
ATOM     33  H   UNL     1       1.170   2.383  -7.033  1.00  0.00     0.163 HD
ATOM     34  O   UNL     1      -0.249   1.323  -8.761  1.00  0.00    -0.269 OA
BRANCH  32  35
ATOM     35  C   UNL     1       1.400  -0.345  -8.916  1.00  0.00     0.039 A 
ATOM     36  C   UNL     1       0.685  -1.513  -8.645  1.00  0.00     0.014 A 
ATOM     37  C   UNL     1       2.739  -0.384  -9.302  1.00  0.00     0.014 A 
ATOM     38  C   UNL     1       1.386  -2.702  -8.503  1.00  0.00     0.010 A 
ATOM     39  C   UNL     1       3.449  -1.543  -9.058  1.00  0.00     0.010 A 
ATOM     40  C   UNL     1       2.780  -2.677  -8.585  1.00  0.00    -0.014 A 
BRANCH  40  41
ATOM     41  C   UNL     1       3.607  -3.767  -8.083  1.00  0.00     0.031 A 
ATOM     42  C   UNL     1       4.256  -4.686  -9.034  1.00  0.00     0.074 A 
ATOM     43  C   UNL     1       3.738  -3.982  -6.755  1.00  0.00     0.049 A 
ATOM     44  N   UNL     1       4.568  -5.908  -8.760  1.00  0.00    -0.248 NA
ATOM     45  C   UNL     1       4.504  -4.324 -10.427  1.00  0.00     0.031 C 
ATOM     46  C   UNL     1       4.656  -4.898  -6.083  1.00  0.00     0.029 A 
ATOM     47  N   UNL     1       2.855  -3.590  -5.756  1.00  0.00    -0.354 N 
ATOM     48  C   UNL     1       5.328  -6.374  -9.803  1.00  0.00     0.074 A 
ATOM     49  C   UNL     1       5.123  -5.422 -10.866  1.00  0.00     0.031 C 
ATOM     50  C   UNL     1       4.163  -5.194  -4.869  1.00  0.00     0.029 A 
ATOM     51  C   UNL     1       2.846  -4.588  -4.772  1.00  0.00     0.049 A 
ATOM     52  H   UNL     1       2.330  -2.758  -5.742  1.00  0.00     0.167 HD
ATOM     53  C   UNL     1       6.175  -7.418  -9.588  1.00  0.00     0.031 A 
ATOM     54  C   UNL     1       1.697  -5.257  -4.463  1.00  0.00     0.031 A 
ATOM     55  C   UNL     1       5.901  -8.087  -8.313  1.00  0.00     0.049 A 
ATOM     56  C   UNL     1       1.763  -6.746  -4.727  1.00  0.00     0.074 A 
ATOM     57  C   UNL     1       6.557  -8.133  -7.095  1.00  0.00     0.029 A 
ATOM     58  N   UNL     1       4.638  -8.636  -8.096  1.00  0.00    -0.354 N 
ATOM     59  N   UNL     1       2.688  -7.328  -5.438  1.00  0.00    -0.248 NA
ATOM     60  C   UNL     1       0.754  -7.689  -4.249  1.00  0.00     0.031 C 
ATOM     61  C   UNL     1       5.649  -8.642  -6.125  1.00  0.00     0.029 A 
ATOM     62  C   UNL     1       4.456  -8.939  -6.761  1.00  0.00     0.049 A 
ATOM     63  H   UNL     1       3.967  -8.787  -8.800  1.00  0.00     0.167 HD
ATOM     64  C   UNL     1       2.411  -8.667  -5.550  1.00  0.00     0.074 A 
ATOM     65  C   UNL     1       1.205  -8.847  -4.762  1.00  0.00     0.031 C 
ATOM     66  C   UNL     1       3.188  -9.502  -6.302  1.00  0.00     0.031 A 
BRANCH  53  67
ATOM     67  C   UNL     1       7.427  -7.656 -10.413  1.00  0.00    -0.014 A 
ATOM     68  C   UNL     1       8.403  -8.557  -9.949  1.00  0.00     0.009 A 
ATOM     69  C   UNL     1       7.770  -6.949 -11.582  1.00  0.00     0.009 A 
ATOM     70  C   UNL     1       9.650  -8.698 -10.580  1.00  0.00     0.001 A 
ATOM     71  C   UNL     1       9.006  -7.090 -12.225  1.00  0.00     0.001 A 
ATOM     72  C   UNL     1       9.955  -7.958 -11.716  1.00  0.00     0.000 A 
ENDBRANCH  53  67
BRANCH  54  73
ATOM     73  C   UNL     1       0.468  -4.426  -4.601  1.00  0.00    -0.014 A 
ATOM     74  C   UNL     1       0.345  -3.291  -3.773  1.00  0.00     0.009 A 
ATOM     75  C   UNL     1      -0.354  -4.522  -5.731  1.00  0.00     0.009 A 
ATOM     76  C   UNL     1      -0.474  -2.222  -4.143  1.00  0.00     0.001 A 
ATOM     77  C   UNL     1      -1.198  -3.459  -6.081  1.00  0.00     0.001 A 
ATOM     78  C   UNL     1      -1.227  -2.296  -5.310  1.00  0.00     0.000 A 
ENDBRANCH  54  73
BRANCH  66  79
ATOM     79  C   UNL     1       2.881 -10.944  -6.650  1.00  0.00    -0.014 A 
ATOM     80  C   UNL     1       1.616 -11.541  -6.563  1.00  0.00     0.009 A 
ATOM     81  C   UNL     1       3.908 -11.742  -7.206  1.00  0.00     0.009 A 
ATOM     82  C   UNL     1       1.401 -12.871  -6.956  1.00  0.00     0.001 A 
ATOM     83  C   UNL     1       3.689 -13.052  -7.643  1.00  0.00     0.001 A 
ATOM     84  C   UNL     1       2.435 -13.623  -7.503  1.00  0.00     0.000 A 
ENDBRANCH  66  79
ENDBRANCH  40  41
ENDBRANCH  32  35
ENDBRANCH  30  31
ENDBRANCH  29  30
ENDBRANCH   1  29
TORSDOF 15
