REMARK SMILES Cc1cc(OC(F)(F)F)cc2c1O[C@H](C(F)(F)F)C(C(=O)NCCCNC(=O)c1ccc(-c3c4nc(c(-c5ccccc5)c5ccc([nH]5)c(-c5ccccc5)c5nc(c(-c6ccccc6)c6ccc3[nH]6)C=C5)C=C4)cc1)=C2
REMARK SMILES IDX 24 1 23 2 22 3 20 4 21 5 19 7 1 8 2 9 3 10 12 11 4 12 11 13
REMARK SMILES IDX 13 14 10 15 77 16 14 17 5 18 6 19 7 20 8 21 9 22 15 23 16 24
REMARK SMILES IDX 17 25 18 26 25 27 26 28 27 29 28 31 29 32 30 33 76 34 31 35
REMARK SMILES IDX 75 36 32 37 33 38 34 39 69 40 35 41 74 42 68 43 70 44 36 45
REMARK SMILES IDX 73 46 67 47 66 48 37 50 59 51 44 52 58 53 45 54 48 55 57 56
REMARK SMILES IDX 71 57 46 58 47 59 56 61 72 62 49 63 38 64 39 65 43 66 40 67
REMARK SMILES IDX 42 68 41 69 60 70 61 71 65 72 62 73 64 74 63 75 50 76 51 77
REMARK SMILES IDX 55 78 52 79 54 80 53 81
REMARK H PARENT 22 6 26 30 70 49 48 60
REMARK Flexibility Score: inf
ROOT
ATOM      1  C   UNL     1       6.865  -4.145   1.721  1.00  0.00     0.042 C 
ENDROOT
BRANCH   1   2
ATOM      2  C   UNL     1       6.257  -4.412   0.351  1.00  0.00     0.118 C 
BRANCH   2   3
ATOM      3  N   UNL     1       5.254  -5.465   0.404  1.00  0.00    -0.352 N 
ATOM      4  C   UNL     1       3.905  -5.556   0.361  1.00  0.00     0.251 C 
ATOM      5  O   UNL     1       3.454  -6.701   0.467  1.00  0.00    -0.270 OA
ATOM      6  H   UNL     1       5.670  -6.353   0.496  1.00  0.00     0.163 HD
BRANCH   4   7
ATOM      7  C   UNL     1       2.971  -4.405   0.201  1.00  0.00     0.067 C 
ATOM      8  C   UNL     1       0.681   0.203   0.018  1.00  0.00     0.048 C 
ATOM      9  C   UNL     1       0.236  -1.230  -0.054  1.00  0.00    -0.005 A 
ATOM     10  C   UNL     1      -1.123  -1.517  -0.260  1.00  0.00     0.054 A 
ATOM     11  C   UNL     1       1.132  -2.292   0.109  1.00  0.00     0.131 A 
ATOM     12  C   UNL     1      -1.577  -2.837  -0.312  1.00  0.00     0.130 A 
ATOM     13  C   UNL     1       0.695  -3.618   0.050  1.00  0.00     0.021 A 
ATOM     14  O   UNL     1       2.438  -1.985   0.371  1.00  0.00    -0.475 OA
ATOM     15  C   UNL     1      -0.661  -3.884  -0.160  1.00  0.00     0.058 A 
ATOM     16  C   UNL     1       1.658  -4.698   0.238  1.00  0.00     0.025 C 
ATOM     17  C   UNL     1       3.411  -2.988  -0.025  1.00  0.00     0.314 C 
BRANCH  12  18
ATOM     18  O   UNL     1      -2.869  -3.240  -0.501  1.00  0.00    -0.406 OA
BRANCH  18  19
ATOM     19  C   UNL     1      -3.866  -2.236  -0.587  1.00  0.00     0.573 C 
ATOM     20  F   UNL     1      -3.899  -1.483   0.534  1.00  0.00    -0.132 F 
ATOM     21  F   UNL     1      -3.665  -1.441  -1.659  1.00  0.00    -0.132 F 
ATOM     22  F   UNL     1      -5.071  -2.832  -0.727  1.00  0.00    -0.132 F 
ENDBRANCH  18  19
ENDBRANCH  12  18
BRANCH  17  23
ATOM     23  C   UNL     1       3.864  -2.724  -1.474  1.00  0.00     0.429 C 
ATOM     24  F   UNL     1       4.577  -1.571  -1.541  1.00  0.00    -0.167 F 
ATOM     25  F   UNL     1       4.670  -3.701  -1.952  1.00  0.00    -0.167 F 
ATOM     26  F   UNL     1       2.831  -2.612  -2.337  1.00  0.00    -0.167 F 
ENDBRANCH  17  23
ENDBRANCH   4   7
ENDBRANCH   2   3
ENDBRANCH   1   2
BRANCH   1  27
ATOM     27  C   UNL     1       7.924  -5.181   2.081  1.00  0.00     0.118 C 
BRANCH  27  28
ATOM     28  N   UNL     1       9.097  -5.063   1.218  1.00  0.00    -0.352 N 
ATOM     29  C   UNL     1      10.312  -4.481   1.475  1.00  0.00     0.251 C 
ATOM     30  H   UNL     1       9.001  -5.459   0.322  1.00  0.00     0.163 HD
ATOM     31  O   UNL     1      11.072  -4.199   0.552  1.00  0.00    -0.269 OA
BRANCH  29  32
ATOM     32  C   UNL     1      10.704  -4.201   2.867  1.00  0.00     0.039 A 
ATOM     33  C   UNL     1      11.298  -2.977   3.183  1.00  0.00     0.014 A 
ATOM     34  C   UNL     1      10.509  -5.173   3.852  1.00  0.00     0.014 A 
ATOM     35  C   UNL     1      11.648  -2.707   4.506  1.00  0.00     0.010 A 
ATOM     36  C   UNL     1      10.789  -4.876   5.178  1.00  0.00     0.010 A 
ATOM     37  C   UNL     1      11.376  -3.648   5.512  1.00  0.00    -0.014 A 
BRANCH  37  38
ATOM     38  C   UNL     1      11.749  -3.399   6.921  1.00  0.00     0.031 A 
ATOM     39  C   UNL     1      12.831  -4.227   7.554  1.00  0.00     0.074 A 
ATOM     40  C   UNL     1      11.083  -2.476   7.638  1.00  0.00     0.049 A 
ATOM     41  N   UNL     1      13.260  -4.212   8.789  1.00  0.00    -0.248 NA
ATOM     42  C   UNL     1      13.505  -5.215   6.694  1.00  0.00     0.031 C 
ATOM     43  C   UNL     1       9.999  -1.631   7.134  1.00  0.00     0.029 A 
ATOM     44  N   UNL     1      11.223  -2.095   8.948  1.00  0.00    -0.354 N 
ATOM     45  C   UNL     1      14.242  -5.190   8.854  1.00  0.00     0.074 A 
ATOM     46  C   UNL     1      14.315  -5.815   7.553  1.00  0.00     0.031 C 
ATOM     47  C   UNL     1       9.594  -0.808   8.116  1.00  0.00     0.029 A 
ATOM     48  C   UNL     1      10.366  -1.090   9.322  1.00  0.00     0.049 A 
ATOM     49  H   UNL     1      11.876  -2.503   9.561  1.00  0.00     0.167 HD
ATOM     50  C   UNL     1      15.034  -5.519   9.899  1.00  0.00     0.031 A 
ATOM     51  C   UNL     1      10.223  -0.464  10.506  1.00  0.00     0.031 A 
ATOM     52  C   UNL     1      14.980  -4.878  11.181  1.00  0.00     0.049 A 
ATOM     53  C   UNL     1      11.100  -0.861  11.659  1.00  0.00     0.074 A 
ATOM     54  C   UNL     1      15.775  -5.108  12.289  1.00  0.00     0.029 A 
ATOM     55  N   UNL     1      14.087  -3.875  11.523  1.00  0.00    -0.354 N 
ATOM     56  N   UNL     1      12.048  -1.765  11.695  1.00  0.00    -0.248 NA
ATOM     57  C   UNL     1      10.892  -0.153  12.930  1.00  0.00     0.031 C 
ATOM     58  C   UNL     1      15.340  -4.267  13.315  1.00  0.00     0.029 A 
ATOM     59  C   UNL     1      14.302  -3.486  12.831  1.00  0.00     0.049 A 
ATOM     60  H   UNL     1      13.404  -3.497  10.924  1.00  0.00     0.167 HD
ATOM     61  C   UNL     1      12.562  -1.724  12.983  1.00  0.00     0.074 A 
ATOM     62  C   UNL     1      11.825  -0.702  13.698  1.00  0.00     0.031 C 
ATOM     63  C   UNL     1      13.558  -2.466  13.522  1.00  0.00     0.031 A 
BRANCH  50  64
ATOM     64  C   UNL     1      16.046  -6.606   9.693  1.00  0.00    -0.014 A 
ATOM     65  C   UNL     1      17.212  -6.367   8.949  1.00  0.00     0.009 A 
ATOM     66  C   UNL     1      15.868  -7.856  10.304  1.00  0.00     0.009 A 
ATOM     67  C   UNL     1      18.176  -7.366   8.809  1.00  0.00     0.001 A 
ATOM     68  C   UNL     1      16.844  -8.846  10.180  1.00  0.00     0.001 A 
ATOM     69  C   UNL     1      17.995  -8.601   9.431  1.00  0.00     0.000 A 
ENDBRANCH  50  64
BRANCH  51  70
ATOM     70  C   UNL     1       9.231   0.632  10.635  1.00  0.00    -0.014 A 
ATOM     71  C   UNL     1       9.658   1.968  10.640  1.00  0.00     0.009 A 
ATOM     72  C   UNL     1       7.857   0.355  10.698  1.00  0.00     0.009 A 
ATOM     73  C   UNL     1       8.727   3.007  10.710  1.00  0.00     0.001 A 
ATOM     74  C   UNL     1       6.928   1.396  10.750  1.00  0.00     0.001 A 
ATOM     75  C   UNL     1       7.363   2.720  10.758  1.00  0.00     0.000 A 
ENDBRANCH  51  70
BRANCH  63  76
ATOM     76  C   UNL     1      13.933  -2.209  14.951  1.00  0.00    -0.014 A 
ATOM     77  C   UNL     1      13.170  -2.745  15.998  1.00  0.00     0.009 A 
ATOM     78  C   UNL     1      15.136  -1.548  15.245  1.00  0.00     0.009 A 
ATOM     79  C   UNL     1      13.607  -2.623  17.317  1.00  0.00     0.001 A 
ATOM     80  C   UNL     1      15.579  -1.445  16.563  1.00  0.00     0.001 A 
ATOM     81  C   UNL     1      14.816  -1.984  17.598  1.00  0.00     0.000 A 
ENDBRANCH  63  76
ENDBRANCH  37  38
ENDBRANCH  29  32
ENDBRANCH  27  28
ENDBRANCH   1  27
TORSDOF 13
