REMARK SMILES CCOC(=O)c1c(NC(=O)[C@@H]2[C@@H](C(=O)NCCCNC(=O)c3ccc(-c4c5nc(c(-c6ccccc6)c6ccc([nH]6)c(-c6ccccc6)c6nc(c(-c7ccccc7)c7ccc4[nH]7)C=C6)C=C5)cc3)[C@@H]3C=C[C@H]2CC3)sc2c1CCC2
REMARK SMILES IDX 13 1 14 2 15 3 12 5 11 6 73 7 70 8 72 9 74 10 71 11 75 12
REMARK SMILES IDX 9 13 8 14 10 16 7 17 6 18 78 19 76 20 77 21 79 22 81 23
REMARK SMILES IDX 80 24 4 25 5 26 3 27 2 28 1 29 16 30 17 31 18 32 19 33 20 34
REMARK SMILES IDX 21 36 22 37 23 38 69 39 24 40 68 41 25 42 26 43 27 44 62 45
REMARK SMILES IDX 28 46 67 47 61 48 63 49 29 50 66 51 60 52 59 53 30 55 52 56
REMARK SMILES IDX 37 57 51 58 38 59 41 60 50 61 64 62 39 63 40 64 49 66 65 67
REMARK SMILES IDX 42 68 31 69 32 70 36 71 33 72 35 73 34 74 53 75 54 76 58 77
REMARK SMILES IDX 55 78 57 79 56 80 43 81 44 82 48 83 45 84 47 85 46 86
REMARK H PARENT 15 4 8 15 19 35 63 54 41 65
REMARK Flexibility Score: inf
ROOT
ATOM      1  C   UNL     1       6.860  -1.983  -7.366  1.00  0.00     0.224 C 
ATOM      2  O   UNL     1       7.680  -2.420  -8.186  1.00  0.00    -0.275 OA
ATOM      3  N   UNL     1       5.598  -2.438  -7.560  1.00  0.00    -0.356 N 
ATOM      4  H   UNL     1       5.522  -3.031  -8.342  1.00  0.00     0.163 HD
ENDROOT
BRANCH   1   5
ATOM      5  C   UNL     1       7.335  -1.067  -6.215  1.00  0.00     0.098 C 
ATOM      6  C   UNL     1       6.323  -0.033  -5.625  1.00  0.00     0.099 C 
ATOM      7  C   UNL     1       6.929   1.404  -5.677  1.00  0.00     0.025 C 
ATOM      8  C   UNL     1       8.572  -0.257  -6.768  1.00  0.00     0.025 C 
ATOM      9  C   UNL     1       8.302   1.401  -5.058  1.00  0.00    -0.027 C 
ATOM     10  C   UNL     1       7.075   1.751  -7.176  1.00  0.00     0.009 C 
ATOM     11  C   UNL     1       9.158   0.543  -5.624  1.00  0.00    -0.027 C 
ATOM     12  C   UNL     1       8.076   0.775  -7.824  1.00  0.00     0.009 C 
BRANCH   6  13
ATOM     13  C   UNL     1       5.779  -0.340  -4.224  1.00  0.00     0.229 C 
ATOM     14  N   UNL     1       4.703   0.326  -3.674  1.00  0.00    -0.317 N 
ATOM     15  H   UNL     1       4.535   0.085  -2.735  1.00  0.00     0.170 HD
ATOM     16  O   UNL     1       6.288  -1.232  -3.536  1.00  0.00    -0.274 OA
BRANCH  14  17
ATOM     17  C   UNL     1       3.805   1.268  -4.172  1.00  0.00     0.110 A 
ATOM     18  C   UNL     1       2.775   1.938  -3.492  1.00  0.00     0.098 A 
ATOM     19  C   UNL     1       2.142   2.881  -4.373  1.00  0.00    -0.017 A 
ATOM     20  S   UNL     1       3.811   1.695  -5.821  1.00  0.00    -0.122 S 
ATOM     21  C   UNL     1       2.667   2.841  -5.627  1.00  0.00     0.011 A 
ATOM     22  C   UNL     1       1.109   3.950  -4.315  1.00  0.00     0.038 C 
ATOM     23  C   UNL     1       2.136   3.809  -6.596  1.00  0.00     0.047 C 
ATOM     24  C   UNL     1       0.870   4.271  -5.837  1.00  0.00     0.010 C 
BRANCH  18  25
ATOM     25  C   UNL     1       2.466   1.709  -2.085  1.00  0.00     0.341 C 
ATOM     26  O   UNL     1       3.322   1.476  -1.248  1.00  0.00    -0.246 OA
BRANCH  25  27
ATOM     27  O   UNL     1       1.121   1.718  -1.850  1.00  0.00    -0.462 OA
BRANCH  27  28
ATOM     28  C   UNL     1       0.695   1.478  -0.499  1.00  0.00     0.230 C 
ATOM     29  C   UNL     1       0.956   0.053  -0.031  1.00  0.00     0.049 C 
ENDBRANCH  27  28
ENDBRANCH  25  27
ENDBRANCH  18  25
ENDBRANCH  14  17
ENDBRANCH   6  13
ENDBRANCH   1   5
BRANCH   3  30
ATOM     30  C   UNL     1       4.330  -2.247  -6.874  1.00  0.00     0.117 C 
BRANCH  30  31
ATOM     31  C   UNL     1       3.507  -1.105  -7.481  1.00  0.00     0.042 C 
BRANCH  31  32
ATOM     32  C   UNL     1       2.698  -1.497  -8.690  1.00  0.00     0.118 C 
BRANCH  32  33
ATOM     33  N   UNL     1       1.458  -2.201  -8.346  1.00  0.00    -0.352 N 
ATOM     34  C   UNL     1       0.383  -2.489  -9.174  1.00  0.00     0.251 C 
ATOM     35  H   UNL     1       1.378  -2.506  -7.413  1.00  0.00     0.163 HD
ATOM     36  O   UNL     1      -0.717  -2.765  -8.713  1.00  0.00    -0.269 OA
BRANCH  34  37
ATOM     37  C   UNL     1       0.600  -2.448 -10.632  1.00  0.00     0.039 A 
ATOM     38  C   UNL     1      -0.369  -2.029 -11.547  1.00  0.00     0.014 A 
ATOM     39  C   UNL     1       1.871  -2.785 -11.065  1.00  0.00     0.014 A 
ATOM     40  C   UNL     1      -0.000  -1.913 -12.887  1.00  0.00     0.010 A 
ATOM     41  C   UNL     1       2.305  -2.331 -12.266  1.00  0.00     0.010 A 
ATOM     42  C   UNL     1       1.353  -2.062 -13.226  1.00  0.00    -0.014 A 
BRANCH  42  43
ATOM     43  C   UNL     1       1.877  -1.885 -14.566  1.00  0.00     0.031 A 
ATOM     44  C   UNL     1       1.614  -0.547 -15.131  1.00  0.00     0.074 A 
ATOM     45  C   UNL     1       2.752  -2.764 -15.110  1.00  0.00     0.049 A 
ATOM     46  N   UNL     1       0.794  -0.269 -16.084  1.00  0.00    -0.248 NA
ATOM     47  C   UNL     1       2.175   0.635 -14.456  1.00  0.00     0.031 C 
ATOM     48  C   UNL     1       3.335  -3.976 -14.511  1.00  0.00     0.029 A 
ATOM     49  N   UNL     1       3.424  -2.677 -16.285  1.00  0.00    -0.354 N 
ATOM     50  C   UNL     1       0.913   1.097 -16.295  1.00  0.00     0.074 A 
ATOM     51  C   UNL     1       1.589   1.624 -15.136  1.00  0.00     0.031 C 
ATOM     52  C   UNL     1       4.434  -4.346 -15.207  1.00  0.00     0.029 A 
ATOM     53  C   UNL     1       4.536  -3.507 -16.386  1.00  0.00     0.049 A 
ATOM     54  H   UNL     1       3.146  -2.074 -17.012  1.00  0.00     0.167 HD
ATOM     55  C   UNL     1       0.706   1.625 -17.532  1.00  0.00     0.031 A 
ATOM     56  C   UNL     1       5.485  -3.480 -17.357  1.00  0.00     0.031 A 
ATOM     57  C   UNL     1       0.120   0.651 -18.424  1.00  0.00     0.049 A 
ATOM     58  C   UNL     1       4.894  -2.763 -18.515  1.00  0.00     0.074 A 
ATOM     59  C   UNL     1      -1.035  -0.107 -18.404  1.00  0.00     0.029 A 
ATOM     60  N   UNL     1       0.977   0.020 -19.298  1.00  0.00    -0.354 N 
ATOM     61  N   UNL     1       3.908  -3.248 -19.216  1.00  0.00    -0.248 NA
ATOM     62  C   UNL     1       5.047  -1.317 -18.574  1.00  0.00     0.031 C 
ATOM     63  C   UNL     1      -0.634  -1.392 -18.874  1.00  0.00     0.029 A 
ATOM     64  C   UNL     1       0.708  -1.324 -19.253  1.00  0.00     0.049 A 
ATOM     65  H   UNL     1       1.660   0.456 -19.857  1.00  0.00     0.167 HD
ATOM     66  C   UNL     1       3.050  -2.172 -19.399  1.00  0.00     0.074 A 
ATOM     67  C   UNL     1       3.852  -0.989 -19.079  1.00  0.00     0.031 C 
ATOM     68  C   UNL     1       1.698  -2.355 -19.480  1.00  0.00     0.031 A 
BRANCH  55  69
ATOM     69  C   UNL     1       1.428   2.836 -18.061  1.00  0.00    -0.014 A 
ATOM     70  C   UNL     1       1.091   3.299 -19.345  1.00  0.00     0.009 A 
ATOM     71  C   UNL     1       2.603   3.355 -17.487  1.00  0.00     0.009 A 
ATOM     72  C   UNL     1       1.933   4.163 -20.050  1.00  0.00     0.001 A 
ATOM     73  C   UNL     1       3.426   4.251 -18.172  1.00  0.00     0.001 A 
ATOM     74  C   UNL     1       3.107   4.630 -19.467  1.00  0.00     0.000 A 
ENDBRANCH  55  69
BRANCH  56  75
ATOM     75  C   UNL     1       6.926  -3.814 -17.278  1.00  0.00    -0.014 A 
ATOM     76  C   UNL     1       7.695  -3.987 -18.442  1.00  0.00     0.009 A 
ATOM     77  C   UNL     1       7.617  -3.700 -16.057  1.00  0.00     0.009 A 
ATOM     78  C   UNL     1       9.098  -3.998 -18.389  1.00  0.00     0.001 A 
ATOM     79  C   UNL     1       9.016  -3.714 -16.004  1.00  0.00     0.001 A 
ATOM     80  C   UNL     1       9.757  -3.846 -17.173  1.00  0.00     0.000 A 
ENDBRANCH  56  75
BRANCH  68  81
ATOM     81  C   UNL     1       1.176  -3.772 -19.568  1.00  0.00    -0.014 A 
ATOM     82  C   UNL     1       1.394  -4.742 -18.571  1.00  0.00     0.009 A 
ATOM     83  C   UNL     1       0.294  -4.087 -20.611  1.00  0.00     0.009 A 
ATOM     84  C   UNL     1       0.772  -5.994 -18.635  1.00  0.00     0.001 A 
ATOM     85  C   UNL     1      -0.345  -5.328 -20.664  1.00  0.00     0.001 A 
ATOM     86  C   UNL     1      -0.101  -6.284 -19.680  1.00  0.00     0.000 A 
ENDBRANCH  68  81
ENDBRANCH  42  43
ENDBRANCH  34  37
ENDBRANCH  32  33
ENDBRANCH  31  32
ENDBRANCH  30  31
ENDBRANCH   3  30
TORSDOF 15
