REMARK SMILES CC(C)(C)c1ccc(NC(=O)CCC(=O)NCCCNC(=O)c2ccc(-c3c4nc(c(-c5ccccc5)c5ccc([nH]5)c(-c5ccccc5)c5nc(c(-c6ccccc6)c6ccc3[nH]6)C=C5)C=C4)cc2)cc1
REMARK SMILES IDX 17 1 16 2 14 3 15 4 13 6 12 7 10 8 9 9 11 11 8 12 5 13 6 14
REMARK SMILES IDX 72 15 7 16 71 17 2 18 1 19 3 20 4 21 18 22 19 23 20 24 21 25
REMARK SMILES IDX 22 27 23 28 24 29 70 30 25 31 69 32 26 33 27 34 28 35 63 36
REMARK SMILES IDX 29 37 68 38 62 39 64 40 30 41 67 42 61 43 60 44 31 46 53 47
REMARK SMILES IDX 38 48 52 49 39 50 42 51 51 52 65 53 40 54 41 55 50 57 66 58
REMARK SMILES IDX 43 59 32 60 33 61 37 62 34 63 36 64 35 65 54 66 55 67 59 68
REMARK SMILES IDX 56 69 58 70 57 71 44 72 45 73 49 74 46 75 48 76 47 77
REMARK H PARENT 16 5 9 10 20 26 64 45 42 56
REMARK Flexibility Score: inf
ROOT
ATOM      1  C   UNL     1       3.275   6.243  -2.276  1.00  0.00     0.117 C 
ENDROOT
BRANCH   1   2
ATOM      2  N   UNL     1       3.258   4.812  -2.021  1.00  0.00    -0.356 N 
ATOM      3  C   UNL     1       4.091   3.826  -2.458  1.00  0.00     0.220 C 
ATOM      4  O   UNL     1       4.021   2.719  -1.923  1.00  0.00    -0.275 OA
ATOM      5  H   UNL     1       2.527   4.505  -1.437  1.00  0.00     0.163 HD
BRANCH   3   6
ATOM      6  C   UNL     1       5.064   4.077  -3.587  1.00  0.00     0.110 C 
BRANCH   6   7
ATOM      7  C   UNL     1       4.595   3.523  -4.927  1.00  0.00     0.110 C 
BRANCH   7   8
ATOM      8  C   UNL     1       3.326   4.173  -5.435  1.00  0.00     0.224 C 
ATOM      9  N   UNL     1       2.079   3.742  -5.085  1.00  0.00    -0.326 N 
ATOM     10  H   UNL     1       1.347   4.296  -5.439  1.00  0.00     0.169 HD
ATOM     11  O   UNL     1       3.402   5.213  -6.101  1.00  0.00    -0.275 OA
BRANCH   9  12
ATOM     12  C   UNL     1       1.653   2.652  -4.314  1.00  0.00     0.041 A 
ATOM     13  C   UNL     1       0.817   0.634  -2.497  1.00  0.00    -0.042 A 
ATOM     14  C   UNL     1       1.860   0.416  -3.411  1.00  0.00     0.006 A 
ATOM     15  C   UNL     1       0.165   1.877  -2.561  1.00  0.00     0.006 A 
ATOM     16  C   UNL     1       2.265   1.407  -4.314  1.00  0.00     0.026 A 
ATOM     17  C   UNL     1       0.550   2.854  -3.485  1.00  0.00     0.026 A 
BRANCH  13  18
ATOM     18  C   UNL     1       0.420  -0.418  -1.449  1.00  0.00    -0.013 C 
ATOM     19  C   UNL     1       1.074  -0.050  -0.102  1.00  0.00     0.016 C 
ATOM     20  C   UNL     1       0.873  -1.847  -1.827  1.00  0.00     0.016 C 
ATOM     21  C   UNL     1      -1.114  -0.471  -1.262  1.00  0.00     0.016 C 
ENDBRANCH  13  18
ENDBRANCH   9  12
ENDBRANCH   7   8
ENDBRANCH   6   7
ENDBRANCH   3   6
ENDBRANCH   1   2
BRANCH   1  22
ATOM     22  C   UNL     1       2.056   6.755  -3.037  1.00  0.00     0.042 C 
BRANCH  22  23
ATOM     23  C   UNL     1       0.713   6.501  -2.362  1.00  0.00     0.118 C 
BRANCH  23  24
ATOM     24  N   UNL     1       0.476   7.341  -1.203  1.00  0.00    -0.352 N 
ATOM     25  C   UNL     1      -0.613   8.125  -0.900  1.00  0.00     0.251 C 
ATOM     26  H   UNL     1       1.200   7.351  -0.535  1.00  0.00     0.163 HD
ATOM     27  O   UNL     1      -0.600   8.831   0.100  1.00  0.00    -0.269 OA
BRANCH  25  28
ATOM     28  C   UNL     1      -1.793   8.151  -1.796  1.00  0.00     0.039 A 
ATOM     29  C   UNL     1      -2.304   9.394  -2.179  1.00  0.00     0.014 A 
ATOM     30  C   UNL     1      -2.413   6.976  -2.234  1.00  0.00     0.014 A 
ATOM     31  C   UNL     1      -3.405   9.462  -3.037  1.00  0.00     0.010 A 
ATOM     32  C   UNL     1      -3.480   7.045  -3.134  1.00  0.00     0.010 A 
ATOM     33  C   UNL     1      -3.991   8.289  -3.540  1.00  0.00    -0.014 A 
BRANCH  33  34
ATOM     34  C   UNL     1      -5.141   8.366  -4.480  1.00  0.00     0.031 A 
ATOM     35  C   UNL     1      -6.507   7.898  -4.060  1.00  0.00     0.074 A 
ATOM     36  C   UNL     1      -4.957   8.841  -5.727  1.00  0.00     0.049 A 
ATOM     37  N   UNL     1      -7.630   7.918  -4.735  1.00  0.00    -0.248 NA
ATOM     38  C   UNL     1      -6.625   7.315  -2.716  1.00  0.00     0.031 C 
ATOM     39  C   UNL     1      -3.680   9.293  -6.281  1.00  0.00     0.029 A 
ATOM     40  N   UNL     1      -5.850   9.025  -6.755  1.00  0.00    -0.354 N 
ATOM     41  C   UNL     1      -8.582   7.342  -3.904  1.00  0.00     0.074 A 
ATOM     42  C   UNL     1      -7.896   6.940  -2.695  1.00  0.00     0.031 C 
ATOM     43  C   UNL     1      -3.876   9.725  -7.538  1.00  0.00     0.029 A 
ATOM     44  C   UNL     1      -5.284   9.558  -7.887  1.00  0.00     0.049 A 
ATOM     45  H   UNL     1      -6.805   8.796  -6.686  1.00  0.00     0.167 HD
ATOM     46  C   UNL     1      -9.910   7.177  -4.116  1.00  0.00     0.031 A 
ATOM     47  C   UNL     1      -5.833   9.880  -9.074  1.00  0.00     0.031 A 
ATOM     48  C   UNL     1     -10.602   7.580  -5.312  1.00  0.00     0.049 A 
ATOM     49  C   UNL     1      -7.308   9.685  -9.289  1.00  0.00     0.074 A 
ATOM     50  C   UNL     1     -11.957   7.513  -5.588  1.00  0.00     0.029 A 
ATOM     51  N   UNL     1      -9.991   8.114  -6.435  1.00  0.00    -0.354 N 
ATOM     52  N   UNL     1      -8.208   9.219  -8.459  1.00  0.00    -0.248 NA
ATOM     53  C   UNL     1      -7.843  10.076 -10.602  1.00  0.00     0.031 C 
ATOM     54  C   UNL     1     -12.159   7.960  -6.898  1.00  0.00     0.029 A 
ATOM     55  C   UNL     1     -10.938   8.355  -7.418  1.00  0.00     0.049 A 
ATOM     56  H   UNL     1      -9.028   8.297  -6.521  1.00  0.00     0.167 HD
ATOM     57  C   UNL     1      -9.418   9.282  -9.139  1.00  0.00     0.074 A 
ATOM     58  C   UNL     1      -9.139   9.845 -10.444  1.00  0.00     0.031 C 
ATOM     59  C   UNL     1     -10.650   8.907  -8.716  1.00  0.00     0.031 A 
BRANCH  46  60
ATOM     60  C   UNL     1     -10.704   6.514  -3.023  1.00  0.00    -0.014 A 
ATOM     61  C   UNL     1     -10.954   7.166  -1.805  1.00  0.00     0.009 A 
ATOM     62  C   UNL     1     -11.227   5.228  -3.225  1.00  0.00     0.009 A 
ATOM     63  C   UNL     1     -11.674   6.526  -0.795  1.00  0.00     0.001 A 
ATOM     64  C   UNL     1     -11.972   4.601  -2.224  1.00  0.00     0.001 A 
ATOM     65  C   UNL     1     -12.185   5.245  -1.006  1.00  0.00     0.000 A 
ENDBRANCH  46  60
BRANCH  47  66
ATOM     66  C   UNL     1      -4.980  10.445 -10.152  1.00  0.00    -0.014 A 
ATOM     67  C   UNL     1      -5.076  11.801 -10.500  1.00  0.00     0.009 A 
ATOM     68  C   UNL     1      -4.060   9.633 -10.832  1.00  0.00     0.009 A 
ATOM     69  C   UNL     1      -4.281  12.327 -11.521  1.00  0.00     0.001 A 
ATOM     70  C   UNL     1      -3.248  10.167 -11.834  1.00  0.00     0.001 A 
ATOM     71  C   UNL     1      -3.364  11.512 -12.183  1.00  0.00     0.000 A 
ENDBRANCH  47  66
BRANCH  59  72
ATOM     72  C   UNL     1     -11.798   9.114  -9.665  1.00  0.00    -0.014 A 
ATOM     73  C   UNL     1     -11.964   8.299 -10.796  1.00  0.00     0.009 A 
ATOM     74  C   UNL     1     -12.750  10.110  -9.399  1.00  0.00     0.009 A 
ATOM     75  C   UNL     1     -13.046   8.497 -11.657  1.00  0.00     0.001 A 
ATOM     76  C   UNL     1     -13.845  10.289 -10.247  1.00  0.00     0.001 A 
ATOM     77  C   UNL     1     -13.987   9.488 -11.379  1.00  0.00     0.000 A 
ENDBRANCH  59  72
ENDBRANCH  33  34
ENDBRANCH  25  28
ENDBRANCH  23  24
ENDBRANCH  22  23
ENDBRANCH   1  22
TORSDOF 14
