REMARK SMILES COc1ccc2[nH]c(C(=O)c3cc(C)ccn3)c(CC(=O)NCCCNC(=O)c3ccc(-c4c5nc(c(-c6ccccc6)c6ccc([nH]6)c(-c6ccccc6)c6nc(c(-c7ccccc7)c7ccc4[nH]7)C=C6)C=C5)cc3)c2c1
REMARK SMILES IDX 23 1 22 2 20 3 21 4 19 6 18 7 3 8 4 9 78 10 5 11 77 12 6 13
REMARK SMILES IDX 7 14 8 15 2 17 1 18 9 19 10 20 11 21 12 22 17 23 13 24 16 25
REMARK SMILES IDX 14 26 15 27 24 28 25 29 26 30 27 31 28 33 29 34 30 35 76 36
REMARK SMILES IDX 31 37 75 38 32 39 33 40 34 41 69 42 35 43 74 44 68 45 70 46
REMARK SMILES IDX 36 47 73 48 67 49 66 50 37 52 59 53 44 54 58 55 45 56 48 57
REMARK SMILES IDX 57 58 71 59 46 60 47 61 56 63 72 64 49 65 38 66 39 67 43 68
REMARK SMILES IDX 40 69 42 70 41 71 60 72 61 73 65 74 62 75 64 76 63 77 50 78
REMARK SMILES IDX 51 79 55 80 52 81 54 82 53 83
REMARK H PARENT 22 5 7 16 26 32 70 51 48 62
REMARK Flexibility Score: inf
ROOT
ATOM      1  C   UNL     1      -2.463   0.770  -4.807  1.00  0.00     0.117 C 
ENDROOT
BRANCH   1   2
ATOM      2  N   UNL     1      -3.031   0.098  -5.957  1.00  0.00    -0.356 N 
ATOM      3  C   UNL     1      -2.928  -1.206  -6.350  1.00  0.00     0.224 C 
ATOM      4  O   UNL     1      -3.684  -1.570  -7.254  1.00  0.00    -0.275 OA
ATOM      5  H   UNL     1      -3.576   0.669  -6.546  1.00  0.00     0.163 HD
BRANCH   3   6
ATOM      6  C   UNL     1      -2.019  -2.189  -5.620  1.00  0.00     0.138 C 
BRANCH   6   7
ATOM      7  C   UNL     1      -0.556  -1.825  -5.614  1.00  0.00    -0.002 A 
ATOM      8  C   UNL     1       0.918  -1.068  -2.156  1.00  0.00     0.119 A 
ATOM      9  C   UNL     1       2.186  -0.715  -2.611  1.00  0.00     0.048 A 
ATOM     10  C   UNL     1      -0.059  -1.501  -3.059  1.00  0.00     0.057 A 
ATOM     11  C   UNL     1       2.498  -0.757  -3.976  1.00  0.00     0.030 A 
ATOM     12  C   UNL     1       0.218  -1.524  -4.442  1.00  0.00     0.008 A 
ATOM     13  C   UNL     1       1.492  -1.160  -4.863  1.00  0.00     0.046 A 
ATOM     14  N   UNL     1       1.513  -1.282  -6.230  1.00  0.00    -0.352 N 
ATOM     15  C   UNL     1       0.311  -1.762  -6.708  1.00  0.00     0.093 A 
ATOM     16  H   UNL     1       2.286  -1.057  -6.797  1.00  0.00     0.167 HD
BRANCH   8  17
ATOM     17  O   UNL     1       0.535  -1.068  -0.841  1.00  0.00    -0.497 OA
ATOM     18  C   UNL     1       1.074  -0.003  -0.064  1.00  0.00     0.278 C 
ENDBRANCH   8  17
BRANCH  15  19
ATOM     19  C   UNL     1       0.041  -2.107  -8.101  1.00  0.00     0.227 C 
ATOM     20  O   UNL     1      -1.032  -2.567  -8.488  1.00  0.00    -0.285 OA
BRANCH  19  21
ATOM     21  C   UNL     1       1.127  -1.965  -9.105  1.00  0.00     0.113 A 
ATOM     22  C   UNL     1       2.240  -2.799  -9.039  1.00  0.00     0.036 A 
ATOM     23  N   UNL     1       0.948  -1.013 -10.054  1.00  0.00    -0.253 NA
ATOM     24  C   UNL     1       3.234  -2.653 -10.009  1.00  0.00    -0.047 A 
ATOM     25  C   UNL     1       1.903  -0.921 -11.000  1.00  0.00     0.112 A 
ATOM     26  C   UNL     1       4.462  -3.514 -10.002  1.00  0.00     0.044 C 
ATOM     27  C   UNL     1       3.049  -1.703 -11.017  1.00  0.00     0.023 A 
ENDBRANCH  19  21
ENDBRANCH  15  19
ENDBRANCH   6   7
ENDBRANCH   3   6
ENDBRANCH   1   2
BRANCH   1  28
ATOM     28  C   UNL     1      -1.289   1.675  -5.167  1.00  0.00     0.042 C 
BRANCH  28  29
ATOM     29  C   UNL     1      -1.657   2.871  -6.041  1.00  0.00     0.118 C 
BRANCH  29  30
ATOM     30  N   UNL     1      -2.539   3.814  -5.369  1.00  0.00    -0.352 N 
ATOM     31  C   UNL     1      -2.387   5.154  -5.115  1.00  0.00     0.251 C 
ATOM     32  H   UNL     1      -3.384   3.427  -5.042  1.00  0.00     0.163 HD
ATOM     33  O   UNL     1      -3.191   5.725  -4.381  1.00  0.00    -0.269 OA
BRANCH  31  34
ATOM     34  C   UNL     1      -1.262   5.922  -5.695  1.00  0.00     0.039 A 
ATOM     35  C   UNL     1      -0.620   6.874  -4.894  1.00  0.00     0.014 A 
ATOM     36  C   UNL     1      -0.871   5.757  -7.026  1.00  0.00     0.014 A 
ATOM     37  C   UNL     1       0.449   7.614  -5.407  1.00  0.00     0.010 A 
ATOM     38  C   UNL     1       0.234   6.452  -7.518  1.00  0.00     0.010 A 
ATOM     39  C   UNL     1       0.904   7.387  -6.715  1.00  0.00    -0.014 A 
BRANCH  39  40
ATOM     40  C   UNL     1       2.072   8.119  -7.265  1.00  0.00     0.031 A 
ATOM     41  C   UNL     1       1.894   9.078  -8.410  1.00  0.00     0.074 A 
ATOM     42  C   UNL     1       3.305   7.875  -6.779  1.00  0.00     0.049 A 
ATOM     43  N   UNL     1       2.803   9.723  -9.097  1.00  0.00    -0.248 NA
ATOM     44  C   UNL     1       0.513   9.330  -8.853  1.00  0.00     0.031 C 
ATOM     45  C   UNL     1       3.620   6.960  -5.681  1.00  0.00     0.029 A 
ATOM     46  N   UNL     1       4.527   8.372  -7.159  1.00  0.00    -0.354 N 
ATOM     47  C   UNL     1       2.108  10.438 -10.064  1.00  0.00     0.074 A 
ATOM     48  C   UNL     1       0.706  10.124  -9.897  1.00  0.00     0.031 C 
ATOM     49  C   UNL     1       4.946   6.974  -5.464  1.00  0.00     0.029 A 
ATOM     50  C   UNL     1       5.577   7.864  -6.433  1.00  0.00     0.049 A 
ATOM     51  H   UNL     1       4.641   9.030  -7.883  1.00  0.00     0.167 HD
ATOM     52  C   UNL     1       2.591  11.291 -10.998  1.00  0.00     0.031 A 
ATOM     53  C   UNL     1       6.902   8.081  -6.543  1.00  0.00     0.031 A 
ATOM     54  C   UNL     1       3.982  11.620 -11.159  1.00  0.00     0.049 A 
ATOM     55  C   UNL     1       7.413   9.017  -7.602  1.00  0.00     0.074 A 
ATOM     56  C   UNL     1       4.562  12.497 -12.060  1.00  0.00     0.029 A 
ATOM     57  N   UNL     1       5.010  11.092 -10.396  1.00  0.00    -0.354 N 
ATOM     58  N   UNL     1       6.739   9.704  -8.491  1.00  0.00    -0.248 NA
ATOM     59  C   UNL     1       8.869   9.211  -7.666  1.00  0.00     0.031 C 
ATOM     60  C   UNL     1       5.947  12.476 -11.861  1.00  0.00     0.029 A 
ATOM     61  C   UNL     1       6.222  11.617 -10.810  1.00  0.00     0.049 A 
ATOM     62  H   UNL     1       4.895  10.440  -9.667  1.00  0.00     0.167 HD
ATOM     63  C   UNL     1       7.684  10.434  -9.199  1.00  0.00     0.074 A 
ATOM     64  C   UNL     1       8.977  10.112  -8.632  1.00  0.00     0.031 C 
ATOM     65  C   UNL     1       7.497  11.296 -10.227  1.00  0.00     0.031 A 
BRANCH  52  66
ATOM     66  C   UNL     1       1.599  11.930 -11.928  1.00  0.00    -0.014 A 
ATOM     67  C   UNL     1       0.743  12.948 -11.482  1.00  0.00     0.009 A 
ATOM     68  C   UNL     1       1.549  11.539 -13.275  1.00  0.00     0.009 A 
ATOM     69  C   UNL     1      -0.166  13.541 -12.360  1.00  0.00     0.001 A 
ATOM     70  C   UNL     1       0.656  12.150 -14.156  1.00  0.00     0.001 A 
ATOM     71  C   UNL     1      -0.206  13.145 -13.697  1.00  0.00     0.000 A 
ENDBRANCH  52  66
BRANCH  53  72
ATOM     72  C   UNL     1       7.848   7.403  -5.620  1.00  0.00    -0.014 A 
ATOM     73  C   UNL     1       8.503   8.134  -4.617  1.00  0.00     0.009 A 
ATOM     74  C   UNL     1       8.116   6.032  -5.749  1.00  0.00     0.009 A 
ATOM     75  C   UNL     1       9.429   7.510  -3.779  1.00  0.00     0.001 A 
ATOM     76  C   UNL     1       9.024   5.406  -4.893  1.00  0.00     0.001 A 
ATOM     77  C   UNL     1       9.686   6.146  -3.915  1.00  0.00     0.000 A 
ENDBRANCH  53  72
BRANCH  65  78
ATOM     78  C   UNL     1       8.712  11.988 -10.772  1.00  0.00    -0.014 A 
ATOM     79  C   UNL     1       9.623  11.315 -11.600  1.00  0.00     0.009 A 
ATOM     80  C   UNL     1       8.922  13.346 -10.486  1.00  0.00     0.009 A 
ATOM     81  C   UNL     1      10.737  11.984 -12.109  1.00  0.00     0.001 A 
ATOM     82  C   UNL     1      10.024  14.017 -11.015  1.00  0.00     0.001 A 
ATOM     83  C   UNL     1      10.935  13.334 -11.819  1.00  0.00     0.000 A 
ENDBRANCH  65  78
ENDBRANCH  39  40
ENDBRANCH  31  34
ENDBRANCH  29  30
ENDBRANCH  28  29
ENDBRANCH   1  28
TORSDOF 14
