REMARK SMILES O=C(CC1(NC(=O)c2ccccc2[N+](=O)[O-])CCC1)NCCCNC(=O)c1ccc(-c2c3nc(c(-c4ccccc4)c4ccc([nH]4)c(-c4ccccc4)c4nc(c(-c5ccccc5)c5ccc2[nH]5)C=C4)C=C3)cc1
REMARK SMILES IDX 21 1 20 2 1 3 2 4 3 6 4 7 17 8 19 9 18 10 5 11 6 12 7 14
REMARK SMILES IDX 8 15 9 16 13 17 10 18 12 19 11 20 14 21 15 22 16 23 22 24
REMARK SMILES IDX 23 25 24 26 25 27 26 29 27 30 28 31 74 32 29 33 73 34 30 35
REMARK SMILES IDX 31 36 32 37 67 38 33 39 72 40 66 41 68 42 34 43 71 44 65 45
REMARK SMILES IDX 64 46 35 48 57 49 42 50 56 51 43 52 46 53 55 54 69 55 44 56
REMARK SMILES IDX 45 57 54 59 70 60 47 61 36 62 37 63 41 64 38 65 40 66 39 67
REMARK SMILES IDX 58 68 59 69 63 70 60 71 62 72 61 73 48 74 49 75 53 76 50 77
REMARK SMILES IDX 52 78 51 79
REMARK H PARENT 20 5 5 13 24 28 68 47 46 58
REMARK Flexibility Score: inf
ROOT
ATOM      1  C   UNL     1       2.012  -2.681  -1.230  1.00  0.00     0.117 C 
ENDROOT
BRANCH   1   2
ATOM      2  N   UNL     1       2.455  -1.500  -0.514  1.00  0.00    -0.356 N 
ATOM      3  O   UNL     1       0.419  -1.077   0.448  1.00  0.00    -0.275 OA
ATOM      4  C   UNL     1       1.599  -0.784   0.283  1.00  0.00     0.222 C 
ATOM      5  H   UNL     1       3.391  -1.207  -0.603  1.00  0.00     0.163 HD
BRANCH   4   6
ATOM      6  C   UNL     1       2.184   0.477   0.862  1.00  0.00     0.128 C 
BRANCH   6   7
ATOM      7  C   UNL     1       3.497   0.376   1.641  1.00  0.00     0.049 C 
ATOM      8  C   UNL     1       3.451   1.051   3.054  1.00  0.00     0.029 C 
ATOM      9  C   UNL     1       3.671  -0.982   2.413  1.00  0.00     0.029 C 
ATOM     10  C   UNL     1       4.111  -0.199   3.655  1.00  0.00     0.005 C 
BRANCH   7  11
ATOM     11  N   UNL     1       4.766   0.733   0.921  1.00  0.00    -0.346 N 
ATOM     12  C   UNL     1       5.136   1.597  -0.083  1.00  0.00     0.258 C 
ATOM     13  H   UNL     1       5.532   0.213   1.255  1.00  0.00     0.164 HD
ATOM     14  O   UNL     1       6.321   1.686  -0.395  1.00  0.00    -0.269 OA
BRANCH  12  15
ATOM     15  C   UNL     1       4.158   2.305  -0.911  1.00  0.00     0.117 A 
ATOM     16  C   UNL     1       4.032   1.848  -2.232  1.00  0.00     0.021 A 
ATOM     17  C   UNL     1       3.334   3.337  -0.463  1.00  0.00     0.282 A 
ATOM     18  C   UNL     1       3.027   2.356  -3.056  1.00  0.00     0.001 A 
ATOM     19  C   UNL     1       2.309   3.838  -1.280  1.00  0.00     0.086 A 
ATOM     20  C   UNL     1       2.152   3.330  -2.573  1.00  0.00     0.007 A 
BRANCH  17  21
ATOM     21  N   UNL     1       3.470   3.863   0.880  1.00  0.00     0.063 N 
ATOM     22  O   UNL     1       2.430   3.977   1.543  1.00  0.00    -0.258 OA
ATOM     23  O   UNL     1       4.604   4.163   1.268  1.00  0.00    -0.258 OA
ENDBRANCH  17  21
ENDBRANCH  12  15
ENDBRANCH   7  11
ENDBRANCH   6   7
ENDBRANCH   4   6
ENDBRANCH   1   2
BRANCH   1  24
ATOM     24  C   UNL     1       2.448  -2.655  -2.688  1.00  0.00     0.042 C 
BRANCH  24  25
ATOM     25  C   UNL     1       3.960  -2.662  -2.882  1.00  0.00     0.118 C 
BRANCH  25  26
ATOM     26  N   UNL     1       4.592  -3.853  -2.335  1.00  0.00    -0.352 N 
ATOM     27  C   UNL     1       5.231  -4.890  -2.967  1.00  0.00     0.251 C 
ATOM     28  H   UNL     1       4.554  -3.927  -1.354  1.00  0.00     0.163 HD
ATOM     29  O   UNL     1       5.519  -5.902  -2.335  1.00  0.00    -0.269 OA
BRANCH  27  30
ATOM     30  C   UNL     1       5.556  -4.806  -4.406  1.00  0.00     0.039 A 
ATOM     31  C   UNL     1       5.336  -5.926  -5.212  1.00  0.00     0.014 A 
ATOM     32  C   UNL     1       6.101  -3.643  -4.956  1.00  0.00     0.014 A 
ATOM     33  C   UNL     1       5.594  -5.856  -6.583  1.00  0.00     0.010 A 
ATOM     34  C   UNL     1       6.286  -3.549  -6.333  1.00  0.00     0.010 A 
ATOM     35  C   UNL     1       6.034  -4.654  -7.160  1.00  0.00    -0.014 A 
BRANCH  35  36
ATOM     36  C   UNL     1       6.230  -4.525  -8.626  1.00  0.00     0.031 A 
ATOM     37  C   UNL     1       7.597  -4.246  -9.187  1.00  0.00     0.074 A 
ATOM     38  C   UNL     1       5.164  -4.582  -9.448  1.00  0.00     0.049 A 
ATOM     39  N   UNL     1       7.947  -4.006 -10.425  1.00  0.00    -0.248 NA
ATOM     40  C   UNL     1       8.712  -4.206  -8.227  1.00  0.00     0.031 C 
ATOM     41  C   UNL     1       3.780  -4.816  -9.030  1.00  0.00     0.029 A 
ATOM     42  N   UNL     1       5.079  -4.435 -10.810  1.00  0.00    -0.354 N 
ATOM     43  C   UNL     1       9.315  -3.766 -10.389  1.00  0.00     0.074 A 
ATOM     44  C   UNL     1       9.723  -3.847  -9.004  1.00  0.00     0.031 C 
ATOM     45  C   UNL     1       2.988  -4.817 -10.114  1.00  0.00     0.029 A 
ATOM     46  C   UNL     1       3.798  -4.542 -11.296  1.00  0.00     0.049 A 
ATOM     47  H   UNL     1       5.861  -4.269 -11.384  1.00  0.00     0.167 HD
ATOM     48  C   UNL     1      10.159  -3.516 -11.418  1.00  0.00     0.031 A 
ATOM     49  C   UNL     1       3.325  -4.419 -12.550  1.00  0.00     0.031 A 
ATOM     50  C   UNL     1       9.759  -3.451 -12.799  1.00  0.00     0.049 A 
ATOM     51  C   UNL     1       4.280  -4.124 -13.673  1.00  0.00     0.074 A 
ATOM     52  C   UNL     1      10.552  -3.260 -13.917  1.00  0.00     0.029 A 
ATOM     53  N   UNL     1       8.454  -3.573 -13.248  1.00  0.00    -0.354 N 
ATOM     54  N   UNL     1       5.579  -3.957 -13.629  1.00  0.00    -0.248 NA
ATOM     55  C   UNL     1       3.702  -4.009 -15.019  1.00  0.00     0.031 C 
ATOM     56  C   UNL     1       9.719  -3.220 -15.041  1.00  0.00     0.029 A 
ATOM     57  C   UNL     1       8.415  -3.438 -14.625  1.00  0.00     0.049 A 
ATOM     58  H   UNL     1       7.670  -3.732 -12.673  1.00  0.00     0.167 HD
ATOM     59  C   UNL     1       5.977  -3.744 -14.942  1.00  0.00     0.074 A 
ATOM     60  C   UNL     1       4.784  -3.815 -15.760  1.00  0.00     0.031 C 
ATOM     61  C   UNL     1       7.221  -3.513 -15.426  1.00  0.00     0.031 A 
BRANCH  48  62
ATOM     62  C   UNL     1      11.607  -3.285 -11.085  1.00  0.00    -0.014 A 
ATOM     63  C   UNL     1      12.430  -4.335 -10.650  1.00  0.00     0.009 A 
ATOM     64  C   UNL     1      12.164  -2.006 -11.243  1.00  0.00     0.009 A 
ATOM     65  C   UNL     1      13.773  -4.102 -10.345  1.00  0.00     0.001 A 
ATOM     66  C   UNL     1      13.513  -1.782 -10.965  1.00  0.00     0.001 A 
ATOM     67  C   UNL     1      14.314  -2.827 -10.507  1.00  0.00     0.000 A 
ENDBRANCH  48  62
BRANCH  49  68
ATOM     68  C   UNL     1       1.873  -4.584 -12.816  1.00  0.00    -0.014 A 
ATOM     69  C   UNL     1       1.399  -5.720 -13.488  1.00  0.00     0.009 A 
ATOM     70  C   UNL     1       0.955  -3.606 -12.403  1.00  0.00     0.009 A 
ATOM     71  C   UNL     1       0.037  -5.863 -13.763  1.00  0.00     0.001 A 
ATOM     72  C   UNL     1      -0.410  -3.765 -12.655  1.00  0.00     0.001 A 
ATOM     73  C   UNL     1      -0.866  -4.888 -13.342  1.00  0.00     0.000 A 
ENDBRANCH  49  68
BRANCH  61  74
ATOM     74  C   UNL     1       7.363  -3.354 -16.913  1.00  0.00    -0.014 A 
ATOM     75  C   UNL     1       6.936  -2.188 -17.565  1.00  0.00     0.009 A 
ATOM     76  C   UNL     1       7.976  -4.370 -17.663  1.00  0.00     0.009 A 
ATOM     77  C   UNL     1       7.096  -2.054 -18.946  1.00  0.00     0.001 A 
ATOM     78  C   UNL     1       8.159  -4.221 -19.038  1.00  0.00     0.001 A 
ATOM     79  C   UNL     1       7.712  -3.067 -19.680  1.00  0.00     0.000 A 
ENDBRANCH  61  74
ENDBRANCH  35  36
ENDBRANCH  27  30
ENDBRANCH  25  26
ENDBRANCH  24  25
ENDBRANCH   1  24
TORSDOF 14
