REMARK SMILES O=C(NCCCNC(=O)c1ccc(C[NH2+]CCOc2ccccc2)nc1)c1ccc(-c2c3nc(c(-c4ccccc4)c4ccc([nH]4)c(-c4ccccc4)c4nc(c(-c5ccccc5)c5ccc2[nH]5)C=C4)C=C3)cc1
REMARK SMILES IDX 7 1 8 2 9 3 6 5 5 6 4 7 3 8 1 9 2 10 27 12 28 13 74 14 29 15
REMARK SMILES IDX 73 16 30 17 31 18 32 19 67 20 33 21 72 22 66 23 68 24 34 25
REMARK SMILES IDX 71 26 65 27 64 28 35 30 57 31 42 32 56 33 43 34 46 35 55 36
REMARK SMILES IDX 69 37 44 38 45 39 54 41 70 42 47 43 36 44 37 45 41 46 38 47
REMARK SMILES IDX 40 48 39 49 58 50 59 51 63 52 60 53 62 54 61 55 48 56 49 57
REMARK SMILES IDX 53 58 50 59 52 60 51 61 10 62 11 63 26 64 12 65 25 66 13 67
REMARK SMILES IDX 14 68 15 69 16 72 17 73 18 74 19 75 20 76 24 77 21 78 23 79
REMARK SMILES IDX 22 80
REMARK H PARENT 7 4 3 11 68 29 46 40 15 70 15 71
REMARK Flexibility Score: inf
ROOT
ATOM      1  N   UNL     1       4.886  -4.335  -1.067  1.00  0.00    -0.352 N 
ATOM      2  C   UNL     1       5.800  -5.332  -1.295  1.00  0.00     0.252 C 
ATOM      3  O   UNL     1       6.263  -5.484  -2.421  1.00  0.00    -0.269 OA
ATOM      4  H   UNL     1       4.519  -3.916  -1.879  1.00  0.00     0.163 HD
ENDROOT
BRANCH   1   5
ATOM      5  C   UNL     1       4.373  -3.797   0.185  1.00  0.00     0.118 C 
BRANCH   5   6
ATOM      6  C   UNL     1       4.941  -2.421   0.498  1.00  0.00     0.042 C 
BRANCH   6   7
ATOM      7  C   UNL     1       4.578  -1.358  -0.527  1.00  0.00     0.118 C 
BRANCH   7   8
ATOM      8  N   UNL     1       3.145  -1.096  -0.590  1.00  0.00    -0.352 N 
ATOM      9  O   UNL     1       1.190  -0.067  -0.172  1.00  0.00    -0.269 OA
ATOM     10  C   UNL     1       2.413  -0.002  -0.195  1.00  0.00     0.251 C 
ATOM     11  H   UNL     1       2.613  -1.826  -0.982  1.00  0.00     0.163 HD
BRANCH  10  12
ATOM     12  C   UNL     1       3.092   1.242   0.230  1.00  0.00     0.039 A 
ATOM     13  C   UNL     1       4.213   1.718  -0.449  1.00  0.00     0.014 A 
ATOM     14  C   UNL     1       2.582   1.960   1.317  1.00  0.00     0.014 A 
ATOM     15  C   UNL     1       4.932   2.788   0.066  1.00  0.00     0.010 A 
ATOM     16  C   UNL     1       3.243   3.106   1.766  1.00  0.00     0.010 A 
ATOM     17  C   UNL     1       4.450   3.505   1.173  1.00  0.00    -0.014 A 
BRANCH  17  18
ATOM     18  C   UNL     1       5.206   4.688   1.657  1.00  0.00     0.031 A 
ATOM     19  C   UNL     1       5.803   4.720   3.036  1.00  0.00     0.074 A 
ATOM     20  C   UNL     1       5.383   5.730   0.822  1.00  0.00     0.049 A 
ATOM     21  N   UNL     1       6.525   5.658   3.599  1.00  0.00    -0.248 NA
ATOM     22  C   UNL     1       5.552   3.558   3.902  1.00  0.00     0.031 C 
ATOM     23  C   UNL     1       4.857   5.818  -0.543  1.00  0.00     0.029 A 
ATOM     24  N   UNL     1       6.077   6.901   0.986  1.00  0.00    -0.354 N 
ATOM     25  C   UNL     1       6.792   5.212   4.888  1.00  0.00     0.074 A 
ATOM     26  C   UNL     1       6.131   3.933   5.034  1.00  0.00     0.031 C 
ATOM     27  C   UNL     1       5.298   6.948  -1.112  1.00  0.00     0.029 A 
ATOM     28  C   UNL     1       6.076   7.697  -0.134  1.00  0.00     0.049 A 
ATOM     29  H   UNL     1       6.531   7.148   1.824  1.00  0.00     0.167 HD
ATOM     30  C   UNL     1       7.523   5.811   5.859  1.00  0.00     0.031 A 
ATOM     31  C   UNL     1       6.630   8.904  -0.350  1.00  0.00     0.031 A 
ATOM     32  C   UNL     1       8.177   7.086   5.712  1.00  0.00     0.049 A 
ATOM     33  C   UNL     1       7.398   9.564   0.756  1.00  0.00     0.074 A 
ATOM     34  C   UNL     1       8.970   7.760   6.625  1.00  0.00     0.029 A 
ATOM     35  N   UNL     1       8.107   7.885   4.580  1.00  0.00    -0.354 N 
ATOM     36  N   UNL     1       7.670   9.113   1.956  1.00  0.00    -0.248 NA
ATOM     37  C   UNL     1       7.937  10.900   0.473  1.00  0.00     0.031 C 
ATOM     38  C   UNL     1       9.329   8.993   6.069  1.00  0.00     0.029 A 
ATOM     39  C   UNL     1       8.816   9.058   4.783  1.00  0.00     0.049 A 
ATOM     40  H   UNL     1       7.625   7.653   3.754  1.00  0.00     0.167 HD
ATOM     41  C   UNL     1       8.435  10.097   2.564  1.00  0.00     0.074 A 
ATOM     42  C   UNL     1       8.595  11.162   1.594  1.00  0.00     0.031 C 
ATOM     43  C   UNL     1       8.962  10.114   3.813  1.00  0.00     0.031 A 
BRANCH  30  44
ATOM     44  C   UNL     1       7.614   5.109   7.188  1.00  0.00    -0.014 A 
ATOM     45  C   UNL     1       8.337   3.915   7.343  1.00  0.00     0.009 A 
ATOM     46  C   UNL     1       6.981   5.666   8.311  1.00  0.00     0.009 A 
ATOM     47  C   UNL     1       8.383   3.271   8.583  1.00  0.00     0.001 A 
ATOM     48  C   UNL     1       7.055   5.037   9.555  1.00  0.00     0.001 A 
ATOM     49  C   UNL     1       7.745   3.833   9.687  1.00  0.00     0.000 A 
ENDBRANCH  30  44
BRANCH  31  50
ATOM     50  C   UNL     1       6.475   9.556  -1.675  1.00  0.00    -0.014 A 
ATOM     51  C   UNL     1       7.576   9.691  -2.535  1.00  0.00     0.009 A 
ATOM     52  C   UNL     1       5.221  10.024  -2.098  1.00  0.00     0.009 A 
ATOM     53  C   UNL     1       7.426  10.297  -3.784  1.00  0.00     0.001 A 
ATOM     54  C   UNL     1       5.068  10.600  -3.360  1.00  0.00     0.001 A 
ATOM     55  C   UNL     1       6.172  10.744  -4.199  1.00  0.00     0.000 A 
ENDBRANCH  31  50
BRANCH  43  56
ATOM     56  C   UNL     1       9.798  11.307   4.184  1.00  0.00    -0.014 A 
ATOM     57  C   UNL     1       9.223  12.568   4.403  1.00  0.00     0.009 A 
ATOM     58  C   UNL     1      11.186  11.157   4.338  1.00  0.00     0.009 A 
ATOM     59  C   UNL     1      10.026  13.663   4.730  1.00  0.00     0.001 A 
ATOM     60  C   UNL     1      11.982  12.245   4.696  1.00  0.00     0.001 A 
ATOM     61  C   UNL     1      11.403  13.500   4.880  1.00  0.00     0.000 A 
ENDBRANCH  43  56
ENDBRANCH  17  18
ENDBRANCH  10  12
ENDBRANCH   7   8
ENDBRANCH   6   7
ENDBRANCH   5   6
ENDBRANCH   1   5
BRANCH   2  62
ATOM     62  C   UNL     1       6.236  -6.216  -0.203  1.00  0.00     0.058 A 
ATOM     63  C   UNL     1       5.346  -6.784   0.703  1.00  0.00     0.017 A 
ATOM     64  C   UNL     1       7.575  -6.558  -0.104  1.00  0.00     0.125 A 
ATOM     65  C   UNL     1       5.833  -7.598   1.721  1.00  0.00     0.030 A 
ATOM     66  N   UNL     1       8.075  -7.355   0.873  1.00  0.00    -0.255 NA
ATOM     67  C   UNL     1       7.200  -7.863   1.780  1.00  0.00     0.094 A 
BRANCH  67  68
ATOM     68  C   UNL     1       7.742  -8.807   2.844  1.00  0.00     0.318 C 
BRANCH  68  69
ATOM     69  N   UNL     1       8.241 -10.057   2.266  1.00  0.00    -0.338 N 
ATOM     70  H   UNL     1       9.239  -9.949   2.089  1.00  0.00     0.346 HD
ATOM     71  H   UNL     1       7.699 -10.220   1.417  1.00  0.00     0.346 HD
BRANCH  69  72
ATOM     72  C   UNL     1       8.052 -11.238   3.110  1.00  0.00     0.302 C 
BRANCH  72  73
ATOM     73  C   UNL     1       6.600 -11.704   3.347  1.00  0.00     0.290 C 
BRANCH  73  74
ATOM     74  O   UNL     1       6.057 -12.347   2.183  1.00  0.00    -0.488 OA
BRANCH  74  75
ATOM     75  C   UNL     1       5.267 -11.516   1.440  1.00  0.00     0.119 A 
ATOM     76  C   UNL     1       3.998 -11.129   1.871  1.00  0.00     0.046 A 
ATOM     77  C   UNL     1       5.736 -11.126   0.188  1.00  0.00     0.046 A 
ATOM     78  C   UNL     1       3.222 -10.296   1.062  1.00  0.00     0.004 A 
ATOM     79  C   UNL     1       4.972 -10.274  -0.606  1.00  0.00     0.004 A 
ATOM     80  C   UNL     1       3.715  -9.859  -0.169  1.00  0.00     0.000 A 
ENDBRANCH  74  75
ENDBRANCH  73  74
ENDBRANCH  72  73
ENDBRANCH  69  72
ENDBRANCH  68  69
ENDBRANCH  67  68
ENDBRANCH   2  62
TORSDOF 16
