REMARK SMILES COc1ccc(C(=O)/C=C/c2c(F)cccc2F)cc1CC(=O)NCCCNC(=O)c1ccc(-c2c3nc(c(-c4ccccc4)c4ccc([nH]4)c(-c4ccccc4)c4nc(c(-c5ccccc5)c5ccc2[nH]5)C=C4)C=C3)cc1
REMARK SMILES IDX 25 1 24 2 22 3 23 4 21 6 20 7 3 8 4 9 5 10 19 11 6 12 2 13
REMARK SMILES IDX 1 14 7 15 8 16 9 17 10 18 11 19 12 20 17 21 13 22 14 23
REMARK SMILES IDX 16 24 18 25 15 26 26 27 27 28 28 29 29 30 30 32 31 33 32 34
REMARK SMILES IDX 78 35 33 36 77 37 34 38 35 39 36 40 71 41 37 42 76 43 70 44
REMARK SMILES IDX 72 45 38 46 75 47 69 48 68 49 39 51 61 52 46 53 60 54 47 55
REMARK SMILES IDX 50 56 59 57 73 58 48 59 49 60 58 62 74 63 51 64 40 65 41 66
REMARK SMILES IDX 45 67 42 68 44 69 43 70 62 71 63 72 67 73 64 74 66 75 65 76
REMARK SMILES IDX 52 77 53 78 57 79 54 80 56 81 55 82
REMARK H PARENT 24 5 28 31 72 50 50 61
REMARK Flexibility Score: inf
ROOT
ATOM      1  C   UNL     1       2.786   2.119  -1.842  1.00  0.00     0.117 C 
ENDROOT
BRANCH   1   2
ATOM      2  N   UNL     1       4.035   2.007  -1.116  1.00  0.00    -0.356 N 
ATOM      3  C   UNL     1       4.234   1.607   0.172  1.00  0.00     0.224 C 
ATOM      4  O   UNL     1       5.380   1.613   0.624  1.00  0.00    -0.275 OA
ATOM      5  H   UNL     1       4.846   2.253  -1.618  1.00  0.00     0.163 HD
BRANCH   3   6
ATOM      6  C   UNL     1       3.061   1.112   0.998  1.00  0.00     0.139 C 
BRANCH   6   7
ATOM      7  C   UNL     1       2.026   2.161   1.342  1.00  0.00     0.004 A 
ATOM      8  C   UNL     1       0.645   2.096   1.107  1.00  0.00     0.122 A 
ATOM      9  C   UNL     1      -0.168   3.157   1.545  1.00  0.00     0.047 A 
ATOM     10  C   UNL     1       0.351   4.253   2.240  1.00  0.00     0.016 A 
ATOM     11  C   UNL     1       2.537   3.319   1.988  1.00  0.00     0.020 A 
ATOM     12  C   UNL     1       1.720   4.342   2.481  1.00  0.00     0.022 A 
BRANCH   8  13
ATOM     13  O   UNL     1      -0.085   1.180   0.406  1.00  0.00    -0.496 OA
ATOM     14  C   UNL     1       0.319  -0.172   0.308  1.00  0.00     0.278 C 
ENDBRANCH   8  13
BRANCH  12  15
ATOM     15  C   UNL     1       2.241   5.547   3.201  1.00  0.00     0.185 C 
ATOM     16  O   UNL     1       1.515   6.530   3.341  1.00  0.00    -0.289 OA
BRANCH  15  17
ATOM     17  C   UNL     1       3.640   5.627   3.713  1.00  0.00     0.053 C 
ATOM     18  C   UNL     1       4.364   4.593   4.162  1.00  0.00     0.018 C 
BRANCH  18  19
ATOM     19  C   UNL     1       5.768   4.699   4.565  1.00  0.00     0.046 A 
ATOM     20  C   UNL     1       6.790   4.414   3.652  1.00  0.00     0.133 A 
ATOM     21  C   UNL     1       6.125   4.993   5.880  1.00  0.00     0.133 A 
ATOM     22  F   UNL     1       6.493   4.138   2.373  1.00  0.00    -0.206 F 
ATOM     23  C   UNL     1       8.128   4.387   4.045  1.00  0.00     0.040 A 
ATOM     24  C   UNL     1       7.459   4.974   6.287  1.00  0.00     0.040 A 
ATOM     25  F   UNL     1       5.179   5.271   6.789  1.00  0.00    -0.206 F 
ATOM     26  C   UNL     1       8.464   4.660   5.371  1.00  0.00     0.006 A 
ENDBRANCH  18  19
ENDBRANCH  15  17
ENDBRANCH  12  15
ENDBRANCH   6   7
ENDBRANCH   3   6
ENDBRANCH   1   2
BRANCH   1  27
ATOM     27  C   UNL     1       2.315   3.564  -1.956  1.00  0.00     0.042 C 
BRANCH  27  28
ATOM     28  C   UNL     1       3.208   4.421  -2.843  1.00  0.00     0.118 C 
BRANCH  28  29
ATOM     29  N   UNL     1       3.244   3.943  -4.219  1.00  0.00    -0.352 N 
ATOM     30  C   UNL     1       2.920   4.585  -5.387  1.00  0.00     0.251 C 
ATOM     31  H   UNL     1       3.549   3.013  -4.327  1.00  0.00     0.163 HD
ATOM     32  O   UNL     1       2.819   3.941  -6.426  1.00  0.00    -0.269 OA
BRANCH  30  33
ATOM     33  C   UNL     1       2.683   6.043  -5.395  1.00  0.00     0.039 A 
ATOM     34  C   UNL     1       1.634   6.549  -6.168  1.00  0.00     0.014 A 
ATOM     35  C   UNL     1       3.501   6.910  -4.668  1.00  0.00     0.014 A 
ATOM     36  C   UNL     1       1.369   7.919  -6.161  1.00  0.00     0.010 A 
ATOM     37  C   UNL     1       3.185   8.263  -4.596  1.00  0.00     0.010 A 
ATOM     38  C   UNL     1       2.120   8.782  -5.346  1.00  0.00    -0.014 A 
BRANCH  38  39
ATOM     39  C   UNL     1       1.801  10.228  -5.259  1.00  0.00     0.031 A 
ATOM     40  C   UNL     1       2.802  11.254  -5.713  1.00  0.00     0.074 A 
ATOM     41  C   UNL     1       0.635  10.618  -4.707  1.00  0.00     0.049 A 
ATOM     42  N   UNL     1       2.726  12.560  -5.659  1.00  0.00    -0.248 NA
ATOM     43  C   UNL     1       4.063  10.749  -6.279  1.00  0.00     0.031 C 
ATOM     44  C   UNL     1      -0.400   9.720  -4.190  1.00  0.00     0.029 A 
ATOM     45  N   UNL     1       0.129  11.873  -4.483  1.00  0.00    -0.354 N 
ATOM     46  C   UNL     1       3.932  13.029  -6.165  1.00  0.00     0.074 A 
ATOM     47  C   UNL     1       4.741  11.870  -6.474  1.00  0.00     0.031 C 
ATOM     48  C   UNL     1      -1.429  10.453  -3.735  1.00  0.00     0.029 A 
ATOM     49  C   UNL     1      -1.109  11.868  -3.886  1.00  0.00     0.049 A 
ATOM     50  H   UNL     1       0.607  12.698  -4.727  1.00  0.00     0.167 HD
ATOM     51  C   UNL     1       4.324  14.309  -6.371  1.00  0.00     0.031 A 
ATOM     52  C   UNL     1      -1.894  12.889  -3.495  1.00  0.00     0.031 A 
ATOM     53  C   UNL     1       3.516  15.460  -6.070  1.00  0.00     0.049 A 
ATOM     54  C   UNL     1      -1.427  14.300  -3.719  1.00  0.00     0.074 A 
ATOM     55  C   UNL     1       3.800  16.795  -6.296  1.00  0.00     0.029 A 
ATOM     56  N   UNL     1       2.265  15.411  -5.473  1.00  0.00    -0.354 N 
ATOM     57  N   UNL     1      -0.315  14.726  -4.267  1.00  0.00    -0.248 NA
ATOM     58  C   UNL     1      -2.331  15.372  -3.279  1.00  0.00     0.031 C 
ATOM     59  C   UNL     1       2.746  17.558  -5.785  1.00  0.00     0.029 A 
ATOM     60  C   UNL     1       1.777  16.695  -5.299  1.00  0.00     0.049 A 
ATOM     61  H   UNL     1       1.795  14.587  -5.212  1.00  0.00     0.167 HD
ATOM     62  C   UNL     1      -0.399  16.112  -4.266  1.00  0.00     0.074 A 
ATOM     63  C   UNL     1      -1.678  16.454  -3.678  1.00  0.00     0.031 C 
ATOM     64  C   UNL     1       0.501  17.020  -4.715  1.00  0.00     0.031 A 
BRANCH  51  65
ATOM     65  C   UNL     1       5.697  14.530  -6.945  1.00  0.00    -0.014 A 
ATOM     66  C   UNL     1       5.996  14.188  -8.273  1.00  0.00     0.009 A 
ATOM     67  C   UNL     1       6.694  15.127  -6.158  1.00  0.00     0.009 A 
ATOM     68  C   UNL     1       7.275  14.404  -8.790  1.00  0.00     0.001 A 
ATOM     69  C   UNL     1       7.964  15.370  -6.686  1.00  0.00     0.001 A 
ATOM     70  C   UNL     1       8.256  15.000  -7.998  1.00  0.00     0.000 A 
ENDBRANCH  51  65
BRANCH  52  71
ATOM     71  C   UNL     1      -3.211  12.616  -2.862  1.00  0.00    -0.014 A 
ATOM     72  C   UNL     1      -4.402  12.909  -3.542  1.00  0.00     0.009 A 
ATOM     73  C   UNL     1      -3.284  12.066  -1.573  1.00  0.00     0.009 A 
ATOM     74  C   UNL     1      -5.639  12.686  -2.933  1.00  0.00     0.001 A 
ATOM     75  C   UNL     1      -4.523  11.814  -0.978  1.00  0.00     0.001 A 
ATOM     76  C   UNL     1      -5.699  12.134  -1.654  1.00  0.00     0.000 A 
ENDBRANCH  52  71
BRANCH  64  77
ATOM     77  C   UNL     1       0.119  18.471  -4.628  1.00  0.00    -0.014 A 
ATOM     78  C   UNL     1       0.071  19.142  -3.397  1.00  0.00     0.009 A 
ATOM     79  C   UNL     1      -0.153  19.186  -5.805  1.00  0.00     0.009 A 
ATOM     80  C   UNL     1      -0.273  20.494  -3.344  1.00  0.00     0.001 A 
ATOM     81  C   UNL     1      -0.466  20.545  -5.752  1.00  0.00     0.001 A 
ATOM     82  C   UNL     1      -0.535  21.195  -4.522  1.00  0.00     0.000 A 
ENDBRANCH  64  77
ENDBRANCH  38  39
ENDBRANCH  30  33
ENDBRANCH  28  29
ENDBRANCH  27  28
ENDBRANCH   1  27
TORSDOF 15
