REMARK SMILES Cc1cc(N2CC[C@H](CC(=O)NCCCNC(=O)c3ccc(-c4c5nc(c(-c6ccccc6)c6ccc([nH]6)c(-c6ccccc6)c6nc(c(-c7ccccc7)c7ccc4[nH]7)C=C6)C=C5)cc3)C2)ncc1[N+](=O)[O-]
REMARK SMILES IDX 13 1 12 2 10 3 11 4 9 6 8 7 5 8 6 9 67 10 7 11 4 12 1 13
REMARK SMILES IDX 2 14 3 15 70 16 69 17 68 18 71 19 72 20 73 21 14 22 15 23
REMARK SMILES IDX 16 24 17 25 18 27 19 28 20 29 66 30 21 31 65 32 22 33 23 34
REMARK SMILES IDX 24 35 59 36 25 37 64 38 58 39 60 40 26 41 63 42 57 43 56 44
REMARK SMILES IDX 27 46 49 47 34 48 48 49 35 50 38 51 47 52 61 53 36 54 37 55
REMARK SMILES IDX 46 57 62 58 39 59 28 60 29 61 33 62 30 63 32 64 31 65 50 66
REMARK SMILES IDX 51 67 55 68 52 69 54 70 53 71 40 72 41 73 45 74 42 75 44 76
REMARK SMILES IDX 43 77
REMARK H PARENT 12 5 16 26 60 45 38 56
REMARK Flexibility Score: inf
ROOT
ATOM      1  C   UNL     1       6.454   3.899   0.522  1.00  0.00     0.117 C 
ENDROOT
BRANCH   1   2
ATOM      2  N   UNL     1       5.906   5.216   0.818  1.00  0.00    -0.356 N 
ATOM      3  C   UNL     1       4.695   5.587   1.323  1.00  0.00     0.220 C 
ATOM      4  O   UNL     1       4.447   6.790   1.413  1.00  0.00    -0.275 OA
ATOM      5  H   UNL     1       6.513   5.966   0.619  1.00  0.00     0.163 HD
BRANCH   3   6
ATOM      6  C   UNL     1       3.677   4.551   1.756  1.00  0.00     0.105 C 
BRANCH   6   7
ATOM      7  C   UNL     1       2.600   4.299   0.701  1.00  0.00     0.019 C 
ATOM      8  N   UNL     1       1.060   2.664  -0.044  1.00  0.00    -0.356 N 
ATOM      9  C   UNL     1       1.941   2.922  -1.172  1.00  0.00     0.118 C 
ATOM     10  C   UNL     1       1.536   3.301   1.181  1.00  0.00     0.122 C 
ATOM     11  C   UNL     1       3.134   3.629  -0.559  1.00  0.00     0.027 C 
BRANCH   8  12
ATOM     12  C   UNL     1       0.564   1.380   0.068  1.00  0.00     0.129 A 
ATOM     13  C   UNL     1      -2.887  -0.131   0.074  1.00  0.00     0.052 C 
ATOM     14  C   UNL     1      -1.389  -0.075   0.112  1.00  0.00     0.032 A 
ATOM     15  C   UNL     1      -0.816   1.208   0.120  1.00  0.00     0.057 A 
ATOM     16  C   UNL     1      -0.506  -1.163   0.117  1.00  0.00     0.290 A 
ATOM     17  C   UNL     1       0.863  -0.914   0.089  1.00  0.00     0.199 A 
ATOM     18  N   UNL     1       1.408   0.329   0.057  1.00  0.00    -0.232 NA
BRANCH  16  19
ATOM     19  N   UNL     1      -0.926  -2.558   0.146  1.00  0.00     0.064 N 
ATOM     20  O   UNL     1      -0.165  -3.392  -0.366  1.00  0.00    -0.258 OA
ATOM     21  O   UNL     1      -1.994  -2.839   0.705  1.00  0.00    -0.258 OA
ENDBRANCH  16  19
ENDBRANCH   8  12
ENDBRANCH   6   7
ENDBRANCH   3   6
ENDBRANCH   1   2
BRANCH   1  22
ATOM     22  C   UNL     1       6.494   3.625  -0.980  1.00  0.00     0.042 C 
BRANCH  22  23
ATOM     23  C   UNL     1       7.603   4.358  -1.720  1.00  0.00     0.118 C 
BRANCH  23  24
ATOM     24  N   UNL     1       8.858   3.629  -1.675  1.00  0.00    -0.352 N 
ATOM     25  C   UNL     1       9.528   2.954  -2.667  1.00  0.00     0.251 C 
ATOM     26  H   UNL     1       9.299   3.617  -0.795  1.00  0.00     0.163 HD
ATOM     27  O   UNL     1      10.454   2.209  -2.360  1.00  0.00    -0.269 OA
BRANCH  25  28
ATOM     28  C   UNL     1       9.148   3.093  -4.096  1.00  0.00     0.039 A 
ATOM     29  C   UNL     1       9.244   1.970  -4.926  1.00  0.00     0.014 A 
ATOM     30  C   UNL     1       8.768   4.319  -4.647  1.00  0.00     0.014 A 
ATOM     31  C   UNL     1       8.916   2.067  -6.283  1.00  0.00     0.010 A 
ATOM     32  C   UNL     1       8.358   4.396  -5.978  1.00  0.00     0.010 A 
ATOM     33  C   UNL     1       8.444   3.275  -6.817  1.00  0.00    -0.014 A 
BRANCH  33  34
ATOM     34  C   UNL     1       8.066   3.393  -8.251  1.00  0.00     0.031 A 
ATOM     35  C   UNL     1       8.821   4.326  -9.162  1.00  0.00     0.074 A 
ATOM     36  C   UNL     1       7.011   2.704  -8.729  1.00  0.00     0.049 A 
ATOM     37  N   UNL     1       8.601   4.611 -10.422  1.00  0.00    -0.248 NA
ATOM     38  C   UNL     1       9.959   5.052  -8.575  1.00  0.00     0.031 C 
ATOM     39  C   UNL     1       6.172   1.789  -7.952  1.00  0.00     0.029 A 
ATOM     40  N   UNL     1       6.460   2.671  -9.987  1.00  0.00    -0.354 N 
ATOM     41  C   UNL     1       9.554   5.561 -10.768  1.00  0.00     0.074 A 
ATOM     42  C   UNL     1      10.324   5.840  -9.576  1.00  0.00     0.031 C 
ATOM     43  C   UNL     1       5.232   1.266  -8.756  1.00  0.00     0.029 A 
ATOM     44  C   UNL     1       5.373   1.837 -10.091  1.00  0.00     0.049 A 
ATOM     45  H   UNL     1       6.812   3.195 -10.743  1.00  0.00     0.167 HD
ATOM     46  C   UNL     1       9.783   6.139 -11.972  1.00  0.00     0.031 A 
ATOM     47  C   UNL     1       4.574   1.566 -11.141  1.00  0.00     0.031 A 
ATOM     48  C   UNL     1       9.034   5.851 -13.166  1.00  0.00     0.049 A 
ATOM     49  C   UNL     1       4.840   2.229 -12.463  1.00  0.00     0.074 A 
ATOM     50  C   UNL     1       9.231   6.341 -14.446  1.00  0.00     0.029 A 
ATOM     51  N   UNL     1       7.944   4.997 -13.227  1.00  0.00    -0.354 N 
ATOM     52  N   UNL     1       5.784   3.079 -12.786  1.00  0.00    -0.248 NA
ATOM     53  C   UNL     1       3.934   1.886 -13.569  1.00  0.00     0.031 C 
ATOM     54  C   UNL     1       8.229   5.821 -15.271  1.00  0.00     0.029 A 
ATOM     55  C   UNL     1       7.442   4.965 -14.517  1.00  0.00     0.049 A 
ATOM     56  H   UNL     1       7.581   4.489 -12.466  1.00  0.00     0.167 HD
ATOM     57  C   UNL     1       5.602   3.352 -14.136  1.00  0.00     0.074 A 
ATOM     58  C   UNL     1       4.468   2.566 -14.575  1.00  0.00     0.031 C 
ATOM     59  C   UNL     1       6.313   4.179 -14.940  1.00  0.00     0.031 A 
BRANCH  46  60
ATOM     60  C   UNL     1      10.892   7.151 -12.055  1.00  0.00    -0.014 A 
ATOM     61  C   UNL     1      12.239   6.766 -11.963  1.00  0.00     0.009 A 
ATOM     62  C   UNL     1      10.587   8.505 -12.264  1.00  0.00     0.009 A 
ATOM     63  C   UNL     1      13.256   7.720 -12.040  1.00  0.00     0.001 A 
ATOM     64  C   UNL     1      11.607   9.454 -12.370  1.00  0.00     0.001 A 
ATOM     65  C   UNL     1      12.939   9.062 -12.248  1.00  0.00     0.000 A 
ENDBRANCH  46  60
BRANCH  47  66
ATOM     66  C   UNL     1       3.446   0.610 -10.989  1.00  0.00    -0.014 A 
ATOM     67  C   UNL     1       3.497  -0.653 -11.599  1.00  0.00     0.009 A 
ATOM     68  C   UNL     1       2.311   0.956 -10.239  1.00  0.00     0.009 A 
ATOM     69  C   UNL     1       2.424  -1.539 -11.482  1.00  0.00     0.001 A 
ATOM     70  C   UNL     1       1.252   0.056 -10.100  1.00  0.00     0.001 A 
ATOM     71  C   UNL     1       1.305  -1.186 -10.729  1.00  0.00     0.000 A 
ENDBRANCH  47  66
BRANCH  59  72
ATOM     72  C   UNL     1       5.906   4.254 -16.384  1.00  0.00    -0.014 A 
ATOM     73  C   UNL     1       4.737   4.922 -16.778  1.00  0.00     0.009 A 
ATOM     74  C   UNL     1       6.730   3.684 -17.368  1.00  0.00     0.009 A 
ATOM     75  C   UNL     1       4.385   4.992 -18.128  1.00  0.00     0.001 A 
ATOM     76  C   UNL     1       6.390   3.780 -18.718  1.00  0.00     0.001 A 
ATOM     77  C   UNL     1       5.215   4.426 -19.096  1.00  0.00     0.000 A 
ENDBRANCH  59  72
ENDBRANCH  33  34
ENDBRANCH  25  28
ENDBRANCH  23  24
ENDBRANCH  22  23
ENDBRANCH   1  22
TORSDOF 13
