REMARK SMILES CC[NH2+][C@@]1(C(=O)NCCCNC(=O)c2ccc(-c3c4nc(c(-c5ccccc5)c5ccc([nH]5)c(-c5ccccc5)c5nc(c(-c6ccccc6)c6ccc3[nH]6)C=C5)C=C4)cc2)CCC[C@@H]([N@@H+](C)C2CCCC2)C1
REMARK SMILES IDX 9 1 8 2 7 3 5 4 6 5 4 7 62 8 73 9 63 10 65 11 64 12 3 13
REMARK SMILES IDX 2 16 1 17 66 18 67 19 68 21 69 22 72 23 70 24 71 25 10 26
REMARK SMILES IDX 11 27 12 28 13 30 14 31 15 32 61 33 16 34 60 35 17 36 18 37
REMARK SMILES IDX 19 38 54 39 20 40 59 41 53 42 55 43 21 44 58 45 52 46 51 47
REMARK SMILES IDX 22 49 44 50 29 51 43 52 30 53 33 54 42 55 56 56 31 57 32 58
REMARK SMILES IDX 41 60 57 61 34 62 23 63 24 64 28 65 25 66 27 67 26 68 45 69
REMARK SMILES IDX 46 70 50 71 47 72 49 73 48 74 35 75 36 76 40 77 37 78 39 79
REMARK SMILES IDX 38 80
REMARK H PARENT 7 6 3 14 3 15 66 20 11 29 55 48 33 59
REMARK Flexibility Score: inf
ROOT
ATOM      1  C   UNL     1      -1.908  -0.720   7.057  1.00  0.00     0.042 C 
ENDROOT
BRANCH   1   2
ATOM      2  C   UNL     1      -1.960  -1.408   5.700  1.00  0.00     0.118 C 
BRANCH   2   3
ATOM      3  N   UNL     1      -1.942  -0.468   4.610  1.00  0.00    -0.351 N 
ATOM      4  C   UNL     1      -1.022  -0.069   3.699  1.00  0.00     0.281 C 
ATOM      5  O   UNL     1      -1.473   0.818   2.954  1.00  0.00    -0.268 OA
ATOM      6  H   UNL     1      -2.803  -0.005   4.500  1.00  0.00     0.163 HD
BRANCH   4   7
ATOM      7  C   UNL     1       0.483  -0.601   3.547  1.00  0.00     0.181 C 
ATOM      8  C   UNL     1       0.699  -2.123   3.505  1.00  0.00     0.079 C 
ATOM      9  C   UNL     1       1.443   0.030   4.576  1.00  0.00     0.144 C 
ATOM     10  C   UNL     1       0.955  -2.882   4.805  1.00  0.00     0.013 C 
ATOM     11  C   UNL     1       1.387  -0.562   5.982  1.00  0.00     0.190 C 
ATOM     12  C   UNL     1       1.388  -2.103   6.048  1.00  0.00     0.065 C 
BRANCH   7  13
ATOM     13  N   UNL     1       0.979  -0.029   2.235  1.00  0.00    -0.334 N 
ATOM     14  H   UNL     1       0.767   0.969   2.233  1.00  0.00     0.347 HD
ATOM     15  H   UNL     1       1.974  -0.253   2.204  1.00  0.00     0.347 HD
BRANCH  13  16
ATOM     16  C   UNL     1       0.418  -0.604   1.015  1.00  0.00     0.257 C 
ATOM     17  C   UNL     1       0.921   0.195  -0.180  1.00  0.00     0.071 C 
ENDBRANCH  13  16
ENDBRANCH   7  13
BRANCH  11  18
ATOM     18  N   UNL     1       2.286   0.123   6.945  1.00  0.00    -0.332 N 
ATOM     19  C   UNL     1       1.949  -0.208   8.334  1.00  0.00     0.333 C 
ATOM     20  H   UNL     1       2.070   1.098   6.736  1.00  0.00     0.348 HD
BRANCH  18  21
ATOM     21  C   UNL     1       3.740   0.111   6.727  1.00  0.00     0.184 C 
ATOM     22  C   UNL     1       4.431  -1.181   6.276  1.00  0.00     0.065 C 
ATOM     23  C   UNL     1       4.276   1.194   5.763  1.00  0.00     0.065 C 
ATOM     24  C   UNL     1       5.787  -0.701   5.794  1.00  0.00     0.006 C 
ATOM     25  C   UNL     1       5.418   0.533   4.986  1.00  0.00     0.006 C 
ENDBRANCH  18  21
ENDBRANCH  11  18
ENDBRANCH   4   7
ENDBRANCH   2   3
ENDBRANCH   1   2
BRANCH   1  26
ATOM     26  C   UNL     1      -3.256  -0.654   7.739  1.00  0.00     0.118 C 
BRANCH  26  27
ATOM     27  N   UNL     1      -3.723  -1.973   8.152  1.00  0.00    -0.352 N 
ATOM     28  C   UNL     1      -3.971  -2.476   9.403  1.00  0.00     0.251 C 
ATOM     29  H   UNL     1      -3.886  -2.603   7.413  1.00  0.00     0.163 HD
ATOM     30  O   UNL     1      -4.148  -3.686   9.545  1.00  0.00    -0.269 OA
BRANCH  28  31
ATOM     31  C   UNL     1      -4.005  -1.582  10.580  1.00  0.00     0.039 A 
ATOM     32  C   UNL     1      -3.541  -2.053  11.811  1.00  0.00     0.014 A 
ATOM     33  C   UNL     1      -4.501  -0.282  10.477  1.00  0.00     0.014 A 
ATOM     34  C   UNL     1      -3.524  -1.199  12.915  1.00  0.00     0.010 A 
ATOM     35  C   UNL     1      -4.346   0.605  11.531  1.00  0.00     0.010 A 
ATOM     36  C   UNL     1      -3.891   0.149  12.773  1.00  0.00    -0.014 A 
BRANCH  36  37
ATOM     37  C   UNL     1      -3.864   1.091  13.917  1.00  0.00     0.031 A 
ATOM     38  C   UNL     1      -5.133   1.783  14.345  1.00  0.00     0.074 A 
ATOM     39  C   UNL     1      -2.696   1.373  14.526  1.00  0.00     0.049 A 
ATOM     40  N   UNL     1      -5.309   2.686  15.275  1.00  0.00    -0.248 NA
ATOM     41  C   UNL     1      -6.362   1.444  13.604  1.00  0.00     0.031 C 
ATOM     42  C   UNL     1      -1.392   0.808  14.168  1.00  0.00     0.029 A 
ATOM     43  N   UNL     1      -2.418   2.208  15.577  1.00  0.00    -0.354 N 
ATOM     44  C   UNL     1      -6.652   3.037  15.209  1.00  0.00     0.074 A 
ATOM     45  C   UNL     1      -7.230   2.308  14.104  1.00  0.00     0.031 C 
ATOM     46  C   UNL     1      -0.463   1.277  15.015  1.00  0.00     0.029 A 
ATOM     47  C   UNL     1      -1.093   2.211  15.941  1.00  0.00     0.049 A 
ATOM     48  H   UNL     1      -3.102   2.753  16.028  1.00  0.00     0.167 HD
ATOM     49  C   UNL     1      -7.353   3.868  16.015  1.00  0.00     0.031 A 
ATOM     50  C   UNL     1      -0.459   2.892  16.914  1.00  0.00     0.031 A 
ATOM     51  C   UNL     1      -6.779   4.573  17.127  1.00  0.00     0.049 A 
ATOM     52  C   UNL     1      -1.258   3.812  17.795  1.00  0.00     0.074 A 
ATOM     53  C   UNL     1      -7.408   5.392  18.046  1.00  0.00     0.029 A 
ATOM     54  N   UNL     1      -5.436   4.538  17.470  1.00  0.00    -0.354 N 
ATOM     55  N   UNL     1      -2.542   4.076  17.766  1.00  0.00    -0.248 NA
ATOM     56  C   UNL     1      -0.521   4.515  18.854  1.00  0.00     0.031 C 
ATOM     57  C   UNL     1      -6.434   5.899  18.912  1.00  0.00     0.029 A 
ATOM     58  C   UNL     1      -5.212   5.340  18.574  1.00  0.00     0.049 A 
ATOM     59  H   UNL     1      -4.745   4.019  16.998  1.00  0.00     0.167 HD
ATOM     60  C   UNL     1      -2.773   4.949  18.822  1.00  0.00     0.074 A 
ATOM     61  C   UNL     1      -1.499   5.155  19.479  1.00  0.00     0.031 C 
ATOM     62  C   UNL     1      -3.935   5.527  19.214  1.00  0.00     0.031 A 
BRANCH  49  63
ATOM     63  C   UNL     1      -8.816   4.056  15.716  1.00  0.00    -0.014 A 
ATOM     64  C   UNL     1      -9.737   3.008  15.881  1.00  0.00     0.009 A 
ATOM     65  C   UNL     1      -9.285   5.305  15.282  1.00  0.00     0.009 A 
ATOM     66  C   UNL     1     -11.087   3.195  15.578  1.00  0.00     0.001 A 
ATOM     67  C   UNL     1     -10.642   5.500  15.013  1.00  0.00     0.001 A 
ATOM     68  C   UNL     1     -11.539   4.442  15.150  1.00  0.00     0.000 A 
ENDBRANCH  49  63
BRANCH  50  69
ATOM     69  C   UNL     1       1.002   2.712  17.121  1.00  0.00    -0.014 A 
ATOM     70  C   UNL     1       1.485   2.068  18.271  1.00  0.00     0.009 A 
ATOM     71  C   UNL     1       1.924   3.187  16.175  1.00  0.00     0.009 A 
ATOM     72  C   UNL     1       2.859   1.931  18.483  1.00  0.00     0.001 A 
ATOM     73  C   UNL     1       3.296   3.019  16.373  1.00  0.00     0.001 A 
ATOM     74  C   UNL     1       3.763   2.402  17.533  1.00  0.00     0.000 A 
ENDBRANCH  50  69
BRANCH  62  75
ATOM     75  C   UNL     1      -3.890   6.398  20.438  1.00  0.00    -0.014 A 
ATOM     76  C   UNL     1      -3.263   7.653  20.423  1.00  0.00     0.009 A 
ATOM     77  C   UNL     1      -4.530   5.969  21.612  1.00  0.00     0.009 A 
ATOM     78  C   UNL     1      -3.245   8.444  21.573  1.00  0.00     0.001 A 
ATOM     79  C   UNL     1      -4.541   6.777  22.749  1.00  0.00     0.001 A 
ATOM     80  C   UNL     1      -3.889   8.008  22.732  1.00  0.00     0.000 A 
ENDBRANCH  62  75
ENDBRANCH  36  37
ENDBRANCH  28  31
ENDBRANCH  26  27
ENDBRANCH   1  26
TORSDOF 14
