REMARK SMILES CC1([C@@H]2C[C@H](C(F)(F)F)n3nc(C(=O)NCCCNC(=O)c4ccc(-c5c6nc(c(-c7ccccc7)c7ccc([nH]7)c(-c7ccccc7)c7nc(c(-c8ccccc8)c8ccc5[nH]8)C=C7)C=C6)cc4)cc3N2)CC1
REMARK SMILES IDX 17 1 16 2 15 3 13 4 14 5 12 7 3 8 4 9 72 10 5 11 71 12 10 14
REMARK SMILES IDX 70 15 11 16 2 17 1 18 73 19 74 20 6 21 7 22 8 23 9 24 18 25
REMARK SMILES IDX 19 26 20 27 21 29 22 30 23 31 69 32 24 33 68 34 25 35 26 36
REMARK SMILES IDX 27 37 62 38 28 39 67 40 61 41 63 42 29 43 66 44 60 45 59 46
REMARK SMILES IDX 30 48 52 49 37 50 51 51 38 52 41 53 50 54 64 55 39 56 40 57
REMARK SMILES IDX 49 59 65 60 42 61 31 62 32 63 36 64 33 65 35 66 34 67 53 68
REMARK SMILES IDX 54 69 58 70 55 71 57 72 56 73 43 74 44 75 48 76 45 77 47 78
REMARK SMILES IDX 46 79
REMARK H PARENT 15 6 72 13 19 28 63 47 41 58
REMARK Flexibility Score: inf
ROOT
ATOM      1  C   UNL     1      -2.370   4.373  -6.334  1.00  0.00     0.042 C 
ENDROOT
BRANCH   1   2
ATOM      2  C   UNL     1      -1.980   3.067  -7.027  1.00  0.00     0.118 C 
BRANCH   2   3
ATOM      3  N   UNL     1      -0.560   3.005  -7.302  1.00  0.00    -0.351 N 
ATOM      4  C   UNL     1       0.462   2.304  -6.699  1.00  0.00     0.271 C 
ATOM      5  O   UNL     1       1.557   2.367  -7.262  1.00  0.00    -0.267 OA
ATOM      6  H   UNL     1      -0.271   3.566  -8.057  1.00  0.00     0.163 HD
BRANCH   4   7
ATOM      7  C   UNL     1       0.251   1.538  -5.453  1.00  0.00     0.152 A 
ATOM      8  C   UNL     1      -0.261  -0.147  -1.250  1.00  0.00     0.089 C 
ATOM      9  C   UNL     1       0.658  -1.237  -1.835  1.00  0.00     0.062 C 
ATOM     10  N   UNL     1      -1.042   0.444  -2.324  1.00  0.00    -0.367 N 
ATOM     11  C   UNL     1       1.433  -0.828  -3.111  1.00  0.00     0.216 C 
ATOM     12  C   UNL     1      -0.454   0.750  -3.494  1.00  0.00     0.126 A 
ATOM     13  H   UNL     1      -2.002   0.619  -2.195  1.00  0.00     0.162 HD
ATOM     14  N   UNL     1       0.733   0.191  -3.866  1.00  0.00    -0.237 N 
ATOM     15  C   UNL     1      -0.776   1.647  -4.473  1.00  0.00     0.082 A 
ATOM     16  N   UNL     1       1.145   0.594  -5.076  1.00  0.00    -0.165 NA
BRANCH   8  17
ATOM     17  C   UNL     1       0.429   0.919  -0.381  1.00  0.00    -0.012 C 
ATOM     18  C   UNL     1       1.101   0.362   0.856  1.00  0.00     0.013 C 
ATOM     19  C   UNL     1      -0.243   2.284  -0.221  1.00  0.00     0.009 C 
ATOM     20  C   UNL     1       1.049   2.185  -0.965  1.00  0.00     0.009 C 
ENDBRANCH   8  17
BRANCH  11  21
ATOM     21  C   UNL     1       2.868  -0.461  -2.794  1.00  0.00     0.410 C 
ATOM     22  F   UNL     1       3.478  -1.530  -2.207  1.00  0.00    -0.169 F 
ATOM     23  F   UNL     1       3.610  -0.162  -3.878  1.00  0.00    -0.169 F 
ATOM     24  F   UNL     1       2.982   0.559  -1.921  1.00  0.00    -0.169 F 
ENDBRANCH  11  21
ENDBRANCH   4   7
ENDBRANCH   2   3
ENDBRANCH   1   2
BRANCH   1  25
ATOM     25  C   UNL     1      -2.429   5.569  -7.285  1.00  0.00     0.118 C 
BRANCH  25  26
ATOM     26  N   UNL     1      -3.492   5.429  -8.271  1.00  0.00    -0.352 N 
ATOM     27  C   UNL     1      -4.531   6.264  -8.591  1.00  0.00     0.251 C 
ATOM     28  H   UNL     1      -3.458   4.596  -8.796  1.00  0.00     0.163 HD
ATOM     29  O   UNL     1      -5.438   5.847  -9.306  1.00  0.00    -0.269 OA
BRANCH  27  30
ATOM     30  C   UNL     1      -4.579   7.652  -8.086  1.00  0.00     0.039 A 
ATOM     31  C   UNL     1      -5.818   8.185  -7.712  1.00  0.00     0.014 A 
ATOM     32  C   UNL     1      -3.434   8.452  -8.042  1.00  0.00     0.014 A 
ATOM     33  C   UNL     1      -5.900   9.499  -7.248  1.00  0.00     0.010 A 
ATOM     34  C   UNL     1      -3.507   9.742  -7.519  1.00  0.00     0.010 A 
ATOM     35  C   UNL     1      -4.740  10.280  -7.122  1.00  0.00    -0.014 A 
BRANCH  35  36
ATOM     36  C   UNL     1      -4.798  11.658  -6.574  1.00  0.00     0.031 A 
ATOM     37  C   UNL     1      -4.434  12.835  -7.439  1.00  0.00     0.074 A 
ATOM     38  C   UNL     1      -5.114  11.844  -5.278  1.00  0.00     0.049 A 
ATOM     39  N   UNL     1      -4.347  14.100  -7.116  1.00  0.00    -0.248 NA
ATOM     40  C   UNL     1      -4.101  12.551  -8.845  1.00  0.00     0.031 C 
ATOM     41  C   UNL     1      -5.451  10.783  -4.326  1.00  0.00     0.029 A 
ATOM     42  N   UNL     1      -5.190  12.994  -4.532  1.00  0.00    -0.354 N 
ATOM     43  C   UNL     1      -3.928  14.757  -8.266  1.00  0.00     0.074 A 
ATOM     44  C   UNL     1      -3.743  13.748  -9.286  1.00  0.00     0.031 C 
ATOM     45  C   UNL     1      -5.714  11.333  -3.129  1.00  0.00     0.029 A 
ATOM     46  C   UNL     1      -5.525  12.777  -3.218  1.00  0.00     0.049 A 
ATOM     47  H   UNL     1      -5.020  13.890  -4.905  1.00  0.00     0.167 HD
ATOM     48  C   UNL     1      -3.728  16.082  -8.459  1.00  0.00     0.031 A 
ATOM     49  C   UNL     1      -5.653  13.642  -2.194  1.00  0.00     0.031 A 
ATOM     50  C   UNL     1      -3.935  17.088  -7.452  1.00  0.00     0.049 A 
ATOM     51  C   UNL     1      -5.425  15.108  -2.440  1.00  0.00     0.074 A 
ATOM     52  C   UNL     1      -3.823  18.462  -7.572  1.00  0.00     0.029 A 
ATOM     53  N   UNL     1      -4.298  16.828  -6.140  1.00  0.00    -0.354 N 
ATOM     54  N   UNL     1      -5.098  15.718  -3.553  1.00  0.00    -0.248 NA
ATOM     55  C   UNL     1      -5.596  16.005  -1.288  1.00  0.00     0.031 C 
ATOM     56  C   UNL     1      -4.072  19.032  -6.319  1.00  0.00     0.029 A 
ATOM     57  C   UNL     1      -4.392  18.015  -5.434  1.00  0.00     0.049 A 
ATOM     58  H   UNL     1      -4.464  15.933  -5.766  1.00  0.00     0.167 HD
ATOM     59  C   UNL     1      -5.055  17.071  -3.243  1.00  0.00     0.074 A 
ATOM     60  C   UNL     1      -5.405  17.194  -1.843  1.00  0.00     0.031 C 
ATOM     61  C   UNL     1      -4.752  18.119  -4.045  1.00  0.00     0.031 A 
BRANCH  48  62
ATOM     62  C   UNL     1      -3.257  16.530  -9.815  1.00  0.00    -0.014 A 
ATOM     63  C   UNL     1      -4.115  16.512 -10.926  1.00  0.00     0.009 A 
ATOM     64  C   UNL     1      -1.958  17.039  -9.968  1.00  0.00     0.009 A 
ATOM     65  C   UNL     1      -3.673  16.971 -12.168  1.00  0.00     0.001 A 
ATOM     66  C   UNL     1      -1.527  17.522 -11.205  1.00  0.00     0.001 A 
ATOM     67  C   UNL     1      -2.382  17.481 -12.305  1.00  0.00     0.000 A 
ENDBRANCH  48  62
BRANCH  49  68
ATOM     68  C   UNL     1      -6.018  13.153  -0.839  1.00  0.00    -0.014 A 
ATOM     69  C   UNL     1      -7.273  13.452  -0.286  1.00  0.00     0.009 A 
ATOM     70  C   UNL     1      -5.102  12.409  -0.079  1.00  0.00     0.009 A 
ATOM     71  C   UNL     1      -7.589  13.049   1.013  1.00  0.00     0.001 A 
ATOM     72  C   UNL     1      -5.433  11.980   1.209  1.00  0.00     0.001 A 
ATOM     73  C   UNL     1      -6.670  12.312   1.758  1.00  0.00     0.000 A 
ENDBRANCH  49  68
BRANCH  61  74
ATOM     74  C   UNL     1      -4.831  19.492  -3.442  1.00  0.00    -0.014 A 
ATOM     75  C   UNL     1      -3.868  19.944  -2.527  1.00  0.00     0.009 A 
ATOM     76  C   UNL     1      -5.865  20.360  -3.828  1.00  0.00     0.009 A 
ATOM     77  C   UNL     1      -3.958  21.228  -1.985  1.00  0.00     0.001 A 
ATOM     78  C   UNL     1      -5.936  21.652  -3.307  1.00  0.00     0.001 A 
ATOM     79  C   UNL     1      -4.988  22.081  -2.379  1.00  0.00     0.000 A 
ENDBRANCH  61  74
ENDBRANCH  35  36
ENDBRANCH  27  30
ENDBRANCH  25  26
ENDBRANCH   1  25
TORSDOF 12
