REMARK SMILES Cc1cccc(-c2ccc(Cl)c(C(=O)NCCCNC(=O)c3ccc(-c4c5nc(c(-c6ccccc6)c6ccc([nH]6)c(-c6ccccc6)c6nc(c(-c7ccccc7)c7ccc4[nH]7)C=C6)C=C5)cc3)c2)c1
REMARK SMILES IDX 17 1 16 2 15 3 13 4 14 5 12 7 7 8 8 9 70 10 9 11 10 12 11 13
REMARK SMILES IDX 6 14 1 15 2 16 3 17 71 18 4 19 5 20 18 21 19 22 20 23 21 25
REMARK SMILES IDX 22 26 23 27 69 28 24 29 68 30 25 31 26 32 27 33 62 34 28 35
REMARK SMILES IDX 67 36 61 37 63 38 29 39 66 40 60 41 59 42 30 44 52 45 37 46
REMARK SMILES IDX 51 47 38 48 41 49 50 50 64 51 39 52 40 53 49 55 65 56 42 57
REMARK SMILES IDX 31 58 32 59 36 60 33 61 35 62 34 63 53 64 54 65 58 66 55 67
REMARK SMILES IDX 57 68 56 69 43 70 44 71 48 72 45 73 47 74 46 75
REMARK H PARENT 15 6 19 24 63 43 41 54
REMARK Flexibility Score: inf
ROOT
ATOM      1  C   UNL     1      -6.088   6.623   0.162  1.00  0.00     0.042 C 
ENDROOT
BRANCH   1   2
ATOM      2  C   UNL     1      -4.671   6.631   0.691  1.00  0.00     0.118 C 
BRANCH   2   3
ATOM      3  N   UNL     1      -4.459   5.754   1.833  1.00  0.00    -0.352 N 
ATOM      4  C   UNL     1      -3.553   4.732   2.018  1.00  0.00     0.252 C 
ATOM      5  O   UNL     1      -3.563   4.122   3.086  1.00  0.00    -0.269 OA
ATOM      6  H   UNL     1      -5.059   5.917   2.596  1.00  0.00     0.163 HD
BRANCH   4   7
ATOM      7  C   UNL     1      -2.641   4.279   0.935  1.00  0.00     0.059 A 
ATOM      8  C   UNL     1      -1.633   2.373  -0.217  1.00  0.00    -0.017 A 
ATOM      9  C   UNL     1      -1.171   3.255  -1.206  1.00  0.00     0.010 A 
ATOM     10  C   UNL     1      -2.455   2.888   0.798  1.00  0.00     0.024 A 
ATOM     11  C   UNL     1      -1.277   4.630  -1.029  1.00  0.00     0.022 A 
ATOM     12  C   UNL     1      -1.906   5.134   0.108  1.00  0.00     0.053 A 
ATOM     13  Cl  UNL     1      -1.553   6.784   0.507  1.00  0.00    -0.083 Cl
BRANCH   8  14
ATOM     14  C   UNL     1      -1.049   1.024  -0.143  1.00  0.00    -0.018 A 
ATOM     15  C   UNL     1       2.521  -0.341   0.033  1.00  0.00     0.044 C 
ATOM     16  C   UNL     1       1.023  -0.297  -0.002  1.00  0.00    -0.051 A 
ATOM     17  C   UNL     1       0.260  -1.463   0.049  1.00  0.00     0.003 A 
ATOM     18  C   UNL     1       0.359   0.927  -0.097  1.00  0.00     0.012 A 
ATOM     19  C   UNL     1      -1.137  -1.393   0.019  1.00  0.00     0.001 A 
ATOM     20  C   UNL     1      -1.791  -0.157  -0.072  1.00  0.00     0.009 A 
ENDBRANCH   8  14
ENDBRANCH   4   7
ENDBRANCH   2   3
ENDBRANCH   1   2
BRANCH   1  21
ATOM     21  C   UNL     1      -7.005   7.593   0.883  1.00  0.00     0.118 C 
BRANCH  21  22
ATOM     22  N   UNL     1      -6.865   8.983   0.430  1.00  0.00    -0.352 N 
ATOM     23  C   UNL     1      -7.700  10.077   0.642  1.00  0.00     0.251 C 
ATOM     24  H   UNL     1      -6.059   9.170  -0.103  1.00  0.00     0.163 HD
ATOM     25  O   UNL     1      -7.364  11.195   0.314  1.00  0.00    -0.269 OA
BRANCH  23  26
ATOM     26  C   UNL     1      -8.954   9.862   1.403  1.00  0.00     0.039 A 
ATOM     27  C   UNL     1      -9.138  10.601   2.575  1.00  0.00     0.014 A 
ATOM     28  C   UNL     1      -9.709   8.727   1.151  1.00  0.00     0.014 A 
ATOM     29  C   UNL     1      -9.841  10.021   3.624  1.00  0.00     0.010 A 
ATOM     30  C   UNL     1     -10.252   8.078   2.237  1.00  0.00     0.010 A 
ATOM     31  C   UNL     1     -10.258   8.700   3.492  1.00  0.00    -0.014 A 
BRANCH  31  32
ATOM     32  C   UNL     1     -10.618   7.856   4.625  1.00  0.00     0.031 A 
ATOM     33  C   UNL     1     -12.013   7.397   4.773  1.00  0.00     0.074 A 
ATOM     34  C   UNL     1      -9.665   7.432   5.485  1.00  0.00     0.049 A 
ATOM     35  N   UNL     1     -12.532   6.981   5.877  1.00  0.00    -0.248 NA
ATOM     36  C   UNL     1     -12.969   7.441   3.671  1.00  0.00     0.031 C 
ATOM     37  C   UNL     1      -9.770   6.370   6.481  1.00  0.00     0.029 A 
ATOM     38  N   UNL     1      -8.448   8.052   5.770  1.00  0.00    -0.354 N 
ATOM     39  C   UNL     1     -13.756   6.433   5.575  1.00  0.00     0.074 A 
ATOM     40  C   UNL     1     -14.021   6.826   4.213  1.00  0.00     0.031 C 
ATOM     41  C   UNL     1      -8.821   6.552   7.415  1.00  0.00     0.029 A 
ATOM     42  C   UNL     1      -8.176   7.823   7.133  1.00  0.00     0.049 A 
ATOM     43  H   UNL     1      -7.885   8.555   5.138  1.00  0.00     0.167 HD
ATOM     44  C   UNL     1     -14.342   5.583   6.464  1.00  0.00     0.031 A 
ATOM     45  C   UNL     1      -8.093   8.862   8.015  1.00  0.00     0.031 A 
ATOM     46  C   UNL     1     -13.610   5.547   7.730  1.00  0.00     0.049 A 
ATOM     47  C   UNL     1      -9.153   8.825   9.096  1.00  0.00     0.074 A 
ATOM     48  C   UNL     1     -12.698   4.655   8.270  1.00  0.00     0.029 A 
ATOM     49  N   UNL     1     -13.532   6.704   8.498  1.00  0.00    -0.354 N 
ATOM     50  N   UNL     1     -10.237   8.102   9.029  1.00  0.00    -0.248 NA
ATOM     51  C   UNL     1      -9.097   9.628  10.316  1.00  0.00     0.031 C 
ATOM     52  C   UNL     1     -11.998   5.324   9.310  1.00  0.00     0.029 A 
ATOM     53  C   UNL     1     -12.513   6.603   9.425  1.00  0.00     0.049 A 
ATOM     54  H   UNL     1     -14.122   7.486   8.395  1.00  0.00     0.167 HD
ATOM     55  C   UNL     1     -11.010   8.328  10.136  1.00  0.00     0.074 A 
ATOM     56  C   UNL     1     -10.250   9.285  10.919  1.00  0.00     0.031 C 
ATOM     57  C   UNL     1     -12.218   7.719  10.313  1.00  0.00     0.031 A 
BRANCH  44  58
ATOM     58  C   UNL     1     -15.395   4.572   6.069  1.00  0.00    -0.014 A 
ATOM     59  C   UNL     1     -15.538   3.394   6.825  1.00  0.00     0.009 A 
ATOM     60  C   UNL     1     -16.214   4.667   4.932  1.00  0.00     0.009 A 
ATOM     61  C   UNL     1     -16.373   2.343   6.418  1.00  0.00     0.001 A 
ATOM     62  C   UNL     1     -17.024   3.609   4.496  1.00  0.00     0.001 A 
ATOM     63  C   UNL     1     -17.095   2.439   5.236  1.00  0.00     0.000 A 
ENDBRANCH  44  58
BRANCH  45  64
ATOM     64  C   UNL     1      -7.535  10.104   7.409  1.00  0.00    -0.014 A 
ATOM     65  C   UNL     1      -6.192  10.085   6.978  1.00  0.00     0.009 A 
ATOM     66  C   UNL     1      -8.380  11.108   6.917  1.00  0.00     0.009 A 
ATOM     67  C   UNL     1      -5.747  10.958   5.981  1.00  0.00     0.001 A 
ATOM     68  C   UNL     1      -7.924  11.992   5.929  1.00  0.00     0.001 A 
ATOM     69  C   UNL     1      -6.624  11.890   5.434  1.00  0.00     0.000 A 
ENDBRANCH  45  64
BRANCH  57  70
ATOM     70  C   UNL     1     -13.226   8.070  11.376  1.00  0.00    -0.014 A 
ATOM     71  C   UNL     1     -13.347   9.341  11.952  1.00  0.00     0.009 A 
ATOM     72  C   UNL     1     -14.210   7.116  11.719  1.00  0.00     0.009 A 
ATOM     73  C   UNL     1     -14.376   9.631  12.859  1.00  0.00     0.001 A 
ATOM     74  C   UNL     1     -15.261   7.415  12.588  1.00  0.00     0.001 A 
ATOM     75  C   UNL     1     -15.337   8.673  13.168  1.00  0.00     0.000 A 
ENDBRANCH  57  70
ENDBRANCH  31  32
ENDBRANCH  23  26
ENDBRANCH  21  22
ENDBRANCH   1  21
TORSDOF 11
