REMARK SMILES C[C@H](Nc1ncccc1C(=O)NCCCNC(=O)c1ccc(-c2c3nc(c(-c4ccccc4)c4ccc([nH]4)c(-c4ccccc4)c4nc(c(-c5ccccc5)c5ccc2[nH]5)C=C4)C=C3)cc1)c1ccc(Cl)cc1
REMARK SMILES IDX 13 1 12 2 10 3 11 4 9 6 4 7 5 8 6 9 8 10 7 11 3 12 2 14 1 15
REMARK SMILES IDX 67 16 68 17 73 18 69 19 72 20 70 21 71 22 14 23 15 24 16 25
REMARK SMILES IDX 17 26 18 28 19 29 20 30 66 31 21 32 65 33 22 34 23 35 24 36
REMARK SMILES IDX 59 37 25 38 64 39 58 40 60 41 26 42 63 43 57 44 56 45 27 47
REMARK SMILES IDX 49 48 34 49 48 50 35 51 38 52 47 53 61 54 36 55 37 56 46 58
REMARK SMILES IDX 62 59 39 60 28 61 29 62 33 63 30 64 32 65 31 66 50 67 51 68
REMARK SMILES IDX 55 69 52 70 54 71 53 72 40 73 41 74 45 75 42 76 44 77 43 78
REMARK H PARENT 12 5 3 13 16 27 60 46 38 57
REMARK Flexibility Score: inf
ROOT
ATOM      1  C   UNL     1       3.355   4.244   2.663  1.00  0.00     0.118 C 
ENDROOT
BRANCH   1   2
ATOM      2  N   UNL     1       2.135   3.667   2.138  1.00  0.00    -0.352 N 
ATOM      3  C   UNL     1       1.764   2.537   1.455  1.00  0.00     0.255 C 
ATOM      4  O   UNL     1       0.545   2.484   1.283  1.00  0.00    -0.269 OA
ATOM      5  H   UNL     1       1.359   4.244   2.321  1.00  0.00     0.163 HD
BRANCH   3   6
ATOM      6  C   UNL     1       2.676   1.438   0.984  1.00  0.00     0.082 A 
ATOM      7  C   UNL     1       2.159   0.261   0.400  1.00  0.00     0.139 A 
ATOM      8  N   UNL     1       2.921  -0.850   0.205  1.00  0.00    -0.239 NA
ATOM      9  C   UNL     1       4.230  -0.802   0.503  1.00  0.00     0.113 A 
ATOM     10  C   UNL     1       4.062   1.465   1.185  1.00  0.00     0.019 A 
ATOM     11  C   UNL     1       4.849   0.337   0.958  1.00  0.00     0.021 A 
BRANCH   7  12
ATOM     12  N   UNL     1       0.890   0.060  -0.095  1.00  0.00    -0.363 N 
ATOM     13  H   UNL     1       0.347  -0.687   0.246  1.00  0.00     0.162 HD
BRANCH  12  14
ATOM     14  C   UNL     1       0.339   0.942  -1.121  1.00  0.00     0.108 C 
ATOM     15  C   UNL     1       0.791   0.487  -2.512  1.00  0.00     0.036 C 
BRANCH  14  16
ATOM     16  C   UNL     1      -1.181   0.951  -1.022  1.00  0.00    -0.026 A 
ATOM     17  C   UNL     1      -1.863   2.174  -0.903  1.00  0.00     0.007 A 
ATOM     18  C   UNL     1      -1.933  -0.236  -1.032  1.00  0.00     0.007 A 
ATOM     19  C   UNL     1      -3.255   2.211  -0.791  1.00  0.00     0.021 A 
ATOM     20  C   UNL     1      -3.325  -0.200  -0.915  1.00  0.00     0.021 A 
ATOM     21  C   UNL     1      -3.979   1.023  -0.794  1.00  0.00     0.041 A 
ATOM     22  Cl  UNL     1      -5.693   1.066  -0.641  1.00  0.00    -0.084 Cl
ENDBRANCH  14  16
ENDBRANCH  12  14
ENDBRANCH   7  12
ENDBRANCH   3   6
ENDBRANCH   1   2
BRANCH   1  23
ATOM     23  C   UNL     1       3.969   5.244   1.687  1.00  0.00     0.042 C 
BRANCH  23  24
ATOM     24  C   UNL     1       3.100   6.486   1.464  1.00  0.00     0.118 C 
BRANCH  24  25
ATOM     25  N   UNL     1       2.873   7.229   2.697  1.00  0.00    -0.352 N 
ATOM     26  C   UNL     1       3.315   8.465   3.093  1.00  0.00     0.251 C 
ATOM     27  H   UNL     1       2.308   6.766   3.357  1.00  0.00     0.163 HD
ATOM     28  O   UNL     1       3.232   8.787   4.274  1.00  0.00    -0.269 OA
BRANCH  26  29
ATOM     29  C   UNL     1       3.881   9.418   2.116  1.00  0.00     0.039 A 
ATOM     30  C   UNL     1       4.966  10.212   2.499  1.00  0.00     0.014 A 
ATOM     31  C   UNL     1       3.299   9.589   0.857  1.00  0.00     0.014 A 
ATOM     32  C   UNL     1       5.495  11.145   1.605  1.00  0.00     0.010 A 
ATOM     33  C   UNL     1       3.869  10.470  -0.058  1.00  0.00     0.010 A 
ATOM     34  C   UNL     1       4.965  11.264   0.311  1.00  0.00    -0.014 A 
BRANCH  34  35
ATOM     35  C   UNL     1       5.531  12.225  -0.667  1.00  0.00     0.031 A 
ATOM     36  C   UNL     1       4.704  13.377  -1.164  1.00  0.00     0.074 A 
ATOM     37  C   UNL     1       6.764  12.016  -1.165  1.00  0.00     0.049 A 
ATOM     38  N   UNL     1       4.997  14.275  -2.070  1.00  0.00    -0.248 NA
ATOM     39  C   UNL     1       3.358  13.522  -0.586  1.00  0.00     0.031 C 
ATOM     40  C   UNL     1       7.647  10.907  -0.801  1.00  0.00     0.029 A 
ATOM     41  N   UNL     1       7.481  12.722  -2.097  1.00  0.00    -0.354 N 
ATOM     42  C   UNL     1       3.868  15.075  -2.187  1.00  0.00     0.074 A 
ATOM     43  C   UNL     1       2.868  14.527  -1.296  1.00  0.00     0.031 C 
ATOM     44  C   UNL     1       8.794  11.016  -1.490  1.00  0.00     0.029 A 
ATOM     45  C   UNL     1       8.713  12.180  -2.367  1.00  0.00     0.049 A 
ATOM     46  H   UNL     1       7.144  13.540  -2.530  1.00  0.00     0.167 HD
ATOM     47  C   UNL     1       3.683  16.178  -2.952  1.00  0.00     0.031 A 
ATOM     48  C   UNL     1       9.669  12.571  -3.229  1.00  0.00     0.031 A 
ATOM     49  C   UNL     1       4.679  16.727  -3.833  1.00  0.00     0.049 A 
ATOM     50  C   UNL     1       9.451  13.804  -4.058  1.00  0.00     0.074 A 
ATOM     51  C   UNL     1       4.612  17.870  -4.609  1.00  0.00     0.029 A 
ATOM     52  N   UNL     1       5.929  16.166  -4.053  1.00  0.00    -0.354 N 
ATOM     53  N   UNL     1       8.402  14.588  -4.110  1.00  0.00    -0.248 NA
ATOM     54  C   UNL     1      10.557  14.214  -4.934  1.00  0.00     0.031 C 
ATOM     55  C   UNL     1       5.806  17.978  -5.332  1.00  0.00     0.029 A 
ATOM     56  C   UNL     1       6.635  16.930  -4.967  1.00  0.00     0.049 A 
ATOM     57  H   UNL     1       6.264  15.346  -3.623  1.00  0.00     0.167 HD
ATOM     58  C   UNL     1       8.726  15.595  -5.008  1.00  0.00     0.074 A 
ATOM     59  C   UNL     1      10.076  15.331  -5.464  1.00  0.00     0.031 C 
ATOM     60  C   UNL     1       7.974  16.646  -5.418  1.00  0.00     0.031 A 
BRANCH  47  61
ATOM     61  C   UNL     1       2.339  16.850  -2.871  1.00  0.00    -0.014 A 
ATOM     62  C   UNL     1       1.934  17.529  -1.709  1.00  0.00     0.009 A 
ATOM     63  C   UNL     1       1.466  16.804  -3.968  1.00  0.00     0.009 A 
ATOM     64  C   UNL     1       0.663  18.102  -1.630  1.00  0.00     0.001 A 
ATOM     65  C   UNL     1       0.207  17.405  -3.897  1.00  0.00     0.001 A 
ATOM     66  C   UNL     1      -0.198  18.041  -2.724  1.00  0.00     0.000 A 
ENDBRANCH  47  61
BRANCH  48  67
ATOM     67  C   UNL     1      10.928  11.791  -3.327  1.00  0.00    -0.014 A 
ATOM     68  C   UNL     1      12.117  12.287  -2.771  1.00  0.00     0.009 A 
ATOM     69  C   UNL     1      10.940  10.532  -3.946  1.00  0.00     0.009 A 
ATOM     70  C   UNL     1      13.296  11.542  -2.846  1.00  0.00     0.001 A 
ATOM     71  C   UNL     1      12.114   9.779  -3.998  1.00  0.00     0.001 A 
ATOM     72  C   UNL     1      13.293  10.287  -3.453  1.00  0.00     0.000 A 
ENDBRANCH  48  67
BRANCH  60  73
ATOM     73  C   UNL     1       8.604  17.599  -6.392  1.00  0.00    -0.014 A 
ATOM     74  C   UNL     1       8.791  17.247  -7.737  1.00  0.00     0.009 A 
ATOM     75  C   UNL     1       8.983  18.881  -5.964  1.00  0.00     0.009 A 
ATOM     76  C   UNL     1       9.374  18.151  -8.628  1.00  0.00     0.001 A 
ATOM     77  C   UNL     1       9.541  19.791  -6.863  1.00  0.00     0.001 A 
ATOM     78  C   UNL     1       9.744  19.422  -8.191  1.00  0.00     0.000 A 
ENDBRANCH  60  73
ENDBRANCH  34  35
ENDBRANCH  26  29
ENDBRANCH  24  25
ENDBRANCH  23  24
ENDBRANCH   1  23
TORSDOF 13
