REMARK SMILES CN(C(=O)N[C@@](C)(C(=O)NCCCNC(=O)c1ccc(-c2c3nc(c(-c4ccccc4)c4ccc([nH]4)c(-c4ccccc4)c4nc(c(-c5ccccc5)c5ccc2[nH]5)C=C4)C=C3)cc1)C(F)(F)F)c1ccc(F)cc1
REMARK SMILES IDX 11 1 10 2 8 3 9 4 6 6 7 7 5 8 3 9 4 10 2 12 1 13 69 14 70 15
REMARK SMILES IDX 75 16 71 17 74 18 72 19 73 20 65 21 66 22 67 23 68 24 12 25
REMARK SMILES IDX 13 26 14 27 15 28 16 30 17 31 18 32 64 33 19 34 63 35 20 36
REMARK SMILES IDX 21 37 22 38 57 39 23 40 62 41 56 42 58 43 24 44 61 45 55 46
REMARK SMILES IDX 54 47 25 49 47 50 32 51 46 52 33 53 36 54 45 55 59 56 34 57
REMARK SMILES IDX 35 58 44 60 60 61 37 62 26 63 27 64 31 65 28 66 30 67 29 68
REMARK SMILES IDX 48 69 49 70 53 71 50 72 52 73 51 74 38 75 39 76 43 77 40 78
REMARK SMILES IDX 42 79 41 80
REMARK H PARENT 10 5 5 11 14 29 58 48 36 59
REMARK Flexibility Score: inf
ROOT
ATOM      1  C   UNL     1      -1.601   0.120  -4.751  1.00  0.00     0.117 C 
ENDROOT
BRANCH   1   2
ATOM      2  N   UNL     1      -0.244  -0.347  -4.534  1.00  0.00    -0.354 N 
ATOM      3  C   UNL     1       0.478  -0.730  -3.450  1.00  0.00     0.255 C 
ATOM      4  O   UNL     1       1.678  -0.891  -3.695  1.00  0.00    -0.272 OA
ATOM      5  H   UNL     1       0.275  -0.398  -5.369  1.00  0.00     0.163 HD
BRANCH   3   6
ATOM      6  C   UNL     1      -0.106  -0.886  -2.022  1.00  0.00     0.213 C 
ATOM      7  C   UNL     1      -1.418  -1.695  -2.009  1.00  0.00     0.056 C 
BRANCH   6   8
ATOM      8  N   UNL     1      -0.431   0.514  -1.560  1.00  0.00    -0.316 N 
ATOM      9  C   UNL     1      -0.048   1.517  -0.754  1.00  0.00     0.322 C 
ATOM     10  O   UNL     1      -0.441   2.615  -1.174  1.00  0.00    -0.248 OA
ATOM     11  H   UNL     1      -1.242   0.806  -2.036  1.00  0.00     0.166 HD
BRANCH   9  12
ATOM     12  N   UNL     1       0.662   1.371   0.403  1.00  0.00    -0.298 N 
ATOM     13  C   UNL     1       0.870   0.122   1.114  1.00  0.00     0.155 C 
BRANCH  12  14
ATOM     14  C   UNL     1       1.028   2.520   1.188  1.00  0.00     0.045 A 
ATOM     15  C   UNL     1       0.096   3.525   1.491  1.00  0.00     0.029 A 
ATOM     16  C   UNL     1       2.298   2.573   1.787  1.00  0.00     0.029 A 
ATOM     17  C   UNL     1       0.416   4.538   2.401  1.00  0.00     0.041 A 
ATOM     18  C   UNL     1       2.625   3.599   2.677  1.00  0.00     0.041 A 
ATOM     19  C   UNL     1       1.675   4.563   2.987  1.00  0.00     0.123 A 
ATOM     20  F   UNL     1       1.972   5.521   3.875  1.00  0.00    -0.207 F 
ENDBRANCH  12  14
ENDBRANCH   9  12
ENDBRANCH   6   8
BRANCH   6  21
ATOM     21  C   UNL     1       0.951  -1.782  -1.332  1.00  0.00     0.420 C 
ATOM     22  F   UNL     1       2.136  -1.176  -1.126  1.00  0.00    -0.168 F 
ATOM     23  F   UNL     1       0.511  -2.238  -0.131  1.00  0.00    -0.168 F 
ATOM     24  F   UNL     1       1.185  -2.913  -2.053  1.00  0.00    -0.168 F 
ENDBRANCH   6  21
ENDBRANCH   3   6
ENDBRANCH   1   2
BRANCH   1  25
ATOM     25  C   UNL     1      -1.624   1.417  -5.549  1.00  0.00     0.042 C 
BRANCH  25  26
ATOM     26  C   UNL     1      -0.941   1.347  -6.910  1.00  0.00     0.118 C 
BRANCH  26  27
ATOM     27  N   UNL     1      -1.567   0.399  -7.821  1.00  0.00    -0.352 N 
ATOM     28  C   UNL     1      -2.138   0.619  -9.052  1.00  0.00     0.251 C 
ATOM     29  H   UNL     1      -1.583  -0.535  -7.510  1.00  0.00     0.163 HD
ATOM     30  O   UNL     1      -2.758  -0.280  -9.613  1.00  0.00    -0.269 OA
BRANCH  28  31
ATOM     31  C   UNL     1      -2.031   1.950  -9.684  1.00  0.00     0.039 A 
ATOM     32  C   UNL     1      -3.172   2.534 -10.238  1.00  0.00     0.014 A 
ATOM     33  C   UNL     1      -0.811   2.631  -9.706  1.00  0.00     0.014 A 
ATOM     34  C   UNL     1      -3.108   3.837 -10.737  1.00  0.00     0.010 A 
ATOM     35  C   UNL     1      -0.771   3.957 -10.118  1.00  0.00     0.010 A 
ATOM     36  C   UNL     1      -1.918   4.575 -10.640  1.00  0.00    -0.014 A 
BRANCH  36  37
ATOM     37  C   UNL     1      -1.834   5.990 -11.083  1.00  0.00     0.031 A 
ATOM     38  C   UNL     1      -0.887   6.372 -12.188  1.00  0.00     0.074 A 
ATOM     39  C   UNL     1      -2.539   6.941 -10.439  1.00  0.00     0.049 A 
ATOM     40  N   UNL     1      -0.574   7.562 -12.633  1.00  0.00    -0.248 NA
ATOM     41  C   UNL     1      -0.177   5.272 -12.861  1.00  0.00     0.031 C 
ATOM     42  C   UNL     1      -3.471   6.708  -9.332  1.00  0.00     0.029 A 
ATOM     43  N   UNL     1      -2.570   8.302 -10.615  1.00  0.00    -0.354 N 
ATOM     44  C   UNL     1       0.385   7.354 -13.617  1.00  0.00     0.074 A 
ATOM     45  C   UNL     1       0.638   5.932 -13.670  1.00  0.00     0.031 C 
ATOM     46  C   UNL     1      -3.996   7.882  -8.944  1.00  0.00     0.029 A 
ATOM     47  C   UNL     1      -3.404   8.954  -9.738  1.00  0.00     0.049 A 
ATOM     48  H   UNL     1      -2.044   8.768 -11.305  1.00  0.00     0.167 HD
ATOM     49  C   UNL     1       0.987   8.263 -14.420  1.00  0.00     0.031 A 
ATOM     50  C   UNL     1      -3.652  10.268  -9.580  1.00  0.00     0.031 A 
ATOM     51  C   UNL     1       0.724   9.676 -14.378  1.00  0.00     0.049 A 
ATOM     52  C   UNL     1      -2.952  11.259 -10.468  1.00  0.00     0.074 A 
ATOM     53  C   UNL     1       1.249  10.674 -15.181  1.00  0.00     0.029 A 
ATOM     54  N   UNL     1      -0.140  10.291 -13.486  1.00  0.00    -0.354 N 
ATOM     55  N   UNL     1      -2.087  11.042 -11.430  1.00  0.00    -0.248 NA
ATOM     56  C   UNL     1      -3.270  12.679 -10.256  1.00  0.00     0.031 C 
ATOM     57  C   UNL     1       0.738  11.899 -14.743  1.00  0.00     0.029 A 
ATOM     58  C   UNL     1      -0.151  11.657 -13.708  1.00  0.00     0.049 A 
ATOM     59  H   UNL     1      -0.667   9.825 -12.797  1.00  0.00     0.167 HD
ATOM     60  C   UNL     1      -1.790  12.290 -11.961  1.00  0.00     0.074 A 
ATOM     61  C   UNL     1      -2.571  13.259 -11.221  1.00  0.00     0.031 C 
ATOM     62  C   UNL     1      -0.948  12.605 -12.975  1.00  0.00     0.031 A 
BRANCH  49  63
ATOM     63  C   UNL     1       1.995   7.753 -15.411  1.00  0.00    -0.014 A 
ATOM     64  C   UNL     1       1.602   6.987 -16.521  1.00  0.00     0.009 A 
ATOM     65  C   UNL     1       3.353   8.075 -15.257  1.00  0.00     0.009 A 
ATOM     66  C   UNL     1       2.551   6.525 -17.434  1.00  0.00     0.001 A 
ATOM     67  C   UNL     1       4.295   7.638 -16.189  1.00  0.00     0.001 A 
ATOM     68  C   UNL     1       3.895   6.856 -17.271  1.00  0.00     0.000 A 
ENDBRANCH  49  63
BRANCH  50  69
ATOM     69  C   UNL     1      -4.615  10.730  -8.545  1.00  0.00    -0.014 A 
ATOM     70  C   UNL     1      -5.847  11.290  -8.920  1.00  0.00     0.009 A 
ATOM     71  C   UNL     1      -4.303  10.634  -7.180  1.00  0.00     0.009 A 
ATOM     72  C   UNL     1      -6.730  11.774  -7.952  1.00  0.00     0.001 A 
ATOM     73  C   UNL     1      -5.201  11.089  -6.213  1.00  0.00     0.001 A 
ATOM     74  C   UNL     1      -6.408  11.669  -6.599  1.00  0.00     0.000 A 
ENDBRANCH  50  69
BRANCH  62  75
ATOM     75  C   UNL     1      -0.872  14.047 -13.390  1.00  0.00    -0.014 A 
ATOM     76  C   UNL     1      -0.225  15.007 -12.598  1.00  0.00     0.009 A 
ATOM     77  C   UNL     1      -1.409  14.435 -14.628  1.00  0.00     0.009 A 
ATOM     78  C   UNL     1      -0.143  16.334 -13.025  1.00  0.00     0.001 A 
ATOM     79  C   UNL     1      -1.300  15.755 -15.066  1.00  0.00     0.001 A 
ATOM     80  C   UNL     1      -0.674  16.705 -14.261  1.00  0.00     0.000 A 
ENDBRANCH  62  75
ENDBRANCH  36  37
ENDBRANCH  28  31
ENDBRANCH  26  27
ENDBRANCH  25  26
ENDBRANCH   1  25
TORSDOF 14
