REMARK SMILES O=C(NCCCNC(=O)[C@H]1C[C@](O)(c2ccccc2Cl)[C@@H](c2ccccc2Cl)O1)c1ccc(-c2c3nc(c(-c4ccccc4)c4ccc([nH]4)c(-c4ccccc4)c4nc(c(-c5ccccc5)c5ccc2[nH]5)C=C4)C=C3)cc1
REMARK SMILES IDX 4 1 3 2 1 3 2 4 30 6 31 7 77 8 32 9 76 10 33 11 34 12 35 13
REMARK SMILES IDX 70 14 36 15 75 16 69 17 71 18 37 19 74 20 68 21 67 22 38 24
REMARK SMILES IDX 60 25 45 26 59 27 46 28 49 29 58 30 72 31 47 32 48 33 57 35
REMARK SMILES IDX 73 36 50 37 39 38 40 39 44 40 41 41 43 42 42 43 61 44 62 45
REMARK SMILES IDX 66 46 63 47 65 48 64 49 51 50 52 51 56 52 53 53 55 54 54 55
REMARK SMILES IDX 5 56 6 57 7 58 8 59 9 61 10 62 11 63 29 64 12 65 21 66 14 67
REMARK SMILES IDX 15 68 19 69 16 70 18 71 20 72 17 73 13 74 22 76 23 77 27 78
REMARK SMILES IDX 24 79 26 80 28 81 25 82
REMARK H PARENT 3 5 71 23 49 34 7 60 13 75
REMARK Flexibility Score: inf
ROOT
ATOM      1  C   UNL     1       7.076  -2.647   4.389  1.00  0.00     0.118 C 
ENDROOT
BRANCH   1   2
ATOM      2  N   UNL     1       7.295  -1.213   4.253  1.00  0.00    -0.352 N 
ATOM      3  O   UNL     1       7.238   0.966   4.809  1.00  0.00    -0.269 OA
ATOM      4  C   UNL     1       7.208  -0.210   5.182  1.00  0.00     0.251 C 
ATOM      5  H   UNL     1       7.545  -0.917   3.348  1.00  0.00     0.163 HD
BRANCH   4   6
ATOM      6  C   UNL     1       7.070  -0.509   6.624  1.00  0.00     0.039 A 
ATOM      7  C   UNL     1       7.822  -1.518   7.231  1.00  0.00     0.014 A 
ATOM      8  C   UNL     1       6.220   0.285   7.402  1.00  0.00     0.014 A 
ATOM      9  C   UNL     1       7.630  -1.814   8.579  1.00  0.00     0.010 A 
ATOM     10  C   UNL     1       6.089   0.039   8.772  1.00  0.00     0.010 A 
ATOM     11  C   UNL     1       6.774  -1.030   9.368  1.00  0.00    -0.014 A 
BRANCH  11  12
ATOM     12  C   UNL     1       6.663  -1.300  10.825  1.00  0.00     0.031 A 
ATOM     13  C   UNL     1       5.369  -1.760  11.437  1.00  0.00     0.074 A 
ATOM     14  C   UNL     1       7.751  -1.138  11.603  1.00  0.00     0.049 A 
ATOM     15  N   UNL     1       5.113  -2.071  12.684  1.00  0.00    -0.248 NA
ATOM     16  C   UNL     1       4.212  -1.883  10.538  1.00  0.00     0.031 C 
ATOM     17  C   UNL     1       9.063  -0.687  11.133  1.00  0.00     0.029 A 
ATOM     18  N   UNL     1       7.933  -1.348  12.946  1.00  0.00    -0.354 N 
ATOM     19  C   UNL     1       3.766  -2.409  12.723  1.00  0.00     0.074 A 
ATOM     20  C   UNL     1       3.252  -2.236  11.381  1.00  0.00     0.031 C 
ATOM     21  C   UNL     1       9.925  -0.700  12.160  1.00  0.00     0.029 A 
ATOM     22  C   UNL     1       9.216  -1.100  13.370  1.00  0.00     0.049 A 
ATOM     23  H   UNL     1       7.214  -1.648  13.548  1.00  0.00     0.167 HD
ATOM     24  C   UNL     1       3.027  -2.832  13.778  1.00  0.00     0.031 A 
ATOM     25  C   UNL     1       9.763  -1.171  14.597  1.00  0.00     0.031 A 
ATOM     26  C   UNL     1       3.536  -2.990  15.117  1.00  0.00     0.049 A 
ATOM     27  C   UNL     1       8.910  -1.592  15.757  1.00  0.00     0.074 A 
ATOM     28  C   UNL     1       2.873  -3.447  16.244  1.00  0.00     0.029 A 
ATOM     29  N   UNL     1       4.829  -2.682  15.514  1.00  0.00    -0.354 N 
ATOM     30  N   UNL     1       7.652  -1.958  15.767  1.00  0.00    -0.248 NA
ATOM     31  C   UNL     1       9.556  -1.613  17.076  1.00  0.00     0.031 C 
ATOM     32  C   UNL     1       3.746  -3.356  17.334  1.00  0.00     0.029 A 
ATOM     33  C   UNL     1       4.973  -2.907  16.874  1.00  0.00     0.049 A 
ATOM     34  H   UNL     1       5.539  -2.352  14.917  1.00  0.00     0.167 HD
ATOM     35  C   UNL     1       7.360  -2.274  17.087  1.00  0.00     0.074 A 
ATOM     36  C   UNL     1       8.579  -2.074  17.844  1.00  0.00     0.031 C 
ATOM     37  C   UNL     1       6.187  -2.693  17.621  1.00  0.00     0.031 A 
BRANCH  24  38
ATOM     38  C   UNL     1       1.569  -3.119  13.531  1.00  0.00    -0.014 A 
ATOM     39  C   UNL     1       1.159  -4.222  12.765  1.00  0.00     0.009 A 
ATOM     40  C   UNL     1       0.590  -2.289  14.100  1.00  0.00     0.009 A 
ATOM     41  C   UNL     1      -0.199  -4.461  12.538  1.00  0.00     0.001 A 
ATOM     42  C   UNL     1      -0.767  -2.548  13.897  1.00  0.00     0.001 A 
ATOM     43  C   UNL     1      -1.160  -3.626  13.107  1.00  0.00     0.000 A 
ENDBRANCH  24  38
BRANCH  25  44
ATOM     44  C   UNL     1      11.197  -0.831  14.784  1.00  0.00    -0.014 A 
ATOM     45  C   UNL     1      12.133  -1.829  15.095  1.00  0.00     0.009 A 
ATOM     46  C   UNL     1      11.641   0.492  14.632  1.00  0.00     0.009 A 
ATOM     47  C   UNL     1      13.480  -1.506  15.266  1.00  0.00     0.001 A 
ATOM     48  C   UNL     1      12.994   0.807  14.773  1.00  0.00     0.001 A 
ATOM     49  C   UNL     1      13.911  -0.190  15.098  1.00  0.00     0.000 A 
ENDBRANCH  25  44
BRANCH  37  50
ATOM     50  C   UNL     1       6.176  -2.994  19.095  1.00  0.00    -0.014 A 
ATOM     51  C   UNL     1       6.252  -1.970  20.051  1.00  0.00     0.009 A 
ATOM     52  C   UNL     1       6.059  -4.324  19.530  1.00  0.00     0.009 A 
ATOM     53  C   UNL     1       6.248  -2.275  21.414  1.00  0.00     0.001 A 
ATOM     54  C   UNL     1       6.024  -4.623  20.893  1.00  0.00     0.001 A 
ATOM     55  C   UNL     1       6.129  -3.600  21.834  1.00  0.00     0.000 A 
ENDBRANCH  37  50
ENDBRANCH  11  12
ENDBRANCH   4   6
ENDBRANCH   1   2
BRANCH   1  56
ATOM     56  C   UNL     1       5.843  -3.125   3.631  1.00  0.00     0.042 C 
BRANCH  56  57
ATOM     57  C   UNL     1       5.953  -3.037   2.111  1.00  0.00     0.117 C 
BRANCH  57  58
ATOM     58  N   UNL     1       7.095  -3.750   1.572  1.00  0.00    -0.354 N 
ATOM     59  C   UNL     1       7.158  -5.008   1.048  1.00  0.00     0.249 C 
ATOM     60  H   UNL     1       7.946  -3.255   1.586  1.00  0.00     0.163 HD
ATOM     61  O   UNL     1       8.245  -5.371   0.593  1.00  0.00    -0.272 OA
BRANCH  59  62
ATOM     62  C   UNL     1       5.889  -5.895   0.997  1.00  0.00     0.211 C 
ATOM     63  C   UNL     1       6.217  -7.340   0.623  1.00  0.00     0.085 C 
ATOM     64  O   UNL     1       5.159  -5.913   2.224  1.00  0.00    -0.357 OA
ATOM     65  C   UNL     1       5.671  -8.207   1.757  1.00  0.00     0.124 C 
ATOM     66  C   UNL     1       5.334  -7.185   2.874  1.00  0.00     0.187 C 
BRANCH  65  67
ATOM     67  C   UNL     1       4.558  -9.121   1.197  1.00  0.00     0.005 A 
ATOM     68  C   UNL     1       4.993 -10.281   0.499  1.00  0.00     0.008 A 
ATOM     69  C   UNL     1       3.164  -8.921   1.251  1.00  0.00     0.047 A 
ATOM     70  C   UNL     1       4.105 -11.220  -0.033  1.00  0.00     0.001 A 
ATOM     71  C   UNL     1       2.275  -9.892   0.752  1.00  0.00     0.021 A 
ATOM     72  Cl  UNL     1       2.388  -7.482   1.810  1.00  0.00    -0.084 Cl
ATOM     73  C   UNL     1       2.741 -11.040   0.120  1.00  0.00     0.002 A 
ENDBRANCH  65  67
BRANCH  65  74
ATOM     74  O   UNL     1       6.723  -9.084   2.207  1.00  0.00    -0.382 OA
ATOM     75  H   UNL     1       7.451  -8.556   2.570  1.00  0.00     0.212 HD
ENDBRANCH  65  74
BRANCH  66  76
ATOM     76  C   UNL     1       6.280  -6.954   4.052  1.00  0.00     0.003 A 
ATOM     77  C   UNL     1       7.650  -6.701   3.844  1.00  0.00     0.008 A 
ATOM     78  C   UNL     1       5.804  -6.869   5.378  1.00  0.00     0.046 A 
ATOM     79  C   UNL     1       8.492  -6.322   4.894  1.00  0.00     0.000 A 
ATOM     80  C   UNL     1       6.654  -6.504   6.430  1.00  0.00     0.021 A 
ATOM     81  Cl  UNL     1       4.159  -7.195   5.811  1.00  0.00    -0.084 Cl
ATOM     82  C   UNL     1       7.992  -6.213   6.186  1.00  0.00     0.002 A 
ENDBRANCH  66  76
ENDBRANCH  59  62
ENDBRANCH  57  58
ENDBRANCH  56  57
ENDBRANCH   1  56
TORSDOF 13
