REMARK SMILES CCOC(=O)[C@H](c1ccccc1)N1C(=O)/C(=C/c2ccc(C(=O)NCCCNC(=O)c3ccc(-c4c5nc(c(-c6ccccc6)c6ccc([nH]6)c(-c6ccccc6)c6nc(c(-c7ccccc7)c7ccc4[nH]7)C=C6)C=C5)cc3)cc2)SC1=S
REMARK SMILES IDX 22 1 23 2 24 3 21 5 18 6 19 7 80 8 20 9 79 10 17 11 13 12
REMARK SMILES IDX 14 13 82 14 15 15 16 16 81 17 83 18 6 19 4 20 5 21 3 22 2 23
REMARK SMILES IDX 1 24 7 25 8 26 12 27 9 28 11 29 10 30 25 31 26 32 27 33
REMARK SMILES IDX 28 34 29 35 30 37 31 38 32 39 78 40 33 41 77 42 34 43 35 44
REMARK SMILES IDX 36 45 71 46 37 47 76 48 70 49 72 50 38 51 75 52 69 53 68 54
REMARK SMILES IDX 39 56 61 57 46 58 60 59 47 60 50 61 59 62 73 63 48 64 49 65
REMARK SMILES IDX 58 67 74 68 51 69 40 70 41 71 45 72 42 73 44 74 43 75 62 76
REMARK SMILES IDX 63 77 67 78 64 79 66 80 65 81 52 82 53 83 57 84 54 85 56 86
REMARK SMILES IDX 55 87
REMARK H PARENT 24 4 28 36 72 55 50 66
REMARK Flexibility Score: inf
ROOT
ATOM      1  C   UNL     1      -0.860   4.061  11.735  1.00  0.00     0.251 C 
ATOM      2  O   UNL     1      -0.606   3.419  12.754  1.00  0.00    -0.269 OA
ATOM      3  N   UNL     1      -1.561   5.232  11.867  1.00  0.00    -0.352 N 
ATOM      4  H   UNL     1      -1.879   5.411  12.782  1.00  0.00     0.163 HD
ENDROOT
BRANCH   1   5
ATOM      5  C   UNL     1      -0.361   3.565  10.427  1.00  0.00     0.039 A 
ATOM      6  C   UNL     1       0.714   2.594   8.021  1.00  0.00    -0.024 A 
ATOM      7  C   UNL     1       1.407   2.409   9.218  1.00  0.00     0.009 A 
ATOM      8  C   UNL     1      -0.538   3.217   8.036  1.00  0.00     0.009 A 
ATOM      9  C   UNL     1       0.870   2.893  10.415  1.00  0.00     0.014 A 
ATOM     10  C   UNL     1      -1.079   3.684   9.235  1.00  0.00     0.014 A 
BRANCH   6  11
ATOM     11  C   UNL     1       1.287   2.151   6.751  1.00  0.00     0.029 C 
ATOM     12  N   UNL     1       2.455   3.542   3.636  1.00  0.00    -0.274 N 
ATOM     13  C   UNL     1       2.272   2.486   4.512  1.00  0.00     0.267 C 
ATOM     14  C   UNL     1       2.661   4.745   4.287  1.00  0.00     0.149 C 
ATOM     15  O   UNL     1       2.558   1.308   4.334  1.00  0.00    -0.268 OA
ATOM     16  C   UNL     1       1.782   2.978   5.822  1.00  0.00     0.081 C 
ATOM     17  S   UNL     1       1.960   4.677   5.902  1.00  0.00    -0.054 SA
ATOM     18  S   UNL     1       3.459   6.118   3.770  1.00  0.00    -0.052 S 
BRANCH  12  19
ATOM     19  C   UNL     1       2.803   3.293   2.208  1.00  0.00     0.232 C 
BRANCH  19  20
ATOM     20  C   UNL     1       2.245   4.437   1.326  1.00  0.00     0.333 C 
ATOM     21  O   UNL     1       1.101   4.876   1.398  1.00  0.00    -0.249 OA
BRANCH  20  22
ATOM     22  O   UNL     1       3.227   4.924   0.511  1.00  0.00    -0.464 OA
BRANCH  22  23
ATOM     23  C   UNL     1       2.939   6.151  -0.179  1.00  0.00     0.229 C 
ATOM     24  C   UNL     1       2.994   5.903  -1.672  1.00  0.00     0.049 C 
ENDBRANCH  22  23
ENDBRANCH  20  22
ENDBRANCH  19  20
BRANCH  19  25
ATOM     25  C   UNL     1       2.248   1.981   1.644  1.00  0.00    -0.014 A 
ATOM     26  C   UNL     1       0.864   1.719   1.633  1.00  0.00     0.006 A 
ATOM     27  C   UNL     1       3.120   0.996   1.155  1.00  0.00     0.006 A 
ATOM     28  C   UNL     1       0.371   0.500   1.166  1.00  0.00     0.000 A 
ATOM     29  C   UNL     1       2.621  -0.223   0.687  1.00  0.00     0.000 A 
ATOM     30  C   UNL     1       1.250  -0.472   0.697  1.00  0.00     0.000 A 
ENDBRANCH  19  25
ENDBRANCH  12  19
ENDBRANCH   6  11
ENDBRANCH   1   5
BRANCH   3  31
ATOM     31  C   UNL     1      -1.921   6.258  10.902  1.00  0.00     0.118 C 
BRANCH  31  32
ATOM     32  C   UNL     1      -3.397   6.171  10.515  1.00  0.00     0.042 C 
BRANCH  32  33
ATOM     33  C   UNL     1      -4.353   6.585  11.631  1.00  0.00     0.118 C 
BRANCH  33  34
ATOM     34  N   UNL     1      -4.337   8.019  11.868  1.00  0.00    -0.352 N 
ATOM     35  C   UNL     1      -5.369   8.924  11.864  1.00  0.00     0.251 C 
ATOM     36  H   UNL     1      -3.450   8.400  12.061  1.00  0.00     0.163 HD
ATOM     37  O   UNL     1      -5.120  10.126  11.897  1.00  0.00    -0.269 OA
BRANCH  35  38
ATOM     38  C   UNL     1      -6.778   8.471  11.807  1.00  0.00     0.039 A 
ATOM     39  C   UNL     1      -7.678   9.186  11.009  1.00  0.00     0.014 A 
ATOM     40  C   UNL     1      -7.231   7.391  12.570  1.00  0.00     0.014 A 
ATOM     41  C   UNL     1      -9.016   8.791  10.939  1.00  0.00     0.010 A 
ATOM     42  C   UNL     1      -8.552   6.960  12.452  1.00  0.00     0.010 A 
ATOM     43  C   UNL     1      -9.459   7.660  11.643  1.00  0.00    -0.014 A 
BRANCH  43  44
ATOM     44  C   UNL     1     -10.867   7.201  11.550  1.00  0.00     0.031 A 
ATOM     45  C   UNL     1     -11.765   7.256  12.755  1.00  0.00     0.074 A 
ATOM     46  C   UNL     1     -11.323   6.679  10.396  1.00  0.00     0.049 A 
ATOM     47  N   UNL     1     -13.003   6.848  12.882  1.00  0.00    -0.248 NA
ATOM     48  C   UNL     1     -11.189   7.824  13.984  1.00  0.00     0.031 C 
ATOM     49  C   UNL     1     -10.547   6.540   9.163  1.00  0.00     0.029 A 
ATOM     50  N   UNL     1     -12.553   6.160  10.076  1.00  0.00    -0.354 N 
ATOM     51  C   UNL     1     -13.345   7.087  14.207  1.00  0.00     0.074 A 
ATOM     52  C   UNL     1     -12.174   7.640  14.852  1.00  0.00     0.031 C 
ATOM     53  C   UNL     1     -11.325   5.996   8.214  1.00  0.00     0.029 A 
ATOM     54  C   UNL     1     -12.641   5.715   8.780  1.00  0.00     0.049 A 
ATOM     55  H   UNL     1     -13.300   6.111  10.715  1.00  0.00     0.167 HD
ATOM     56  C   UNL     1     -14.530   6.878  14.829  1.00  0.00     0.031 A 
ATOM     57  C   UNL     1     -13.664   5.141   8.121  1.00  0.00     0.031 A 
ATOM     58  C   UNL     1     -15.701   6.342  14.187  1.00  0.00     0.049 A 
ATOM     59  C   UNL     1     -14.967   4.913   8.833  1.00  0.00     0.074 A 
ATOM     60  C   UNL     1     -16.965   6.153  14.717  1.00  0.00     0.029 A 
ATOM     61  N   UNL     1     -15.748   5.906  12.873  1.00  0.00    -0.354 N 
ATOM     62  N   UNL     1     -15.292   5.200  10.070  1.00  0.00    -0.248 NA
ATOM     63  C   UNL     1     -16.045   4.289   8.053  1.00  0.00     0.031 C 
ATOM     64  C   UNL     1     -17.767   5.562  13.734  1.00  0.00     0.029 A 
ATOM     65  C   UNL     1     -17.014   5.427  12.579  1.00  0.00     0.049 A 
ATOM     66  H   UNL     1     -14.994   5.934  12.241  1.00  0.00     0.167 HD
ATOM     67  C   UNL     1     -16.618   4.814  10.211  1.00  0.00     0.074 A 
ATOM     68  C   UNL     1     -17.040   4.283   8.930  1.00  0.00     0.031 C 
ATOM     69  C   UNL     1     -17.416   4.895  11.303  1.00  0.00     0.031 A 
BRANCH  56  70
ATOM     70  C   UNL     1     -14.608   7.220  16.291  1.00  0.00    -0.014 A 
ATOM     71  C   UNL     1     -14.603   8.555  16.728  1.00  0.00     0.009 A 
ATOM     72  C   UNL     1     -14.704   6.194  17.243  1.00  0.00     0.009 A 
ATOM     73  C   UNL     1     -14.650   8.852  18.092  1.00  0.00     0.001 A 
ATOM     74  C   UNL     1     -14.778   6.495  18.604  1.00  0.00     0.001 A 
ATOM     75  C   UNL     1     -14.740   7.823  19.028  1.00  0.00     0.000 A 
ENDBRANCH  56  70
BRANCH  57  76
ATOM     76  C   UNL     1     -13.503   4.764   6.694  1.00  0.00    -0.014 A 
ATOM     77  C   UNL     1     -14.122   5.522   5.689  1.00  0.00     0.009 A 
ATOM     78  C   UNL     1     -12.720   3.658   6.329  1.00  0.00     0.009 A 
ATOM     79  C   UNL     1     -13.974   5.170   4.346  1.00  0.00     0.001 A 
ATOM     80  C   UNL     1     -12.555   3.322   4.984  1.00  0.00     0.001 A 
ATOM     81  C   UNL     1     -13.186   4.074   3.994  1.00  0.00     0.000 A 
ENDBRANCH  57  76
BRANCH  69  82
ATOM     82  C   UNL     1     -18.833   4.423  11.152  1.00  0.00    -0.014 A 
ATOM     83  C   UNL     1     -19.140   3.055  11.090  1.00  0.00     0.009 A 
ATOM     84  C   UNL     1     -19.877   5.359  11.106  1.00  0.00     0.009 A 
ATOM     85  C   UNL     1     -20.465   2.635  10.956  1.00  0.00     0.001 A 
ATOM     86  C   UNL     1     -21.202   4.936  10.996  1.00  0.00     0.001 A 
ATOM     87  C   UNL     1     -21.494   3.575  10.913  1.00  0.00     0.000 A 
ENDBRANCH  69  82
ENDBRANCH  43  44
ENDBRANCH  35  38
ENDBRANCH  33  34
ENDBRANCH  32  33
ENDBRANCH  31  32
ENDBRANCH   3  31
TORSDOF 16
