REMARK SMILES O=C(NCCCNC(=O)C1CN(S(=O)(=O)c2ccc(F)cc2)C1)c1ccc(-c2c3nc(c(-c4ccccc4)c4ccc([nH]4)c(-c4ccccc4)c4nc(c(-c5ccccc5)c5ccc2[nH]5)C=C4)C=C3)cc1
REMARK SMILES IDX 5 1 4 2 3 3 1 4 2 5 24 7 25 8 71 9 26 10 70 11 27 12 28 13
REMARK SMILES IDX 29 14 64 15 30 16 69 17 63 18 65 19 31 20 68 21 62 22 61 23
REMARK SMILES IDX 32 25 54 26 39 27 53 28 40 29 43 30 52 31 66 32 41 33 42 34
REMARK SMILES IDX 51 36 67 37 44 38 33 39 34 40 38 41 35 42 37 43 36 44 55 45
REMARK SMILES IDX 56 46 60 47 57 48 59 49 58 50 45 51 46 52 50 53 47 54 49 55
REMARK SMILES IDX 48 56 6 57 7 58 8 59 9 61 10 62 11 63 23 64 12 65 13 66
REMARK SMILES IDX 14 67 15 68 16 69 17 70 22 71 18 72 21 73 19 74 20 75
REMARK H PARENT 3 6 65 24 43 35 7 60
REMARK Flexibility Score: inf
ROOT
ATOM      1  C   UNL     1       4.770   2.056  -1.552  1.00  0.00     0.042 C 
ENDROOT
BRANCH   1   2
ATOM      2  C   UNL     1       4.491   1.322  -0.246  1.00  0.00     0.118 C 
BRANCH   2   3
ATOM      3  N   UNL     1       3.072   1.080  -0.029  1.00  0.00    -0.352 N 
ATOM      4  O   UNL     1       1.151  -0.081   0.104  1.00  0.00    -0.269 OA
ATOM      5  C   UNL     1       2.379  -0.098   0.105  1.00  0.00     0.251 C 
ATOM      6  H   UNL     1       2.519   1.893   0.030  1.00  0.00     0.163 HD
BRANCH   5   7
ATOM      7  C   UNL     1       3.094  -1.385   0.238  1.00  0.00     0.039 A 
ATOM      8  C   UNL     1       4.232  -1.499   1.038  1.00  0.00     0.014 A 
ATOM      9  C   UNL     1       2.581  -2.515  -0.410  1.00  0.00     0.014 A 
ATOM     10  C   UNL     1       4.932  -2.700   1.081  1.00  0.00     0.010 A 
ATOM     11  C   UNL     1       3.238  -3.743  -0.297  1.00  0.00     0.010 A 
ATOM     12  C   UNL     1       4.435  -3.839   0.428  1.00  0.00    -0.014 A 
BRANCH  12  13
ATOM     13  C   UNL     1       5.147  -5.131   0.582  1.00  0.00     0.031 A 
ATOM     14  C   UNL     1       5.808  -5.802  -0.588  1.00  0.00     0.074 A 
ATOM     15  C   UNL     1       5.221  -5.684   1.808  1.00  0.00     0.049 A 
ATOM     16  N   UNL     1       6.509  -6.909  -0.611  1.00  0.00    -0.248 NA
ATOM     17  C   UNL     1       5.662  -5.157  -1.902  1.00  0.00     0.031 C 
ATOM     18  C   UNL     1       4.611  -5.132   3.021  1.00  0.00     0.029 A 
ATOM     19  N   UNL     1       5.860  -6.816   2.244  1.00  0.00    -0.354 N 
ATOM     20  C   UNL     1       6.872  -7.102  -1.937  1.00  0.00     0.074 A 
ATOM     21  C   UNL     1       6.297  -6.011  -2.695  1.00  0.00     0.031 C 
ATOM     22  C   UNL     1       4.949  -5.895   4.070  1.00  0.00     0.029 A 
ATOM     23  C   UNL     1       5.749  -7.019   3.598  1.00  0.00     0.049 A 
ATOM     24  H   UNL     1       6.351  -7.424   1.645  1.00  0.00     0.167 HD
ATOM     25  C   UNL     1       7.620  -8.096  -2.474  1.00  0.00     0.031 A 
ATOM     26  C   UNL     1       6.228  -8.005   4.377  1.00  0.00     0.031 A 
ATOM     27  C   UNL     1       8.193  -9.181  -1.720  1.00  0.00     0.049 A 
ATOM     28  C   UNL     1       7.034  -9.104   3.752  1.00  0.00     0.074 A 
ATOM     29  C   UNL     1       8.993 -10.217  -2.172  1.00  0.00     0.029 A 
ATOM     30  N   UNL     1       8.023  -9.373  -0.358  1.00  0.00    -0.354 N 
ATOM     31  N   UNL     1       7.396  -9.250   2.501  1.00  0.00    -0.248 NA
ATOM     32  C   UNL     1       7.494 -10.174   4.647  1.00  0.00     0.031 C 
ATOM     33  C   UNL     1       9.271 -11.060  -1.090  1.00  0.00     0.029 A 
ATOM     34  C   UNL     1       8.683 -10.523   0.043  1.00  0.00     0.049 A 
ATOM     35  H   UNL     1       7.510  -8.779   0.237  1.00  0.00     0.167 HD
ATOM     36  C   UNL     1       8.136 -10.423   2.459  1.00  0.00     0.074 A 
ATOM     37  C   UNL     1       8.189 -10.936   3.813  1.00  0.00     0.031 C 
ATOM     38  C   UNL     1       8.716 -11.024   1.392  1.00  0.00     0.031 A 
BRANCH  25  39
ATOM     39  C   UNL     1       7.844  -8.072  -3.959  1.00  0.00    -0.014 A 
ATOM     40  C   UNL     1       8.727  -7.154  -4.548  1.00  0.00     0.009 A 
ATOM     41  C   UNL     1       7.199  -9.014  -4.776  1.00  0.00     0.009 A 
ATOM     42  C   UNL     1       8.939  -7.163  -5.929  1.00  0.00     0.001 A 
ATOM     43  C   UNL     1       7.430  -9.036  -6.153  1.00  0.00     0.001 A 
ATOM     44  C   UNL     1       8.294  -8.106  -6.729  1.00  0.00     0.000 A 
ENDBRANCH  25  39
BRANCH  26  45
ATOM     45  C   UNL     1       5.947  -7.994   5.834  1.00  0.00    -0.014 A 
ATOM     46  C   UNL     1       6.966  -7.714   6.756  1.00  0.00     0.009 A 
ATOM     47  C   UNL     1       4.649  -8.244   6.308  1.00  0.00     0.009 A 
ATOM     48  C   UNL     1       6.693  -7.700   8.126  1.00  0.00     0.001 A 
ATOM     49  C   UNL     1       4.374  -8.202   7.675  1.00  0.00     0.001 A 
ATOM     50  C   UNL     1       5.398  -7.937   8.583  1.00  0.00     0.000 A 
ENDBRANCH  26  45
BRANCH  38  51
ATOM     51  C   UNL     1       9.470 -12.294   1.657  1.00  0.00    -0.014 A 
ATOM     52  C   UNL     1       8.793 -13.496   1.917  1.00  0.00     0.009 A 
ATOM     53  C   UNL     1      10.872 -12.291   1.627  1.00  0.00     0.009 A 
ATOM     54  C   UNL     1       9.510 -14.666   2.173  1.00  0.00     0.001 A 
ATOM     55  C   UNL     1      11.586 -13.468   1.861  1.00  0.00     0.001 A 
ATOM     56  C   UNL     1      10.905 -14.651   2.142  1.00  0.00     0.000 A 
ENDBRANCH  38  51
ENDBRANCH  12  13
ENDBRANCH   5   7
ENDBRANCH   2   3
ENDBRANCH   1   2
BRANCH   1  57
ATOM     57  C   UNL     1       4.186   3.462  -1.605  1.00  0.00     0.117 C 
BRANCH  57  58
ATOM     58  N   UNL     1       4.808   4.354  -0.637  1.00  0.00    -0.356 N 
ATOM     59  C   UNL     1       5.675   5.400  -0.860  1.00  0.00     0.225 C 
ATOM     60  H   UNL     1       4.575   4.188   0.305  1.00  0.00     0.163 HD
ATOM     61  O   UNL     1       6.101   6.009   0.126  1.00  0.00    -0.275 OA
BRANCH  59  62
ATOM     62  C   UNL     1       6.050   5.734  -2.302  1.00  0.00     0.109 C 
ATOM     63  C   UNL     1       6.652   7.109  -2.656  1.00  0.00     0.117 C 
ATOM     64  C   UNL     1       7.401   5.197  -2.821  1.00  0.00     0.117 C 
ATOM     65  N   UNL     1       7.511   6.418  -3.706  1.00  0.00    -0.196 NA
BRANCH  65  66
ATOM     66  S   UNL     1       6.989   6.361  -5.349  1.00  0.00     0.243 S 
ATOM     67  O   UNL     1       6.076   5.247  -5.489  1.00  0.00    -0.207 OA
ATOM     68  O   UNL     1       6.603   7.704  -5.728  1.00  0.00    -0.207 OA
BRANCH  66  69
ATOM     69  C   UNL     1       8.474   5.938  -6.225  1.00  0.00     0.082 A 
ATOM     70  C   UNL     1       9.110   4.718  -5.963  1.00  0.00     0.025 A 
ATOM     71  C   UNL     1       8.957   6.796  -7.220  1.00  0.00     0.025 A 
ATOM     72  C   UNL     1      10.248   4.367  -6.691  1.00  0.00     0.040 A 
ATOM     73  C   UNL     1      10.088   6.432  -7.951  1.00  0.00     0.040 A 
ATOM     74  C   UNL     1      10.723   5.224  -7.678  1.00  0.00     0.123 A 
ATOM     75  F   UNL     1      11.806   4.876  -8.386  1.00  0.00    -0.207 F 
ENDBRANCH  66  69
ENDBRANCH  65  66
ENDBRANCH  59  62
ENDBRANCH  57  58
ENDBRANCH   1  57
TORSDOF 12
