REMARK SMILES Cc1ccc(NS(=O)(=O)N2CCCC[C@@H]2C(=O)NCCCNC(=O)c2ccc(-c3c4nc(c(-c5ccccc5)c5ccc([nH]5)c(-c5ccccc5)c5nc(c(-c6ccccc6)c6ccc3[nH]6)C=C5)C=C4)cc2)c(C)n1
REMARK SMILES IDX 19 1 18 2 16 3 17 4 15 6 10 7 11 8 12 9 14 10 13 11 7 12
REMARK SMILES IDX 8 13 9 14 6 15 5 17 1 18 2 19 3 20 75 21 4 22 73 23 74 24
REMARK SMILES IDX 20 25 21 26 22 27 23 28 24 30 25 31 26 32 72 33 27 34 71 35
REMARK SMILES IDX 28 36 29 37 30 38 65 39 31 40 70 41 64 42 66 43 32 44 69 45
REMARK SMILES IDX 63 46 62 47 33 49 55 50 40 51 54 52 41 53 44 54 53 55 67 56
REMARK SMILES IDX 42 57 43 58 52 60 68 61 45 62 34 63 35 64 39 65 36 66 38 67
REMARK SMILES IDX 37 68 56 69 57 70 61 71 58 72 60 73 59 74 46 75 47 76 51 77
REMARK SMILES IDX 48 78 50 79 49 80
REMARK H PARENT 18 5 6 16 22 29 66 48 44 59
REMARK Flexibility Score: inf
ROOT
ATOM      1  C   UNL     1       0.137   1.420  -0.967  1.00  0.00     0.117 C 
ENDROOT
BRANCH   1   2
ATOM      2  N   UNL     1       0.835   0.752  -2.057  1.00  0.00    -0.355 N 
ATOM      3  C   UNL     1       2.135   0.609  -2.416  1.00  0.00     0.238 C 
ATOM      4  O   UNL     1       2.319  -0.234  -3.307  1.00  0.00    -0.273 OA
ATOM      5  H   UNL     1       0.220   0.299  -2.677  1.00  0.00     0.163 HD
BRANCH   3   6
ATOM      6  C   UNL     1       3.326   1.393  -1.851  1.00  0.00     0.163 C 
ATOM      7  N   UNL     1       3.901   0.941  -0.528  1.00  0.00    -0.172 NA
ATOM      8  C   UNL     1       5.140   1.718  -0.191  1.00  0.00     0.105 C 
ATOM      9  C   UNL     1       4.826   3.204  -0.107  1.00  0.00     0.017 C 
ATOM     10  C   UNL     1       3.079   2.911  -1.859  1.00  0.00     0.030 C 
ATOM     11  C   UNL     1       4.310   3.709  -1.444  1.00  0.00     0.004 C 
BRANCH   7  12
ATOM     12  S   UNL     1       4.200  -0.736  -0.399  1.00  0.00     0.302 S 
ATOM     13  O   UNL     1       4.966  -1.005   0.795  1.00  0.00    -0.189 OA
ATOM     14  O   UNL     1       4.688  -1.206  -1.672  1.00  0.00    -0.189 OA
BRANCH  12  15
ATOM     15  N   UNL     1       2.689  -1.361  -0.178  1.00  0.00    -0.269 N 
ATOM     16  H   UNL     1       2.354  -1.948  -0.894  1.00  0.00     0.181 HD
BRANCH  15  17
ATOM     17  C   UNL     1       1.802  -1.152   0.936  1.00  0.00     0.071 A 
ATOM     18  C   UNL     1      -1.704   0.093   3.004  1.00  0.00     0.067 C 
ATOM     19  C   UNL     1      -0.464  -0.502   2.417  1.00  0.00     0.038 A 
ATOM     20  C   UNL     1      -0.510  -1.603   1.585  1.00  0.00     0.026 A 
ATOM     21  N   UNL     1       0.675   0.189   2.609  1.00  0.00    -0.256 NA
ATOM     22  C   UNL     1       0.621  -1.910   0.831  1.00  0.00     0.030 A 
ATOM     23  C   UNL     1       1.805  -0.150   1.919  1.00  0.00     0.062 A 
ATOM     24  C   UNL     1       2.953   0.701   2.343  1.00  0.00     0.069 C 
ENDBRANCH  15  17
ENDBRANCH  12  15
ENDBRANCH   7  12
ENDBRANCH   3   6
ENDBRANCH   1   2
BRANCH   1  25
ATOM     25  C   UNL     1      -1.317   1.772  -1.304  1.00  0.00     0.042 C 
BRANCH  25  26
ATOM     26  C   UNL     1      -2.184   0.615  -1.803  1.00  0.00     0.118 C 
BRANCH  26  27
ATOM     27  N   UNL     1      -2.599  -0.333  -0.780  1.00  0.00    -0.352 N 
ATOM     28  C   UNL     1      -3.677  -0.358   0.071  1.00  0.00     0.251 C 
ATOM     29  H   UNL     1      -1.992  -1.101  -0.678  1.00  0.00     0.163 HD
ATOM     30  O   UNL     1      -3.778  -1.267   0.893  1.00  0.00    -0.269 OA
BRANCH  28  31
ATOM     31  C   UNL     1      -4.707   0.701   0.051  1.00  0.00     0.039 A 
ATOM     32  C   UNL     1      -5.204   1.192   1.268  1.00  0.00     0.014 A 
ATOM     33  C   UNL     1      -5.252   1.151  -1.147  1.00  0.00     0.014 A 
ATOM     34  C   UNL     1      -6.202   2.174   1.277  1.00  0.00     0.010 A 
ATOM     35  C   UNL     1      -6.179   2.184  -1.143  1.00  0.00     0.010 A 
ATOM     36  C   UNL     1      -6.680   2.691   0.067  1.00  0.00    -0.014 A 
BRANCH  36  37
ATOM     37  C   UNL     1      -7.765   3.697  -0.016  1.00  0.00     0.031 A 
ATOM     38  C   UNL     1      -9.039   3.320  -0.722  1.00  0.00     0.074 A 
ATOM     39  C   UNL     1      -7.549   4.966   0.378  1.00  0.00     0.049 A 
ATOM     40  N   UNL     1      -9.976   4.087  -1.212  1.00  0.00    -0.248 NA
ATOM     41  C   UNL     1      -9.250   1.881  -0.960  1.00  0.00     0.031 C 
ATOM     42  C   UNL     1      -6.348   5.457   1.055  1.00  0.00     0.029 A 
ATOM     43  N   UNL     1      -8.324   6.087   0.214  1.00  0.00    -0.354 N 
ATOM     44  C   UNL     1     -10.846   3.232  -1.880  1.00  0.00     0.074 A 
ATOM     45  C   UNL     1     -10.318   1.893  -1.743  1.00  0.00     0.031 C 
ATOM     46  C   UNL     1      -6.458   6.784   1.233  1.00  0.00     0.029 A 
ATOM     47  C   UNL     1      -7.710   7.240   0.639  1.00  0.00     0.049 A 
ATOM     48  H   UNL     1      -9.230   6.066  -0.170  1.00  0.00     0.167 HD
ATOM     49  C   UNL     1     -11.982   3.540  -2.548  1.00  0.00     0.031 A 
ATOM     50  C   UNL     1      -8.100   8.524   0.527  1.00  0.00     0.031 A 
ATOM     51  C   UNL     1     -12.526   4.869  -2.625  1.00  0.00     0.049 A 
ATOM     52  C   UNL     1      -9.399   8.835  -0.163  1.00  0.00     0.074 A 
ATOM     53  C   UNL     1     -13.716   5.284  -3.196  1.00  0.00     0.029 A 
ATOM     54  N   UNL     1     -11.918   5.996  -2.095  1.00  0.00    -0.354 N 
ATOM     55  N   UNL     1     -10.232   8.018  -0.761  1.00  0.00    -0.248 NA
ATOM     56  C   UNL     1      -9.814  10.245  -0.189  1.00  0.00     0.031 C 
ATOM     57  C   UNL     1     -13.813   6.670  -3.038  1.00  0.00     0.029 A 
ATOM     58  C   UNL     1     -12.704   7.109  -2.332  1.00  0.00     0.049 A 
ATOM     59  H   UNL     1     -11.056   6.004  -1.620  1.00  0.00     0.167 HD
ATOM     60  C   UNL     1     -11.280   8.809  -1.213  1.00  0.00     0.074 A 
ATOM     61  C   UNL     1     -10.985  10.167  -0.806  1.00  0.00     0.031 C 
ATOM     62  C   UNL     1     -12.387   8.447  -1.907  1.00  0.00     0.031 A 
BRANCH  49  63
ATOM     63  C   UNL     1     -12.701   2.427  -3.259  1.00  0.00    -0.014 A 
ATOM     64  C   UNL     1     -13.371   1.416  -2.552  1.00  0.00     0.009 A 
ATOM     65  C   UNL     1     -12.731   2.406  -4.662  1.00  0.00     0.009 A 
ATOM     66  C   UNL     1     -14.022   0.387  -3.236  1.00  0.00     0.001 A 
ATOM     67  C   UNL     1     -13.408   1.393  -5.344  1.00  0.00     0.001 A 
ATOM     68  C   UNL     1     -14.044   0.378  -4.630  1.00  0.00     0.000 A 
ENDBRANCH  49  63
BRANCH  50  69
ATOM     69  C   UNL     1      -7.250   9.612   1.076  1.00  0.00    -0.014 A 
ATOM     70  C   UNL     1      -7.640  10.299   2.236  1.00  0.00     0.009 A 
ATOM     71  C   UNL     1      -6.045   9.969   0.449  1.00  0.00     0.009 A 
ATOM     72  C   UNL     1      -6.855  11.338   2.742  1.00  0.00     0.001 A 
ATOM     73  C   UNL     1      -5.249  10.990   0.974  1.00  0.00     0.001 A 
ATOM     74  C   UNL     1      -5.659  11.679   2.114  1.00  0.00     0.000 A 
ENDBRANCH  50  69
BRANCH  62  75
ATOM     75  C   UNL     1     -13.373   9.531  -2.231  1.00  0.00    -0.014 A 
ATOM     76  C   UNL     1     -13.117  10.465  -3.245  1.00  0.00     0.009 A 
ATOM     77  C   UNL     1     -14.594   9.585  -1.541  1.00  0.00     0.009 A 
ATOM     78  C   UNL     1     -14.056  11.453  -3.543  1.00  0.00     0.001 A 
ATOM     79  C   UNL     1     -15.541  10.559  -1.859  1.00  0.00     0.001 A 
ATOM     80  C   UNL     1     -15.268  11.496  -2.853  1.00  0.00     0.000 A 
ENDBRANCH  62  75
ENDBRANCH  36  37
ENDBRANCH  28  31
ENDBRANCH  26  27
ENDBRANCH  25  26
ENDBRANCH   1  25
TORSDOF 13
