REMARK SMILES CC[C@H](c1ccc(OC)cc1)[N@H+]1CC[C@H](C(=O)NCCCNC(=O)c2ccc(-c3c4nc(c(-c5ccccc5)c5ccc([nH]5)c(-c5ccccc5)c5nc(c(-c6ccccc6)c6ccc3[nH]6)C=C5)C=C4)cc2)[C@@H]1C
REMARK SMILES IDX 19 1 18 2 16 3 17 4 15 6 12 7 13 8 73 9 14 11 74 12 3 13
REMARK SMILES IDX 2 14 1 15 4 16 5 17 11 18 6 19 10 20 7 21 8 22 9 23 20 24
REMARK SMILES IDX 21 25 22 26 23 27 24 29 25 30 26 31 72 32 27 33 71 34 28 35
REMARK SMILES IDX 29 36 30 37 65 38 31 39 70 40 64 41 66 42 32 43 69 44 63 45
REMARK SMILES IDX 62 46 33 48 55 49 40 50 54 51 41 52 44 53 53 54 67 55 42 56
REMARK SMILES IDX 43 57 52 59 68 60 45 61 34 62 35 63 39 64 36 65 38 66 37 67
REMARK SMILES IDX 56 68 57 69 61 70 58 71 60 72 59 73 46 74 47 75 51 76 48 77
REMARK SMILES IDX 50 78 49 79
REMARK H PARENT 18 5 12 10 22 28 66 47 44 58
REMARK Flexibility Score: inf
ROOT
ATOM      1  C   UNL     1      -0.615   3.529   5.662  1.00  0.00     0.117 C 
ENDROOT
BRANCH   1   2
ATOM      2  N   UNL     1       0.452   3.211   6.592  1.00  0.00    -0.356 N 
ATOM      3  C   UNL     1       1.729   2.807   6.416  1.00  0.00     0.229 C 
ATOM      4  O   UNL     1       2.428   2.806   7.440  1.00  0.00    -0.275 OA
ATOM      5  H   UNL     1       0.194   3.309   7.537  1.00  0.00     0.163 HD
BRANCH   3   6
ATOM      6  C   UNL     1       2.328   2.256   5.127  1.00  0.00     0.142 C 
ATOM      7  N   UNL     1       0.937   1.906   3.169  1.00  0.00    -0.326 N 
ATOM      8  C   UNL     1       0.862   0.719   4.046  1.00  0.00     0.264 C 
ATOM      9  C   UNL     1       1.999   2.795   3.733  1.00  0.00     0.194 C 
ATOM     10  H   UNL     1       0.032   2.375   3.172  1.00  0.00     0.348 HD
ATOM     11  C   UNL     1       2.035   0.775   4.998  1.00  0.00     0.081 C 
ATOM     12  C   UNL     1       1.730   4.301   3.674  1.00  0.00     0.076 C 
BRANCH   7  13
ATOM     13  C   UNL     1       1.123   1.613   1.719  1.00  0.00     0.215 C 
BRANCH  13  14
ATOM     14  C   UNL     1       0.681   2.829   0.864  1.00  0.00     0.067 C 
ATOM     15  C   UNL     1       0.842   2.629  -0.640  1.00  0.00     0.010 C 
ENDBRANCH  13  14
BRANCH  13  16
ATOM     16  C   UNL     1       0.411   0.346   1.240  1.00  0.00     0.010 A 
ATOM     17  C   UNL     1      -0.981   0.197   1.295  1.00  0.00     0.014 A 
ATOM     18  C   UNL     1       1.181  -0.723   0.750  1.00  0.00     0.014 A 
ATOM     19  C   UNL     1      -1.580  -0.991   0.863  1.00  0.00     0.047 A 
ATOM     20  C   UNL     1       0.579  -1.908   0.320  1.00  0.00     0.047 A 
ATOM     21  C   UNL     1      -0.807  -2.044   0.366  1.00  0.00     0.118 A 
BRANCH  21  22
ATOM     22  O   UNL     1      -1.512  -3.148  -0.029  1.00  0.00    -0.497 OA
ATOM     23  C   UNL     1      -0.775  -4.165  -0.699  1.00  0.00     0.278 C 
ENDBRANCH  21  22
ENDBRANCH  13  16
ENDBRANCH   7  13
ENDBRANCH   3   6
ENDBRANCH   1   2
BRANCH   1  24
ATOM     24  C   UNL     1      -1.960   2.974   6.091  1.00  0.00     0.042 C 
BRANCH  24  25
ATOM     25  C   UNL     1      -2.474   3.550   7.400  1.00  0.00     0.118 C 
BRANCH  25  26
ATOM     26  N   UNL     1      -2.736   4.984   7.332  1.00  0.00    -0.352 N 
ATOM     27  C   UNL     1      -3.923   5.668   7.443  1.00  0.00     0.251 C 
ATOM     28  H   UNL     1      -1.942   5.547   7.185  1.00  0.00     0.163 HD
ATOM     29  O   UNL     1      -3.975   6.869   7.195  1.00  0.00    -0.269 OA
BRANCH  27  30
ATOM     30  C   UNL     1      -5.147   4.941   7.832  1.00  0.00     0.039 A 
ATOM     31  C   UNL     1      -6.326   5.145   7.111  1.00  0.00     0.014 A 
ATOM     32  C   UNL     1      -5.114   4.024   8.882  1.00  0.00     0.014 A 
ATOM     33  C   UNL     1      -7.444   4.353   7.381  1.00  0.00     0.010 A 
ATOM     34  C   UNL     1      -6.187   3.166   9.076  1.00  0.00     0.010 A 
ATOM     35  C   UNL     1      -7.364   3.320   8.328  1.00  0.00    -0.014 A 
BRANCH  35  36
ATOM     36  C   UNL     1      -8.488   2.381   8.575  1.00  0.00     0.031 A 
ATOM     37  C   UNL     1      -9.078   2.278   9.955  1.00  0.00     0.074 A 
ATOM     38  C   UNL     1      -8.894   1.544   7.600  1.00  0.00     0.049 A 
ATOM     39  N   UNL     1      -9.930   1.405  10.427  1.00  0.00    -0.248 NA
ATOM     40  C   UNL     1      -8.613   3.261  10.947  1.00  0.00     0.031 C 
ATOM     41  C   UNL     1      -8.373   1.509   6.231  1.00  0.00     0.029 A 
ATOM     42  N   UNL     1      -9.833   0.543   7.622  1.00  0.00    -0.354 N 
ATOM     43  C   UNL     1     -10.065   1.705  11.776  1.00  0.00     0.074 A 
ATOM     44  C   UNL     1      -9.175   2.810  12.057  1.00  0.00     0.031 C 
ATOM     45  C   UNL     1      -9.017   0.555   5.540  1.00  0.00     0.029 A 
ATOM     46  C   UNL     1      -9.958  -0.122   6.425  1.00  0.00     0.049 A 
ATOM     47  H   UNL     1     -10.366   0.322   8.419  1.00  0.00     0.167 HD
ATOM     48  C   UNL     1     -10.870   1.126  12.697  1.00  0.00     0.031 A 
ATOM     49  C   UNL     1     -10.734  -1.167   6.084  1.00  0.00     0.031 A 
ATOM     50  C   UNL     1     -11.785   0.057  12.408  1.00  0.00     0.049 A 
ATOM     51  C   UNL     1     -11.641  -1.776   7.117  1.00  0.00     0.074 A 
ATOM     52  C   UNL     1     -12.695  -0.552  13.253  1.00  0.00     0.029 A 
ATOM     53  N   UNL     1     -11.915  -0.552  11.170  1.00  0.00    -0.354 N 
ATOM     54  N   UNL     1     -11.793  -1.448   8.377  1.00  0.00    -0.248 NA
ATOM     55  C   UNL     1     -12.490  -2.892   6.676  1.00  0.00     0.031 C 
ATOM     56  C   UNL     1     -13.353  -1.555  12.534  1.00  0.00     0.029 A 
ATOM     57  C   UNL     1     -12.884  -1.537  11.230  1.00  0.00     0.049 A 
ATOM     58  H   UNL     1     -11.394  -0.319  10.367  1.00  0.00     0.167 HD
ATOM     59  C   UNL     1     -12.776  -2.295   8.871  1.00  0.00     0.074 A 
ATOM     60  C   UNL     1     -13.190  -3.145   7.774  1.00  0.00     0.031 C 
ATOM     61  C   UNL     1     -13.292  -2.361  10.122  1.00  0.00     0.031 A 
BRANCH  48  62
ATOM     62  C   UNL     1     -10.792   1.645  14.106  1.00  0.00    -0.014 A 
ATOM     63  C   UNL     1     -11.276   2.920  14.440  1.00  0.00     0.009 A 
ATOM     64  C   UNL     1     -10.244   0.840  15.116  1.00  0.00     0.009 A 
ATOM     65  C   UNL     1     -11.173   3.395  15.749  1.00  0.00     0.001 A 
ATOM     66  C   UNL     1     -10.170   1.306  16.430  1.00  0.00     0.001 A 
ATOM     67  C   UNL     1     -10.624   2.586  16.743  1.00  0.00     0.000 A 
ENDBRANCH  48  62
BRANCH  49  68
ATOM     68  C   UNL     1     -10.706  -1.694   4.695  1.00  0.00    -0.014 A 
ATOM     69  C   UNL     1     -11.790  -1.469   3.832  1.00  0.00     0.009 A 
ATOM     70  C   UNL     1      -9.603  -2.422   4.223  1.00  0.00     0.009 A 
ATOM     71  C   UNL     1     -11.781  -1.983   2.534  1.00  0.00     0.001 A 
ATOM     72  C   UNL     1      -9.586  -2.913   2.915  1.00  0.00     0.001 A 
ATOM     73  C   UNL     1     -10.678  -2.701   2.075  1.00  0.00     0.000 A 
ENDBRANCH  49  68
BRANCH  61  74
ATOM     74  C   UNL     1     -14.398  -3.347  10.360  1.00  0.00    -0.014 A 
ATOM     75  C   UNL     1     -14.139  -4.721  10.466  1.00  0.00     0.009 A 
ATOM     76  C   UNL     1     -15.710  -2.881  10.540  1.00  0.00     0.009 A 
ATOM     77  C   UNL     1     -15.181  -5.614  10.723  1.00  0.00     0.001 A 
ATOM     78  C   UNL     1     -16.744  -3.774  10.822  1.00  0.00     0.001 A 
ATOM     79  C   UNL     1     -16.480  -5.140  10.907  1.00  0.00     0.000 A 
ENDBRANCH  61  74
ENDBRANCH  35  36
ENDBRANCH  27  30
ENDBRANCH  25  26
ENDBRANCH  24  25
ENDBRANCH   1  24
TORSDOF 14
