REMARK SMILES C[C@H]1[C@@H](C(=O)NCCCNC(=O)c2ccc(-c3c4nc(c(-c5ccccc5)c5ccc([nH]5)c(-c5ccccc5)c5nc(c(-c6ccccc6)c6ccc3[nH]6)C=C5)C=C4)cc2)CC[N@@H+]1Cc1ccn(-c2ccccc2)n1
REMARK SMILES IDX 7 1 6 2 4 3 5 4 3 6 1 7 2 8 63 9 61 10 62 11 64 13 65 14
REMARK SMILES IDX 66 15 75 16 67 17 68 18 69 19 70 20 74 21 71 22 73 23 72 24
REMARK SMILES IDX 8 25 9 26 10 27 11 28 12 30 13 31 14 32 60 33 15 34 59 35
REMARK SMILES IDX 16 36 17 37 18 38 53 39 19 40 58 41 52 42 54 43 20 44 57 45
REMARK SMILES IDX 51 46 50 47 21 49 43 50 28 51 42 52 29 53 32 54 41 55 55 56
REMARK SMILES IDX 30 57 31 58 40 60 56 61 33 62 22 63 23 64 27 65 24 66 26 67
REMARK SMILES IDX 25 68 44 69 45 70 49 71 46 72 48 73 47 74 34 75 35 76 39 77
REMARK SMILES IDX 36 78 38 79 37 80
REMARK H PARENT 6 5 63 12 10 29 54 48 32 59
REMARK Flexibility Score: inf
ROOT
ATOM      1  C   UNL     1       2.977   1.871  -0.993  1.00  0.00     0.117 C 
ENDROOT
BRANCH   1   2
ATOM      2  N   UNL     1       1.734   1.931  -1.736  1.00  0.00    -0.356 N 
ATOM      3  C   UNL     1       0.526   1.354  -1.492  1.00  0.00     0.229 C 
ATOM      4  O   UNL     1      -0.226   1.246  -2.464  1.00  0.00    -0.275 OA
ATOM      5  H   UNL     1       1.769   2.480  -2.553  1.00  0.00     0.163 HD
BRANCH   3   6
ATOM      6  C   UNL     1       0.089   1.013  -0.066  1.00  0.00     0.142 C 
ATOM      7  C   UNL     1       1.693  -1.086   0.042  1.00  0.00     0.076 C 
ATOM      8  C   UNL     1       0.510  -0.316   0.594  1.00  0.00     0.194 C 
ATOM      9  N   UNL     1      -0.646  -1.227   0.518  1.00  0.00    -0.327 N 
ATOM     10  C   UNL     1      -1.445   0.919  -0.028  1.00  0.00     0.081 C 
ATOM     11  C   UNL     1      -1.706  -0.563  -0.228  1.00  0.00     0.263 C 
ATOM     12  H   UNL     1      -0.398  -2.067  -0.005  1.00  0.00     0.348 HD
BRANCH   9  13
ATOM     13  C   UNL     1      -1.019  -1.825   1.808  1.00  0.00     0.321 C 
BRANCH  13  14
ATOM     14  C   UNL     1      -1.724  -0.907   2.769  1.00  0.00     0.117 A 
ATOM     15  C   UNL     1      -3.119  -0.702   2.856  1.00  0.00     0.052 A 
ATOM     16  N   UNL     1      -1.065  -0.200   3.703  1.00  0.00    -0.167 NA
ATOM     17  C   UNL     1      -3.289   0.127   3.932  1.00  0.00     0.115 A 
ATOM     18  N   UNL     1      -2.043   0.348   4.475  1.00  0.00    -0.241 N 
BRANCH  18  19
ATOM     19  C   UNL     1      -1.753   1.006   5.700  1.00  0.00     0.065 A 
ATOM     20  C   UNL     1      -2.762   1.188   6.659  1.00  0.00     0.028 A 
ATOM     21  C   UNL     1      -0.452   1.450   5.973  1.00  0.00     0.028 A 
ATOM     22  C   UNL     1      -2.471   1.805   7.877  1.00  0.00     0.002 A 
ATOM     23  C   UNL     1      -0.175   2.092   7.184  1.00  0.00     0.002 A 
ATOM     24  C   UNL     1      -1.182   2.264   8.135  1.00  0.00     0.000 A 
ENDBRANCH  18  19
ENDBRANCH  13  14
ENDBRANCH   9  13
ENDBRANCH   3   6
ENDBRANCH   1   2
BRANCH   1  25
ATOM     25  C   UNL     1       3.888   0.802  -1.602  1.00  0.00     0.042 C 
BRANCH  25  26
ATOM     26  C   UNL     1       4.401   1.145  -2.995  1.00  0.00     0.118 C 
BRANCH  26  27
ATOM     27  N   UNL     1       5.660   1.864  -2.946  1.00  0.00    -0.352 N 
ATOM     28  C   UNL     1       6.923   1.445  -3.269  1.00  0.00     0.251 C 
ATOM     29  H   UNL     1       5.596   2.796  -2.634  1.00  0.00     0.163 HD
ATOM     30  O   UNL     1       7.886   2.139  -2.925  1.00  0.00    -0.269 OA
BRANCH  28  31
ATOM     31  C   UNL     1       7.168   0.181  -4.006  1.00  0.00     0.039 A 
ATOM     32  C   UNL     1       8.312  -0.562  -3.690  1.00  0.00     0.014 A 
ATOM     33  C   UNL     1       6.345  -0.246  -5.052  1.00  0.00     0.014 A 
ATOM     34  C   UNL     1       8.611  -1.730  -4.397  1.00  0.00     0.010 A 
ATOM     35  C   UNL     1       6.595  -1.459  -5.697  1.00  0.00     0.010 A 
ATOM     36  C   UNL     1       7.747  -2.200  -5.399  1.00  0.00    -0.014 A 
BRANCH  36  37
ATOM     37  C   UNL     1       8.069  -3.429  -6.171  1.00  0.00     0.031 A 
ATOM     38  C   UNL     1       8.335  -3.351  -7.653  1.00  0.00     0.074 A 
ATOM     39  C   UNL     1       8.102  -4.625  -5.552  1.00  0.00     0.049 A 
ATOM     40  N   UNL     1       8.620  -4.314  -8.494  1.00  0.00    -0.248 NA
ATOM     41  C   UNL     1       8.245  -2.020  -8.276  1.00  0.00     0.031 C 
ATOM     42  C   UNL     1       7.823  -4.855  -4.133  1.00  0.00     0.029 A 
ATOM     43  N   UNL     1       8.387  -5.876  -6.041  1.00  0.00    -0.354 N 
ATOM     44  C   UNL     1       8.722  -3.709  -9.742  1.00  0.00     0.074 A 
ATOM     45  C   UNL     1       8.420  -2.307  -9.557  1.00  0.00     0.031 C 
ATOM     46  C   UNL     1       7.982  -6.160  -3.860  1.00  0.00     0.029 A 
ATOM     47  C   UNL     1       8.343  -6.863  -5.087  1.00  0.00     0.049 A 
ATOM     48  H   UNL     1       8.603  -6.049  -6.986  1.00  0.00     0.167 HD
ATOM     49  C   UNL     1       9.059  -4.261 -10.932  1.00  0.00     0.031 A 
ATOM     50  C   UNL     1       8.571  -8.187  -5.186  1.00  0.00     0.031 A 
ATOM     51  C   UNL     1       9.382  -5.649 -11.123  1.00  0.00     0.049 A 
ATOM     52  C   UNL     1       8.961  -8.774  -6.512  1.00  0.00     0.074 A 
ATOM     53  C   UNL     1       9.786  -6.291 -12.281  1.00  0.00     0.029 A 
ATOM     54  N   UNL     1       9.341  -6.611 -10.126  1.00  0.00    -0.354 N 
ATOM     55  N   UNL     1       9.111  -8.175  -7.668  1.00  0.00    -0.248 NA
ATOM     56  C   UNL     1       9.229 -10.219  -6.541  1.00  0.00     0.031 C 
ATOM     57  C   UNL     1       9.954  -7.650 -11.992  1.00  0.00     0.029 A 
ATOM     58  C   UNL     1       9.698  -7.844 -10.644  1.00  0.00     0.049 A 
ATOM     59  H   UNL     1       9.094  -6.442  -9.188  1.00  0.00     0.167 HD
ATOM     60  C   UNL     1       9.508  -9.165  -8.558  1.00  0.00     0.074 A 
ATOM     61  C   UNL     1       9.595 -10.399  -7.803  1.00  0.00     0.031 C 
ATOM     62  C   UNL     1       9.774  -9.062  -9.883  1.00  0.00     0.031 A 
BRANCH  49  63
ATOM     63  C   UNL     1       9.093  -3.349 -12.128  1.00  0.00    -0.014 A 
ATOM     64  C   UNL     1      10.102  -2.384 -12.275  1.00  0.00     0.009 A 
ATOM     65  C   UNL     1       8.117  -3.470 -13.129  1.00  0.00     0.009 A 
ATOM     66  C   UNL     1      10.110  -1.532 -13.382  1.00  0.00     0.001 A 
ATOM     67  C   UNL     1       8.144  -2.635 -14.248  1.00  0.00     0.001 A 
ATOM     68  C   UNL     1       9.133  -1.660 -14.368  1.00  0.00     0.000 A 
ENDBRANCH  49  63
BRANCH  50  69
ATOM     69  C   UNL     1       8.459  -9.047  -3.980  1.00  0.00    -0.014 A 
ATOM     70  C   UNL     1       9.610  -9.565  -3.367  1.00  0.00     0.009 A 
ATOM     71  C   UNL     1       7.202  -9.352  -3.436  1.00  0.00     0.009 A 
ATOM     72  C   UNL     1       9.502 -10.389  -2.244  1.00  0.00     0.001 A 
ATOM     73  C   UNL     1       7.100 -10.155  -2.298  1.00  0.00     0.001 A 
ATOM     74  C   UNL     1       8.249 -10.679  -1.708  1.00  0.00     0.000 A 
ENDBRANCH  50  69
BRANCH  62  75
ATOM     75  C   UNL     1      10.205 -10.314 -10.592  1.00  0.00    -0.014 A 
ATOM     76  C   UNL     1       9.287 -11.334 -10.887  1.00  0.00     0.009 A 
ATOM     77  C   UNL     1      11.541 -10.462 -10.994  1.00  0.00     0.009 A 
ATOM     78  C   UNL     1       9.707 -12.493 -11.541  1.00  0.00     0.001 A 
ATOM     79  C   UNL     1      11.953 -11.611 -11.670  1.00  0.00     0.001 A 
ATOM     80  C   UNL     1      11.038 -12.630 -11.934  1.00  0.00     0.000 A 
ENDBRANCH  62  75
ENDBRANCH  36  37
ENDBRANCH  28  31
ENDBRANCH  26  27
ENDBRANCH  25  26
ENDBRANCH   1  25
TORSDOF 13
