REMARK SMILES CC(C)C[C@@H](C)NS(=O)(=O)c1ccsc1C(=O)NCCCNC(=O)c1ccc(-c2c3nc(c(-c4ccccc4)c4ccc([nH]4)c(-c4ccccc4)c4nc(c(-c5ccccc5)c5ccc2[nH]5)C=C4)C=C3)cc1
REMARK SMILES IDX 16 1 17 2 18 3 15 5 11 6 12 7 13 8 14 9 8 10 9 11 10 12 7 13
REMARK SMILES IDX 5 15 6 16 4 17 2 18 1 19 3 20 19 21 20 22 21 23 22 24 23 25
REMARK SMILES IDX 24 27 25 28 26 29 72 30 27 31 71 32 28 33 29 34 30 35 65 36
REMARK SMILES IDX 31 37 70 38 64 39 66 40 32 41 69 42 63 43 62 44 33 46 55 47
REMARK SMILES IDX 40 48 54 49 41 50 44 51 53 52 67 53 42 54 43 55 52 57 68 58
REMARK SMILES IDX 45 59 34 60 35 61 39 62 36 63 38 64 37 65 56 66 57 67 61 68
REMARK SMILES IDX 58 69 60 70 59 71 46 72 47 73 51 74 48 75 50 76 49 77
REMARK H PARENT 18 4 7 14 22 26 66 45 44 56
REMARK Flexibility Score: inf
ROOT
ATOM      1  C   UNL     1      -2.531   4.643   2.486  1.00  0.00     0.262 C 
ATOM      2  O   UNL     1      -1.691   5.339   3.074  1.00  0.00    -0.268 OA
ATOM      3  N   UNL     1      -3.408   5.402   1.748  1.00  0.00    -0.351 N 
ATOM      4  H   UNL     1      -3.455   6.359   1.977  1.00  0.00     0.163 HD
ENDROOT
BRANCH   1   5
ATOM      5  C   UNL     1      -2.604   3.182   2.676  1.00  0.00     0.112 A 
ATOM      6  C   UNL     1      -2.969   2.007   2.007  1.00  0.00     0.106 A 
ATOM      7  C   UNL     1      -2.782   0.829   2.832  1.00  0.00     0.034 A 
ATOM      8  C   UNL     1      -2.272   1.093   4.071  1.00  0.00     0.067 A 
ATOM      9  S   UNL     1      -2.012   2.746   4.285  1.00  0.00    -0.137 S 
BRANCH   6  10
ATOM     10  S   UNL     1      -3.569   1.643   0.410  1.00  0.00     0.242 S 
ATOM     11  O   UNL     1      -3.515   2.796  -0.430  1.00  0.00    -0.207 OA
ATOM     12  O   UNL     1      -4.823   0.957   0.652  1.00  0.00    -0.207 OA
BRANCH  10  13
ATOM     13  N   UNL     1      -2.539   0.543  -0.331  1.00  0.00    -0.208 NA
ATOM     14  H   UNL     1      -2.566  -0.312   0.225  1.00  0.00     0.141 HD
BRANCH  13  15
ATOM     15  C   UNL     1      -1.103   0.901  -0.511  1.00  0.00     0.067 C 
ATOM     16  C   UNL     1      -0.868   2.300  -1.083  1.00  0.00     0.025 C 
BRANCH  15  17
ATOM     17  C   UNL     1      -0.512  -0.174  -1.439  1.00  0.00     0.022 C 
BRANCH  17  18
ATOM     18  C   UNL     1       1.020  -0.160  -1.564  1.00  0.00    -0.016 C 
ATOM     19  C   UNL     1       1.703  -0.323  -0.206  1.00  0.00     0.007 C 
ATOM     20  C   UNL     1       1.457  -1.272  -2.517  1.00  0.00     0.007 C 
ENDBRANCH  17  18
ENDBRANCH  15  17
ENDBRANCH  13  15
ENDBRANCH  10  13
ENDBRANCH   6  10
ENDBRANCH   1   5
BRANCH   3  21
ATOM     21  C   UNL     1      -4.258   4.965   0.690  1.00  0.00     0.118 C 
BRANCH  21  22
ATOM     22  C   UNL     1      -5.381   5.867   0.242  1.00  0.00     0.042 C 
BRANCH  22  23
ATOM     23  C   UNL     1      -4.926   7.041  -0.613  1.00  0.00     0.118 C 
BRANCH  23  24
ATOM     24  N   UNL     1      -4.288   6.680  -1.883  1.00  0.00    -0.352 N 
ATOM     25  C   UNL     1      -4.722   6.601  -3.187  1.00  0.00     0.251 C 
ATOM     26  H   UNL     1      -3.339   6.440  -1.780  1.00  0.00     0.163 HD
ATOM     27  O   UNL     1      -3.936   6.216  -4.052  1.00  0.00    -0.269 OA
BRANCH  25  28
ATOM     28  C   UNL     1      -6.117   6.911  -3.575  1.00  0.00     0.039 A 
ATOM     29  C   UNL     1      -6.713   6.195  -4.623  1.00  0.00     0.014 A 
ATOM     30  C   UNL     1      -6.855   7.896  -2.933  1.00  0.00     0.014 A 
ATOM     31  C   UNL     1      -8.065   6.389  -4.929  1.00  0.00     0.010 A 
ATOM     32  C   UNL     1      -8.227   7.976  -3.125  1.00  0.00     0.010 A 
ATOM     33  C   UNL     1      -8.853   7.232  -4.133  1.00  0.00    -0.014 A 
BRANCH  33  34
ATOM     34  C   UNL     1     -10.320   7.386  -4.329  1.00  0.00     0.031 A 
ATOM     35  C   UNL     1     -10.912   8.760  -4.526  1.00  0.00     0.074 A 
ATOM     36  C   UNL     1     -11.133   6.317  -4.211  1.00  0.00     0.049 A 
ATOM     37  N   UNL     1     -12.168   9.128  -4.530  1.00  0.00    -0.248 NA
ATOM     38  C   UNL     1      -9.963   9.876  -4.685  1.00  0.00     0.031 C 
ATOM     39  C   UNL     1     -10.704   4.939  -3.960  1.00  0.00     0.029 A 
ATOM     40  N   UNL     1     -12.502   6.228  -4.276  1.00  0.00    -0.354 N 
ATOM     41  C   UNL     1     -12.153  10.514  -4.634  1.00  0.00     0.074 A 
ATOM     42  C   UNL     1     -10.767  10.925  -4.632  1.00  0.00     0.031 C 
ATOM     43  C   UNL     1     -11.782   4.139  -3.935  1.00  0.00     0.029 A 
ATOM     44  C   UNL     1     -12.980   4.950  -4.115  1.00  0.00     0.049 A 
ATOM     45  H   UNL     1     -13.086   7.007  -4.423  1.00  0.00     0.167 HD
ATOM     46  C   UNL     1     -13.195  11.371  -4.749  1.00  0.00     0.031 A 
ATOM     47  C   UNL     1     -14.242   4.483  -4.106  1.00  0.00     0.031 A 
ATOM     48  C   UNL     1     -14.570  10.961  -4.816  1.00  0.00     0.049 A 
ATOM     49  C   UNL     1     -15.381   5.446  -4.287  1.00  0.00     0.074 A 
ATOM     50  C   UNL     1     -15.695  11.741  -5.018  1.00  0.00     0.029 A 
ATOM     51  N   UNL     1     -15.003   9.649  -4.702  1.00  0.00    -0.354 N 
ATOM     52  N   UNL     1     -15.346   6.748  -4.436  1.00  0.00    -0.248 NA
ATOM     53  C   UNL     1     -16.734   4.872  -4.306  1.00  0.00     0.031 C 
ATOM     54  C   UNL     1     -16.814  10.903  -4.994  1.00  0.00     0.029 A 
ATOM     55  C   UNL     1     -16.381   9.598  -4.821  1.00  0.00     0.049 A 
ATOM     56  H   UNL     1     -14.418   8.871  -4.557  1.00  0.00     0.167 HD
ATOM     57  C   UNL     1     -16.667   7.145  -4.593  1.00  0.00     0.074 A 
ATOM     58  C   UNL     1     -17.477   5.946  -4.535  1.00  0.00     0.031 C 
ATOM     59  C   UNL     1     -17.166   8.393  -4.768  1.00  0.00     0.031 A 
BRANCH  46  60
ATOM     60  C   UNL     1     -12.876  12.839  -4.825  1.00  0.00    -0.014 A 
ATOM     61  C   UNL     1     -12.242  13.390  -5.950  1.00  0.00     0.009 A 
ATOM     62  C   UNL     1     -13.226  13.687  -3.762  1.00  0.00     0.009 A 
ATOM     63  C   UNL     1     -11.921  14.748  -5.989  1.00  0.00     0.001 A 
ATOM     64  C   UNL     1     -12.933  15.051  -3.818  1.00  0.00     0.001 A 
ATOM     65  C   UNL     1     -12.270  15.578  -4.925  1.00  0.00     0.000 A 
ENDBRANCH  46  60
BRANCH  47  66
ATOM     66  C   UNL     1     -14.497   3.027  -3.958  1.00  0.00    -0.014 A 
ATOM     67  C   UNL     1     -14.925   2.270  -5.060  1.00  0.00     0.009 A 
ATOM     68  C   UNL     1     -14.312   2.384  -2.724  1.00  0.00     0.009 A 
ATOM     69  C   UNL     1     -15.189   0.906  -4.924  1.00  0.00     0.001 A 
ATOM     70  C   UNL     1     -14.551   1.014  -2.598  1.00  0.00     0.001 A 
ATOM     71  C   UNL     1     -14.997   0.278  -3.694  1.00  0.00     0.000 A 
ENDBRANCH  47  66
BRANCH  59  72
ATOM     72  C   UNL     1     -18.650   8.518  -4.949  1.00  0.00    -0.014 A 
ATOM     73  C   UNL     1     -19.529   8.371  -3.866  1.00  0.00     0.009 A 
ATOM     74  C   UNL     1     -19.169   8.834  -6.215  1.00  0.00     0.009 A 
ATOM     75  C   UNL     1     -20.906   8.510  -4.054  1.00  0.00     0.001 A 
ATOM     76  C   UNL     1     -20.543   8.997  -6.394  1.00  0.00     0.001 A 
ATOM     77  C   UNL     1     -21.410   8.827  -5.315  1.00  0.00     0.000 A 
ENDBRANCH  59  72
ENDBRANCH  33  34
ENDBRANCH  25  28
ENDBRANCH  23  24
ENDBRANCH  22  23
ENDBRANCH  21  22
ENDBRANCH   3  21
TORSDOF 15
