REMARK SMILES C[C@H]([NH2+]C1C(C)(C)C1(C)C)[C@H](C)C(=O)NCCCNC(=O)c1ccc(-c2c3nc(c(-c4ccccc4)c4ccc([nH]4)c(-c4ccccc4)c4nc(c(-c5ccccc5)c5ccc2[nH]5)C=C4)C=C3)cc1
REMARK SMILES IDX 16 1 15 2 13 3 14 4 11 6 12 7 2 8 1 9 3 10 4 13 5 14 8 15
REMARK SMILES IDX 6 16 7 17 9 18 10 19 17 20 18 21 19 22 20 23 21 25 22 26
REMARK SMILES IDX 23 27 69 28 24 29 68 30 25 31 26 32 27 33 62 34 28 35 67 36
REMARK SMILES IDX 61 37 63 38 29 39 66 40 60 41 59 42 30 44 52 45 37 46 51 47
REMARK SMILES IDX 38 48 41 49 50 50 64 51 39 52 40 53 49 55 65 56 42 57 31 58
REMARK SMILES IDX 32 59 36 60 33 61 35 62 34 63 53 64 54 65 58 66 55 67 57 68
REMARK SMILES IDX 56 69 43 70 44 71 48 72 45 73 47 74 46 75
REMARK H PARENT 15 5 3 11 3 12 19 24 63 43 41 54
REMARK Flexibility Score: inf
ROOT
ATOM      1  C   UNL     1      -0.986   3.723  -2.344  1.00  0.00     0.117 C 
ENDROOT
BRANCH   1   2
ATOM      2  N   UNL     1      -1.577   2.618  -3.068  1.00  0.00    -0.356 N 
ATOM      3  C   UNL     1      -1.871   1.339  -2.755  1.00  0.00     0.228 C 
ATOM      4  O   UNL     1      -2.484   0.725  -3.643  1.00  0.00    -0.275 OA
ATOM      5  H   UNL     1      -1.819   2.851  -3.994  1.00  0.00     0.163 HD
BRANCH   3   6
ATOM      6  C   UNL     1      -1.461   0.564  -1.498  1.00  0.00     0.133 C 
ATOM      7  C   UNL     1      -0.389  -0.465  -1.882  1.00  0.00     0.024 C 
BRANCH   6   8
ATOM      8  C   UNL     1      -1.250   1.202  -0.101  1.00  0.00     0.191 C 
ATOM      9  C   UNL     1      -2.495   2.017   0.303  1.00  0.00     0.076 C 
BRANCH   8  10
ATOM     10  N   UNL     1      -0.058   1.993   0.249  1.00  0.00    -0.340 N 
ATOM     11  H   UNL     1       0.129   1.825   1.237  1.00  0.00     0.346 HD
ATOM     12  H   UNL     1      -0.316   2.943  -0.020  1.00  0.00     0.346 HD
BRANCH  10  13
ATOM     13  C   UNL     1       1.195   1.766  -0.465  1.00  0.00     0.195 C 
ATOM     14  C   UNL     1       2.476   2.447   0.004  1.00  0.00     0.028 C 
ATOM     15  C   UNL     1       2.339   0.913   0.036  1.00  0.00     0.028 C 
ATOM     16  C   UNL     1       3.353   3.091  -1.052  1.00  0.00     0.018 C 
ATOM     17  C   UNL     1       2.513   3.229   1.301  1.00  0.00     0.018 C 
ATOM     18  C   UNL     1       2.245   0.189   1.357  1.00  0.00     0.018 C 
ATOM     19  C   UNL     1       3.082   0.093  -1.003  1.00  0.00     0.018 C 
ENDBRANCH  10  13
ENDBRANCH   8  10
ENDBRANCH   6   8
ENDBRANCH   3   6
ENDBRANCH   1   2
BRANCH   1  20
ATOM     20  C   UNL     1       0.359   4.141  -2.915  1.00  0.00     0.042 C 
BRANCH  20  21
ATOM     21  C   UNL     1       0.245   4.950  -4.196  1.00  0.00     0.118 C 
BRANCH  21  22
ATOM     22  N   UNL     1      -0.342   6.264  -3.969  1.00  0.00    -0.352 N 
ATOM     23  C   UNL     1       0.198   7.516  -4.118  1.00  0.00     0.251 C 
ATOM     24  H   UNL     1      -1.276   6.251  -3.657  1.00  0.00     0.163 HD
ATOM     25  O   UNL     1      -0.392   8.490  -3.661  1.00  0.00    -0.269 OA
BRANCH  23  26
ATOM     26  C   UNL     1       1.488   7.701  -4.818  1.00  0.00     0.039 A 
ATOM     27  C   UNL     1       2.382   8.665  -4.343  1.00  0.00     0.014 A 
ATOM     28  C   UNL     1       1.804   6.959  -5.958  1.00  0.00     0.014 A 
ATOM     29  C   UNL     1       3.611   8.845  -4.980  1.00  0.00     0.010 A 
ATOM     30  C   UNL     1       3.065   7.070  -6.532  1.00  0.00     0.010 A 
ATOM     31  C   UNL     1       3.975   8.027  -6.061  1.00  0.00    -0.014 A 
BRANCH  31  32
ATOM     32  C   UNL     1       5.286   8.175  -6.741  1.00  0.00     0.031 A 
ATOM     33  C   UNL     1       5.337   8.566  -8.194  1.00  0.00     0.074 A 
ATOM     34  C   UNL     1       6.422   7.894  -6.074  1.00  0.00     0.049 A 
ATOM     35  N   UNL     1       6.372   8.661  -8.988  1.00  0.00    -0.248 NA
ATOM     36  C   UNL     1       4.050   8.861  -8.849  1.00  0.00     0.031 C 
ATOM     37  C   UNL     1       6.504   7.469  -4.675  1.00  0.00     0.029 A 
ATOM     38  N   UNL     1       7.729   7.919  -6.491  1.00  0.00    -0.354 N 
ATOM     39  C   UNL     1       5.861   8.999 -10.235  1.00  0.00     0.074 A 
ATOM     40  C   UNL     1       4.421   9.043 -10.107  1.00  0.00     0.031 C 
ATOM     41  C   UNL     1       7.795   7.301  -4.342  1.00  0.00     0.029 A 
ATOM     42  C   UNL     1       8.625   7.564  -5.512  1.00  0.00     0.049 A 
ATOM     43  H   UNL     1       7.999   8.167  -7.404  1.00  0.00     0.167 HD
ATOM     44  C   UNL     1       6.529   9.272 -11.380  1.00  0.00     0.031 A 
ATOM     45  C   UNL     1       9.966   7.457  -5.555  1.00  0.00     0.031 A 
ATOM     46  C   UNL     1       7.961   9.253 -11.502  1.00  0.00     0.049 A 
ATOM     47  C   UNL     1      10.684   7.762  -6.840  1.00  0.00     0.074 A 
ATOM     48  C   UNL     1       8.737   9.567 -12.604  1.00  0.00     0.029 A 
ATOM     49  N   UNL     1       8.832   8.905 -10.482  1.00  0.00    -0.354 N 
ATOM     50  N   UNL     1      10.188   8.136  -7.995  1.00  0.00    -0.248 NA
ATOM     51  C   UNL     1      12.149   7.641  -6.823  1.00  0.00     0.031 C 
ATOM     52  C   UNL     1      10.079   9.368 -12.262  1.00  0.00     0.029 A 
ATOM     53  C   UNL     1      10.138   8.980 -10.933  1.00  0.00     0.049 A 
ATOM     54  H   UNL     1       8.562   8.643  -9.572  1.00  0.00     0.167 HD
ATOM     55  C   UNL     1      11.280   8.323  -8.832  1.00  0.00     0.074 A 
ATOM     56  C   UNL     1      12.464   8.037  -8.049  1.00  0.00     0.031 C 
ATOM     57  C   UNL     1      11.302   8.697 -10.134  1.00  0.00     0.031 A 
BRANCH  44  58
ATOM     58  C   UNL     1       5.713   9.618 -12.594  1.00  0.00    -0.014 A 
ATOM     59  C   UNL     1       5.023  10.839 -12.682  1.00  0.00     0.009 A 
ATOM     60  C   UNL     1       5.661   8.730 -13.680  1.00  0.00     0.009 A 
ATOM     61  C   UNL     1       4.271  11.147 -13.817  1.00  0.00     0.001 A 
ATOM     62  C   UNL     1       4.931   9.054 -14.826  1.00  0.00     0.001 A 
ATOM     63  C   UNL     1       4.230  10.257 -14.890  1.00  0.00     0.000 A 
ENDBRANCH  44  58
BRANCH  45  64
ATOM     64  C   UNL     1      10.725   7.056  -4.341  1.00  0.00    -0.014 A 
ATOM     65  C   UNL     1      11.534   7.987  -3.670  1.00  0.00     0.009 A 
ATOM     66  C   UNL     1      10.656   5.742  -3.855  1.00  0.00     0.009 A 
ATOM     67  C   UNL     1      12.282   7.601  -2.556  1.00  0.00     0.001 A 
ATOM     68  C   UNL     1      11.383   5.366  -2.723  1.00  0.00     0.001 A 
ATOM     69  C   UNL     1      12.204   6.293  -2.082  1.00  0.00     0.000 A 
ENDBRANCH  45  64
BRANCH  57  70
ATOM     70  C   UNL     1      12.649   8.858 -10.779  1.00  0.00    -0.014 A 
ATOM     71  C   UNL     1      13.434   7.745 -11.114  1.00  0.00     0.009 A 
ATOM     72  C   UNL     1      13.117  10.143 -11.092  1.00  0.00     0.009 A 
ATOM     73  C   UNL     1      14.678   7.918 -11.722  1.00  0.00     0.001 A 
ATOM     74  C   UNL     1      14.349  10.312 -11.725  1.00  0.00     0.001 A 
ATOM     75  C   UNL     1      15.132   9.200 -12.031  1.00  0.00     0.000 A 
ENDBRANCH  57  70
ENDBRANCH  31  32
ENDBRANCH  23  26
ENDBRANCH  21  22
ENDBRANCH  20  21
ENDBRANCH   1  20
TORSDOF 13
