REMARK SMILES Cc1c(Cl)cccc1NC(=O)C[C@](C)(C(=O)NCCCNC(=O)c1ccc(-c2c3nc(c(-c4ccccc4)c4ccc([nH]4)c(-c4ccccc4)c4nc(c(-c5ccccc5)c5ccc2[nH]5)C=C4)C=C3)cc1)c1ccccc1
REMARK SMILES IDX 18 1 17 2 15 3 16 4 13 6 14 7 12 8 10 9 9 10 11 12 8 13 1 14
REMARK SMILES IDX 2 15 3 16 4 17 5 18 7 19 6 20 72 21 73 22 77 23 74 24 76 25
REMARK SMILES IDX 75 26 19 27 20 28 21 29 22 30 23 32 24 33 25 34 71 35 26 36
REMARK SMILES IDX 70 37 27 38 28 39 29 40 64 41 30 42 69 43 63 44 65 45 31 46
REMARK SMILES IDX 68 47 62 48 61 49 32 51 54 52 39 53 53 54 40 55 43 56 52 57
REMARK SMILES IDX 66 58 41 59 42 60 51 62 67 63 44 64 33 65 34 66 38 67 35 68
REMARK SMILES IDX 37 69 36 70 55 71 56 72 60 73 57 74 59 75 58 76 45 77 46 78
REMARK SMILES IDX 50 79 47 80 49 81 48 82
REMARK H PARENT 17 5 9 11 21 31 65 50 43 61
REMARK Flexibility Score: inf
ROOT
ATOM      1  C   UNL     1      -4.279  -2.218   1.627  1.00  0.00     0.117 C 
ENDROOT
BRANCH   1   2
ATOM      2  N   UNL     1      -5.141  -1.461  -0.121  1.00  0.00    -0.355 N 
ATOM      3  C   UNL     1      -5.171  -0.599  -1.272  1.00  0.00     0.230 C 
ATOM      4  O   UNL     1      -6.169  -0.883  -1.961  1.00  0.00    -0.274 OA
ATOM      5  H   UNL     1      -5.980  -1.969  -0.197  1.00  0.00     0.163 HD
BRANCH   3   6
ATOM      6  C   UNL     1      -4.225   0.649  -1.707  1.00  0.00     0.080 C 
ATOM      7  C   UNL     1      -4.555   1.818  -0.702  1.00  0.00     0.027 C 
BRANCH   6   8
ATOM      8  C   UNL     1      -2.683   0.372  -1.835  1.00  0.00     0.121 C 
BRANCH   8   9
ATOM      9  C   UNL     1      -2.197  -1.025  -2.171  1.00  0.00     0.225 C 
ATOM     10  N   UNL     1      -2.317  -2.043  -1.274  1.00  0.00    -0.326 N 
ATOM     11  H   UNL     1      -1.736  -2.831  -1.380  1.00  0.00     0.169 HD
ATOM     12  O   UNL     1      -1.643  -1.265  -3.247  1.00  0.00    -0.275 OA
BRANCH  10  13
ATOM     13  C   UNL     1      -3.218  -2.028  -0.217  1.00  0.00     0.045 A 
ATOM     14  C   UNL     1      -3.942  -4.787  -0.554  1.00  0.00     0.048 C 
ATOM     15  C   UNL     1      -4.401  -3.400  -0.195  1.00  0.00    -0.009 A 
ATOM     16  C   UNL     1      -5.963  -3.225   0.701  1.00  0.00     0.046 A 
ATOM     17  Cl  UNL     1      -7.028  -4.561   0.888  1.00  0.00    -0.084 Cl
ATOM     18  C   UNL     1      -6.372  -1.678   1.517  1.00  0.00     0.021 A 
ATOM     19  C   UNL     1      -3.574  -0.493   0.721  1.00  0.00     0.026 A 
ATOM     20  C   UNL     1      -5.193  -0.303   1.525  1.00  0.00     0.004 A 
ENDBRANCH  10  13
ENDBRANCH   8   9
ENDBRANCH   6   8
BRANCH   6  21
ATOM     21  C   UNL     1      -4.573   1.341  -3.090  1.00  0.00    -0.032 A 
ATOM     22  C   UNL     1      -4.093   2.666  -3.315  1.00  0.00     0.005 A 
ATOM     23  C   UNL     1      -5.315   0.763  -4.121  1.00  0.00     0.005 A 
ATOM     24  C   UNL     1      -4.447   3.414  -4.433  1.00  0.00     0.000 A 
ATOM     25  C   UNL     1      -5.661   1.513  -5.258  1.00  0.00     0.000 A 
ATOM     26  C   UNL     1      -5.251   2.839  -5.401  1.00  0.00     0.000 A 
ENDBRANCH   6  21
ENDBRANCH   3   6
ENDBRANCH   1   2
BRANCH   1  27
ATOM     27  C   UNL     1      -4.439  -1.819   3.275  1.00  0.00     0.042 C 
BRANCH  27  28
ATOM     28  C   UNL     1      -4.918  -3.021   4.067  1.00  0.00     0.118 C 
BRANCH  28  29
ATOM     29  N   UNL     1      -4.131  -4.234   3.882  1.00  0.00    -0.352 N 
ATOM     30  C   UNL     1      -4.411  -5.454   4.451  1.00  0.00     0.251 C 
ATOM     31  H   UNL     1      -3.337  -4.175   3.303  1.00  0.00     0.163 HD
ATOM     32  O   UNL     1      -3.776  -6.466   4.198  1.00  0.00    -0.269 OA
BRANCH  30  33
ATOM     33  C   UNL     1      -5.448  -5.424   5.489  1.00  0.00     0.039 A 
ATOM     34  C   UNL     1      -4.997  -5.322   6.804  1.00  0.00     0.014 A 
ATOM     35  C   UNL     1      -6.762  -5.113   5.129  1.00  0.00     0.014 A 
ATOM     36  C   UNL     1      -5.871  -4.863   7.775  1.00  0.00     0.010 A 
ATOM     37  C   UNL     1      -7.588  -4.535   6.080  1.00  0.00     0.010 A 
ATOM     38  C   UNL     1      -7.160  -4.438   7.414  1.00  0.00    -0.014 A 
BRANCH  38  39
ATOM     39  C   UNL     1      -8.096  -3.993   8.466  1.00  0.00     0.031 A 
ATOM     40  C   UNL     1      -9.315  -4.828   8.734  1.00  0.00     0.074 A 
ATOM     41  C   UNL     1      -7.823  -2.895   9.197  1.00  0.00     0.049 A 
ATOM     42  N   UNL     1     -10.213  -4.694   9.673  1.00  0.00    -0.248 NA
ATOM     43  C   UNL     1      -9.572  -5.953   7.817  1.00  0.00     0.031 C 
ATOM     44  C   UNL     1      -6.680  -1.999   8.993  1.00  0.00     0.029 A 
ATOM     45  N   UNL     1      -8.470  -2.364  10.281  1.00  0.00    -0.354 N 
ATOM     46  C   UNL     1     -11.135  -5.707   9.448  1.00  0.00     0.074 A 
ATOM     47  C   UNL     1     -10.739  -6.397   8.246  1.00  0.00     0.031 C 
ATOM     48  C   UNL     1      -6.678  -1.064   9.958  1.00  0.00     0.029 A 
ATOM     49  C   UNL     1      -7.836  -1.271  10.821  1.00  0.00     0.049 A 
ATOM     50  H   UNL     1      -9.311  -2.730  10.639  1.00  0.00     0.167 HD
ATOM     51  C   UNL     1     -12.200  -6.059  10.201  1.00  0.00     0.031 A 
ATOM     52  C   UNL     1      -8.155  -0.529  11.899  1.00  0.00     0.031 A 
ATOM     53  C   UNL     1     -12.577  -5.369  11.400  1.00  0.00     0.049 A 
ATOM     54  C   UNL     1      -9.366  -0.922  12.703  1.00  0.00     0.074 A 
ATOM     55  C   UNL     1     -13.614  -5.656  12.267  1.00  0.00     0.029 A 
ATOM     56  N   UNL     1     -11.930  -4.247  11.895  1.00  0.00    -0.354 N 
ATOM     57  N   UNL     1     -10.185  -1.932  12.524  1.00  0.00    -0.248 NA
ATOM     58  C   UNL     1      -9.687  -0.085  13.866  1.00  0.00     0.031 C 
ATOM     59  C   UNL     1     -13.642  -4.659  13.246  1.00  0.00     0.029 A 
ATOM     60  C   UNL     1     -12.570  -3.803  13.037  1.00  0.00     0.049 A 
ATOM     61  H   UNL     1     -11.135  -3.828  11.493  1.00  0.00     0.167 HD
ATOM     62  C   UNL     1     -11.102  -1.867  13.566  1.00  0.00     0.074 A 
ATOM     63  C   UNL     1     -10.719  -0.735  14.385  1.00  0.00     0.031 C 
ATOM     64  C   UNL     1     -12.165  -2.668  13.826  1.00  0.00     0.031 A 
BRANCH  51  65
ATOM     65  C   UNL     1     -13.031  -7.216   9.725  1.00  0.00    -0.014 A 
ATOM     66  C   UNL     1     -12.526  -8.527   9.703  1.00  0.00     0.009 A 
ATOM     67  C   UNL     1     -14.347  -6.990   9.295  1.00  0.00     0.009 A 
ATOM     68  C   UNL     1     -13.308  -9.580   9.223  1.00  0.00     0.001 A 
ATOM     69  C   UNL     1     -15.140  -8.050   8.852  1.00  0.00     0.001 A 
ATOM     70  C   UNL     1     -14.617  -9.341   8.806  1.00  0.00     0.000 A 
ENDBRANCH  51  65
BRANCH  52  71
ATOM     71  C   UNL     1      -7.328   0.649  12.279  1.00  0.00    -0.014 A 
ATOM     72  C   UNL     1      -6.607   0.674  13.483  1.00  0.00     0.009 A 
ATOM     73  C   UNL     1      -7.274   1.775  11.441  1.00  0.00     0.009 A 
ATOM     74  C   UNL     1      -5.882   1.811  13.855  1.00  0.00     0.001 A 
ATOM     75  C   UNL     1      -6.520   2.895  11.797  1.00  0.00     0.001 A 
ATOM     76  C   UNL     1      -5.836   2.918  13.010  1.00  0.00     0.000 A 
ENDBRANCH  52  71
BRANCH  64  77
ATOM     77  C   UNL     1     -12.964  -2.367  15.063  1.00  0.00    -0.014 A 
ATOM     78  C   UNL     1     -13.759  -1.216  15.161  1.00  0.00     0.009 A 
ATOM     79  C   UNL     1     -12.954  -3.282  16.128  1.00  0.00     0.009 A 
ATOM     80  C   UNL     1     -14.494  -0.965  16.321  1.00  0.00     0.001 A 
ATOM     81  C   UNL     1     -13.722  -3.050  17.268  1.00  0.00     0.001 A 
ATOM     82  C   UNL     1     -14.480  -1.885  17.370  1.00  0.00     0.000 A 
ENDBRANCH  64  77
ENDBRANCH  38  39
ENDBRANCH  30  33
ENDBRANCH  28  29
ENDBRANCH  27  28
ENDBRANCH   1  27
TORSDOF 14
