REMARK SMILES O=C(CC1(C(=O)NCCCNC(=O)c2ccc(-c3c4nc(c(-c5ccccc5)c5ccc([nH]5)c(-c5ccccc5)c5nc(c(-c6ccccc6)c6ccc3[nH]6)C=C5)C=C4)cc2)CCCCC1)Nc1ccc(N2CCOC2=O)cc1
REMARK SMILES IDX 8 1 7 2 5 3 6 4 4 6 62 7 66 8 63 9 65 10 64 11 3 12 2 13
REMARK SMILES IDX 1 14 67 15 68 17 69 18 79 19 70 20 78 21 71 22 72 23 73 24
REMARK SMILES IDX 76 25 74 26 75 27 77 28 9 29 10 30 11 31 12 32 13 34 14 35
REMARK SMILES IDX 15 36 61 37 16 38 60 39 17 40 18 41 19 42 54 43 20 44 59 45
REMARK SMILES IDX 53 46 55 47 21 48 58 49 52 50 51 51 22 53 44 54 29 55 43 56
REMARK SMILES IDX 30 57 33 58 42 59 56 60 31 61 32 62 41 64 57 65 34 66 23 67
REMARK SMILES IDX 24 68 28 69 25 70 27 71 26 72 45 73 46 74 50 75 47 76 49 77
REMARK SMILES IDX 48 78 35 79 36 80 40 81 37 82 39 83 38 84
REMARK H PARENT 7 5 67 16 11 33 55 52 33 63
REMARK Flexibility Score: inf
ROOT
ATOM      1  C   UNL     1       5.737   3.280  -2.931  1.00  0.00     0.117 C 
ENDROOT
BRANCH   1   2
ATOM      2  N   UNL     1       5.243   1.974  -3.274  1.00  0.00    -0.356 N 
ATOM      3  C   UNL     1       4.485   1.069  -2.616  1.00  0.00     0.226 C 
ATOM      4  O   UNL     1       4.297   0.032  -3.268  1.00  0.00    -0.274 OA
ATOM      5  H   UNL     1       5.513   1.678  -4.173  1.00  0.00     0.163 HD
BRANCH   3   6
ATOM      6  C   UNL     1       3.932   1.218  -1.153  1.00  0.00     0.058 C 
ATOM      7  C   UNL     1       2.998   2.441  -0.962  1.00  0.00     0.017 C 
ATOM      8  C   UNL     1       5.109   1.173  -0.151  1.00  0.00     0.017 C 
ATOM      9  C   UNL     1       3.566   3.738  -0.384  1.00  0.00     0.001 C 
ATOM     10  C   UNL     1       5.718   2.485   0.309  1.00  0.00     0.001 C 
ATOM     11  C   UNL     1       4.711   3.583   0.609  1.00  0.00     0.000 C 
BRANCH   6  12
ATOM     12  C   UNL     1       3.056  -0.107  -0.993  1.00  0.00     0.117 C 
BRANCH  12  13
ATOM     13  C   UNL     1       2.074  -0.208   0.169  1.00  0.00     0.225 C 
ATOM     14  O   UNL     1       0.865  -0.089  -0.009  1.00  0.00    -0.275 OA
ATOM     15  N   UNL     1       2.676  -0.368   1.397  1.00  0.00    -0.326 N 
ATOM     16  H   UNL     1       3.638  -0.575   1.415  1.00  0.00     0.169 HD
BRANCH  15  17
ATOM     17  C   UNL     1       2.007  -0.257   2.616  1.00  0.00     0.041 A 
ATOM     18  C   UNL     1       2.540   0.605   3.578  1.00  0.00     0.028 A 
ATOM     19  C   UNL     1       0.883  -1.023   2.895  1.00  0.00     0.028 A 
ATOM     20  C   UNL     1       1.901   0.749   4.809  1.00  0.00     0.028 A 
ATOM     21  C   UNL     1       0.322  -0.970   4.169  1.00  0.00     0.028 A 
ATOM     22  C   UNL     1       0.811  -0.067   5.120  1.00  0.00     0.047 A 
BRANCH  22  23
ATOM     23  N   UNL     1       0.183   0.027   6.367  1.00  0.00    -0.274 N 
ATOM     24  C   UNL     1      -0.160   1.262   6.989  1.00  0.00     0.171 C 
ATOM     25  C   UNL     1      -0.196  -1.035   7.158  1.00  0.00     0.414 C 
ATOM     26  C   UNL     1      -1.178   0.809   8.008  1.00  0.00     0.257 C 
ATOM     27  O   UNL     1      -0.867  -0.565   8.256  1.00  0.00    -0.447 OA
ATOM     28  O   UNL     1       0.042  -2.223   6.984  1.00  0.00    -0.224 OA
ENDBRANCH  22  23
ENDBRANCH  15  17
ENDBRANCH  12  13
ENDBRANCH   6  12
ENDBRANCH   3   6
ENDBRANCH   1   2
BRANCH   1  29
ATOM     29  C   UNL     1       7.243   3.309  -2.741  1.00  0.00     0.042 C 
BRANCH  29  30
ATOM     30  C   UNL     1       7.987   3.631  -4.018  1.00  0.00     0.118 C 
BRANCH  30  31
ATOM     31  N   UNL     1       7.738   4.999  -4.462  1.00  0.00    -0.352 N 
ATOM     32  C   UNL     1       8.559   6.100  -4.483  1.00  0.00     0.251 C 
ATOM     33  H   UNL     1       6.829   5.160  -4.804  1.00  0.00     0.163 HD
ATOM     34  O   UNL     1       8.077   7.212  -4.676  1.00  0.00    -0.269 OA
BRANCH  32  35
ATOM     35  C   UNL     1      10.011   5.953  -4.254  1.00  0.00     0.039 A 
ATOM     36  C   UNL     1      10.701   6.952  -3.563  1.00  0.00     0.014 A 
ATOM     37  C   UNL     1      10.697   4.834  -4.724  1.00  0.00     0.014 A 
ATOM     38  C   UNL     1      12.059   6.786  -3.284  1.00  0.00     0.010 A 
ATOM     39  C   UNL     1      12.003   4.603  -4.322  1.00  0.00     0.010 A 
ATOM     40  C   UNL     1      12.709   5.588  -3.621  1.00  0.00    -0.014 A 
BRANCH  40  41
ATOM     41  C   UNL     1      14.136   5.351  -3.292  1.00  0.00     0.031 A 
ATOM     42  C   UNL     1      15.120   5.066  -4.397  1.00  0.00     0.074 A 
ATOM     43  C   UNL     1      14.531   5.324  -2.005  1.00  0.00     0.049 A 
ATOM     44  N   UNL     1      16.390   4.761  -4.313  1.00  0.00    -0.248 NA
ATOM     45  C   UNL     1      14.604   5.091  -5.777  1.00  0.00     0.031 C 
ATOM     46  C   UNL     1      13.662   5.535  -0.843  1.00  0.00     0.029 A 
ATOM     47  N   UNL     1      15.768   5.105  -1.456  1.00  0.00    -0.354 N 
ATOM     48  C   UNL     1      16.810   4.537  -5.619  1.00  0.00     0.074 A 
ATOM     49  C   UNL     1      15.650   4.669  -6.469  1.00  0.00     0.031 C 
ATOM     50  C   UNL     1      14.402   5.479   0.276  1.00  0.00     0.029 A 
ATOM     51  C   UNL     1      15.783   5.177  -0.084  1.00  0.00     0.049 A 
ATOM     52  H   UNL     1      16.570   4.915  -1.994  1.00  0.00     0.167 HD
ATOM     53  C   UNL     1      18.056   4.276  -6.076  1.00  0.00     0.031 A 
ATOM     54  C   UNL     1      16.796   5.010   0.787  1.00  0.00     0.031 A 
ATOM     55  C   UNL     1      19.212   4.165  -5.229  1.00  0.00     0.049 A 
ATOM     56  C   UNL     1      18.169   4.703   0.254  1.00  0.00     0.074 A 
ATOM     57  C   UNL     1      20.530   3.961  -5.594  1.00  0.00     0.029 A 
ATOM     58  N   UNL     1      19.185   4.251  -3.846  1.00  0.00    -0.354 N 
ATOM     59  N   UNL     1      18.563   4.568  -0.989  1.00  0.00    -0.248 NA
ATOM     60  C   UNL     1      19.239   4.538   1.247  1.00  0.00     0.031 C 
ATOM     61  C   UNL     1      21.293   3.861  -4.426  1.00  0.00     0.029 A 
ATOM     62  C   UNL     1      20.460   4.075  -3.339  1.00  0.00     0.049 A 
ATOM     63  H   UNL     1      18.378   4.413  -3.305  1.00  0.00     0.167 HD
ATOM     64  C   UNL     1      19.931   4.335  -0.930  1.00  0.00     0.074 A 
ATOM     65  C   UNL     1      20.300   4.368   0.471  1.00  0.00     0.031 C 
ATOM     66  C   UNL     1      20.805   4.114  -1.942  1.00  0.00     0.031 A 
BRANCH  53  67
ATOM     67  C   UNL     1      18.230   4.091  -7.559  1.00  0.00    -0.014 A 
ATOM     68  C   UNL     1      18.060   5.162  -8.453  1.00  0.00     0.009 A 
ATOM     69  C   UNL     1      18.601   2.837  -8.068  1.00  0.00     0.009 A 
ATOM     70  C   UNL     1      18.220   4.971  -9.827  1.00  0.00     0.001 A 
ATOM     71  C   UNL     1      18.794   2.657  -9.439  1.00  0.00     0.001 A 
ATOM     72  C   UNL     1      18.594   3.720 -10.318  1.00  0.00     0.000 A 
ENDBRANCH  53  67
BRANCH  54  73
ATOM     73  C   UNL     1      16.559   5.140   2.250  1.00  0.00    -0.014 A 
ATOM     74  C   UNL     1      17.121   6.203   2.974  1.00  0.00     0.009 A 
ATOM     75  C   UNL     1      15.785   4.191   2.936  1.00  0.00     0.009 A 
ATOM     76  C   UNL     1      16.945   6.292   4.357  1.00  0.00     0.001 A 
ATOM     77  C   UNL     1      15.581   4.302   4.314  1.00  0.00     0.001 A 
ATOM     78  C   UNL     1      16.172   5.344   5.025  1.00  0.00     0.000 A 
ENDBRANCH  54  73
BRANCH  66  79
ATOM     79  C   UNL     1      22.252   3.934  -1.574  1.00  0.00    -0.014 A 
ATOM     80  C   UNL     1      22.702   2.782  -0.912  1.00  0.00     0.009 A 
ATOM     81  C   UNL     1      23.184   4.919  -1.939  1.00  0.00     0.009 A 
ATOM     82  C   UNL     1      24.053   2.639  -0.588  1.00  0.00     0.001 A 
ATOM     83  C   UNL     1      24.538   4.756  -1.646  1.00  0.00     0.001 A 
ATOM     84  C   UNL     1      24.969   3.622  -0.961  1.00  0.00     0.000 A 
ENDBRANCH  66  79
ENDBRANCH  40  41
ENDBRANCH  32  35
ENDBRANCH  30  31
ENDBRANCH  29  30
ENDBRANCH   1  29
TORSDOF 14
