REMARK SMILES Cc1cccc(C(=O)Nc2cc(C(=O)NCCCNC(=O)c3ccc(-c4c5nc(c(-c6ccccc6)c6ccc([nH]6)c(-c6ccccc6)c6nc(c(-c7ccccc7)c7ccc4[nH]7)C=C6)C=C5)cc3)ccc2N2CC[NH+](CC(=O)NC(C)(C)C)CC2)c1
REMARK SMILES IDX 16 1 15 2 13 3 14 4 12 6 10 7 11 8 72 9 71 10 70 11 9 12
REMARK SMILES IDX 7 13 8 14 6 16 1 17 2 18 3 19 87 20 4 21 5 22 73 23 74 24
REMARK SMILES IDX 86 25 75 26 85 27 76 28 77 30 78 31 79 32 80 33 81 35 82 36
REMARK SMILES IDX 83 37 84 38 17 39 18 40 19 41 20 42 21 44 22 45 23 46 69 47
REMARK SMILES IDX 24 48 68 49 25 50 26 51 27 52 62 53 28 54 67 55 61 56 63 57
REMARK SMILES IDX 29 58 66 59 60 60 59 61 30 63 52 64 37 65 51 66 38 67 41 68
REMARK SMILES IDX 50 69 64 70 39 71 40 72 49 74 65 75 42 76 31 77 32 78 36 79
REMARK SMILES IDX 33 80 35 81 34 82 53 83 54 84 58 85 55 86 57 87 56 88 43 89
REMARK SMILES IDX 44 90 48 91 45 92 47 93 46 94
REMARK H PARENT 15 5 9 15 76 29 80 34 19 43 63 62 41 73
REMARK Flexibility Score: inf
ROOT
ATOM      1  C   UNL     1       1.431   0.529  -3.030  1.00  0.00     0.118 C 
ENDROOT
BRANCH   1   2
ATOM      2  N   UNL     1       2.756   1.156  -2.994  1.00  0.00    -0.352 N 
ATOM      3  C   UNL     1       3.317   2.212  -2.300  1.00  0.00     0.251 C 
ATOM      4  O   UNL     1       4.542   2.338  -2.362  1.00  0.00    -0.269 OA
ATOM      5  H   UNL     1       3.395   0.724  -3.607  1.00  0.00     0.163 HD
BRANCH   3   6
ATOM      6  C   UNL     1       2.553   3.213  -1.495  1.00  0.00     0.042 A 
ATOM      7  C   UNL     1       0.471   4.066  -0.578  1.00  0.00     0.065 A 
ATOM      8  C   UNL     1       1.184   3.162  -1.350  1.00  0.00     0.042 A 
ATOM      9  C   UNL     1       1.108   5.154   0.060  1.00  0.00     0.061 A 
ATOM     10  C   UNL     1       2.498   5.233  -0.098  1.00  0.00     0.029 A 
ATOM     11  C   UNL     1       3.212   4.266  -0.845  1.00  0.00     0.016 A 
BRANCH   7  12
ATOM     12  N   UNL     1      -0.918   3.876  -0.444  1.00  0.00    -0.320 N 
ATOM     13  C   UNL     1      -1.653   2.738  -0.156  1.00  0.00     0.255 C 
ATOM     14  O   UNL     1      -2.878   2.848  -0.063  1.00  0.00    -0.269 OA
ATOM     15  H   UNL     1      -1.458   4.688  -0.577  1.00  0.00     0.170 HD
BRANCH  13  16
ATOM     16  C   UNL     1      -1.046   1.392   0.108  1.00  0.00     0.040 A 
ATOM     17  C   UNL     1       2.273  -0.283   0.946  1.00  0.00     0.044 C 
ATOM     18  C   UNL     1       0.808  -0.098   0.661  1.00  0.00    -0.050 A 
ATOM     19  C   UNL     1       0.029  -1.198   0.291  1.00  0.00     0.003 A 
ATOM     20  C   UNL     1       0.232   1.184   0.648  1.00  0.00     0.017 A 
ATOM     21  C   UNL     1      -1.290  -1.017  -0.121  1.00  0.00     0.001 A 
ATOM     22  C   UNL     1      -1.817   0.271  -0.230  1.00  0.00     0.014 A 
ENDBRANCH  13  16
ENDBRANCH   7  12
BRANCH   9  23
ATOM     23  N   UNL     1       0.387   6.011   0.878  1.00  0.00    -0.359 N 
ATOM     24  C   UNL     1       0.806   7.366   1.286  1.00  0.00     0.178 C 
ATOM     25  C   UNL     1      -0.435   5.381   1.910  1.00  0.00     0.178 C 
ATOM     26  C   UNL     1      -0.425   8.202   1.804  1.00  0.00     0.284 C 
ATOM     27  C   UNL     1      -1.740   6.180   2.028  1.00  0.00     0.284 C 
ATOM     28  N   UNL     1      -1.522   7.529   2.546  1.00  0.00    -0.324 N 
ATOM     29  H   UNL     1      -2.343   8.102   2.353  1.00  0.00     0.348 HD
BRANCH  28  30
ATOM     30  C   UNL     1      -1.477   7.585   4.020  1.00  0.00     0.363 C 
BRANCH  30  31
ATOM     31  C   UNL     1      -0.369   6.775   4.683  1.00  0.00     0.275 C 
ATOM     32  O   UNL     1       0.783   7.229   4.713  1.00  0.00    -0.268 OA
ATOM     33  N   UNL     1      -0.539   5.549   5.253  1.00  0.00    -0.347 N 
ATOM     34  H   UNL     1       0.282   5.282   5.726  1.00  0.00     0.164 HD
BRANCH  33  35
ATOM     35  C   UNL     1      -1.574   4.482   5.388  1.00  0.00     0.032 C 
ATOM     36  C   UNL     1      -1.461   3.431   4.266  1.00  0.00     0.034 C 
ATOM     37  C   UNL     1      -1.252   3.735   6.701  1.00  0.00     0.034 C 
ATOM     38  C   UNL     1      -3.016   4.986   5.484  1.00  0.00     0.034 C 
ENDBRANCH  33  35
ENDBRANCH  30  31
ENDBRANCH  28  30
ENDBRANCH   9  23
ENDBRANCH   3   6
ENDBRANCH   1   2
BRANCH   1  39
ATOM     39  C   UNL     1       0.367   1.328  -3.795  1.00  0.00     0.042 C 
BRANCH  39  40
ATOM     40  C   UNL     1      -0.023   0.730  -5.125  1.00  0.00     0.118 C 
BRANCH  40  41
ATOM     41  N   UNL     1      -1.322   0.056  -5.143  1.00  0.00    -0.352 N 
ATOM     42  C   UNL     1      -1.878  -0.660  -6.201  1.00  0.00     0.251 C 
ATOM     43  H   UNL     1      -1.860   0.115  -4.320  1.00  0.00     0.163 HD
ATOM     44  O   UNL     1      -2.953  -1.202  -6.122  1.00  0.00    -0.269 OA
BRANCH  42  45
ATOM     45  C   UNL     1      -1.012  -0.836  -7.395  1.00  0.00     0.039 A 
ATOM     46  C   UNL     1      -0.496  -2.118  -7.594  1.00  0.00     0.014 A 
ATOM     47  C   UNL     1      -0.396   0.288  -7.942  1.00  0.00     0.014 A 
ATOM     48  C   UNL     1       0.797  -2.244  -8.086  1.00  0.00     0.010 A 
ATOM     49  C   UNL     1       0.928   0.170  -8.322  1.00  0.00     0.010 A 
ATOM     50  C   UNL     1       1.546  -1.087  -8.313  1.00  0.00    -0.014 A 
BRANCH  50  51
ATOM     51  C   UNL     1       2.996  -1.117  -8.480  1.00  0.00     0.031 A 
ATOM     52  C   UNL     1       3.552  -0.966  -9.840  1.00  0.00     0.074 A 
ATOM     53  C   UNL     1       3.832  -1.318  -7.434  1.00  0.00     0.049 A 
ATOM     54  N   UNL     1       4.640  -1.526 -10.252  1.00  0.00    -0.248 NA
ATOM     55  C   UNL     1       2.862  -0.207 -10.877  1.00  0.00     0.031 C 
ATOM     56  C   UNL     1       5.293  -1.240  -7.457  1.00  0.00     0.029 A 
ATOM     57  N   UNL     1       3.552  -1.872  -6.182  1.00  0.00    -0.354 N 
ATOM     58  C   UNL     1       4.947  -0.964 -11.470  1.00  0.00     0.074 A 
ATOM     59  C   UNL     1       3.768  -0.225 -11.856  1.00  0.00     0.031 C 
ATOM     60  C   UNL     1       5.779  -2.007  -6.468  1.00  0.00     0.029 A 
ATOM     61  C   UNL     1       4.651  -2.690  -5.860  1.00  0.00     0.049 A 
ATOM     62  H   UNL     1       2.748  -1.720  -5.635  1.00  0.00     0.167 HD
ATOM     63  C   UNL     1       6.216  -1.051 -11.957  1.00  0.00     0.031 A 
ATOM     64  C   UNL     1       4.562  -4.035  -5.641  1.00  0.00     0.031 A 
ATOM     65  C   UNL     1       7.073  -1.873 -11.106  1.00  0.00     0.049 A 
ATOM     66  C   UNL     1       5.439  -4.851  -6.573  1.00  0.00     0.074 A 
ATOM     67  C   UNL     1       8.019  -1.566 -10.141  1.00  0.00     0.029 A 
ATOM     68  N   UNL     1       6.793  -3.227 -10.965  1.00  0.00    -0.354 N 
ATOM     69  N   UNL     1       6.000  -4.370  -7.648  1.00  0.00    -0.248 NA
ATOM     70  C   UNL     1       5.689  -6.284  -6.415  1.00  0.00     0.031 C 
ATOM     71  C   UNL     1       8.246  -2.732  -9.364  1.00  0.00     0.029 A 
ATOM     72  C   UNL     1       7.462  -3.750  -9.876  1.00  0.00     0.049 A 
ATOM     73  H   UNL     1       6.199  -3.741 -11.559  1.00  0.00     0.167 HD
ATOM     74  C   UNL     1       6.649  -5.372  -8.320  1.00  0.00     0.074 A 
ATOM     75  C   UNL     1       6.440  -6.551  -7.499  1.00  0.00     0.031 C 
ATOM     76  C   UNL     1       7.285  -5.149  -9.508  1.00  0.00     0.031 A 
BRANCH  63  77
ATOM     77  C   UNL     1       6.732  -0.123 -13.032  1.00  0.00    -0.014 A 
ATOM     78  C   UNL     1       8.082   0.273 -13.023  1.00  0.00     0.009 A 
ATOM     79  C   UNL     1       5.931   0.451 -14.034  1.00  0.00     0.009 A 
ATOM     80  C   UNL     1       8.571   1.265 -13.884  1.00  0.00     0.001 A 
ATOM     81  C   UNL     1       6.399   1.478 -14.866  1.00  0.00     0.001 A 
ATOM     82  C   UNL     1       7.719   1.895 -14.781  1.00  0.00     0.000 A 
ENDBRANCH  63  77
BRANCH  64  83
ATOM     83  C   UNL     1       3.239  -4.475  -5.122  1.00  0.00    -0.014 A 
ATOM     84  C   UNL     1       2.852  -4.026  -3.843  1.00  0.00     0.009 A 
ATOM     85  C   UNL     1       2.252  -4.952  -5.995  1.00  0.00     0.009 A 
ATOM     86  C   UNL     1       1.501  -3.914  -3.505  1.00  0.00     0.001 A 
ATOM     87  C   UNL     1       0.900  -4.855  -5.642  1.00  0.00     0.001 A 
ATOM     88  C   UNL     1       0.525  -4.294  -4.421  1.00  0.00     0.000 A 
ENDBRANCH  64  83
BRANCH  76  89
ATOM     89  C   UNL     1       7.860  -6.204 -10.421  1.00  0.00    -0.014 A 
ATOM     90  C   UNL     1       7.423  -7.534 -10.467  1.00  0.00     0.009 A 
ATOM     91  C   UNL     1       8.813  -5.817 -11.391  1.00  0.00     0.009 A 
ATOM     92  C   UNL     1       7.947  -8.442 -11.400  1.00  0.00     0.001 A 
ATOM     93  C   UNL     1       9.305  -6.706 -12.350  1.00  0.00     0.001 A 
ATOM     94  C   UNL     1       8.881  -8.026 -12.345  1.00  0.00     0.000 A 
ENDBRANCH  76  89
ENDBRANCH  50  51
ENDBRANCH  42  45
ENDBRANCH  40  41
ENDBRANCH  39  40
ENDBRANCH   1  39
TORSDOF 16
