REMARK SMILES O=C(C[C@@H](Br)C(=O)c1ccc2c(c1)CCC2)NCCCNC(=O)c1ccc(-c2c3nc(c(-c4ccccc4)c4ccc([nH]4)c(-c4ccccc4)c4nc(c(-c5ccccc5)c5ccc2[nH]5)C=C4)C=C3)cc1
REMARK SMILES IDX 18 1 17 2 1 3 2 4 3 6 4 7 5 8 6 9 7 10 8 11 9 12 13 13 10 14
REMARK SMILES IDX 12 15 11 16 14 17 16 18 15 19 19 20 20 21 21 22 22 23 23 25
REMARK SMILES IDX 24 26 25 27 71 28 26 29 70 30 27 31 28 32 29 33 64 34 30 35
REMARK SMILES IDX 69 36 63 37 65 38 31 39 68 40 62 41 61 42 32 44 54 45 39 46
REMARK SMILES IDX 53 47 40 48 43 49 52 50 66 51 41 52 42 53 51 55 67 56 44 57
REMARK SMILES IDX 33 58 34 59 38 60 35 61 37 62 36 63 55 64 56 65 60 66 57 67
REMARK SMILES IDX 59 68 58 69 45 70 46 71 50 72 47 73 49 74 48 75
REMARK H PARENT 17 5 21 24 65 43 43 54
REMARK Flexibility Score: inf
ROOT
ATOM      1  C   UNL     1       2.004   1.436  -2.190  1.00  0.00     0.117 C 
ENDROOT
BRANCH   1   2
ATOM      2  N   UNL     1       2.730   0.680  -1.191  1.00  0.00    -0.356 N 
ATOM      3  O   UNL     1       0.910  -0.232  -0.125  1.00  0.00    -0.275 OA
ATOM      4  C   UNL     1       2.123  -0.062  -0.208  1.00  0.00     0.221 C 
ATOM      5  H   UNL     1       3.714   0.700  -1.217  1.00  0.00     0.163 HD
BRANCH   4   6
ATOM      6  C   UNL     1       3.080  -0.578   0.841  1.00  0.00     0.123 C 
BRANCH   6   7
ATOM      7  C   UNL     1       3.986  -1.689   0.351  1.00  0.00     0.138 C 
ATOM      8  Br  UNL     1       5.474  -0.981  -0.724  1.00  0.00    -0.080 Br
BRANCH   7   9
ATOM      9  C   UNL     1       4.600  -2.531   1.464  1.00  0.00     0.176 C 
ATOM     10  O   UNL     1       4.347  -3.729   1.583  1.00  0.00    -0.293 OA
BRANCH   9  11
ATOM     11  C   UNL     1       5.580  -1.925   2.406  1.00  0.00     0.019 A 
ATOM     12  C   UNL     1       5.243  -0.821   3.210  1.00  0.00     0.012 A 
ATOM     13  C   UNL     1       6.866  -2.480   2.457  1.00  0.00     0.015 A 
ATOM     14  C   UNL     1       6.205  -0.212   4.019  1.00  0.00     0.005 A 
ATOM     15  C   UNL     1       7.803  -1.881   3.284  1.00  0.00    -0.044 A 
ATOM     16  C   UNL     1       7.479  -0.750   4.042  1.00  0.00    -0.045 A 
ATOM     17  C   UNL     1       9.239  -2.256   3.478  1.00  0.00     0.036 C 
ATOM     18  C   UNL     1       8.675  -0.250   4.790  1.00  0.00     0.036 C 
ATOM     19  C   UNL     1       9.574  -1.493   4.769  1.00  0.00     0.010 C 
ENDBRANCH   9  11
ENDBRANCH   7   9
ENDBRANCH   6   7
ENDBRANCH   4   6
ENDBRANCH   1   2
BRANCH   1  20
ATOM     20  C   UNL     1       2.250   2.937  -2.048  1.00  0.00     0.042 C 
BRANCH  20  21
ATOM     21  C   UNL     1       3.716   3.363  -2.138  1.00  0.00     0.118 C 
BRANCH  21  22
ATOM     22  N   UNL     1       4.337   3.025  -3.408  1.00  0.00    -0.352 N 
ATOM     23  C   UNL     1       5.072   3.798  -4.270  1.00  0.00     0.251 C 
ATOM     24  H   UNL     1       4.210   2.092  -3.696  1.00  0.00     0.163 HD
ATOM     25  O   UNL     1       5.395   3.336  -5.364  1.00  0.00    -0.269 OA
BRANCH  23  26
ATOM     26  C   UNL     1       5.467   5.182  -3.922  1.00  0.00     0.039 A 
ATOM     27  C   UNL     1       5.413   6.159  -4.923  1.00  0.00     0.014 A 
ATOM     28  C   UNL     1       5.942   5.519  -2.652  1.00  0.00     0.014 A 
ATOM     29  C   UNL     1       5.788   7.475  -4.640  1.00  0.00     0.010 A 
ATOM     30  C   UNL     1       6.257   6.846  -2.353  1.00  0.00     0.010 A 
ATOM     31  C   UNL     1       6.192   7.836  -3.346  1.00  0.00    -0.014 A 
BRANCH  31  32
ATOM     32  C   UNL     1       6.568   9.237  -3.025  1.00  0.00     0.031 A 
ATOM     33  C   UNL     1       7.984   9.578  -2.645  1.00  0.00     0.074 A 
ATOM     34  C   UNL     1       5.629  10.203  -3.034  1.00  0.00     0.049 A 
ATOM     35  N   UNL     1       8.490  10.733  -2.292  1.00  0.00    -0.248 NA
ATOM     36  C   UNL     1       8.954   8.472  -2.641  1.00  0.00     0.031 C 
ATOM     37  C   UNL     1       4.214  10.008  -3.355  1.00  0.00     0.029 A 
ATOM     38  N   UNL     1       5.726  11.545  -2.760  1.00  0.00    -0.354 N 
ATOM     39  C   UNL     1       9.827  10.489  -2.005  1.00  0.00     0.074 A 
ATOM     40  C   UNL     1      10.044   9.070  -2.185  1.00  0.00     0.031 C 
ATOM     41  C   UNL     1       3.581  11.191  -3.284  1.00  0.00     0.029 A 
ATOM     42  C   UNL     1       4.536  12.219  -2.881  1.00  0.00     0.049 A 
ATOM     43  H   UNL     1       6.570  11.983  -2.502  1.00  0.00     0.167 HD
ATOM     44  C   UNL     1      10.793  11.367  -1.642  1.00  0.00     0.031 A 
ATOM     45  C   UNL     1       4.243  13.519  -2.688  1.00  0.00     0.031 A 
ATOM     46  C   UNL     1      10.590  12.782  -1.480  1.00  0.00     0.049 A 
ATOM     47  C   UNL     1       5.332  14.473  -2.286  1.00  0.00     0.074 A 
ATOM     48  C   UNL     1      11.521  13.756  -1.165  1.00  0.00     0.029 A 
ATOM     49  N   UNL     1       9.371  13.425  -1.625  1.00  0.00    -0.354 N 
ATOM     50  N   UNL     1       6.603  14.234  -2.072  1.00  0.00    -0.248 NA
ATOM     51  C   UNL     1       4.946  15.881  -2.111  1.00  0.00     0.031 C 
ATOM     52  C   UNL     1      10.858  14.985  -1.080  1.00  0.00     0.029 A 
ATOM     53  C   UNL     1       9.523  14.781  -1.389  1.00  0.00     0.049 A 
ATOM     54  H   UNL     1       8.523  12.983  -1.860  1.00  0.00     0.167 HD
ATOM     55  C   UNL     1       7.173  15.463  -1.769  1.00  0.00     0.074 A 
ATOM     56  C   UNL     1       6.113  16.448  -1.837  1.00  0.00     0.031 C 
ATOM     57  C   UNL     1       8.462  15.751  -1.464  1.00  0.00     0.031 A 
BRANCH  44  58
ATOM     58  C   UNL     1      12.167  10.812  -1.387  1.00  0.00    -0.014 A 
ATOM     59  C   UNL     1      12.973  10.357  -2.443  1.00  0.00     0.009 A 
ATOM     60  C   UNL     1      12.673  10.773  -0.079  1.00  0.00     0.009 A 
ATOM     61  C   UNL     1      14.245   9.839  -2.188  1.00  0.00     0.001 A 
ATOM     62  C   UNL     1      13.955  10.279   0.169  1.00  0.00     0.001 A 
ATOM     63  C   UNL     1      14.735   9.803  -0.883  1.00  0.00     0.000 A 
ENDBRANCH  44  58
BRANCH  45  64
ATOM     64  C   UNL     1       2.855  14.007  -2.896  1.00  0.00    -0.014 A 
ATOM     65  C   UNL     1       2.541  14.797  -4.012  1.00  0.00     0.009 A 
ATOM     66  C   UNL     1       1.842  13.693  -1.977  1.00  0.00     0.009 A 
ATOM     67  C   UNL     1       1.245  15.285  -4.190  1.00  0.00     0.001 A 
ATOM     68  C   UNL     1       0.541  14.161  -2.172  1.00  0.00     0.001 A 
ATOM     69  C   UNL     1       0.246  14.964  -3.272  1.00  0.00     0.000 A 
ENDBRANCH  45  64
BRANCH  57  70
ATOM     70  C   UNL     1       8.806  17.192  -1.221  1.00  0.00    -0.014 A 
ATOM     71  C   UNL     1       8.422  17.844  -0.039  1.00  0.00     0.009 A 
ATOM     72  C   UNL     1       9.556  17.896  -2.176  1.00  0.00     0.009 A 
ATOM     73  C   UNL     1       8.758  19.184   0.167  1.00  0.00     0.001 A 
ATOM     74  C   UNL     1       9.911  19.228  -1.956  1.00  0.00     0.001 A 
ATOM     75  C   UNL     1       9.504  19.873  -0.789  1.00  0.00     0.000 A 
ENDBRANCH  57  70
ENDBRANCH  31  32
ENDBRANCH  23  26
ENDBRANCH  21  22
ENDBRANCH  20  21
ENDBRANCH   1  20
TORSDOF 13
