REMARK SMILES COc1ccc(C(=O)NC(=S)Nc2ccc(Br)cc2C(=O)NCCCNC(=O)c2ccc(-c3c4nc(c(-c5ccccc5)c5ccc([nH]5)c(-c5ccccc5)c5nc(c(-c6ccccc6)c6ccc3[nH]6)C=C5)C=C4)cc2)cc1Br
REMARK SMILES IDX 20 1 21 2 22 3 19 5 13 6 14 7 15 8 18 9 16 10 17 11 12 12
REMARK SMILES IDX 10 14 11 15 9 16 7 17 8 18 6 20 3 21 4 22 78 23 5 24 77 25
REMARK SMILES IDX 79 26 2 27 1 28 23 29 24 30 25 31 26 32 27 33 28 35 29 36
REMARK SMILES IDX 30 37 76 38 31 39 75 40 32 41 33 42 34 43 69 44 35 45 74 46
REMARK SMILES IDX 68 47 70 48 36 49 73 50 67 51 66 52 37 54 59 55 44 56 58 57
REMARK SMILES IDX 45 58 48 59 57 60 71 61 46 62 47 63 56 65 72 66 49 67 38 68
REMARK SMILES IDX 39 69 43 70 40 71 42 72 41 73 60 74 61 75 65 76 62 77 64 78
REMARK SMILES IDX 63 79 50 80 51 81 55 82 52 83 54 84 53 85
REMARK H PARENT 22 4 12 13 9 19 26 34 70 53 48 64
REMARK Flexibility Score: inf
ROOT
ATOM      1  C   UNL     1       3.126   0.848   2.342  1.00  0.00     0.253 C 
ATOM      2  O   UNL     1       2.447  -0.138   2.073  1.00  0.00    -0.269 OA
ATOM      3  N   UNL     1       4.335   0.692   2.953  1.00  0.00    -0.352 N 
ATOM      4  H   UNL     1       4.736  -0.207   2.993  1.00  0.00     0.163 HD
ENDROOT
BRANCH   1   5
ATOM      5  C   UNL     1       2.616   2.219   2.037  1.00  0.00     0.064 A 
ATOM      6  C   UNL     1       3.549   3.511   1.274  1.00  0.00     0.053 A 
ATOM      7  C   UNL     1       2.799   4.763   0.210  1.00  0.00     0.028 A 
ATOM      8  C   UNL     1       1.032   4.972   0.066  1.00  0.00     0.018 A 
ATOM      9  C   UNL     1       0.852   2.332   2.003  1.00  0.00     0.031 A 
ATOM     10  C   UNL     1      -0.055   3.835   0.984  1.00  0.00     0.018 A 
ATOM     11  Br  UNL     1      -1.889   4.569   0.658  1.00  0.00    -0.051 Br
BRANCH   6  12
ATOM     12  N   UNL     1       4.290   4.306   2.282  1.00  0.00    -0.332 N 
ATOM     13  H   UNL     1       5.232   4.448   2.038  1.00  0.00     0.169 HD
BRANCH  12  14
ATOM     14  C   UNL     1       3.954   4.895   3.495  1.00  0.00     0.177 C 
ATOM     15  S   UNL     1       5.205   5.715   4.272  1.00  0.00    -0.040 S 
BRANCH  14  16
ATOM     16  N   UNL     1       2.686   4.940   4.167  1.00  0.00    -0.299 N 
ATOM     17  C   UNL     1       1.213   4.689   4.279  1.00  0.00     0.257 C 
ATOM     18  O   UNL     1       0.609   5.026   5.292  1.00  0.00    -0.269 OA
ATOM     19  H   UNL     1       2.904   5.374   5.023  1.00  0.00     0.172 HD
BRANCH  17  20
ATOM     20  C   UNL     1       0.480   4.069   3.153  1.00  0.00     0.041 A 
ATOM     21  C   UNL     1      -0.087   1.821   0.224  1.00  0.00     0.133 A 
ATOM     22  C   UNL     1      -1.238   1.968   1.583  1.00  0.00     0.048 A 
ATOM     23  C   UNL     1       1.419   2.836   0.256  1.00  0.00     0.060 A 
ATOM     24  C   UNL     1      -0.939   3.046   3.005  1.00  0.00     0.018 A 
ATOM     25  C   UNL     1       1.590   4.062   1.848  1.00  0.00     0.033 A 
ATOM     26  Br  UNL     1       2.486   2.438  -1.379  1.00  0.00    -0.047 Br
BRANCH  21  27
ATOM     27  O   UNL     1      -0.295   0.862  -0.722  1.00  0.00    -0.496 OA
ATOM     28  C   UNL     1       0.422  -0.315  -0.341  1.00  0.00     0.278 C 
ENDBRANCH  21  27
ENDBRANCH  17  20
ENDBRANCH  14  16
ENDBRANCH  12  14
ENDBRANCH   6  12
ENDBRANCH   1   5
BRANCH   3  29
ATOM     29  C   UNL     1       5.038   1.786   3.533  1.00  0.00     0.118 C 
BRANCH  29  30
ATOM     30  C   UNL     1       5.432   1.631   4.965  1.00  0.00     0.042 C 
BRANCH  30  31
ATOM     31  C   UNL     1       6.498   0.596   5.136  1.00  0.00     0.118 C 
BRANCH  31  32
ATOM     32  N   UNL     1       7.695   0.904   4.354  1.00  0.00    -0.352 N 
ATOM     33  C   UNL     1       8.901   1.427   4.755  1.00  0.00     0.251 C 
ATOM     34  H   UNL     1       7.626   0.707   3.392  1.00  0.00     0.163 HD
ATOM     35  O   UNL     1       9.694   1.865   3.929  1.00  0.00    -0.269 OA
BRANCH  33  36
ATOM     36  C   UNL     1       9.207   1.479   6.196  1.00  0.00     0.039 A 
ATOM     37  C   UNL     1       9.888   2.570   6.731  1.00  0.00     0.014 A 
ATOM     38  C   UNL     1       8.742   0.463   7.028  1.00  0.00     0.014 A 
ATOM     39  C   UNL     1      10.016   2.671   8.114  1.00  0.00     0.010 A 
ATOM     40  C   UNL     1       8.670   0.679   8.387  1.00  0.00     0.010 A 
ATOM     41  C   UNL     1       9.357   1.755   8.953  1.00  0.00    -0.014 A 
BRANCH  41  42
ATOM     42  C   UNL     1       9.412   1.857  10.426  1.00  0.00     0.031 A 
ATOM     43  C   UNL     1       9.933   0.696  11.232  1.00  0.00     0.074 A 
ATOM     44  C   UNL     1       8.944   2.963  11.034  1.00  0.00     0.049 A 
ATOM     45  N   UNL     1      10.031   0.574  12.530  1.00  0.00    -0.248 NA
ATOM     46  C   UNL     1      10.370  -0.502  10.489  1.00  0.00     0.031 C 
ATOM     47  C   UNL     1       8.364   4.127  10.358  1.00  0.00     0.029 A 
ATOM     48  N   UNL     1       8.892   3.292  12.363  1.00  0.00    -0.354 N 
ATOM     49  C   UNL     1      10.519  -0.707  12.750  1.00  0.00     0.074 A 
ATOM     50  C   UNL     1      10.618  -1.357  11.466  1.00  0.00     0.031 C 
ATOM     51  C   UNL     1       8.072   5.064  11.272  1.00  0.00     0.029 A 
ATOM     52  C   UNL     1       8.381   4.544  12.599  1.00  0.00     0.049 A 
ATOM     53  H   UNL     1       9.192   2.688  13.081  1.00  0.00     0.167 HD
ATOM     54  C   UNL     1      10.887  -1.284  13.916  1.00  0.00     0.031 A 
ATOM     55  C   UNL     1       8.175   5.196  13.758  1.00  0.00     0.031 A 
ATOM     56  C   UNL     1      10.789  -0.629  15.190  1.00  0.00     0.049 A 
ATOM     57  C   UNL     1       8.555   4.517  15.044  1.00  0.00     0.074 A 
ATOM     58  C   UNL     1      11.180  -1.100  16.429  1.00  0.00     0.029 A 
ATOM     59  N   UNL     1      10.250   0.633  15.388  1.00  0.00    -0.354 N 
ATOM     60  N   UNL     1       9.093   3.335  15.230  1.00  0.00    -0.248 NA
ATOM     61  C   UNL     1       8.310   5.269  16.281  1.00  0.00     0.031 C 
ATOM     62  C   UNL     1      10.798  -0.160  17.388  1.00  0.00     0.029 A 
ATOM     63  C   UNL     1      10.260   0.939  16.737  1.00  0.00     0.049 A 
ATOM     64  H   UNL     1       9.912   1.222  14.675  1.00  0.00     0.167 HD
ATOM     65  C   UNL     1       9.281   3.216  16.601  1.00  0.00     0.074 A 
ATOM     66  C   UNL     1       8.821   4.455  17.193  1.00  0.00     0.031 C 
ATOM     67  C   UNL     1       9.791   2.177  17.307  1.00  0.00     0.031 A 
BRANCH  54  68
ATOM     68  C   UNL     1      11.408  -2.694  13.862  1.00  0.00    -0.014 A 
ATOM     69  C   UNL     1      12.620  -3.008  13.225  1.00  0.00     0.009 A 
ATOM     70  C   UNL     1      10.687  -3.722  14.487  1.00  0.00     0.009 A 
ATOM     71  C   UNL     1      13.076  -4.327  13.180  1.00  0.00     0.001 A 
ATOM     72  C   UNL     1      11.165  -5.033  14.477  1.00  0.00     0.001 A 
ATOM     73  C   UNL     1      12.353  -5.337  13.814  1.00  0.00     0.000 A 
ENDBRANCH  54  68
BRANCH  55  74
ATOM     74  C   UNL     1       7.582   6.559  13.754  1.00  0.00    -0.014 A 
ATOM     75  C   UNL     1       8.325   7.669  14.184  1.00  0.00     0.009 A 
ATOM     76  C   UNL     1       6.257   6.756  13.332  1.00  0.00     0.009 A 
ATOM     77  C   UNL     1       7.742   8.938  14.229  1.00  0.00     0.001 A 
ATOM     78  C   UNL     1       5.690   8.031  13.338  1.00  0.00     0.001 A 
ATOM     79  C   UNL     1       6.428   9.118  13.801  1.00  0.00     0.000 A 
ENDBRANCH  55  74
BRANCH  67  80
ATOM     80  C   UNL     1       9.923   2.353  18.795  1.00  0.00    -0.014 A 
ATOM     81  C   UNL     1       8.800   2.441  19.631  1.00  0.00     0.009 A 
ATOM     82  C   UNL     1      11.203   2.390  19.372  1.00  0.00     0.009 A 
ATOM     83  C   UNL     1       8.957   2.611  21.008  1.00  0.00     0.001 A 
ATOM     84  C   UNL     1      11.357   2.514  20.752  1.00  0.00     0.001 A 
ATOM     85  C   UNL     1      10.235   2.640  21.567  1.00  0.00     0.000 A 
ENDBRANCH  67  80
ENDBRANCH  41  42
ENDBRANCH  33  36
ENDBRANCH  31  32
ENDBRANCH  30  31
ENDBRANCH  29  30
ENDBRANCH   3  29
TORSDOF 15
