REMARK SMILES Cc1ccc(NC(=O)N2CCCC[C@@H]2C(=O)NCCCNC(=O)c2ccc(-c3c4nc(c(-c5ccccc5)c5ccc([nH]5)c(-c5ccccc5)c5nc(c(-c6ccccc6)c6ccc3[nH]6)C=C5)C=C4)cc2)cc1
REMARK SMILES IDX 19 1 18 2 17 3 15 4 16 5 14 7 9 8 10 9 11 10 13 11 12 12
REMARK SMILES IDX 7 13 6 14 8 16 5 17 1 18 2 19 3 20 73 21 4 22 72 23 20 24
REMARK SMILES IDX 21 25 22 26 23 28 24 29 25 30 71 31 26 32 70 33 27 34 28 35
REMARK SMILES IDX 29 36 64 37 30 38 69 39 63 40 65 41 31 42 68 43 62 44 61 45
REMARK SMILES IDX 32 47 54 48 39 49 53 50 40 51 43 52 52 53 66 54 41 55 42 56
REMARK SMILES IDX 51 58 67 59 44 60 33 61 34 62 38 63 35 64 37 65 36 66 55 67
REMARK SMILES IDX 56 68 60 69 57 70 59 71 58 72 45 73 46 74 50 75 47 76 49 77
REMARK SMILES IDX 48 78
REMARK H PARENT 17 6 6 15 21 27 65 46 43 57
REMARK Flexibility Score: inf
ROOT
ATOM      1  C   UNL     1      -5.365  -3.203   3.262  1.00  0.00     0.042 C 
ENDROOT
BRANCH   1   2
ATOM      2  C   UNL     1      -4.993  -2.124   2.252  1.00  0.00     0.117 C 
BRANCH   2   3
ATOM      3  N   UNL     1      -3.730  -1.483   2.591  1.00  0.00    -0.354 N 
ATOM      4  C   UNL     1      -2.462  -1.716   2.139  1.00  0.00     0.242 C 
ATOM      5  O   UNL     1      -1.544  -1.200   2.788  1.00  0.00    -0.273 OA
ATOM      6  H   UNL     1      -3.802  -0.762   3.257  1.00  0.00     0.163 HD
BRANCH   4   7
ATOM      7  C   UNL     1      -2.148  -2.724   1.000  1.00  0.00     0.176 C 
ATOM      8  N   UNL     1      -3.068  -2.640  -0.166  1.00  0.00    -0.313 N 
ATOM      9  C   UNL     1      -3.293  -3.830  -0.981  1.00  0.00     0.122 C 
ATOM     10  C   UNL     1      -3.345  -5.131  -0.202  1.00  0.00     0.022 C 
ATOM     11  C   UNL     1      -2.081  -4.117   1.660  1.00  0.00     0.035 C 
ATOM     12  C   UNL     1      -2.110  -5.266   0.669  1.00  0.00     0.004 C 
BRANCH   8  13
ATOM     13  C   UNL     1      -3.505  -1.450  -0.730  1.00  0.00     0.322 C 
ATOM     14  N   UNL     1      -2.814  -0.298  -0.518  1.00  0.00    -0.308 N 
ATOM     15  H   UNL     1      -3.365   0.491  -0.312  1.00  0.00     0.171 HD
ATOM     16  O   UNL     1      -4.580  -1.386  -1.333  1.00  0.00    -0.248 OA
BRANCH  14  17
ATOM     17  C   UNL     1      -1.429  -0.071  -0.550  1.00  0.00     0.042 A 
ATOM     18  C   UNL     1       2.805   0.491  -0.089  1.00  0.00     0.044 C 
ATOM     19  C   UNL     1       1.336   0.357  -0.354  1.00  0.00    -0.051 A 
ATOM     20  C   UNL     1       0.842  -0.776  -1.007  1.00  0.00     0.005 A 
ATOM     21  C   UNL     1       0.434   1.312   0.129  1.00  0.00     0.005 A 
ATOM     22  C   UNL     1      -0.533  -0.973  -1.129  1.00  0.00     0.026 A 
ATOM     23  C   UNL     1      -0.943   1.107   0.015  1.00  0.00     0.026 A 
ENDBRANCH  14  17
ENDBRANCH   8  13
ENDBRANCH   4   7
ENDBRANCH   2   3
ENDBRANCH   1   2
BRANCH   1  24
ATOM     24  C   UNL     1      -5.933  -2.645   4.553  1.00  0.00     0.118 C 
BRANCH  24  25
ATOM     25  N   UNL     1      -7.386  -2.566   4.588  1.00  0.00    -0.352 N 
ATOM     26  C   UNL     1      -8.217  -2.075   5.585  1.00  0.00     0.251 C 
ATOM     27  H   UNL     1      -7.845  -2.911   3.788  1.00  0.00     0.163 HD
ATOM     28  O   UNL     1      -9.425  -2.141   5.460  1.00  0.00    -0.269 OA
BRANCH  26  29
ATOM     29  C   UNL     1      -7.622  -1.326   6.723  1.00  0.00     0.039 A 
ATOM     30  C   UNL     1      -8.218  -0.107   7.067  1.00  0.00     0.014 A 
ATOM     31  C   UNL     1      -6.379  -1.665   7.243  1.00  0.00     0.014 A 
ATOM     32  C   UNL     1      -7.450   0.874   7.686  1.00  0.00     0.010 A 
ATOM     33  C   UNL     1      -5.575  -0.659   7.730  1.00  0.00     0.010 A 
ATOM     34  C   UNL     1      -6.095   0.628   7.888  1.00  0.00    -0.014 A 
BRANCH  34  35
ATOM     35  C   UNL     1      -5.123   1.669   8.179  1.00  0.00     0.031 A 
ATOM     36  C   UNL     1      -4.547   1.774   9.530  1.00  0.00     0.074 A 
ATOM     37  C   UNL     1      -4.697   2.487   7.192  1.00  0.00     0.049 A 
ATOM     38  N   UNL     1      -4.031   2.853  10.011  1.00  0.00    -0.248 NA
ATOM     39  C   UNL     1      -4.565   0.669  10.482  1.00  0.00     0.031 C 
ATOM     40  C   UNL     1      -3.542   3.379   7.210  1.00  0.00     0.029 A 
ATOM     41  N   UNL     1      -5.377   2.828   6.027  1.00  0.00    -0.354 N 
ATOM     42  C   UNL     1      -3.396   2.517  11.182  1.00  0.00     0.074 A 
ATOM     43  C   UNL     1      -3.832   1.173  11.478  1.00  0.00     0.031 C 
ATOM     44  C   UNL     1      -3.702   4.316   6.261  1.00  0.00     0.029 A 
ATOM     45  C   UNL     1      -5.034   4.151   5.706  1.00  0.00     0.049 A 
ATOM     46  H   UNL     1      -5.988   2.247   5.519  1.00  0.00     0.167 HD
ATOM     47  C   UNL     1      -2.458   3.360  11.695  1.00  0.00     0.031 A 
ATOM     48  C   UNL     1      -5.986   5.130   5.673  1.00  0.00     0.031 A 
ATOM     49  C   UNL     1      -2.358   4.593  10.916  1.00  0.00     0.049 A 
ATOM     50  C   UNL     1      -5.771   6.224   6.698  1.00  0.00     0.074 A 
ATOM     51  C   UNL     1      -1.466   5.032   9.950  1.00  0.00     0.029 A 
ATOM     52  N   UNL     1      -3.451   5.448  10.858  1.00  0.00    -0.354 N 
ATOM     53  N   UNL     1      -4.979   6.116   7.729  1.00  0.00    -0.248 NA
ATOM     54  C   UNL     1      -6.453   7.515   6.658  1.00  0.00     0.031 C 
ATOM     55  C   UNL     1      -2.056   6.134   9.275  1.00  0.00     0.029 A 
ATOM     56  C   UNL     1      -3.290   6.379   9.851  1.00  0.00     0.049 A 
ATOM     57  H   UNL     1      -4.234   5.397  11.453  1.00  0.00     0.167 HD
ATOM     58  C   UNL     1      -5.030   7.265   8.477  1.00  0.00     0.074 A 
ATOM     59  C   UNL     1      -5.959   8.116   7.756  1.00  0.00     0.031 C 
ATOM     60  C   UNL     1      -4.308   7.400   9.630  1.00  0.00     0.031 A 
BRANCH  47  61
ATOM     61  C   UNL     1      -1.440   2.940  12.727  1.00  0.00    -0.014 A 
ATOM     62  C   UNL     1      -0.193   3.590  12.774  1.00  0.00     0.009 A 
ATOM     63  C   UNL     1      -1.617   1.887  13.639  1.00  0.00     0.009 A 
ATOM     64  C   UNL     1       0.844   3.151  13.608  1.00  0.00     0.001 A 
ATOM     65  C   UNL     1      -0.573   1.415  14.448  1.00  0.00     0.001 A 
ATOM     66  C   UNL     1       0.663   2.043  14.424  1.00  0.00     0.000 A 
ENDBRANCH  47  61
BRANCH  48  67
ATOM     67  C   UNL     1      -7.313   4.642   5.202  1.00  0.00    -0.014 A 
ATOM     68  C   UNL     1      -7.436   4.265   3.849  1.00  0.00     0.009 A 
ATOM     69  C   UNL     1      -8.271   4.179   6.115  1.00  0.00     0.009 A 
ATOM     70  C   UNL     1      -8.411   3.348   3.446  1.00  0.00     0.001 A 
ATOM     71  C   UNL     1      -9.253   3.267   5.704  1.00  0.00     0.001 A 
ATOM     72  C   UNL     1      -9.298   2.823   4.382  1.00  0.00     0.000 A 
ENDBRANCH  48  67
BRANCH  60  73
ATOM     73  C   UNL     1      -4.420   8.505  10.661  1.00  0.00    -0.014 A 
ATOM     74  C   UNL     1      -5.473   9.421  10.750  1.00  0.00     0.009 A 
ATOM     75  C   UNL     1      -3.457   8.562  11.700  1.00  0.00     0.009 A 
ATOM     76  C   UNL     1      -5.546  10.355  11.796  1.00  0.00     0.001 A 
ATOM     77  C   UNL     1      -3.550   9.456  12.768  1.00  0.00     0.001 A 
ATOM     78  C   UNL     1      -4.595  10.363  12.811  1.00  0.00     0.000 A 
ENDBRANCH  60  73
ENDBRANCH  34  35
ENDBRANCH  26  29
ENDBRANCH  24  25
ENDBRANCH   1  24
TORSDOF 12
