REMARK SMILES COc1cccc(NC(=O)[C@@H]2[C@@H](C(=O)NCCCNC(=O)c3ccc(-c4c5nc(c(-c6ccccc6)c6ccc([nH]6)c(-c6ccccc6)c6nc(c(-c7ccccc7)c7ccc4[nH]7)C=C6)C=C5)cc3)[C@H]3C=C[C@@H]2C3)c1
REMARK SMILES IDX 16 1 15 2 13 3 14 4 12 6 11 7 73 8 70 9 72 10 74 11 71 12
REMARK SMILES IDX 9 13 8 14 10 16 7 17 3 18 4 19 75 20 5 21 6 22 2 23 1 24
REMARK SMILES IDX 17 25 18 26 19 27 20 28 21 30 22 31 23 32 69 33 24 34 68 35
REMARK SMILES IDX 25 36 26 37 27 38 62 39 28 40 67 41 61 42 63 43 29 44 66 45
REMARK SMILES IDX 60 46 59 47 30 49 52 50 37 51 51 52 38 53 41 54 50 55 64 56
REMARK SMILES IDX 39 57 40 58 49 60 65 61 42 62 31 63 32 64 36 65 33 66 35 67
REMARK SMILES IDX 34 68 53 69 54 70 58 71 55 72 57 73 56 74 43 75 44 76 48 77
REMARK SMILES IDX 45 78 47 79 46 80
REMARK H PARENT 15 5 8 15 19 29 63 48 41 59
REMARK Flexibility Score: inf
ROOT
ATOM      1  C   UNL     1       4.418   5.816  -5.633  1.00  0.00     0.117 C 
ENDROOT
BRANCH   1   2
ATOM      2  N   UNL     1       4.370   7.256  -5.475  1.00  0.00    -0.356 N 
ATOM      3  C   UNL     1       4.201   8.060  -4.395  1.00  0.00     0.224 C 
ATOM      4  O   UNL     1       4.220   9.274  -4.630  1.00  0.00    -0.275 OA
ATOM      5  H   UNL     1       4.483   7.749  -6.320  1.00  0.00     0.163 HD
BRANCH   3   6
ATOM      6  C   UNL     1       4.120   7.544  -2.958  1.00  0.00     0.098 C 
ATOM      7  C   UNL     1       3.253   6.278  -2.644  1.00  0.00     0.099 C 
ATOM      8  C   UNL     1       2.296   6.771  -1.528  1.00  0.00     0.025 C 
ATOM      9  C   UNL     1       3.434   8.615  -2.053  1.00  0.00     0.025 C 
ATOM     10  C   UNL     1       1.313   7.710  -2.184  1.00  0.00    -0.027 C 
ATOM     11  C   UNL     1       3.160   7.798  -0.791  1.00  0.00     0.017 C 
ATOM     12  C   UNL     1       1.996   8.818  -2.503  1.00  0.00    -0.027 C 
BRANCH   7  13
ATOM     13  C   UNL     1       4.045   5.081  -2.153  1.00  0.00     0.228 C 
ATOM     14  N   UNL     1       3.461   3.874  -1.899  1.00  0.00    -0.326 N 
ATOM     15  H   UNL     1       4.090   3.233  -1.495  1.00  0.00     0.169 HD
ATOM     16  O   UNL     1       5.260   5.159  -1.946  1.00  0.00    -0.274 OA
BRANCH  14  17
ATOM     17  C   UNL     1       2.176   3.322  -2.076  1.00  0.00     0.044 A 
ATOM     18  C   UNL     1       0.704   1.446  -1.543  1.00  0.00     0.120 A 
ATOM     19  C   UNL     1      -0.307   2.020  -2.308  1.00  0.00     0.046 A 
ATOM     20  C   UNL     1       1.946   2.084  -1.450  1.00  0.00     0.072 A 
ATOM     21  C   UNL     1      -0.090   3.235  -2.947  1.00  0.00     0.006 A 
ATOM     22  C   UNL     1       1.143   3.882  -2.826  1.00  0.00     0.026 A 
BRANCH  18  23
ATOM     23  O   UNL     1       0.377   0.254  -0.959  1.00  0.00    -0.497 OA
ATOM     24  C   UNL     1       1.113  -0.089   0.210  1.00  0.00     0.278 C 
ENDBRANCH  18  23
ENDBRANCH  14  17
ENDBRANCH   7  13
ENDBRANCH   3   6
ENDBRANCH   1   2
BRANCH   1  25
ATOM     25  C   UNL     1       3.072   5.248  -6.086  1.00  0.00     0.042 C 
BRANCH  25  26
ATOM     26  C   UNL     1       2.683   5.604  -7.517  1.00  0.00     0.118 C 
BRANCH  26  27
ATOM     27  N   UNL     1       3.446   4.859  -8.502  1.00  0.00    -0.352 N 
ATOM     28  C   UNL     1       3.029   3.974  -9.465  1.00  0.00     0.251 C 
ATOM     29  H   UNL     1       4.418   5.013  -8.476  1.00  0.00     0.163 HD
ATOM     30  O   UNL     1       3.870   3.311 -10.071  1.00  0.00    -0.269 OA
BRANCH  28  31
ATOM     31  C   UNL     1       1.592   3.787  -9.782  1.00  0.00     0.039 A 
ATOM     32  C   UNL     1       1.139   2.496 -10.078  1.00  0.00     0.014 A 
ATOM     33  C   UNL     1       0.703   4.863  -9.864  1.00  0.00     0.014 A 
ATOM     34  C   UNL     1      -0.202   2.278 -10.408  1.00  0.00     0.010 A 
ATOM     35  C   UNL     1      -0.649   4.637 -10.129  1.00  0.00     0.010 A 
ATOM     36  C   UNL     1      -1.114   3.344 -10.413  1.00  0.00    -0.014 A 
BRANCH  36  37
ATOM     37  C   UNL     1      -2.550   3.126 -10.726  1.00  0.00     0.031 A 
ATOM     38  C   UNL     1      -3.157   3.718 -11.969  1.00  0.00     0.074 A 
ATOM     39  C   UNL     1      -3.326   2.436  -9.867  1.00  0.00     0.049 A 
ATOM     40  N   UNL     1      -4.402   3.689 -12.375  1.00  0.00    -0.248 NA
ATOM     41  C   UNL     1      -2.252   4.457 -12.863  1.00  0.00     0.031 C 
ATOM     42  C   UNL     1      -2.873   1.830  -8.614  1.00  0.00     0.029 A 
ATOM     43  N   UNL     1      -4.665   2.137  -9.917  1.00  0.00    -0.354 N 
ATOM     44  C   UNL     1      -4.433   4.422 -13.555  1.00  0.00     0.074 A 
ATOM     45  C   UNL     1      -3.091   4.912 -13.782  1.00  0.00     0.031 C 
ATOM     46  C   UNL     1      -3.911   1.215  -8.024  1.00  0.00     0.029 A 
ATOM     47  C   UNL     1      -5.107   1.412  -8.838  1.00  0.00     0.049 A 
ATOM     48  H   UNL     1      -5.252   2.414 -10.657  1.00  0.00     0.167 HD
ATOM     49  C   UNL     1      -5.479   4.657 -14.383  1.00  0.00     0.031 A 
ATOM     50  C   UNL     1      -6.338   0.962  -8.530  1.00  0.00     0.031 A 
ATOM     51  C   UNL     1      -6.811   4.156 -14.175  1.00  0.00     0.049 A 
ATOM     52  C   UNL     1      -7.482   1.236  -9.464  1.00  0.00     0.074 A 
ATOM     53  C   UNL     1      -7.922   4.295 -14.990  1.00  0.00     0.029 A 
ATOM     54  N   UNL     1      -7.213   3.417 -13.074  1.00  0.00    -0.354 N 
ATOM     55  N   UNL     1      -7.482   1.888 -10.601  1.00  0.00    -0.248 NA
ATOM     56  C   UNL     1      -8.796   0.703  -9.075  1.00  0.00     0.031 C 
ATOM     57  C   UNL     1      -9.006   3.672 -14.362  1.00  0.00     0.029 A 
ATOM     58  C   UNL     1      -8.559   3.108 -13.178  1.00  0.00     0.049 A 
ATOM     59  H   UNL     1      -6.628   3.151 -12.328  1.00  0.00     0.167 HD
ATOM     60  C   UNL     1      -8.785   1.822 -11.074  1.00  0.00     0.074 A 
ATOM     61  C   UNL     1      -9.547   1.059 -10.108  1.00  0.00     0.031 C 
ATOM     62  C   UNL     1      -9.303   2.347 -12.211  1.00  0.00     0.031 A 
BRANCH  49  63
ATOM     63  C   UNL     1      -5.222   5.505 -15.596  1.00  0.00    -0.014 A 
ATOM     64  C   UNL     1      -4.491   5.011 -16.688  1.00  0.00     0.009 A 
ATOM     65  C   UNL     1      -5.749   6.805 -15.663  1.00  0.00     0.009 A 
ATOM     66  C   UNL     1      -4.263   5.813 -17.807  1.00  0.00     0.001 A 
ATOM     67  C   UNL     1      -5.540   7.596 -16.794  1.00  0.00     0.001 A 
ATOM     68  C   UNL     1      -4.790   7.103 -17.861  1.00  0.00     0.000 A 
ENDBRANCH  49  63
BRANCH  50  69
ATOM     69  C   UNL     1      -6.551   0.186  -7.282  1.00  0.00    -0.014 A 
ATOM     70  C   UNL     1      -6.774  -1.198  -7.337  1.00  0.00     0.009 A 
ATOM     71  C   UNL     1      -6.533   0.824  -6.033  1.00  0.00     0.009 A 
ATOM     72  C   UNL     1      -6.993  -1.925  -6.166  1.00  0.00     0.001 A 
ATOM     73  C   UNL     1      -6.729   0.090  -4.861  1.00  0.00     0.001 A 
ATOM     74  C   UNL     1      -6.966  -1.282  -4.929  1.00  0.00     0.000 A 
ENDBRANCH  50  69
BRANCH  62  75
ATOM     75  C   UNL     1     -10.755   2.086 -12.488  1.00  0.00    -0.014 A 
ATOM     76  C   UNL     1     -11.762   2.769 -11.789  1.00  0.00     0.009 A 
ATOM     77  C   UNL     1     -11.118   1.173 -13.490  1.00  0.00     0.009 A 
ATOM     78  C   UNL     1     -13.107   2.522 -12.072  1.00  0.00     0.001 A 
ATOM     79  C   UNL     1     -12.463   0.945 -13.786  1.00  0.00     0.001 A 
ATOM     80  C   UNL     1     -13.456   1.614 -13.072  1.00  0.00     0.000 A 
ENDBRANCH  62  75
ENDBRANCH  36  37
ENDBRANCH  28  31
ENDBRANCH  26  27
ENDBRANCH  25  26
ENDBRANCH   1  25
TORSDOF 13
