REMARK SMILES COCC[NH2+]CC(=O)N1C[C@H](OC)C[C@@H]1C(=O)NCCCNC(=O)c1ccc(-c2c3nc(c(-c4ccccc4)c4ccc([nH]4)c(-c4ccccc4)c4nc(c(-c5ccccc5)c5ccc2[nH]5)C=C4)C=C3)cc1
REMARK SMILES IDX 16 1 17 2 18 3 15 5 9 6 10 7 11 8 14 9 7 10 8 11 6 12 5 13
REMARK SMILES IDX 4 16 3 17 2 18 1 19 12 20 13 21 19 22 20 23 21 24 22 25
REMARK SMILES IDX 23 26 24 28 25 29 26 30 72 31 27 32 71 33 28 34 29 35 30 36
REMARK SMILES IDX 65 37 31 38 70 39 64 40 66 41 32 42 69 43 63 44 62 45 33 47
REMARK SMILES IDX 55 48 40 49 54 50 41 51 44 52 53 53 67 54 42 55 43 56 52 58
REMARK SMILES IDX 68 59 45 60 34 61 35 62 39 63 36 64 38 65 37 66 56 67 57 68
REMARK SMILES IDX 61 69 58 70 60 71 59 72 46 73 47 74 51 75 48 76 50 77 49 78
REMARK H PARENT 18 4 5 14 5 15 22 27 66 46 44 57
REMARK Flexibility Score: inf
ROOT
ATOM      1  C   UNL     1      -3.230  -0.445  -5.832  1.00  0.00     0.242 C 
ATOM      2  O   UNL     1      -4.292   0.071  -6.199  1.00  0.00    -0.273 OA
ATOM      3  N   UNL     1      -2.314  -0.694  -6.809  1.00  0.00    -0.354 N 
ATOM      4  H   UNL     1      -2.556  -0.344  -7.697  1.00  0.00     0.163 HD
ENDROOT
BRANCH   1   5
ATOM      5  C   UNL     1      -3.084  -0.960  -4.384  1.00  0.00     0.177 C 
ATOM      6  N   UNL     1      -1.783  -0.842  -3.725  1.00  0.00    -0.323 N 
ATOM      7  C   UNL     1      -1.641  -1.976  -2.842  1.00  0.00     0.152 C 
ATOM      8  C   UNL     1      -2.253  -3.138  -3.597  1.00  0.00     0.139 C 
ATOM      9  C   UNL     1      -3.434  -2.469  -4.314  1.00  0.00     0.069 C 
BRANCH   6  10
ATOM     10  C   UNL     1      -1.259   0.388  -3.352  1.00  0.00     0.278 C 
ATOM     11  O   UNL     1      -1.969   1.340  -3.036  1.00  0.00    -0.268 OA
BRANCH  10  12
ATOM     12  C   UNL     1       0.275   0.519  -3.476  1.00  0.00     0.362 C 
BRANCH  12  13
ATOM     13  N   UNL     1       1.014   0.544  -2.195  1.00  0.00    -0.337 N 
ATOM     14  H   UNL     1       1.959   0.887  -2.368  1.00  0.00     0.346 HD
ATOM     15  H   UNL     1       0.507   1.155  -1.554  1.00  0.00     0.346 HD
BRANCH  13  16
ATOM     16  C   UNL     1       1.100  -0.779  -1.577  1.00  0.00     0.289 C 
BRANCH  16  17
ATOM     17  C   UNL     1       2.155  -0.970  -0.481  1.00  0.00     0.221 C 
BRANCH  17  18
ATOM     18  O   UNL     1       1.597  -0.867   0.829  1.00  0.00    -0.379 OA
ATOM     19  C   UNL     1       1.308   0.470   1.205  1.00  0.00     0.195 C 
ENDBRANCH  17  18
ENDBRANCH  16  17
ENDBRANCH  13  16
ENDBRANCH  12  13
ENDBRANCH  10  12
ENDBRANCH   6  10
BRANCH   8  20
ATOM     20  O   UNL     1      -1.387  -3.726  -4.574  1.00  0.00    -0.380 OA
ATOM     21  C   UNL     1      -0.029  -3.907  -4.178  1.00  0.00     0.195 C 
ENDBRANCH   8  20
ENDBRANCH   1   5
BRANCH   3  22
ATOM     22  C   UNL     1      -1.045  -1.387  -6.758  1.00  0.00     0.117 C 
BRANCH  22  23
ATOM     23  C   UNL     1      -1.113  -2.768  -7.401  1.00  0.00     0.042 C 
BRANCH  23  24
ATOM     24  C   UNL     1      -0.572  -2.817  -8.819  1.00  0.00     0.118 C 
BRANCH  24  25
ATOM     25  N   UNL     1       0.855  -2.501  -8.885  1.00  0.00    -0.352 N 
ATOM     26  C   UNL     1       1.925  -3.234  -9.339  1.00  0.00     0.251 C 
ATOM     27  H   UNL     1       1.090  -1.608  -8.544  1.00  0.00     0.163 HD
ATOM     28  O   UNL     1       3.066  -2.823  -9.139  1.00  0.00    -0.269 OA
BRANCH  26  29
ATOM     29  C   UNL     1       1.720  -4.521 -10.037  1.00  0.00     0.039 A 
ATOM     30  C   UNL     1       2.620  -5.570  -9.818  1.00  0.00     0.014 A 
ATOM     31  C   UNL     1       0.647  -4.699 -10.907  1.00  0.00     0.014 A 
ATOM     32  C   UNL     1       2.387  -6.820 -10.399  1.00  0.00     0.010 A 
ATOM     33  C   UNL     1       0.352  -5.966 -11.386  1.00  0.00     0.010 A 
ATOM     34  C   UNL     1       1.221  -7.041 -11.146  1.00  0.00    -0.014 A 
BRANCH  34  35
ATOM     35  C   UNL     1       0.873  -8.364 -11.725  1.00  0.00     0.031 A 
ATOM     36  C   UNL     1       0.639  -8.475 -13.207  1.00  0.00     0.074 A 
ATOM     37  C   UNL     1       0.633  -9.417 -10.920  1.00  0.00     0.049 A 
ATOM     38  N   UNL     1       0.083  -9.443 -13.889  1.00  0.00    -0.248 NA
ATOM     39  C   UNL     1       1.034  -7.314 -14.024  1.00  0.00     0.031 C 
ATOM     40  C   UNL     1       0.788  -9.435  -9.464  1.00  0.00     0.029 A 
ATOM     41  N   UNL     1       0.179 -10.678 -11.220  1.00  0.00    -0.354 N 
ATOM     42  C   UNL     1       0.002  -8.980 -15.196  1.00  0.00     0.074 A 
ATOM     43  C   UNL     1       0.529  -7.634 -15.206  1.00  0.00     0.031 C 
ATOM     44  C   UNL     1       0.454 -10.651  -9.001  1.00  0.00     0.029 A 
ATOM     45  C   UNL     1       0.008 -11.478 -10.116  1.00  0.00     0.049 A 
ATOM     46  H   UNL     1      -0.008 -10.979 -12.138  1.00  0.00     0.167 HD
ATOM     47  C   UNL     1      -0.457  -9.623 -16.296  1.00  0.00     0.031 A 
ATOM     48  C   UNL     1      -0.472 -12.732 -10.014  1.00  0.00     0.031 A 
ATOM     49  C   UNL     1      -0.921 -10.982 -16.292  1.00  0.00     0.049 A 
ATOM     50  C   UNL     1      -0.931 -13.445 -11.255  1.00  0.00     0.074 A 
ATOM     51  C   UNL     1      -1.338 -11.755 -17.362  1.00  0.00     0.029 A 
ATOM     52  N   UNL     1      -1.009 -11.779 -15.161  1.00  0.00    -0.354 N 
ATOM     53  N   UNL     1      -0.973 -13.007 -12.490  1.00  0.00    -0.248 NA
ATOM     54  C   UNL     1      -1.402 -14.827 -11.089  1.00  0.00     0.031 C 
ATOM     55  C   UNL     1      -1.702 -13.013 -16.873  1.00  0.00     0.029 A 
ATOM     56  C   UNL     1      -1.471 -13.035 -15.507  1.00  0.00     0.049 A 
ATOM     57  H   UNL     1      -0.776 -11.492 -14.248  1.00  0.00     0.167 HD
ATOM     58  C   UNL     1      -1.439 -14.069 -13.252  1.00  0.00     0.074 A 
ATOM     59  C   UNL     1      -1.663 -15.174 -12.342  1.00  0.00     0.031 C 
ATOM     60  C   UNL     1      -1.659 -14.126 -14.588  1.00  0.00     0.031 A 
BRANCH  47  61
ATOM     61  C   UNL     1      -0.473  -8.858 -17.589  1.00  0.00    -0.014 A 
ATOM     62  C   UNL     1       0.718  -8.508 -18.245  1.00  0.00     0.009 A 
ATOM     63  C   UNL     1      -1.698  -8.496 -18.169  1.00  0.00     0.009 A 
ATOM     64  C   UNL     1       0.683  -7.770 -19.430  1.00  0.00     0.001 A 
ATOM     65  C   UNL     1      -1.732  -7.787 -19.371  1.00  0.00     0.001 A 
ATOM     66  C   UNL     1      -0.541  -7.413 -19.994  1.00  0.00     0.000 A 
ENDBRANCH  47  61
BRANCH  48  67
ATOM     67  C   UNL     1      -0.527 -13.402  -8.689  1.00  0.00    -0.014 A 
ATOM     68  C   UNL     1       0.372 -14.437  -8.385  1.00  0.00     0.009 A 
ATOM     69  C   UNL     1      -1.469 -13.017  -7.723  1.00  0.00     0.009 A 
ATOM     70  C   UNL     1       0.311 -15.090  -7.152  1.00  0.00     0.001 A 
ATOM     71  C   UNL     1      -1.510 -13.654  -6.480  1.00  0.00     0.001 A 
ATOM     72  C   UNL     1      -0.626 -14.695  -6.199  1.00  0.00     0.000 A 
ENDBRANCH  48  67
BRANCH  60  73
ATOM     73  C   UNL     1      -2.102 -15.440 -15.161  1.00  0.00    -0.014 A 
ATOM     74  C   UNL     1      -3.421 -15.894 -15.013  1.00  0.00     0.009 A 
ATOM     75  C   UNL     1      -1.199 -16.196 -15.925  1.00  0.00     0.009 A 
ATOM     76  C   UNL     1      -3.821 -17.092 -15.607  1.00  0.00     0.001 A 
ATOM     77  C   UNL     1      -1.609 -17.380 -16.536  1.00  0.00     0.001 A 
ATOM     78  C   UNL     1      -2.918 -17.830 -16.373  1.00  0.00     0.000 A 
ENDBRANCH  60  73
ENDBRANCH  34  35
ENDBRANCH  26  29
ENDBRANCH  24  25
ENDBRANCH  23  24
ENDBRANCH  22  23
ENDBRANCH   3  22
TORSDOF 17
