REMARK SMILES C[C@@H](C(=O)NCCCNC(=O)c1ccc(-c2c3nc(c(-c4ccccc4)c4ccc([nH]4)c(-c4ccccc4)c4nc(c(-c5ccccc5)c5ccc2[nH]5)C=C4)C=C3)cc1)c1cccn(C(F)F)c1=O
REMARK SMILES IDX 7 1 6 2 5 3 3 4 4 5 2 7 1 8 60 9 61 10 68 11 62 12 64 13
REMARK SMILES IDX 69 14 63 15 65 16 66 17 67 18 8 19 9 20 10 21 11 23 12 24
REMARK SMILES IDX 13 25 59 26 14 27 58 28 15 29 16 30 17 31 52 32 18 33 57 34
REMARK SMILES IDX 51 35 53 36 19 37 56 38 50 39 49 40 20 42 42 43 27 44 41 45
REMARK SMILES IDX 28 46 31 47 40 48 54 49 29 50 30 51 39 53 55 54 32 55 21 56
REMARK SMILES IDX 22 57 26 58 23 59 25 60 24 61 43 62 44 63 48 64 45 65 47 66
REMARK SMILES IDX 46 67 33 68 34 69 38 70 35 71 37 72 36 73
REMARK H PARENT 5 6 9 22 53 41 31 52
REMARK Flexibility Score: inf
ROOT
ATOM      1  C   UNL     1       4.209  -1.108   0.724  1.00  0.00     0.042 C 
ENDROOT
BRANCH   1   2
ATOM      2  C   UNL     1       3.237  -2.171   0.211  1.00  0.00     0.117 C 
BRANCH   2   3
ATOM      3  N   UNL     1       2.166  -2.411   1.160  1.00  0.00    -0.356 N 
ATOM      4  C   UNL     1       0.890  -1.921   1.201  1.00  0.00     0.227 C 
ATOM      5  O   UNL     1       0.241  -2.153   2.222  1.00  0.00    -0.274 OA
ATOM      6  H   UNL     1       2.394  -3.027   1.893  1.00  0.00     0.163 HD
BRANCH   4   7
ATOM      7  C   UNL     1       0.312  -1.167  -0.012  1.00  0.00     0.111 C 
ATOM      8  C   UNL     1       0.914   0.236  -0.103  1.00  0.00     0.023 C 
BRANCH   7   9
ATOM      9  C   UNL     1      -1.211  -1.270   0.007  1.00  0.00     0.030 A 
ATOM     10  C   UNL     1      -1.826  -2.464  -0.118  1.00  0.00     0.012 A 
ATOM     11  C   UNL     1      -2.089  -0.049   0.151  1.00  0.00     0.258 A 
ATOM     12  C   UNL     1      -3.257  -2.600  -0.100  1.00  0.00     0.019 A 
ATOM     13  N   UNL     1      -3.458  -0.258   0.069  1.00  0.00    -0.258 N 
ATOM     14  O   UNL     1      -1.612   1.069   0.303  1.00  0.00    -0.269 OA
ATOM     15  C   UNL     1      -4.025  -1.510  -0.024  1.00  0.00     0.095 A 
BRANCH  13  16
ATOM     16  C   UNL     1      -4.312   0.902   0.118  1.00  0.00     0.451 C 
ATOM     17  F   UNL     1      -5.164   0.882  -0.944  1.00  0.00    -0.185 F 
ATOM     18  F   UNL     1      -5.095   0.848   1.228  1.00  0.00    -0.185 F 
ENDBRANCH  13  16
ENDBRANCH   7   9
ENDBRANCH   4   7
ENDBRANCH   2   3
ENDBRANCH   1   2
BRANCH   1  19
ATOM     19  C   UNL     1       4.990  -1.521   1.968  1.00  0.00     0.118 C 
BRANCH  19  20
ATOM     20  N   UNL     1       5.958  -2.569   1.695  1.00  0.00    -0.352 N 
ATOM     21  C   UNL     1       7.294  -2.635   1.998  1.00  0.00     0.251 C 
ATOM     22  H   UNL     1       5.599  -3.353   1.220  1.00  0.00     0.163 HD
ATOM     23  O   UNL     1       7.969  -3.545   1.520  1.00  0.00    -0.269 OA
BRANCH  21  24
ATOM     24  C   UNL     1       7.939  -1.631   2.877  1.00  0.00     0.039 A 
ATOM     25  C   UNL     1       9.249  -1.237   2.581  1.00  0.00     0.014 A 
ATOM     26  C   UNL     1       7.311  -1.137   4.024  1.00  0.00     0.014 A 
ATOM     27  C   UNL     1       9.918  -0.341   3.418  1.00  0.00     0.010 A 
ATOM     28  C   UNL     1       7.954  -0.190   4.822  1.00  0.00     0.010 A 
ATOM     29  C   UNL     1       9.273   0.196   4.543  1.00  0.00    -0.014 A 
BRANCH  29  30
ATOM     30  C   UNL     1       9.992   1.109   5.467  1.00  0.00     0.031 A 
ATOM     31  C   UNL     1      10.311   0.664   6.870  1.00  0.00     0.074 A 
ATOM     32  C   UNL     1      10.340   2.344   5.061  1.00  0.00     0.049 A 
ATOM     33  N   UNL     1      10.919   1.320   7.827  1.00  0.00    -0.248 NA
ATOM     34  C   UNL     1       9.869  -0.686   7.254  1.00  0.00     0.031 C 
ATOM     35  C   UNL     1      10.058   2.914   3.743  1.00  0.00     0.029 A 
ATOM     36  N   UNL     1      11.007   3.344   5.722  1.00  0.00    -0.354 N 
ATOM     37  C   UNL     1      10.913   0.471   8.928  1.00  0.00     0.074 A 
ATOM     38  C   UNL     1      10.202  -0.726   8.535  1.00  0.00     0.031 C 
ATOM     39  C   UNL     1      10.569   4.155   3.685  1.00  0.00     0.029 A 
ATOM     40  C   UNL     1      11.192   4.475   4.966  1.00  0.00     0.049 A 
ATOM     41  H   UNL     1      11.322   3.259   6.651  1.00  0.00     0.167 HD
ATOM     42  C   UNL     1      11.467   0.658  10.150  1.00  0.00     0.031 A 
ATOM     43  C   UNL     1      11.802   5.637   5.267  1.00  0.00     0.031 A 
ATOM     44  C   UNL     1      12.190   1.837  10.542  1.00  0.00     0.049 A 
ATOM     45  C   UNL     1      12.438   5.810   6.617  1.00  0.00     0.074 A 
ATOM     46  C   UNL     1      12.818   2.107  11.746  1.00  0.00     0.029 A 
ATOM     47  N   UNL     1      12.387   2.944   9.731  1.00  0.00    -0.354 N 
ATOM     48  N   UNL     1      12.467   4.978   7.629  1.00  0.00    -0.248 NA
ATOM     49  C   UNL     1      13.145   7.076   6.856  1.00  0.00     0.031 C 
ATOM     50  C   UNL     1      13.372   3.390  11.672  1.00  0.00     0.029 A 
ATOM     51  C   UNL     1      13.125   3.900  10.408  1.00  0.00     0.049 A 
ATOM     52  H   UNL     1      12.051   3.037   8.810  1.00  0.00     0.167 HD
ATOM     53  C   UNL     1      13.218   5.606   8.614  1.00  0.00     0.074 A 
ATOM     54  C   UNL     1      13.636   6.883   8.073  1.00  0.00     0.031 C 
ATOM     55  C   UNL     1      13.536   5.163   9.854  1.00  0.00     0.031 A 
BRANCH  42  56
ATOM     56  C   UNL     1      11.304  -0.452  11.150  1.00  0.00    -0.014 A 
ATOM     57  C   UNL     1      11.997  -1.665  11.005  1.00  0.00     0.009 A 
ATOM     58  C   UNL     1      10.456  -0.282  12.255  1.00  0.00     0.009 A 
ATOM     59  C   UNL     1      11.809  -2.701  11.922  1.00  0.00     0.001 A 
ATOM     60  C   UNL     1      10.291  -1.310  13.185  1.00  0.00     0.001 A 
ATOM     61  C   UNL     1      10.959  -2.522  13.012  1.00  0.00     0.000 A 
ENDBRANCH  42  56
BRANCH  43  62
ATOM     62  C   UNL     1      11.873   6.717   4.251  1.00  0.00    -0.014 A 
ATOM     63  C   UNL     1      13.079   6.991   3.589  1.00  0.00     0.009 A 
ATOM     64  C   UNL     1      10.735   7.473   3.933  1.00  0.00     0.009 A 
ATOM     65  C   UNL     1      13.150   8.017   2.645  1.00  0.00     0.001 A 
ATOM     66  C   UNL     1      10.803   8.482   2.971  1.00  0.00     0.001 A 
ATOM     67  C   UNL     1      12.011   8.759   2.334  1.00  0.00     0.000 A 
ENDBRANCH  43  62
BRANCH  55  68
ATOM     68  C   UNL     1      14.410   6.048  10.695  1.00  0.00    -0.014 A 
ATOM     69  C   UNL     1      13.909   7.217  11.287  1.00  0.00     0.009 A 
ATOM     70  C   UNL     1      15.748   5.688  10.919  1.00  0.00     0.009 A 
ATOM     71  C   UNL     1      14.742   8.027  12.062  1.00  0.00     0.001 A 
ATOM     72  C   UNL     1      16.572   6.487  11.714  1.00  0.00     0.001 A 
ATOM     73  C   UNL     1      16.071   7.660  12.277  1.00  0.00     0.000 A 
ENDBRANCH  55  68
ENDBRANCH  29  30
ENDBRANCH  21  24
ENDBRANCH  19  20
ENDBRANCH   1  19
TORSDOF 12
