REMARK SMILES O=C(NCCCNC(=O)[C@@H]1CC[C@@H](CNC(=O)N2CC[NH2+]CC2)O1)c1ccc(-c2c3nc(c(-c4ccccc4)c4ccc([nH]4)c(-c4ccccc4)c4nc(c(-c5ccccc5)c5ccc2[nH]5)C=C4)C=C3)cc1
REMARK SMILES IDX 5 1 4 2 3 3 1 4 2 5 25 7 26 8 72 9 27 10 71 11 28 12 29 13
REMARK SMILES IDX 30 14 65 15 31 16 70 17 64 18 66 19 32 20 69 21 63 22 62 23
REMARK SMILES IDX 33 25 55 26 40 27 54 28 41 29 44 30 53 31 67 32 42 33 43 34
REMARK SMILES IDX 52 36 68 37 45 38 34 39 35 40 39 41 36 42 38 43 37 44 56 45
REMARK SMILES IDX 57 46 61 47 58 48 60 49 59 50 46 51 47 52 51 53 48 54 50 55
REMARK SMILES IDX 49 56 6 57 7 58 8 59 9 61 10 62 11 63 24 64 12 65 13 66
REMARK SMILES IDX 14 67 15 68 16 69 17 71 18 72 19 73 23 74 20 75 22 76 21 77
REMARK H PARENT 3 6 66 24 44 35 7 60 15 70 21 78 21 79
REMARK Flexibility Score: inf
ROOT
ATOM      1  C   UNL     1       4.356  -0.729   2.405  1.00  0.00     0.042 C 
ENDROOT
BRANCH   1   2
ATOM      2  C   UNL     1       4.227  -1.010   0.910  1.00  0.00     0.118 C 
BRANCH   2   3
ATOM      3  N   UNL     1       2.836  -1.010   0.487  1.00  0.00    -0.352 N 
ATOM      4  O   UNL     1       0.918  -0.124  -0.274  1.00  0.00    -0.269 OA
ATOM      5  C   UNL     1       2.151  -0.100  -0.273  1.00  0.00     0.251 C 
ATOM      6  H   UNL     1       2.307  -1.781   0.794  1.00  0.00     0.163 HD
BRANCH   5   7
ATOM      7  C   UNL     1       2.860   0.904  -1.095  1.00  0.00     0.039 A 
ATOM      8  C   UNL     1       3.996   0.565  -1.838  1.00  0.00     0.014 A 
ATOM      9  C   UNL     1       2.314   2.187  -1.204  1.00  0.00     0.014 A 
ATOM     10  C   UNL     1       4.632   1.528  -2.620  1.00  0.00     0.010 A 
ATOM     11  C   UNL     1       2.915   3.132  -2.038  1.00  0.00     0.010 A 
ATOM     12  C   UNL     1       4.085   2.812  -2.745  1.00  0.00    -0.014 A 
BRANCH  12  13
ATOM     13  C   UNL     1       4.688   3.803  -3.669  1.00  0.00     0.031 A 
ATOM     14  C   UNL     1       5.307   5.064  -3.142  1.00  0.00     0.074 A 
ATOM     15  C   UNL     1       4.627   3.583  -4.996  1.00  0.00     0.049 A 
ATOM     16  N   UNL     1       5.796   6.082  -3.804  1.00  0.00    -0.248 NA
ATOM     17  C   UNL     1       5.377   5.204  -1.680  1.00  0.00     0.031 C 
ATOM     18  C   UNL     1       4.045   2.398  -5.629  1.00  0.00     0.029 A 
ATOM     19  N   UNL     1       5.044   4.355  -6.050  1.00  0.00    -0.354 N 
ATOM     20  C   UNL     1       6.206   6.995  -2.842  1.00  0.00     0.074 A 
ATOM     21  C   UNL     1       5.893   6.419  -1.551  1.00  0.00     0.031 C 
ATOM     22  C   UNL     1       4.147   2.518  -6.961  1.00  0.00     0.029 A 
ATOM     23  C   UNL     1       4.747   3.810  -7.275  1.00  0.00     0.049 A 
ATOM     24  H   UNL     1       5.511   5.215  -5.940  1.00  0.00     0.167 HD
ATOM     25  C   UNL     1       6.789   8.206  -3.020  1.00  0.00     0.031 A 
ATOM     26  C   UNL     1       4.906   4.306  -8.516  1.00  0.00     0.031 A 
ATOM     27  C   UNL     1       7.089   8.778  -4.306  1.00  0.00     0.049 A 
ATOM     28  C   UNL     1       5.518   5.664  -8.691  1.00  0.00     0.074 A 
ATOM     29  C   UNL     1       7.715   9.979  -4.591  1.00  0.00     0.029 A 
ATOM     30  N   UNL     1       6.772   8.193  -5.523  1.00  0.00    -0.354 N 
ATOM     31  N   UNL     1       5.941   6.499  -7.773  1.00  0.00    -0.248 NA
ATOM     32  C   UNL     1       5.678   6.148 -10.069  1.00  0.00     0.031 C 
ATOM     33  C   UNL     1       7.730  10.145  -5.980  1.00  0.00     0.029 A 
ATOM     34  C   UNL     1       7.164   9.021  -6.561  1.00  0.00     0.049 A 
ATOM     35  H   UNL     1       6.334   7.318  -5.633  1.00  0.00     0.167 HD
ATOM     36  C   UNL     1       6.438   7.597  -8.460  1.00  0.00     0.074 A 
ATOM     37  C   UNL     1       6.270   7.319  -9.872  1.00  0.00     0.031 C 
ATOM     38  C   UNL     1       6.990   8.730  -7.962  1.00  0.00     0.031 A 
BRANCH  25  39
ATOM     39  C   UNL     1       7.098   9.008  -1.787  1.00  0.00    -0.014 A 
ATOM     40  C   UNL     1       8.125   8.633  -0.905  1.00  0.00     0.009 A 
ATOM     41  C   UNL     1       6.357  10.168  -1.510  1.00  0.00     0.009 A 
ATOM     42  C   UNL     1       8.371   9.377   0.251  1.00  0.00     0.001 A 
ATOM     43  C   UNL     1       6.624  10.925  -0.368  1.00  0.00     0.001 A 
ATOM     44  C   UNL     1       7.622  10.523   0.517  1.00  0.00     0.000 A 
ENDBRANCH  25  39
BRANCH  26  45
ATOM     45  C   UNL     1       4.454   3.503  -9.681  1.00  0.00    -0.014 A 
ATOM     46  C   UNL     1       5.383   2.867 -10.515  1.00  0.00     0.009 A 
ATOM     47  C   UNL     1       3.082   3.322  -9.925  1.00  0.00     0.009 A 
ATOM     48  C   UNL     1       4.948   2.067 -11.575  1.00  0.00     0.001 A 
ATOM     49  C   UNL     1       2.651   2.502 -10.969  1.00  0.00     0.001 A 
ATOM     50  C   UNL     1       3.584   1.879 -11.795  1.00  0.00     0.000 A 
ENDBRANCH  26  45
BRANCH  38  51
ATOM     51  C   UNL     1       7.490   9.745  -8.949  1.00  0.00    -0.014 A 
ATOM     52  C   UNL     1       6.606  10.576  -9.652  1.00  0.00     0.009 A 
ATOM     53  C   UNL     1       8.873   9.914  -9.124  1.00  0.00     0.009 A 
ATOM     54  C   UNL     1       7.099  11.548 -10.526  1.00  0.00     0.001 A 
ATOM     55  C   UNL     1       9.362  10.902  -9.980  1.00  0.00     0.001 A 
ATOM     56  C   UNL     1       8.475  11.714 -10.683  1.00  0.00     0.000 A 
ENDBRANCH  38  51
ENDBRANCH  12  13
ENDBRANCH   5   7
ENDBRANCH   2   3
ENDBRANCH   1   2
BRANCH   1  57
ATOM     57  C   UNL     1       3.915  -1.903   3.283  1.00  0.00     0.117 C 
BRANCH  57  58
ATOM     58  N   UNL     1       4.918  -2.950   3.294  1.00  0.00    -0.354 N 
ATOM     59  C   UNL     1       5.935  -3.205   4.169  1.00  0.00     0.249 C 
ATOM     60  H   UNL     1       4.855  -3.584   2.543  1.00  0.00     0.163 HD
ATOM     61  O   UNL     1       6.740  -4.077   3.825  1.00  0.00    -0.272 OA
BRANCH  59  62
ATOM     62  C   UNL     1       6.026  -2.491   5.543  1.00  0.00     0.207 C 
ATOM     63  C   UNL     1       5.938  -0.968   5.508  1.00  0.00     0.045 C 
ATOM     64  O   UNL     1       7.283  -2.792   6.198  1.00  0.00    -0.363 OA
ATOM     65  C   UNL     1       6.988  -0.515   6.490  1.00  0.00     0.037 C 
ATOM     66  C   UNL     1       8.043  -1.574   6.267  1.00  0.00     0.138 C 
BRANCH  66  67
ATOM     67  C   UNL     1       9.177  -1.639   7.298  1.00  0.00     0.149 C 
BRANCH  67  68
ATOM     68  N   UNL     1       8.782  -1.306   8.662  1.00  0.00    -0.335 N 
ATOM     69  C   UNL     1       8.004  -2.010   9.516  1.00  0.00     0.317 C 
ATOM     70  H   UNL     1       9.130  -0.452   9.009  1.00  0.00     0.165 HD
ATOM     71  O   UNL     1       7.246  -1.368  10.245  1.00  0.00    -0.249 OA
ATOM     72  N   UNL     1       8.052  -3.368   9.517  1.00  0.00    -0.314 N 
ATOM     73  C   UNL     1       6.920  -4.123  10.045  1.00  0.00     0.182 C 
ATOM     74  C   UNL     1       9.246  -4.178   9.291  1.00  0.00     0.182 C 
ATOM     75  C   UNL     1       6.635  -5.356   9.164  1.00  0.00     0.282 C 
ATOM     76  C   UNL     1       8.920  -5.378   8.388  1.00  0.00     0.282 C 
ATOM     77  N   UNL     1       7.824  -6.208   8.938  1.00  0.00    -0.343 N 
ATOM     78  H   UNL     1       7.592  -6.949   8.276  1.00  0.00     0.346 HD
ATOM     79  H   UNL     1       8.119  -6.625   9.820  1.00  0.00     0.346 HD
ENDBRANCH  67  68
ENDBRANCH  66  67
ENDBRANCH  59  62
ENDBRANCH  57  58
ENDBRANCH   1  57
TORSDOF 12
