REMARK SMILES CC(C)Oc1ccc([C@H](O)[C@H](F)C(=O)NCCCNC(=O)c2ccc(-c3c4nc(c(-c5ccccc5)c5ccc([nH]5)c(-c5ccccc5)c5nc(c(-c6ccccc6)c6ccc3[nH]6)C=C5)C=C4)cc2)cc1
REMARK SMILES IDX 16 1 15 2 13 3 14 4 11 6 12 7 9 8 8 9 5 10 6 11 71 12 7 13
REMARK SMILES IDX 70 14 4 15 2 16 1 17 3 18 10 19 17 21 18 22 19 23 20 24
REMARK SMILES IDX 21 26 22 27 23 28 69 29 24 30 68 31 25 32 26 33 27 34 62 35
REMARK SMILES IDX 28 36 67 37 61 38 63 39 29 40 66 41 60 42 59 43 30 45 52 46
REMARK SMILES IDX 37 47 51 48 38 49 41 50 50 51 64 52 39 53 40 54 49 56 65 57
REMARK SMILES IDX 42 58 31 59 32 60 36 61 33 62 35 63 34 64 53 65 54 66 58 67
REMARK SMILES IDX 55 68 57 69 56 70 43 71 44 72 48 73 45 74 47 75 46 76
REMARK H PARENT 15 5 10 20 19 25 63 44 41 55
REMARK Flexibility Score: inf
ROOT
ATOM      1  C   UNL     1      -3.024  -6.946  -0.056  1.00  0.00     0.117 C 
ENDROOT
BRANCH   1   2
ATOM      2  N   UNL     1      -4.144  -7.133  -0.956  1.00  0.00    -0.353 N 
ATOM      3  C   UNL     1      -4.609  -6.298  -1.933  1.00  0.00     0.257 C 
ATOM      4  O   UNL     1      -5.612  -6.650  -2.560  1.00  0.00    -0.272 OA
ATOM      5  H   UNL     1      -4.638  -7.978  -0.849  1.00  0.00     0.163 HD
BRANCH   3   6
ATOM      6  C   UNL     1      -3.923  -4.963  -2.195  1.00  0.00     0.288 C 
ATOM      7  F   UNL     1      -3.902  -4.215  -1.043  1.00  0.00    -0.234 F 
BRANCH   6   8
ATOM      8  C   UNL     1      -2.477  -5.113  -2.720  1.00  0.00     0.188 C 
BRANCH   8   9
ATOM      9  C   UNL     1      -1.952  -3.868  -3.421  1.00  0.00    -0.016 A 
ATOM     10  C   UNL     1      -0.884  -1.541  -4.605  1.00  0.00     0.119 A 
ATOM     11  C   UNL     1      -0.609  -2.795  -5.147  1.00  0.00     0.047 A 
ATOM     12  C   UNL     1      -1.722  -1.443  -3.503  1.00  0.00     0.047 A 
ATOM     13  C   UNL     1      -1.133  -3.949  -4.558  1.00  0.00     0.010 A 
ATOM     14  C   UNL     1      -2.224  -2.594  -2.897  1.00  0.00     0.010 A 
BRANCH  10  15
ATOM     15  O   UNL     1      -0.387  -0.459  -5.267  1.00  0.00    -0.491 OA
BRANCH  15  16
ATOM     16  C   UNL     1       0.429   0.471  -4.534  1.00  0.00     0.167 C 
ATOM     17  C   UNL     1      -0.373   1.436  -3.664  1.00  0.00     0.052 C 
ATOM     18  C   UNL     1       1.587  -0.179  -3.779  1.00  0.00     0.052 C 
ENDBRANCH  15  16
ENDBRANCH  10  15
ENDBRANCH   8   9
BRANCH   8  19
ATOM     19  O   UNL     1      -2.351  -6.258  -3.566  1.00  0.00    -0.385 OA
ATOM     20  H   UNL     1      -2.903  -6.140  -4.354  1.00  0.00     0.211 HD
ENDBRANCH   8  19
ENDBRANCH   6   8
ENDBRANCH   3   6
ENDBRANCH   1   2
BRANCH   1  21
ATOM     21  C   UNL     1      -3.415  -7.066   1.404  1.00  0.00     0.042 C 
BRANCH  21  22
ATOM     22  C   UNL     1      -4.010  -8.411   1.779  1.00  0.00     0.118 C 
BRANCH  22  23
ATOM     23  N   UNL     1      -3.086  -9.519   1.580  1.00  0.00    -0.352 N 
ATOM     24  C   UNL     1      -2.583 -10.419   2.486  1.00  0.00     0.251 C 
ATOM     25  H   UNL     1      -2.775  -9.641   0.654  1.00  0.00     0.163 HD
ATOM     26  O   UNL     1      -1.678 -11.181   2.155  1.00  0.00    -0.269 OA
BRANCH  24  27
ATOM     27  C   UNL     1      -3.105 -10.450   3.869  1.00  0.00     0.039 A 
ATOM     28  C   UNL     1      -2.206 -10.591   4.928  1.00  0.00     0.014 A 
ATOM     29  C   UNL     1      -4.472 -10.327   4.123  1.00  0.00     0.014 A 
ATOM     30  C   UNL     1      -2.673 -10.530   6.243  1.00  0.00     0.010 A 
ATOM     31  C   UNL     1      -4.921 -10.159   5.427  1.00  0.00     0.010 A 
ATOM     32  C   UNL     1      -4.028 -10.267   6.503  1.00  0.00    -0.014 A 
BRANCH  32  33
ATOM     33  C   UNL     1      -4.533 -10.108   7.890  1.00  0.00     0.031 A 
ATOM     34  C   UNL     1      -5.576 -11.051   8.427  1.00  0.00     0.074 A 
ATOM     35  C   UNL     1      -4.101  -9.079   8.644  1.00  0.00     0.049 A 
ATOM     36  N   UNL     1      -6.175 -11.041   9.591  1.00  0.00    -0.248 NA
ATOM     37  C   UNL     1      -6.025 -12.129   7.531  1.00  0.00     0.031 C 
ATOM     38  C   UNL     1      -3.126  -8.068   8.225  1.00  0.00     0.029 A 
ATOM     39  N   UNL     1      -4.431  -8.709   9.924  1.00  0.00    -0.354 N 
ATOM     40  C   UNL     1      -7.080 -12.095   9.558  1.00  0.00     0.074 A 
ATOM     41  C   UNL     1      -6.994 -12.687   8.241  1.00  0.00     0.031 C 
ATOM     42  C   UNL     1      -2.912  -7.217   9.240  1.00  0.00     0.029 A 
ATOM     43  C   UNL     1      -3.766  -7.589  10.363  1.00  0.00     0.049 A 
ATOM     44  H   UNL     1      -5.082  -9.200  10.475  1.00  0.00     0.167 HD
ATOM     45  C   UNL     1      -7.894 -12.546  10.541  1.00  0.00     0.031 A 
ATOM     46  C   UNL     1      -3.841  -6.931  11.535  1.00  0.00     0.031 A 
ATOM     47  C   UNL     1      -7.974 -11.963  11.853  1.00  0.00     0.049 A 
ATOM     48  C   UNL     1      -4.768  -7.440  12.603  1.00  0.00     0.074 A 
ATOM     49  C   UNL     1      -8.726 -12.382  12.937  1.00  0.00     0.029 A 
ATOM     50  N   UNL     1      -7.283 -10.831  12.257  1.00  0.00    -0.354 N 
ATOM     51  N   UNL     1      -5.561  -8.484  12.581  1.00  0.00    -0.248 NA
ATOM     52  C   UNL     1      -4.801  -6.685  13.863  1.00  0.00     0.031 C 
ATOM     53  C   UNL     1      -8.536 -11.468  13.978  1.00  0.00     0.029 A 
ATOM     54  C   UNL     1      -7.613 -10.520  13.565  1.00  0.00     0.049 A 
ATOM     55  H   UNL     1      -6.652 -10.325  11.697  1.00  0.00     0.167 HD
ATOM     56  C   UNL     1      -6.163  -8.528  13.832  1.00  0.00     0.074 A 
ATOM     57  C   UNL     1      -5.629  -7.417  14.594  1.00  0.00     0.031 C 
ATOM     58  C   UNL     1      -7.075  -9.410  14.309  1.00  0.00     0.031 A 
BRANCH  45  59
ATOM     59  C   UNL     1      -8.771 -13.728  10.227  1.00  0.00    -0.014 A 
ATOM     60  C   UNL     1      -8.228 -15.007  10.021  1.00  0.00     0.009 A 
ATOM     61  C   UNL     1     -10.164 -13.567  10.170  1.00  0.00     0.009 A 
ATOM     62  C   UNL     1      -9.058 -16.090   9.725  1.00  0.00     0.001 A 
ATOM     63  C   UNL     1     -10.994 -14.659   9.907  1.00  0.00     0.001 A 
ATOM     64  C   UNL     1     -10.440 -15.916   9.674  1.00  0.00     0.000 A 
ENDBRANCH  45  59
BRANCH  46  65
ATOM     65  C   UNL     1      -3.005  -5.723  11.768  1.00  0.00    -0.014 A 
ATOM     66  C   UNL     1      -1.952  -5.752  12.696  1.00  0.00     0.009 A 
ATOM     67  C   UNL     1      -3.261  -4.531  11.072  1.00  0.00     0.009 A 
ATOM     68  C   UNL     1      -1.196  -4.605  12.946  1.00  0.00     0.001 A 
ATOM     69  C   UNL     1      -2.482  -3.395  11.300  1.00  0.00     0.001 A 
ATOM     70  C   UNL     1      -1.458  -3.429  12.244  1.00  0.00     0.000 A 
ENDBRANCH  46  65
BRANCH  58  71
ATOM     71  C   UNL     1      -7.524  -9.235  15.733  1.00  0.00    -0.014 A 
ATOM     72  C   UNL     1      -8.345  -8.163  16.116  1.00  0.00     0.009 A 
ATOM     73  C   UNL     1      -7.149 -10.182  16.699  1.00  0.00     0.009 A 
ATOM     74  C   UNL     1      -8.750  -8.024  17.446  1.00  0.00     0.001 A 
ATOM     75  C   UNL     1      -7.583 -10.060  18.019  1.00  0.00     0.001 A 
ATOM     76  C   UNL     1      -8.374  -8.975  18.394  1.00  0.00     0.000 A 
ENDBRANCH  58  71
ENDBRANCH  32  33
ENDBRANCH  24  27
ENDBRANCH  22  23
ENDBRANCH  21  22
ENDBRANCH   1  21
TORSDOF 15
