REMARK SMILES O=C(NCCCNC(=O)C1CCN(C2=[NH+]C(Cl)=[NH+]C3=[NH+]C=N[C@@H]32)CC1)c1ccc(-c2c3nc(c(-c4ccccc4)c4ccc([nH]4)c(-c4ccccc4)c4nc(c(-c5ccccc5)c5ccc2[nH]5)C=C4)C=C3)cc1
REMARK SMILES IDX 4 1 3 2 1 3 2 4 26 6 27 7 73 8 28 9 72 10 29 11 30 12 31 13
REMARK SMILES IDX 66 14 32 15 71 16 65 17 67 18 33 19 70 20 64 21 63 22 34 24
REMARK SMILES IDX 56 25 41 26 55 27 42 28 45 29 54 30 68 31 43 32 44 33 53 35
REMARK SMILES IDX 69 36 46 37 35 38 36 39 40 40 37 41 39 42 38 43 57 44 58 45
REMARK SMILES IDX 62 46 59 47 61 48 60 49 47 50 48 51 52 52 49 53 51 54 50 55
REMARK SMILES IDX 5 56 6 57 7 58 8 59 9 61 10 62 11 63 25 64 12 65 24 66 13 67
REMARK SMILES IDX 14 68 15 69 23 70 16 71 19 73 22 74 17 75 18 76 20 77 21 78
REMARK H PARENT 3 5 67 23 45 34 7 60 15 72 18 79 20 80
REMARK Flexibility Score: inf
ROOT
ATOM      1  C   UNL     1       4.618  -0.701  -1.208  1.00  0.00     0.118 C 
ENDROOT
BRANCH   1   2
ATOM      2  N   UNL     1       3.243  -0.273  -1.382  1.00  0.00    -0.352 N 
ATOM      3  O   UNL     1       1.211   0.529  -1.079  1.00  0.00    -0.269 OA
ATOM      4  C   UNL     1       2.193  -0.001  -0.552  1.00  0.00     0.251 C 
ATOM      5  H   UNL     1       3.010  -0.147  -2.330  1.00  0.00     0.163 HD
BRANCH   4   6
ATOM      6  C   UNL     1       2.120  -0.353   0.891  1.00  0.00     0.039 A 
ATOM      7  C   UNL     1       3.171  -0.845   1.664  1.00  0.00     0.014 A 
ATOM      8  C   UNL     1       0.854  -0.212   1.494  1.00  0.00     0.014 A 
ATOM      9  C   UNL     1       2.945  -1.286   2.966  1.00  0.00     0.010 A 
ATOM     10  C   UNL     1       0.627  -0.630   2.801  1.00  0.00     0.010 A 
ATOM     11  C   UNL     1       1.666  -1.211   3.521  1.00  0.00    -0.014 A 
BRANCH  11  12
ATOM     12  C   UNL     1       1.476  -1.693   4.886  1.00  0.00     0.031 A 
ATOM     13  C   UNL     1       2.136  -0.910   5.969  1.00  0.00     0.074 A 
ATOM     14  C   UNL     1       0.628  -2.692   5.203  1.00  0.00     0.049 A 
ATOM     15  N   UNL     1       2.975  -1.323   6.865  1.00  0.00    -0.248 NA
ATOM     16  C   UNL     1       1.844   0.530   6.037  1.00  0.00     0.031 C 
ATOM     17  C   UNL     1      -0.342  -3.356   4.330  1.00  0.00     0.029 A 
ATOM     18  N   UNL     1       0.375  -3.238   6.428  1.00  0.00    -0.354 N 
ATOM     19  C   UNL     1       3.204  -0.237   7.710  1.00  0.00     0.074 A 
ATOM     20  C   UNL     1       2.562   0.900   7.097  1.00  0.00     0.031 C 
ATOM     21  C   UNL     1      -1.226  -4.038   5.092  1.00  0.00     0.029 A 
ATOM     22  C   UNL     1      -0.804  -3.965   6.481  1.00  0.00     0.049 A 
ATOM     23  H   UNL     1       0.975  -3.127   7.201  1.00  0.00     0.167 HD
ATOM     24  C   UNL     1       3.747  -0.372   8.952  1.00  0.00     0.031 A 
ATOM     25  C   UNL     1      -1.432  -4.415   7.593  1.00  0.00     0.031 A 
ATOM     26  C   UNL     1       4.422  -1.628   9.127  1.00  0.00     0.049 A 
ATOM     27  C   UNL     1      -0.462  -4.418   8.709  1.00  0.00     0.074 A 
ATOM     28  C   UNL     1       5.486  -2.267   8.523  1.00  0.00     0.029 A 
ATOM     29  N   UNL     1       3.800  -2.587   9.888  1.00  0.00    -0.354 N 
ATOM     30  N   UNL     1       0.545  -5.237   8.792  1.00  0.00    -0.248 NA
ATOM     31  C   UNL     1      -0.390  -3.252   9.575  1.00  0.00     0.031 C 
ATOM     32  C   UNL     1       5.155  -3.653   8.562  1.00  0.00     0.029 A 
ATOM     33  C   UNL     1       3.923  -3.769   9.207  1.00  0.00     0.049 A 
ATOM     34  H   UNL     1       3.353  -2.452  10.754  1.00  0.00     0.167 HD
ATOM     35  C   UNL     1       1.557  -4.496   9.383  1.00  0.00     0.074 A 
ATOM     36  C   UNL     1       0.887  -3.333   9.957  1.00  0.00     0.031 C 
ATOM     37  C   UNL     1       2.870  -4.753   9.108  1.00  0.00     0.031 A 
BRANCH  24  38
ATOM     38  C   UNL     1       3.353   0.483  10.132  1.00  0.00    -0.014 A 
ATOM     39  C   UNL     1       4.026   0.309  11.357  1.00  0.00     0.009 A 
ATOM     40  C   UNL     1       2.163   1.235  10.168  1.00  0.00     0.009 A 
ATOM     41  C   UNL     1       3.494   0.794  12.559  1.00  0.00     0.001 A 
ATOM     42  C   UNL     1       1.654   1.760  11.359  1.00  0.00     0.001 A 
ATOM     43  C   UNL     1       2.304   1.513  12.559  1.00  0.00     0.000 A 
ENDBRANCH  24  38
BRANCH  25  44
ATOM     44  C   UNL     1      -2.881  -4.604   7.807  1.00  0.00    -0.014 A 
ATOM     45  C   UNL     1      -3.359  -5.419   8.844  1.00  0.00     0.009 A 
ATOM     46  C   UNL     1      -3.805  -3.778   7.141  1.00  0.00     0.009 A 
ATOM     47  C   UNL     1      -4.709  -5.386   9.216  1.00  0.00     0.001 A 
ATOM     48  C   UNL     1      -5.153  -3.750   7.507  1.00  0.00     0.001 A 
ATOM     49  C   UNL     1      -5.602  -4.545   8.555  1.00  0.00     0.000 A 
ENDBRANCH  25  44
BRANCH  37  50
ATOM     50  C   UNL     1       3.199  -6.016   8.353  1.00  0.00    -0.014 A 
ATOM     51  C   UNL     1       2.707  -6.271   7.060  1.00  0.00     0.009 A 
ATOM     52  C   UNL     1       4.144  -6.899   8.892  1.00  0.00     0.009 A 
ATOM     53  C   UNL     1       3.119  -7.399   6.345  1.00  0.00     0.001 A 
ATOM     54  C   UNL     1       4.574  -8.015   8.168  1.00  0.00     0.001 A 
ATOM     55  C   UNL     1       4.056  -8.268   6.899  1.00  0.00     0.000 A 
ENDBRANCH  37  50
ENDBRANCH  11  12
ENDBRANCH   4   6
ENDBRANCH   1   2
BRANCH   1  56
ATOM     56  C   UNL     1       4.841  -2.213  -1.092  1.00  0.00     0.042 C 
BRANCH  56  57
ATOM     57  C   UNL     1       4.163  -3.068  -2.163  1.00  0.00     0.117 C 
BRANCH  57  58
ATOM     58  N   UNL     1       4.416  -2.601  -3.513  1.00  0.00    -0.356 N 
ATOM     59  C   UNL     1       5.288  -3.023  -4.463  1.00  0.00     0.223 C 
ATOM     60  H   UNL     1       3.854  -1.841  -3.789  1.00  0.00     0.163 HD
ATOM     61  O   UNL     1       5.286  -2.417  -5.538  1.00  0.00    -0.275 OA
BRANCH  59  62
ATOM     62  C   UNL     1       6.200  -4.215  -4.208  1.00  0.00     0.087 C 
ATOM     63  C   UNL     1       7.621  -3.934  -4.715  1.00  0.00     0.068 C 
ATOM     64  C   UNL     1       5.618  -5.483  -4.853  1.00  0.00     0.068 C 
ATOM     65  C   UNL     1       7.750  -4.032  -6.229  1.00  0.00     0.277 C 
ATOM     66  C   UNL     1       5.809  -5.536  -6.376  1.00  0.00     0.277 C 
ATOM     67  N   UNL     1       7.215  -5.307  -6.697  1.00  0.00    -0.230 N 
ATOM     68  C   UNL     1       7.891  -6.065  -7.643  1.00  0.00     0.383 C 
ATOM     69  N   UNL     1       7.278  -6.619  -8.653  1.00  0.00    -0.155 N 
ATOM     70  C   UNL     1       9.396  -6.233  -7.523  1.00  0.00     0.523 C 
ATOM     71  C   UNL     1       8.024  -7.294  -9.592  1.00  0.00     0.414 C 
ATOM     72  H   UNL     1       6.300  -6.555  -8.742  1.00  0.00     0.367 HD
ATOM     73  C   UNL     1       9.710  -7.507  -8.203  1.00  0.00     0.389 C 
ATOM     74  N   UNL     1       9.862  -6.529  -6.147  1.00  0.00     0.003 NA
ATOM     75  Cl  UNL     1       7.277  -7.511 -11.117  1.00  0.00     0.028 Cl
ATOM     76  N   UNL     1       9.221  -7.758  -9.434  1.00  0.00    -0.155 N 
ATOM     77  N   UNL     1      10.364  -8.337  -7.473  1.00  0.00    -0.169 N 
ATOM     78  C   UNL     1      10.416  -7.702  -6.257  1.00  0.00     0.532 C 
ATOM     79  H   UNL     1       9.718  -8.240 -10.134  1.00  0.00     0.367 HD
ATOM     80  H   UNL     1      10.737  -9.213  -7.723  1.00  0.00     0.365 HD
ENDBRANCH  59  62
ENDBRANCH  57  58
ENDBRANCH  56  57
ENDBRANCH   1  56
TORSDOF 10
