REMARK SMILES COC(=O)c1c(NC(=O)CCC(=O)NCCCNC(=O)c2ccc(-c3c4nc(c(-c5ccccc5)c5ccc([nH]5)c(-c5ccccc5)c5nc(c(-c6ccccc6)c6ccc3[nH]6)C=C5)C=C4)cc2)sc2c1CCCCCC2
REMARK SMILES IDX 12 1 13 2 14 3 11 5 10 6 8 7 7 8 9 10 6 11 5 12 71 13 69 14
REMARK SMILES IDX 70 15 3 16 4 17 2 18 1 19 72 20 73 21 74 22 77 24 76 25
REMARK SMILES IDX 75 26 15 28 16 29 17 30 18 31 19 32 20 34 21 35 22 36 68 37
REMARK SMILES IDX 23 38 67 39 24 40 25 41 26 42 61 43 27 44 66 45 60 46 62 47
REMARK SMILES IDX 28 48 65 49 59 50 58 51 29 53 51 54 36 55 50 56 37 57 40 58
REMARK SMILES IDX 49 59 63 60 38 61 39 62 48 64 64 65 41 66 30 67 31 68 35 69
REMARK SMILES IDX 32 70 34 71 33 72 52 73 53 74 57 75 54 76 56 77 55 78 42 79
REMARK SMILES IDX 43 80 47 81 44 82 46 83 45 84
REMARK H PARENT 14 4 7 9 18 33 62 52 40 63
REMARK Flexibility Score: 100.00
ROOT
ATOM      1  C   UNL     1      -0.513  -1.876   2.623  1.00  0.00     0.220 C 
ATOM      2  O   UNL     1       0.659  -2.200   2.816  1.00  0.00    -0.275 OA
ATOM      3  N   UNL     1      -1.490  -2.628   3.198  1.00  0.00    -0.356 N 
ATOM      4  H   UNL     1      -1.202  -3.514   3.515  1.00  0.00     0.163 HD
ENDROOT
BRANCH   1   5
ATOM      5  C   UNL     1      -0.863  -0.672   1.782  1.00  0.00     0.110 C 
BRANCH   5   6
ATOM      6  C   UNL     1      -1.190  -0.912   0.313  1.00  0.00     0.110 C 
BRANCH   6   7
ATOM      7  C   UNL     1      -2.087  -2.058  -0.053  1.00  0.00     0.225 C 
ATOM      8  N   UNL     1      -1.695  -3.355  -0.121  1.00  0.00    -0.317 N 
ATOM      9  H   UNL     1      -2.392  -3.959  -0.465  1.00  0.00     0.170 HD
ATOM     10  O   UNL     1      -3.284  -1.823  -0.269  1.00  0.00    -0.275 OA
BRANCH   8  11
ATOM     11  C   UNL     1      -0.521  -3.995   0.194  1.00  0.00     0.110 A 
ATOM     12  C   UNL     1       0.839  -3.763   0.163  1.00  0.00     0.098 A 
ATOM     13  C   UNL     1       1.570  -4.799   0.902  1.00  0.00    -0.017 A 
ATOM     14  S   UNL     1      -0.881  -5.552   0.774  1.00  0.00    -0.122 S 
ATOM     15  C   UNL     1       0.717  -5.806   1.334  1.00  0.00     0.011 A 
BRANCH  12  16
ATOM     16  C   UNL     1       1.461  -2.695  -0.606  1.00  0.00     0.341 C 
ATOM     17  O   UNL     1       1.532  -2.728  -1.825  1.00  0.00    -0.246 OA
BRANCH  16  18
ATOM     18  O   UNL     1       1.892  -1.661   0.169  1.00  0.00    -0.465 OA
ATOM     19  C   UNL     1       2.218  -0.459  -0.538  1.00  0.00     0.282 C 
ENDBRANCH  16  18
ENDBRANCH  12  16
BRANCH  13  20
ATOM     20  C   UNL     1       3.064  -4.787   1.104  1.00  0.00     0.037 C 
BRANCH  20  21
ATOM     21  C   UNL     1       3.529  -4.514   2.534  1.00  0.00     0.005 C 
BRANCH  21  22
ATOM     22  C   UNL     1       3.000  -5.420   3.646  1.00  0.00     0.000 CG0
ATOM     23  G   UNL     1       3.175  -6.920   3.425  1.00  0.00     0.000 G0
ENDBRANCH  21  22
ENDBRANCH  20  21
ENDBRANCH  13  20
BRANCH  15  24
ATOM     24  C   UNL     1       0.935  -7.041   2.162  1.00  0.00     0.047 C 
BRANCH  24  25
ATOM     25  C   UNL     1       2.351  -7.562   2.309  1.00  0.00     0.006 C 
BRANCH  25  26
ATOM     26  C   UNL     1       3.175  -6.920   3.425  1.00  0.00     0.000 CG0
ATOM     27  G   UNL     1       3.000  -5.420   3.646  1.00  0.00     0.000 G0
ENDBRANCH  25  26
ENDBRANCH  24  25
ENDBRANCH  15  24
ENDBRANCH   8  11
ENDBRANCH   6   7
ENDBRANCH   5   6
ENDBRANCH   1   5
BRANCH   3  28
ATOM     28  C   UNL     1      -2.896  -2.319   3.414  1.00  0.00     0.117 C 
BRANCH  28  29
ATOM     29  C   UNL     1      -3.866  -3.302   2.760  1.00  0.00     0.042 C 
BRANCH  29  30
ATOM     30  C   UNL     1      -3.730  -4.723   3.269  1.00  0.00     0.118 C 
BRANCH  30  31
ATOM     31  N   UNL     1      -4.394  -4.955   4.547  1.00  0.00    -0.352 N 
ATOM     32  C   UNL     1      -4.710  -6.175   5.115  1.00  0.00     0.251 C 
ATOM     33  H   UNL     1      -4.645  -4.154   5.062  1.00  0.00     0.163 HD
ATOM     34  O   UNL     1      -5.537  -6.253   6.016  1.00  0.00    -0.269 OA
BRANCH  32  35
ATOM     35  C   UNL     1      -4.027  -7.390   4.625  1.00  0.00     0.039 A 
ATOM     36  C   UNL     1      -4.694  -8.614   4.509  1.00  0.00     0.014 A 
ATOM     37  C   UNL     1      -2.684  -7.294   4.278  1.00  0.00     0.014 A 
ATOM     38  C   UNL     1      -4.012  -9.713   3.980  1.00  0.00     0.010 A 
ATOM     39  C   UNL     1      -2.072  -8.331   3.627  1.00  0.00     0.010 A 
ATOM     40  C   UNL     1      -2.695  -9.558   3.525  1.00  0.00    -0.014 A 
BRANCH  40  41
ATOM     41  C   UNL     1      -1.977 -10.615   2.823  1.00  0.00     0.031 A 
ATOM     42  C   UNL     1      -2.712 -11.167   1.665  1.00  0.00     0.074 A 
ATOM     43  C   UNL     1      -0.699 -10.985   3.063  1.00  0.00     0.049 A 
ATOM     44  N   UNL     1      -3.365 -12.277   1.654  1.00  0.00    -0.248 NA
ATOM     45  C   UNL     1      -2.883 -10.354   0.452  1.00  0.00     0.031 C 
ATOM     46  C   UNL     1       0.288 -10.381   3.966  1.00  0.00     0.029 A 
ATOM     47  N   UNL     1       0.020 -11.977   2.465  1.00  0.00    -0.354 N 
ATOM     48  C   UNL     1      -3.851 -12.424   0.365  1.00  0.00     0.074 A 
ATOM     49  C   UNL     1      -3.688 -11.139  -0.272  1.00  0.00     0.031 C 
ATOM     50  C   UNL     1       1.517 -10.888   3.706  1.00  0.00     0.029 A 
ATOM     51  C   UNL     1       1.383 -11.961   2.740  1.00  0.00     0.049 A 
ATOM     52  H   UNL     1      -0.395 -12.654   1.883  1.00  0.00     0.167 HD
ATOM     53  C   UNL     1      -4.099 -13.664  -0.137  1.00  0.00     0.031 A 
ATOM     54  C   UNL     1       2.327 -12.783   2.215  1.00  0.00     0.031 A 
ATOM     55  C   UNL     1      -4.069 -14.669   0.902  1.00  0.00     0.049 A 
ATOM     56  C   UNL     1       1.632 -14.017   1.790  1.00  0.00     0.074 A 
ATOM     57  C   UNL     1      -4.758 -14.875   2.082  1.00  0.00     0.029 A 
ATOM     58  N   UNL     1      -2.920 -15.418   1.002  1.00  0.00    -0.354 N 
ATOM     59  N   UNL     1       1.092 -14.851   2.631  1.00  0.00    -0.248 NA
ATOM     60  C   UNL     1       1.149 -14.105   0.423  1.00  0.00     0.031 C 
ATOM     61  C   UNL     1      -3.775 -15.340   3.006  1.00  0.00     0.029 A 
ATOM     62  C   UNL     1      -2.564 -15.472   2.324  1.00  0.00     0.049 A 
ATOM     63  H   UNL     1      -2.438 -15.841   0.255  1.00  0.00     0.167 HD
ATOM     64  C   UNL     1      -0.104 -15.216   2.033  1.00  0.00     0.074 A 
ATOM     65  C   UNL     1       0.041 -14.824   0.631  1.00  0.00     0.031 C 
ATOM     66  C   UNL     1      -1.196 -15.535   2.789  1.00  0.00     0.031 A 
BRANCH  53  67
ATOM     67  C   UNL     1      -3.916 -14.030  -1.586  1.00  0.00    -0.014 A 
ATOM     68  C   UNL     1      -4.238 -15.339  -1.988  1.00  0.00     0.009 A 
ATOM     69  C   UNL     1      -3.175 -13.251  -2.493  1.00  0.00     0.009 A 
ATOM     70  C   UNL     1      -3.766 -15.866  -3.195  1.00  0.00     0.001 A 
ATOM     71  C   UNL     1      -2.738 -13.761  -3.718  1.00  0.00     0.001 A 
ATOM     72  C   UNL     1      -3.008 -15.079  -4.055  1.00  0.00     0.000 A 
ENDBRANCH  53  67
BRANCH  54  73
ATOM     73  C   UNL     1       3.732 -12.517   1.838  1.00  0.00    -0.014 A 
ATOM     74  C   UNL     1       4.613 -13.579   1.563  1.00  0.00     0.009 A 
ATOM     75  C   UNL     1       4.121 -11.229   1.432  1.00  0.00     0.009 A 
ATOM     76  C   UNL     1       5.805 -13.366   0.856  1.00  0.00     0.001 A 
ATOM     77  C   UNL     1       5.313 -11.015   0.729  1.00  0.00     0.001 A 
ATOM     78  C   UNL     1       6.145 -12.087   0.423  1.00  0.00     0.000 A 
ENDBRANCH  54  73
BRANCH  66  79
ATOM     79  C   UNL     1      -0.993 -15.738   4.274  1.00  0.00    -0.014 A 
ATOM     80  C   UNL     1      -0.500 -14.742   5.137  1.00  0.00     0.009 A 
ATOM     81  C   UNL     1      -1.443 -16.939   4.840  1.00  0.00     0.009 A 
ATOM     82  C   UNL     1      -0.430 -14.960   6.518  1.00  0.00     0.001 A 
ATOM     83  C   UNL     1      -1.394 -17.148   6.219  1.00  0.00     0.001 A 
ATOM     84  C   UNL     1      -0.881 -16.162   7.058  1.00  0.00     0.000 A 
ENDBRANCH  66  79
ENDBRANCH  40  41
ENDBRANCH  32  35
ENDBRANCH  30  31
ENDBRANCH  29  30
ENDBRANCH  28  29
ENDBRANCH   3  28
TORSDOF 15
