REMARK SMILES Cc1cc(C)c(S(=O)(=O)Nc2ccc(N3CCN(c4ccccn4)CC3)c(C(=O)NCCCNC(=O)c3ccc(-c4c5nc(c(-c6ccccc6)c6ccc([nH]6)c(-c6ccccc6)c6nc(c(-c7ccccc7)c7ccc4[nH]7)C=C6)C=C5)cc3)c2)c(C)c1
REMARK SMILES IDX 31 1 30 2 28 3 29 4 27 6 11 7 12 8 85 9 13 10 14 11 10 12
REMARK SMILES IDX 7 14 8 15 9 16 6 17 1 18 2 19 3 20 88 21 4 22 86 23 5 24
REMARK SMILES IDX 87 25 15 26 16 27 26 28 17 29 25 30 18 31 19 32 20 33 24 34
REMARK SMILES IDX 21 35 23 36 22 37 32 38 33 39 34 40 35 41 36 43 37 44 38 45
REMARK SMILES IDX 84 46 39 47 83 48 40 49 41 50 42 51 77 52 43 53 82 54 76 55
REMARK SMILES IDX 78 56 44 57 81 58 75 59 74 60 45 62 67 63 52 64 66 65 53 66
REMARK SMILES IDX 56 67 65 68 79 69 54 70 55 71 64 73 80 74 57 75 46 76 47 77
REMARK SMILES IDX 51 78 48 79 50 80 49 81 68 82 69 83 73 84 70 85 72 86 71 87
REMARK SMILES IDX 58 88 59 89 63 90 60 91 62 92 61 93
REMARK H PARENT 30 5 10 13 34 42 78 61 56 72
REMARK Flexibility Score: inf
ROOT
ATOM      1  C   UNL     1       0.952  -1.103   2.598  1.00  0.00     0.118 C 
ENDROOT
BRANCH   1   2
ATOM      2  N   UNL     1       2.108  -1.929   2.866  1.00  0.00    -0.352 N 
ATOM      3  C   UNL     1       2.431  -3.215   2.514  1.00  0.00     0.253 C 
ATOM      4  O   UNL     1       3.355  -3.715   3.156  1.00  0.00    -0.269 OA
ATOM      5  H   UNL     1       2.798  -1.481   3.408  1.00  0.00     0.163 HD
BRANCH   3   6
ATOM      6  C   UNL     1       1.730  -3.972   1.423  1.00  0.00     0.065 A 
ATOM      7  C   UNL     1      -0.269  -4.347   0.105  1.00  0.00     0.050 A 
ATOM      8  C   UNL     1       0.403  -5.285  -0.670  1.00  0.00     0.029 A 
ATOM      9  C   UNL     1       0.341  -3.848   1.249  1.00  0.00     0.042 A 
ATOM     10  C   UNL     1       1.764  -5.484  -0.472  1.00  0.00     0.029 A 
ATOM     11  C   UNL     1       2.473  -4.742   0.489  1.00  0.00     0.050 A 
BRANCH   7  12
ATOM     12  N   UNL     1      -1.493  -3.857  -0.421  1.00  0.00    -0.280 N 
ATOM     13  H   UNL     1      -1.993  -4.466  -1.011  1.00  0.00     0.180 HD
BRANCH  12  14
ATOM     14  S   UNL     1      -2.175  -2.356  -0.142  1.00  0.00     0.262 S 
ATOM     15  O   UNL     1      -2.442  -2.290   1.282  1.00  0.00    -0.201 OA
ATOM     16  O   UNL     1      -3.251  -2.259  -1.108  1.00  0.00    -0.201 OA
BRANCH  14  17
ATOM     17  C   UNL     1      -1.057  -0.981  -0.507  1.00  0.00     0.093 A 
ATOM     18  C   UNL     1       1.875   2.190  -0.099  1.00  0.00     0.044 C 
ATOM     19  C   UNL     1       0.843   1.119  -0.293  1.00  0.00    -0.051 A 
ATOM     20  C   UNL     1      -0.469   1.315   0.124  1.00  0.00     0.008 A 
ATOM     21  C   UNL     1       1.150  -0.065  -0.963  1.00  0.00     0.008 A 
ATOM     22  C   UNL     1      -1.428   0.286   0.027  1.00  0.00    -0.030 A 
ATOM     23  C   UNL     1       0.203  -1.104  -1.127  1.00  0.00    -0.030 A 
ATOM     24  C   UNL     1      -2.836   0.671   0.413  1.00  0.00     0.046 C 
ATOM     25  C   UNL     1       0.649  -2.228  -2.009  1.00  0.00     0.046 C 
ENDBRANCH  14  17
ENDBRANCH  12  14
ENDBRANCH   7  12
BRANCH  11  26
ATOM     26  N   UNL     1       3.852  -4.674   0.380  1.00  0.00    -0.367 N 
ATOM     27  C   UNL     1       4.473  -4.422  -0.939  1.00  0.00     0.138 C 
ATOM     28  C   UNL     1       4.699  -5.428   1.318  1.00  0.00     0.138 C 
ATOM     29  C   UNL     1       5.864  -3.755  -0.787  1.00  0.00     0.139 C 
ATOM     30  C   UNL     1       6.036  -4.679   1.501  1.00  0.00     0.139 C 
ATOM     31  N   UNL     1       6.675  -4.505   0.181  1.00  0.00    -0.353 N 
BRANCH  31  32
ATOM     32  C   UNL     1       8.050  -4.378   0.125  1.00  0.00     0.128 A 
ATOM     33  C   UNL     1       8.852  -5.380   0.673  1.00  0.00     0.047 A 
ATOM     34  N   UNL     1       8.599  -3.322  -0.512  1.00  0.00    -0.239 NA
ATOM     35  C   UNL     1      10.238  -5.292   0.589  1.00  0.00     0.005 A 
ATOM     36  C   UNL     1       9.949  -3.244  -0.566  1.00  0.00     0.113 A 
ATOM     37  C   UNL     1      10.803  -4.194  -0.037  1.00  0.00     0.020 A 
ENDBRANCH  31  32
ENDBRANCH  11  26
ENDBRANCH   3   6
ENDBRANCH   1   2
BRANCH   1  38
ATOM     38  C   UNL     1      -0.081  -1.255   3.710  1.00  0.00     0.042 C 
BRANCH  38  39
ATOM     39  C   UNL     1       0.375  -0.619   5.014  1.00  0.00     0.118 C 
BRANCH  39  40
ATOM     40  N   UNL     1       0.379   0.833   4.932  1.00  0.00    -0.352 N 
ATOM     41  C   UNL     1      -0.226   1.747   5.754  1.00  0.00     0.251 C 
ATOM     42  H   UNL     1       0.888   1.213   4.180  1.00  0.00     0.163 HD
ATOM     43  O   UNL     1      -0.301   2.923   5.410  1.00  0.00    -0.269 OA
BRANCH  41  44
ATOM     44  C   UNL     1      -0.794   1.317   7.049  1.00  0.00     0.039 A 
ATOM     45  C   UNL     1      -2.012   1.863   7.462  1.00  0.00     0.014 A 
ATOM     46  C   UNL     1      -0.119   0.406   7.868  1.00  0.00     0.014 A 
ATOM     47  C   UNL     1      -2.565   1.475   8.682  1.00  0.00     0.010 A 
ATOM     48  C   UNL     1      -0.711  -0.042   9.043  1.00  0.00     0.010 A 
ATOM     49  C   UNL     1      -1.926   0.508   9.475  1.00  0.00    -0.014 A 
BRANCH  49  50
ATOM     50  C   UNL     1      -2.491   0.098  10.783  1.00  0.00     0.031 A 
ATOM     51  C   UNL     1      -1.738   0.393  12.052  1.00  0.00     0.074 A 
ATOM     52  C   UNL     1      -3.654  -0.578  10.828  1.00  0.00     0.049 A 
ATOM     53  N   UNL     1      -2.049   0.090  13.287  1.00  0.00    -0.248 NA
ATOM     54  C   UNL     1      -0.449   1.092  11.913  1.00  0.00     0.031 C 
ATOM     55  C   UNL     1      -4.454  -0.970   9.665  1.00  0.00     0.029 A 
ATOM     56  N   UNL     1      -4.365  -1.056  11.899  1.00  0.00    -0.354 N 
ATOM     57  C   UNL     1      -0.986   0.536  14.062  1.00  0.00     0.074 A 
ATOM     58  C   UNL     1      -0.000   1.085  13.158  1.00  0.00     0.031 C 
ATOM     59  C   UNL     1      -5.562  -1.600  10.089  1.00  0.00     0.029 A 
ATOM     60  C   UNL     1      -5.535  -1.682  11.545  1.00  0.00     0.049 A 
ATOM     61  H   UNL     1      -4.066  -0.959  12.831  1.00  0.00     0.167 HD
ATOM     62  C   UNL     1      -0.849   0.511  15.409  1.00  0.00     0.031 A 
ATOM     63  C   UNL     1      -6.482  -2.253  12.312  1.00  0.00     0.031 A 
ATOM     64  C   UNL     1      -1.842  -0.006  16.311  1.00  0.00     0.049 A 
ATOM     65  C   UNL     1      -6.327  -2.236  13.806  1.00  0.00     0.074 A 
ATOM     66  C   UNL     1      -1.832  -0.014  17.694  1.00  0.00     0.029 A 
ATOM     67  N   UNL     1      -3.028  -0.603  15.914  1.00  0.00    -0.354 N 
ATOM     68  N   UNL     1      -5.349  -1.746  14.529  1.00  0.00    -0.248 NA
ATOM     69  C   UNL     1      -7.416  -2.836  14.589  1.00  0.00     0.031 C 
ATOM     70  C   UNL     1      -2.997  -0.650  18.135  1.00  0.00     0.029 A 
ATOM     71  C   UNL     1      -3.752  -0.997  17.026  1.00  0.00     0.049 A 
ATOM     72  H   UNL     1      -3.313  -0.729  14.980  1.00  0.00     0.167 HD
ATOM     73  C   UNL     1      -5.715  -1.956  15.851  1.00  0.00     0.074 A 
ATOM     74  C   UNL     1      -7.011  -2.603  15.830  1.00  0.00     0.031 C 
ATOM     75  C   UNL     1      -5.039  -1.640  16.983  1.00  0.00     0.031 A 
BRANCH  62  76
ATOM     76  C   UNL     1       0.427   1.061  15.982  1.00  0.00    -0.014 A 
ATOM     77  C   UNL     1       0.704   2.437  15.956  1.00  0.00     0.009 A 
ATOM     78  C   UNL     1       1.360   0.192  16.568  1.00  0.00     0.009 A 
ATOM     79  C   UNL     1       1.907   2.927  16.468  1.00  0.00     0.001 A 
ATOM     80  C   UNL     1       2.550   0.688  17.104  1.00  0.00     0.001 A 
ATOM     81  C   UNL     1       2.828   2.053  17.044  1.00  0.00     0.000 A 
ENDBRANCH  62  76
BRANCH  63  82
ATOM     82  C   UNL     1      -7.682  -2.856  11.678  1.00  0.00    -0.014 A 
ATOM     83  C   UNL     1      -8.927  -2.214  11.763  1.00  0.00     0.009 A 
ATOM     84  C   UNL     1      -7.588  -4.069  10.980  1.00  0.00     0.009 A 
ATOM     85  C   UNL     1     -10.060  -2.788  11.181  1.00  0.00     0.001 A 
ATOM     86  C   UNL     1      -8.718  -4.628  10.377  1.00  0.00     0.001 A 
ATOM     87  C   UNL     1      -9.953  -3.991  10.485  1.00  0.00     0.000 A 
ENDBRANCH  63  82
BRANCH  75  88
ATOM     88  C   UNL     1      -5.705  -1.964  18.289  1.00  0.00    -0.014 A 
ATOM     89  C   UNL     1      -5.794  -3.285  18.752  1.00  0.00     0.009 A 
ATOM     90  C   UNL     1      -6.219  -0.926  19.081  1.00  0.00     0.009 A 
ATOM     91  C   UNL     1      -6.416  -3.564  19.970  1.00  0.00     0.001 A 
ATOM     92  C   UNL     1      -6.817  -1.206  20.311  1.00  0.00     0.001 A 
ATOM     93  C   UNL     1      -6.923  -2.525  20.750  1.00  0.00     0.000 A 
ENDBRANCH  75  88
ENDBRANCH  49  50
ENDBRANCH  41  44
ENDBRANCH  39  40
ENDBRANCH  38  39
ENDBRANCH   1  38
TORSDOF 15
