REMARK SMILES CCN(C=O)[C@](C)(C(=O)NCCCNC(=O)c1ccc(-c2c3nc(c(-c4ccccc4)c4ccc([nH]4)c(-c4ccccc4)c4nc(c(-c5ccccc5)c5ccc2[nH]5)C=C4)C=C3)cc1)c1cc(F)c(C)cc1F
REMARK SMILES IDX 12 1 11 2 10 3 8 4 9 5 6 7 7 8 3 9 2 10 1 11 4 12 5 13 65 14
REMARK SMILES IDX 66 15 72 16 67 17 71 18 73 19 68 20 69 21 70 22 13 23 14 24
REMARK SMILES IDX 15 25 16 27 17 28 18 29 64 30 19 31 63 32 20 33 21 34 22 35
REMARK SMILES IDX 57 36 23 37 62 38 56 39 58 40 24 41 61 42 55 43 54 44 25 46
REMARK SMILES IDX 47 47 32 48 46 49 33 50 36 51 45 52 59 53 34 54 35 55 44 57
REMARK SMILES IDX 60 58 37 59 26 60 27 61 31 62 28 63 30 64 29 65 48 66 49 67
REMARK SMILES IDX 53 68 50 69 52 70 51 71 38 72 39 73 43 74 40 75 42 76 41 77
REMARK H PARENT 10 6 14 26 58 45 36 56
REMARK Flexibility Score: inf
ROOT
ATOM      1  C   UNL     1       0.894   0.666   1.169  1.00  0.00     0.042 C 
ENDROOT
BRANCH   1   2
ATOM      2  C   UNL     1       2.042   0.860   0.196  1.00  0.00     0.117 C 
BRANCH   2   3
ATOM      3  N   UNL     1       2.611  -0.405  -0.237  1.00  0.00    -0.354 N 
ATOM      4  C   UNL     1       2.895  -0.865  -1.495  1.00  0.00     0.250 C 
ATOM      5  O   UNL     1       3.575  -1.896  -1.544  1.00  0.00    -0.272 OA
ATOM      6  H   UNL     1       2.828  -1.031   0.491  1.00  0.00     0.163 HD
BRANCH   4   7
ATOM      7  C   UNL     1       2.380  -0.112  -2.782  1.00  0.00     0.147 C 
ATOM      8  C   UNL     1       0.824  -0.061  -2.666  1.00  0.00     0.051 C 
BRANCH   7   9
ATOM      9  N   UNL     1       3.055   1.231  -2.797  1.00  0.00    -0.327 N 
BRANCH   9  10
ATOM     10  C   UNL     1       4.514   1.314  -2.592  1.00  0.00     0.117 C 
ATOM     11  C   UNL     1       4.936   1.736  -1.193  1.00  0.00     0.027 C 
ENDBRANCH   9  10
BRANCH   9  12
ATOM     12  C   UNL     1       2.420   2.356  -3.305  1.00  0.00     0.341 C 
ATOM     13  O   UNL     1       1.269   2.437  -3.708  1.00  0.00    -0.279 OA
ENDBRANCH   9  12
ENDBRANCH   7   9
BRANCH   7  14
ATOM     14  C   UNL     1       2.666  -0.947  -4.063  1.00  0.00     0.026 A 
ATOM     15  C   UNL     1       2.183  -2.273  -4.150  1.00  0.00     0.049 A 
ATOM     16  C   UNL     1       3.323  -0.446  -5.197  1.00  0.00     0.129 A 
ATOM     17  C   UNL     1       2.349  -3.032  -5.309  1.00  0.00     0.126 A 
ATOM     18  C   UNL     1       3.495  -1.213  -6.354  1.00  0.00     0.046 A 
ATOM     19  F   UNL     1       3.814   0.799  -5.235  1.00  0.00    -0.207 F 
ATOM     20  F   UNL     1       1.854  -4.277  -5.341  1.00  0.00    -0.207 F 
ATOM     21  C   UNL     1       2.999  -2.515  -6.425  1.00  0.00    -0.012 A 
ATOM     22  C   UNL     1       3.147  -3.340  -7.664  1.00  0.00     0.047 C 
ENDBRANCH   7  14
ENDBRANCH   4   7
ENDBRANCH   2   3
ENDBRANCH   1   2
BRANCH   1  23
ATOM     23  C   UNL     1       1.333   0.048   2.490  1.00  0.00     0.118 C 
BRANCH  23  24
ATOM     24  N   UNL     1       2.311   0.863   3.203  1.00  0.00    -0.352 N 
ATOM     25  C   UNL     1       2.248   1.413   4.461  1.00  0.00     0.251 C 
ATOM     26  H   UNL     1       3.143   1.045   2.708  1.00  0.00     0.163 HD
ATOM     27  O   UNL     1       3.094   2.218   4.827  1.00  0.00    -0.269 OA
BRANCH  25  28
ATOM     28  C   UNL     1       1.137   1.039   5.356  1.00  0.00     0.039 A 
ATOM     29  C   UNL     1       0.470   2.037   6.070  1.00  0.00     0.014 A 
ATOM     30  C   UNL     1       0.739  -0.295   5.461  1.00  0.00     0.014 A 
ATOM     31  C   UNL     1      -0.650   1.702   6.830  1.00  0.00     0.010 A 
ATOM     32  C   UNL     1      -0.434  -0.609   6.131  1.00  0.00     0.010 A 
ATOM     33  C   UNL     1      -1.135   0.384   6.831  1.00  0.00    -0.014 A 
BRANCH  33  34
ATOM     34  C   UNL     1      -2.364   0.008   7.569  1.00  0.00     0.031 A 
ATOM     35  C   UNL     1      -2.289  -1.000   8.682  1.00  0.00     0.074 A 
ATOM     36  C   UNL     1      -3.553   0.514   7.190  1.00  0.00     0.049 A 
ATOM     37  N   UNL     1      -3.256  -1.514   9.399  1.00  0.00    -0.248 NA
ATOM     38  C   UNL     1      -0.953  -1.527   9.009  1.00  0.00     0.031 C 
ATOM     39  C   UNL     1      -3.764   1.466   6.098  1.00  0.00     0.029 A 
ATOM     40  N   UNL     1      -4.812   0.293   7.687  1.00  0.00    -0.354 N 
ATOM     41  C   UNL     1      -2.648  -2.437  10.240  1.00  0.00     0.074 A 
ATOM     42  C   UNL     1      -1.243  -2.461   9.900  1.00  0.00     0.031 C 
ATOM     43  C   UNL     1      -5.068   1.783   6.038  1.00  0.00     0.029 A 
ATOM     44  C   UNL     1      -5.788   1.024   7.055  1.00  0.00     0.049 A 
ATOM     45  H   UNL     1      -4.999  -0.331   8.425  1.00  0.00     0.167 HD
ATOM     46  C   UNL     1      -3.201  -3.179  11.228  1.00  0.00     0.031 A 
ATOM     47  C   UNL     1      -7.114   1.079   7.275  1.00  0.00     0.031 A 
ATOM     48  C   UNL     1      -4.596  -3.145  11.573  1.00  0.00     0.049 A 
ATOM     49  C   UNL     1      -7.711   0.236   8.366  1.00  0.00     0.074 A 
ATOM     50  C   UNL     1      -5.251  -3.817  12.589  1.00  0.00     0.029 A 
ATOM     51  N   UNL     1      -5.551  -2.392  10.908  1.00  0.00    -0.354 N 
ATOM     52  N   UNL     1      -7.114  -0.588   9.194  1.00  0.00    -0.248 NA
ATOM     53  C   UNL     1      -9.164   0.339   8.558  1.00  0.00     0.031 C 
ATOM     54  C   UNL     1      -6.613  -3.505  12.510  1.00  0.00     0.029 A 
ATOM     55  C   UNL     1      -6.796  -2.597  11.479  1.00  0.00     0.049 A 
ATOM     56  H   UNL     1      -5.371  -1.799  10.143  1.00  0.00     0.167 HD
ATOM     57  C   UNL     1      -8.113  -1.077  10.025  1.00  0.00     0.074 A 
ATOM     58  C   UNL     1      -9.351  -0.449   9.607  1.00  0.00     0.031 C 
ATOM     59  C   UNL     1      -8.015  -1.964  11.046  1.00  0.00     0.031 A 
BRANCH  46  60
ATOM     60  C   UNL     1      -2.282  -4.092  11.992  1.00  0.00    -0.014 A 
ATOM     61  C   UNL     1      -1.286  -3.578  12.840  1.00  0.00     0.009 A 
ATOM     62  C   UNL     1      -2.404  -5.483  11.856  1.00  0.00     0.009 A 
ATOM     63  C   UNL     1      -0.398  -4.436  13.491  1.00  0.00     0.001 A 
ATOM     64  C   UNL     1      -1.536  -6.340  12.536  1.00  0.00     0.001 A 
ATOM     65  C   UNL     1      -0.525  -5.816  13.341  1.00  0.00     0.000 A 
ENDBRANCH  46  60
BRANCH  47  66
ATOM     66  C   UNL     1      -7.962   2.002   6.477  1.00  0.00    -0.014 A 
ATOM     67  C   UNL     1      -8.491   3.159   7.068  1.00  0.00     0.009 A 
ATOM     68  C   UNL     1      -8.239   1.741   5.126  1.00  0.00     0.009 A 
ATOM     69  C   UNL     1      -9.299   4.027   6.329  1.00  0.00     0.001 A 
ATOM     70  C   UNL     1      -9.025   2.624   4.383  1.00  0.00     0.001 A 
ATOM     71  C   UNL     1      -9.561   3.761   4.986  1.00  0.00     0.000 A 
ENDBRANCH  47  66
BRANCH  59  72
ATOM     72  C   UNL     1      -9.274  -2.274  11.805  1.00  0.00    -0.014 A 
ATOM     73  C   UNL     1     -10.290  -3.062  11.243  1.00  0.00     0.009 A 
ATOM     74  C   UNL     1      -9.425  -1.799  13.117  1.00  0.00     0.009 A 
ATOM     75  C   UNL     1     -11.450  -3.338  11.970  1.00  0.00     0.001 A 
ATOM     76  C   UNL     1     -10.572  -2.102  13.852  1.00  0.00     0.001 A 
ATOM     77  C   UNL     1     -11.587  -2.863  13.274  1.00  0.00     0.000 A 
ENDBRANCH  59  72
ENDBRANCH  33  34
ENDBRANCH  25  28
ENDBRANCH  23  24
ENDBRANCH   1  23
TORSDOF 14
