REMARK SMILES CC[C@H](CC#N)[NH2+]Cc1cc(C(=O)NCCCNC(=O)c2ccc(-c3c4nc(c(-c5ccccc5)c5ccc([nH]5)c(-c5ccccc5)c5nc(c(-c6ccccc6)c6ccc3[nH]6)C=C5)C=C4)cc2)cs1
REMARK SMILES IDX 12 1 13 2 14 3 11 5 9 6 10 7 70 8 69 9 8 10 7 11 3 14 2 15
REMARK SMILES IDX 1 16 4 17 5 18 6 19 15 20 16 21 17 22 18 23 19 24 20 26
REMARK SMILES IDX 21 27 22 28 68 29 23 30 67 31 24 32 25 33 26 34 61 35 27 36
REMARK SMILES IDX 66 37 60 38 62 39 28 40 65 41 59 42 58 43 29 45 51 46 36 47
REMARK SMILES IDX 50 48 37 49 40 50 49 51 63 52 38 53 39 54 48 56 64 57 41 58
REMARK SMILES IDX 30 59 31 60 35 61 32 62 34 63 33 64 52 65 53 66 57 67 54 68
REMARK SMILES IDX 56 69 55 70 42 71 43 72 47 73 44 74 46 75 45 76
REMARK H PARENT 14 4 7 12 7 13 18 25 62 44 40 55
REMARK Flexibility Score: inf
ROOT
ATOM      1  C   UNL     1      -1.373  -5.532   6.026  1.00  0.00     0.252 C 
ATOM      2  O   UNL     1      -1.778  -4.969   7.046  1.00  0.00    -0.269 OA
ATOM      3  N   UNL     1      -1.768  -6.825   5.806  1.00  0.00    -0.352 N 
ATOM      4  H   UNL     1      -2.405  -7.175   6.471  1.00  0.00     0.163 HD
ENDROOT
BRANCH   1   5
ATOM      5  C   UNL     1      -0.414  -4.899   5.131  1.00  0.00     0.051 A 
ATOM      6  C   UNL     1       0.839  -4.370   3.212  1.00  0.00     0.059 A 
ATOM      7  C   UNL     1      -0.307  -4.965   3.703  1.00  0.00     0.035 A 
ATOM      8  S   UNL     1       1.774  -3.716   4.487  1.00  0.00    -0.142 S 
ATOM      9  C   UNL     1       0.546  -4.033   5.626  1.00  0.00     0.079 A 
BRANCH   6  10
ATOM     10  C   UNL     1       1.305  -4.312   1.787  1.00  0.00     0.308 C 
BRANCH  10  11
ATOM     11  N   UNL     1       0.509  -3.388   0.969  1.00  0.00    -0.339 N 
ATOM     12  H   UNL     1       0.454  -3.766   0.023  1.00  0.00     0.346 HD
ATOM     13  H   UNL     1      -0.403  -3.312   1.420  1.00  0.00     0.346 HD
BRANCH  11  14
ATOM     14  C   UNL     1       1.054  -2.019   0.888  1.00  0.00     0.196 C 
BRANCH  14  15
ATOM     15  C   UNL     1       0.845  -1.233   2.201  1.00  0.00     0.063 C 
ATOM     16  C   UNL     1       1.036   0.275   2.157  1.00  0.00     0.010 C 
ENDBRANCH  14  15
BRANCH  14  17
ATOM     17  C   UNL     1       0.444  -1.304  -0.338  1.00  0.00     0.184 C 
BRANCH  17  18
ATOM     18  C   UNL     1       1.510  -0.361  -0.872  1.00  0.00     0.068 C 
ATOM     19  N   UNL     1       2.395   0.421  -1.314  1.00  0.00    -0.198 NA
ENDBRANCH  17  18
ENDBRANCH  14  17
ENDBRANCH  11  14
ENDBRANCH  10  11
ENDBRANCH   6  10
ENDBRANCH   1   5
BRANCH   3  20
ATOM     20  C   UNL     1      -1.411  -7.769   4.763  1.00  0.00     0.118 C 
BRANCH  20  21
ATOM     21  C   UNL     1      -0.137  -8.553   5.053  1.00  0.00     0.042 C 
BRANCH  21  22
ATOM     22  C   UNL     1      -0.285  -9.560   6.189  1.00  0.00     0.118 C 
BRANCH  22  23
ATOM     23  N   UNL     1      -1.408 -10.468   5.976  1.00  0.00    -0.352 N 
ATOM     24  C   UNL     1      -1.433 -11.815   5.727  1.00  0.00     0.251 C 
ATOM     25  H   UNL     1      -2.294 -10.042   6.018  1.00  0.00     0.163 HD
ATOM     26  O   UNL     1      -2.449 -12.329   5.269  1.00  0.00    -0.269 OA
BRANCH  24  27
ATOM     27  C   UNL     1      -0.254 -12.649   6.025  1.00  0.00     0.039 A 
ATOM     28  C   UNL     1       0.052 -13.725   5.187  1.00  0.00     0.014 A 
ATOM     29  C   UNL     1       0.515 -12.406   7.166  1.00  0.00     0.014 A 
ATOM     30  C   UNL     1       1.161 -14.523   5.468  1.00  0.00     0.010 A 
ATOM     31  C   UNL     1       1.669 -13.142   7.393  1.00  0.00     0.010 A 
ATOM     32  C   UNL     1       1.995 -14.216   6.555  1.00  0.00    -0.014 A 
BRANCH  32  33
ATOM     33  C   UNL     1       3.214 -15.009   6.838  1.00  0.00     0.031 A 
ATOM     34  C   UNL     1       3.339 -15.770   8.128  1.00  0.00     0.074 A 
ATOM     35  C   UNL     1       4.234 -14.979   5.960  1.00  0.00     0.049 A 
ATOM     36  N   UNL     1       4.346 -16.478   8.573  1.00  0.00    -0.248 NA
ATOM     37  C   UNL     1       2.198 -15.700   9.055  1.00  0.00     0.031 C 
ATOM     38  C   UNL     1       4.246 -14.232   4.700  1.00  0.00     0.029 A 
ATOM     39  N   UNL     1       5.462 -15.588   5.998  1.00  0.00    -0.354 N 
ATOM     40  C   UNL     1       3.967 -16.918   9.834  1.00  0.00     0.074 A 
ATOM     41  C   UNL     1       2.666 -16.351  10.109  1.00  0.00     0.031 C 
ATOM     42  C   UNL     1       5.409 -14.455   4.069  1.00  0.00     0.029 A 
ATOM     43  C   UNL     1       6.240 -15.320   4.899  1.00  0.00     0.049 A 
ATOM     44  H   UNL     1       5.757 -16.161   6.742  1.00  0.00     0.167 HD
ATOM     45  C   UNL     1       4.634 -17.739  10.680  1.00  0.00     0.031 A 
ATOM     46  C   UNL     1       7.487 -15.723   4.596  1.00  0.00     0.031 A 
ATOM     47  C   UNL     1       5.928 -18.299  10.398  1.00  0.00     0.049 A 
ATOM     48  C   UNL     1       8.212 -16.626   5.553  1.00  0.00     0.074 A 
ATOM     49  C   UNL     1       6.665 -19.192  11.155  1.00  0.00     0.029 A 
ATOM     50  N   UNL     1       6.682 -18.011   9.270  1.00  0.00    -0.354 N 
ATOM     51  N   UNL     1       7.807 -17.103   6.705  1.00  0.00    -0.248 NA
ATOM     52  C   UNL     1       9.560 -17.055   5.160  1.00  0.00     0.031 C 
ATOM     53  C   UNL     1       7.894 -19.393  10.516  1.00  0.00     0.029 A 
ATOM     54  C   UNL     1       7.893 -18.681   9.327  1.00  0.00     0.049 A 
ATOM     55  H   UNL     1       6.399 -17.417   8.538  1.00  0.00     0.167 HD
ATOM     56  C   UNL     1       8.840 -17.908   7.166  1.00  0.00     0.074 A 
ATOM     57  C   UNL     1       9.880 -17.869   6.157  1.00  0.00     0.031 C 
ATOM     58  C   UNL     1       8.921 -18.618   8.318  1.00  0.00     0.031 A 
BRANCH  45  59
ATOM     59  C   UNL     1       3.976 -18.057  11.997  1.00  0.00    -0.014 A 
ATOM     60  C   UNL     1       2.798 -18.821  12.063  1.00  0.00     0.009 A 
ATOM     61  C   UNL     1       4.548 -17.594  13.192  1.00  0.00     0.009 A 
ATOM     62  C   UNL     1       2.181 -19.070  13.291  1.00  0.00     0.001 A 
ATOM     63  C   UNL     1       3.948 -17.874  14.422  1.00  0.00     0.001 A 
ATOM     64  C   UNL     1       2.759 -18.599  14.470  1.00  0.00     0.000 A 
ENDBRANCH  45  59
BRANCH  46  65
ATOM     65  C   UNL     1       8.112 -15.289   3.320  1.00  0.00    -0.014 A 
ATOM     66  C   UNL     1       8.315 -16.206   2.277  1.00  0.00     0.009 A 
ATOM     67  C   UNL     1       8.486 -13.950   3.127  1.00  0.00     0.009 A 
ATOM     68  C   UNL     1       8.898 -15.795   1.076  1.00  0.00     0.001 A 
ATOM     69  C   UNL     1       9.040 -13.535   1.914  1.00  0.00     0.001 A 
ATOM     70  C   UNL     1       9.254 -14.459   0.893  1.00  0.00     0.000 A 
ENDBRANCH  46  65
BRANCH  58  71
ATOM     71  C   UNL     1      10.167 -19.430   8.536  1.00  0.00    -0.014 A 
ATOM     72  C   UNL     1      11.401 -18.818   8.807  1.00  0.00     0.009 A 
ATOM     73  C   UNL     1      10.095 -20.832   8.505  1.00  0.00     0.009 A 
ATOM     74  C   UNL     1      12.544 -19.594   9.006  1.00  0.00     0.001 A 
ATOM     75  C   UNL     1      11.233 -21.605   8.739  1.00  0.00     0.001 A 
ATOM     76  C   UNL     1      12.458 -20.986   8.978  1.00  0.00     0.000 A 
ENDBRANCH  58  71
ENDBRANCH  32  33
ENDBRANCH  24  27
ENDBRANCH  22  23
ENDBRANCH  21  22
ENDBRANCH  20  21
ENDBRANCH   3  20
TORSDOF 16
