REMARK SMILES Nc1cccc(C(=O)N[C@@H]2C=C[C@@H](C(=O)NCCCNC(=O)c3ccc(-c4c5nc(c(-c6ccccc6)c6ccc([nH]6)c(-c6ccccc6)c6nc(c(-c7ccccc7)c7ccc4[nH]7)C=C6)C=C5)cc3)C2)c1
REMARK SMILES IDX 17 1 16 2 14 3 15 4 13 6 10 7 11 8 71 9 12 10 9 11 7 12 8 13
REMARK SMILES IDX 6 15 2 16 3 17 72 18 4 19 5 20 1 21 18 24 19 25 20 26 21 27
REMARK SMILES IDX 22 29 23 30 24 31 70 32 25 33 69 34 26 35 27 36 28 37 63 38
REMARK SMILES IDX 29 39 68 40 62 41 64 42 30 43 67 44 61 45 60 46 31 48 53 49
REMARK SMILES IDX 38 50 52 51 39 52 42 53 51 54 65 55 40 56 41 57 50 59 66 60
REMARK SMILES IDX 43 61 32 62 33 63 37 64 34 65 36 66 35 67 54 68 55 69 59 70
REMARK SMILES IDX 56 71 58 72 57 73 44 74 45 75 49 76 46 77 48 78 47 79
REMARK H PARENT 16 5 9 14 1 22 1 23 20 28 64 47 42 58
REMARK Flexibility Score: inf
ROOT
ATOM      1  C   UNL     1      -0.159   3.715   3.610  1.00  0.00     0.117 C 
ENDROOT
BRANCH   1   2
ATOM      2  N   UNL     1       0.968   2.878   3.965  1.00  0.00    -0.356 N 
ATOM      3  C   UNL     1       2.025   2.413   3.251  1.00  0.00     0.227 C 
ATOM      4  O   UNL     1       2.812   1.680   3.861  1.00  0.00    -0.274 OA
ATOM      5  H   UNL     1       0.968   2.591   4.907  1.00  0.00     0.163 HD
BRANCH   3   6
ATOM      6  C   UNL     1       2.310   2.792   1.797  1.00  0.00     0.103 C 
ATOM      7  C   UNL     1       0.854   3.954   0.172  1.00  0.00     0.106 C 
ATOM      8  C   UNL     1       1.899   4.849   0.756  1.00  0.00    -0.006 C 
ATOM      9  C   UNL     1       1.207   2.569   0.754  1.00  0.00     0.047 C 
ATOM     10  C   UNL     1       2.662   4.235   1.662  1.00  0.00    -0.016 C 
BRANCH   7  11
ATOM     11  N   UNL     1       0.856   4.003  -1.276  1.00  0.00    -0.346 N 
ATOM     12  C   UNL     1       0.565   5.031  -2.147  1.00  0.00     0.251 C 
ATOM     13  O   UNL     1       0.541   4.799  -3.355  1.00  0.00    -0.269 OA
ATOM     14  H   UNL     1       1.109   3.158  -1.713  1.00  0.00     0.164 HD
BRANCH  12  15
ATOM     15  C   UNL     1       0.401   6.431  -1.673  1.00  0.00     0.041 A 
ATOM     16  C   UNL     1      -0.155   8.025   0.066  1.00  0.00     0.032 A 
ATOM     17  C   UNL     1       0.510   9.020  -0.651  1.00  0.00     0.025 A 
ATOM     18  C   UNL     1      -0.305   6.765  -0.514  1.00  0.00     0.039 A 
ATOM     19  C   UNL     1       1.103   8.735  -1.883  1.00  0.00     0.003 A 
ATOM     20  C   UNL     1       1.071   7.434  -2.382  1.00  0.00     0.014 A 
BRANCH  16  21
ATOM     21  N   UNL     1      -0.732   8.302   1.296  1.00  0.00    -0.399 N 
ATOM     22  H   UNL     1      -0.623   9.193   1.701  1.00  0.00     0.156 HD
ATOM     23  H   UNL     1      -1.249   7.608   1.765  1.00  0.00     0.156 HD
ENDBRANCH  16  21
ENDBRANCH  12  15
ENDBRANCH   7  11
ENDBRANCH   3   6
ENDBRANCH   1   2
BRANCH   1  24
ATOM     24  C   UNL     1      -1.456   2.916   3.565  1.00  0.00     0.042 C 
BRANCH  24  25
ATOM     25  C   UNL     1      -1.884   2.375   4.926  1.00  0.00     0.118 C 
BRANCH  25  26
ATOM     26  N   UNL     1      -2.243   3.431   5.862  1.00  0.00    -0.352 N 
ATOM     27  C   UNL     1      -3.404   3.622   6.572  1.00  0.00     0.251 C 
ATOM     28  H   UNL     1      -1.548   4.112   6.009  1.00  0.00     0.163 HD
ATOM     29  O   UNL     1      -3.584   4.673   7.173  1.00  0.00    -0.269 OA
BRANCH  27  30
ATOM     30  C   UNL     1      -4.446   2.571   6.590  1.00  0.00     0.039 A 
ATOM     31  C   UNL     1      -5.786   2.950   6.475  1.00  0.00     0.014 A 
ATOM     32  C   UNL     1      -4.108   1.223   6.728  1.00  0.00     0.014 A 
ATOM     33  C   UNL     1      -6.780   1.970   6.429  1.00  0.00     0.010 A 
ATOM     34  C   UNL     1      -5.089   0.246   6.592  1.00  0.00     0.010 A 
ATOM     35  C   UNL     1      -6.436   0.609   6.447  1.00  0.00    -0.014 A 
BRANCH  35  36
ATOM     36  C   UNL     1      -7.468  -0.450   6.311  1.00  0.00     0.031 A 
ATOM     37  C   UNL     1      -7.699  -1.433   7.425  1.00  0.00     0.074 A 
ATOM     38  C   UNL     1      -8.154  -0.566   5.158  1.00  0.00     0.049 A 
ATOM     39  N   UNL     1      -8.521  -2.451   7.471  1.00  0.00    -0.248 NA
ATOM     40  C   UNL     1      -6.878  -1.269   8.635  1.00  0.00     0.031 C 
ATOM     41  C   UNL     1      -8.000   0.300   3.988  1.00  0.00     0.029 A 
ATOM     42  N   UNL     1      -9.120  -1.466   4.781  1.00  0.00    -0.354 N 
ATOM     43  C   UNL     1      -8.304  -3.055   8.703  1.00  0.00     0.074 A 
ATOM     44  C   UNL     1      -7.232  -2.327   9.347  1.00  0.00     0.031 C 
ATOM     45  C   UNL     1      -8.868  -0.085   3.039  1.00  0.00     0.029 A 
ATOM     46  C   UNL     1      -9.604  -1.252   3.514  1.00  0.00     0.049 A 
ATOM     47  H   UNL     1      -9.434  -2.195   5.363  1.00  0.00     0.167 HD
ATOM     48  C   UNL     1      -8.948  -4.109   9.259  1.00  0.00     0.031 A 
ATOM     49  C   UNL     1     -10.535  -1.923   2.809  1.00  0.00     0.031 A 
ATOM     50  C   UNL     1     -10.011  -4.835   8.616  1.00  0.00     0.049 A 
ATOM     51  C   UNL     1     -11.214  -3.110   3.431  1.00  0.00     0.074 A 
ATOM     52  C   UNL     1     -10.767  -5.881   9.116  1.00  0.00     0.029 A 
ATOM     53  N   UNL     1     -10.462  -4.597   7.326  1.00  0.00    -0.354 N 
ATOM     54  N   UNL     1     -11.048  -3.625   4.625  1.00  0.00    -0.248 NA
ATOM     55  C   UNL     1     -12.215  -3.803   2.608  1.00  0.00     0.031 C 
ATOM     56  C   UNL     1     -11.630  -6.319   8.105  1.00  0.00     0.029 A 
ATOM     57  C   UNL     1     -11.461  -5.500   7.000  1.00  0.00     0.049 A 
ATOM     58  H   UNL     1     -10.122  -3.891   6.730  1.00  0.00     0.167 HD
ATOM     59  C   UNL     1     -11.944  -4.683   4.709  1.00  0.00     0.074 A 
ATOM     60  C   UNL     1     -12.660  -4.726   3.450  1.00  0.00     0.031 C 
ATOM     61  C   UNL     1     -12.158  -5.539   5.739  1.00  0.00     0.031 A 
BRANCH  48  62
ATOM     62  C   UNL     1      -8.495  -4.549  10.626  1.00  0.00    -0.014 A 
ATOM     63  C   UNL     1      -8.684  -3.738  11.757  1.00  0.00     0.009 A 
ATOM     64  C   UNL     1      -7.873  -5.797  10.786  1.00  0.00     0.009 A 
ATOM     65  C   UNL     1      -8.212  -4.143  13.008  1.00  0.00     0.001 A 
ATOM     66  C   UNL     1      -7.434  -6.216  12.043  1.00  0.00     0.001 A 
ATOM     67  C   UNL     1      -7.590  -5.383  13.150  1.00  0.00     0.000 A 
ENDBRANCH  48  62
BRANCH  49  68
ATOM     68  C   UNL     1     -10.899  -1.465   1.442  1.00  0.00    -0.014 A 
ATOM     69  C   UNL     1     -12.149  -0.873   1.203  1.00  0.00     0.009 A 
ATOM     70  C   UNL     1      -9.997  -1.601   0.375  1.00  0.00     0.009 A 
ATOM     71  C   UNL     1     -12.495  -0.445  -0.081  1.00  0.00     0.001 A 
ATOM     72  C   UNL     1     -10.334  -1.145  -0.900  1.00  0.00     0.001 A 
ATOM     73  C   UNL     1     -11.585  -0.574  -1.129  1.00  0.00     0.000 A 
ENDBRANCH  49  68
BRANCH  61  74
ATOM     74  C   UNL     1     -13.232  -6.577   5.559  1.00  0.00    -0.014 A 
ATOM     75  C   UNL     1     -13.068  -7.658   4.680  1.00  0.00     0.009 A 
ATOM     76  C   UNL     1     -14.413  -6.489   6.314  1.00  0.00     0.009 A 
ATOM     77  C   UNL     1     -14.080  -8.610   4.534  1.00  0.00     0.001 A 
ATOM     78  C   UNL     1     -15.408  -7.460   6.192  1.00  0.00     0.001 A 
ATOM     79  C   UNL     1     -15.245  -8.513   5.294  1.00  0.00     0.000 A 
ENDBRANCH  61  74
ENDBRANCH  35  36
ENDBRANCH  27  30
ENDBRANCH  25  26
ENDBRANCH  24  25
ENDBRANCH   1  24
TORSDOF 13
