REMARK SMILES C[C@H](C[N@H+]1[C@@H]2CC[C@H]1C[C@H](CC(=O)NCCCNC(=O)c1ccc(-c3c4nc(c(-c5ccccc5)c5ccc([nH]5)c(-c5ccccc5)c5nc(c(-c6ccccc6)c6ccc3[nH]6)C=C5)C=C4)cc1)C2)c1ccccc1
REMARK SMILES IDX 15 1 14 2 12 3 13 4 11 6 10 7 4 8 5 9 8 10 6 12 69 13 7 14
REMARK SMILES IDX 9 15 3 16 2 17 1 18 70 19 71 20 75 21 72 22 74 23 73 24
REMARK SMILES IDX 16 25 17 26 18 27 19 28 20 30 21 31 22 32 68 33 23 34 67 35
REMARK SMILES IDX 24 36 25 37 26 38 61 39 27 40 66 41 60 42 62 43 28 44 65 45
REMARK SMILES IDX 59 46 58 47 29 49 51 50 36 51 50 52 37 53 40 54 49 55 63 56
REMARK SMILES IDX 38 57 39 58 48 60 64 61 41 62 30 63 31 64 35 65 32 66 34 67
REMARK SMILES IDX 33 68 52 69 53 70 57 71 54 72 56 73 55 74 42 75 43 76 47 77
REMARK SMILES IDX 44 78 46 79 45 80
REMARK H PARENT 14 5 4 11 18 29 62 48 40 59
REMARK Flexibility Score: inf
ROOT
ATOM      1  C   UNL     1       0.503  -0.125   4.834  1.00  0.00     0.117 C 
ENDROOT
BRANCH   1   2
ATOM      2  N   UNL     1      -0.571   0.735   5.311  1.00  0.00    -0.356 N 
ATOM      3  C   UNL     1      -1.548   1.408   4.639  1.00  0.00     0.220 C 
ATOM      4  O   UNL     1      -2.254   2.187   5.284  1.00  0.00    -0.275 OA
ATOM      5  H   UNL     1      -0.597   0.850   6.289  1.00  0.00     0.163 HD
BRANCH   3   6
ATOM      6  C   UNL     1      -1.786   1.201   3.156  1.00  0.00     0.104 C 
BRANCH   6   7
ATOM      7  C   UNL     1      -1.194   2.313   2.253  1.00  0.00     0.010 C 
ATOM      8  N   UNL     1       0.059   1.659  -0.256  1.00  0.00    -0.330 N 
ATOM      9  C   UNL     1      -1.106   2.510  -0.351  1.00  0.00     0.184 C 
ATOM     10  C   UNL     1       0.928   2.265   0.720  1.00  0.00     0.184 C 
ATOM     11  H   UNL     1       0.593   1.422  -1.092  1.00  0.00     0.348 HD
ATOM     12  C   UNL     1      -0.449   3.898  -0.419  1.00  0.00     0.071 C 
ATOM     13  C   UNL     1      -1.964   2.376   0.911  1.00  0.00     0.069 C 
ATOM     14  C   UNL     1       0.881   3.745   0.316  1.00  0.00     0.071 C 
ATOM     15  C   UNL     1       0.325   2.109   2.111  1.00  0.00     0.069 C 
BRANCH   8  16
ATOM     16  C   UNL     1       0.109   0.299  -0.764  1.00  0.00     0.270 C 
BRANCH  16  17
ATOM     17  C   UNL     1       0.001  -1.053   0.043  1.00  0.00     0.071 C 
ATOM     18  C   UNL     1       1.167  -1.232   1.035  1.00  0.00     0.019 C 
BRANCH  17  19
ATOM     19  C   UNL     1      -1.354  -1.563   0.550  1.00  0.00    -0.040 A 
ATOM     20  C   UNL     1      -2.573  -0.975   0.199  1.00  0.00     0.004 A 
ATOM     21  C   UNL     1      -1.430  -2.763   1.291  1.00  0.00     0.004 A 
ATOM     22  C   UNL     1      -3.793  -1.458   0.695  1.00  0.00     0.000 A 
ATOM     23  C   UNL     1      -2.646  -3.272   1.762  1.00  0.00     0.000 A 
ATOM     24  C   UNL     1      -3.829  -2.599   1.489  1.00  0.00     0.000 A 
ENDBRANCH  17  19
ENDBRANCH  16  17
ENDBRANCH   8  16
ENDBRANCH   6   7
ENDBRANCH   3   6
ENDBRANCH   1   2
BRANCH   1  25
ATOM     25  C   UNL     1       1.816   0.650   4.707  1.00  0.00     0.042 C 
BRANCH  25  26
ATOM     26  C   UNL     1       2.507   0.923   6.034  1.00  0.00     0.118 C 
BRANCH  26  27
ATOM     27  N   UNL     1       3.637   0.035   6.252  1.00  0.00    -0.352 N 
ATOM     28  C   UNL     1       4.989   0.248   6.167  1.00  0.00     0.251 C 
ATOM     29  H   UNL     1       3.387  -0.883   6.505  1.00  0.00     0.163 HD
ATOM     30  O   UNL     1       5.738  -0.736   6.191  1.00  0.00    -0.269 OA
BRANCH  28  31
ATOM     31  C   UNL     1       5.588   1.601   6.029  1.00  0.00     0.039 A 
ATOM     32  C   UNL     1       6.799   1.728   5.334  1.00  0.00     0.014 A 
ATOM     33  C   UNL     1       5.040   2.736   6.630  1.00  0.00     0.014 A 
ATOM     34  C   UNL     1       7.423   2.975   5.211  1.00  0.00     0.010 A 
ATOM     35  C   UNL     1       5.603   3.996   6.413  1.00  0.00     0.010 A 
ATOM     36  C   UNL     1       6.816   4.131   5.725  1.00  0.00    -0.014 A 
BRANCH  36  37
ATOM     37  C   UNL     1       7.454   5.472   5.595  1.00  0.00     0.031 A 
ATOM     38  C   UNL     1       7.816   6.268   6.827  1.00  0.00     0.074 A 
ATOM     39  C   UNL     1       7.662   6.008   4.376  1.00  0.00     0.049 A 
ATOM     40  N   UNL     1       8.308   7.480   6.915  1.00  0.00    -0.248 NA
ATOM     41  C   UNL     1       7.560   5.634   8.131  1.00  0.00     0.031 C 
ATOM     42  C   UNL     1       7.317   5.378   3.099  1.00  0.00     0.029 A 
ATOM     43  N   UNL     1       8.210   7.214   4.010  1.00  0.00    -0.354 N 
ATOM     44  C   UNL     1       8.380   7.763   8.274  1.00  0.00     0.074 A 
ATOM     45  C   UNL     1       7.842   6.617   8.973  1.00  0.00     0.031 C 
ATOM     46  C   UNL     1       7.689   6.186   2.094  1.00  0.00     0.029 A 
ATOM     47  C   UNL     1       8.262   7.408   2.651  1.00  0.00     0.049 A 
ATOM     48  H   UNL     1       8.535   7.877   4.662  1.00  0.00     0.167 HD
ATOM     49  C   UNL     1       8.867   8.866   8.892  1.00  0.00     0.031 A 
ATOM     50  C   UNL     1       8.714   8.451   1.929  1.00  0.00     0.031 A 
ATOM     51  C   UNL     1       9.449   9.989   8.207  1.00  0.00     0.049 A 
ATOM     52  C   UNL     1       9.286   9.647   2.638  1.00  0.00     0.074 A 
ATOM     53  C   UNL     1      10.047  11.114   8.750  1.00  0.00     0.029 A 
ATOM     54  N   UNL     1       9.512  10.126   6.830  1.00  0.00    -0.354 N 
ATOM     55  N   UNL     1       9.410   9.864   3.924  1.00  0.00    -0.248 NA
ATOM     56  C   UNL     1       9.792  10.737   1.790  1.00  0.00     0.031 C 
ATOM     57  C   UNL     1      10.436  11.952   7.700  1.00  0.00     0.029 A 
ATOM     58  C   UNL     1      10.122  11.326   6.505  1.00  0.00     0.049 A 
ATOM     59  H   UNL     1       9.174   9.469   6.180  1.00  0.00     0.167 HD
ATOM     60  C   UNL     1      10.026  11.104   4.040  1.00  0.00     0.074 A 
ATOM     61  C   UNL     1      10.270  11.581   2.695  1.00  0.00     0.031 C 
ATOM     62  C   UNL     1      10.357  11.788   5.162  1.00  0.00     0.031 A 
BRANCH  49  63
ATOM     63  C   UNL     1       8.794   8.913  10.394  1.00  0.00    -0.014 A 
ATOM     64  C   UNL     1       9.611   8.096  11.191  1.00  0.00     0.009 A 
ATOM     65  C   UNL     1       7.923   9.819  11.021  1.00  0.00     0.009 A 
ATOM     66  C   UNL     1       9.531   8.159  12.584  1.00  0.00     0.001 A 
ATOM     67  C   UNL     1       7.867   9.900  12.413  1.00  0.00     0.001 A 
ATOM     68  C   UNL     1       8.663   9.063  13.194  1.00  0.00     0.000 A 
ENDBRANCH  49  63
BRANCH  50  69
ATOM     69  C   UNL     1       8.659   8.409   0.444  1.00  0.00    -0.014 A 
ATOM     70  C   UNL     1       9.836   8.271  -0.308  1.00  0.00     0.009 A 
ATOM     71  C   UNL     1       7.432   8.517  -0.229  1.00  0.00     0.009 A 
ATOM     72  C   UNL     1       9.788   8.269  -1.704  1.00  0.00     0.001 A 
ATOM     73  C   UNL     1       7.385   8.486  -1.624  1.00  0.00     0.001 A 
ATOM     74  C   UNL     1       8.563   8.372  -2.360  1.00  0.00     0.000 A 
ENDBRANCH  50  69
BRANCH  62  75
ATOM     75  C   UNL     1      11.041  13.112   4.981  1.00  0.00    -0.014 A 
ATOM     76  C   UNL     1      10.335  14.239   4.532  1.00  0.00     0.009 A 
ATOM     77  C   UNL     1      12.403  13.241   5.297  1.00  0.00     0.009 A 
ATOM     78  C   UNL     1      10.989  15.462   4.371  1.00  0.00     0.001 A 
ATOM     79  C   UNL     1      13.047  14.471   5.161  1.00  0.00     0.001 A 
ATOM     80  C   UNL     1      12.343  15.578   4.689  1.00  0.00     0.000 A 
ENDBRANCH  62  75
ENDBRANCH  36  37
ENDBRANCH  28  31
ENDBRANCH  26  27
ENDBRANCH  25  26
ENDBRANCH   1  25
TORSDOF 14
