REMARK SMILES CC(=O)NS(=O)(=O)c1ccc(-c2ccn(C(F)F)c(=O)c2)cc1C(=O)NCCCNC(=O)c1ccc(-c2c3nc(c(-c4ccccc4)c4ccc([nH]4)c(-c4ccccc4)c4nc(c(-c5ccccc5)c5ccc2[nH]5)C=C4)C=C3)cc1
REMARK SMILES IDX 28 1 27 2 26 3 24 4 25 5 23 7 8 8 9 9 10 10 22 11 11 12 5 13
REMARK SMILES IDX 6 14 7 15 4 16 1 17 2 18 3 19 12 21 13 22 21 23 14 24 19 25
REMARK SMILES IDX 15 26 20 27 16 28 17 29 18 30 29 31 30 32 31 33 32 35 33 36
REMARK SMILES IDX 34 37 80 38 35 39 79 40 36 41 37 42 38 43 73 44 39 45 78 46
REMARK SMILES IDX 72 47 74 48 40 49 77 50 71 51 70 52 41 54 63 55 48 56 62 57
REMARK SMILES IDX 49 58 52 59 61 60 75 61 50 62 51 63 60 65 76 66 53 67 42 68
REMARK SMILES IDX 43 69 47 70 44 71 46 72 45 73 64 74 65 75 69 76 66 77 68 78
REMARK SMILES IDX 67 79 54 80 55 81 59 82 56 83 58 84 57 85
REMARK H PARENT 26 6 4 20 30 34 74 53 52 64
REMARK Flexibility Score: inf
ROOT
ATOM      1  C   UNL     1       2.223   4.634   2.973  1.00  0.00     0.042 C 
ENDROOT
BRANCH   1   2
ATOM      2  C   UNL     1       3.375   3.651   3.227  1.00  0.00     0.118 C 
BRANCH   2   3
ATOM      3  N   UNL     1       2.917   2.636   4.161  1.00  0.00    -0.352 N 
ATOM      4  C   UNL     1       2.369   1.392   4.007  1.00  0.00     0.252 C 
ATOM      5  O   UNL     1       1.787   0.918   4.987  1.00  0.00    -0.269 OA
ATOM      6  H   UNL     1       3.025   2.899   5.104  1.00  0.00     0.163 HD
BRANCH   4   7
ATOM      7  C   UNL     1       2.610   0.480   2.853  1.00  0.00     0.060 A 
ATOM      8  C   UNL     1       2.333   0.653   1.491  1.00  0.00     0.100 A 
ATOM      9  C   UNL     1       2.638  -0.371   0.579  1.00  0.00     0.024 A 
ATOM     10  C   UNL     1       3.047  -1.626   1.025  1.00  0.00     0.010 A 
ATOM     11  C   UNL     1       3.062  -0.798   3.275  1.00  0.00     0.024 A 
ATOM     12  C   UNL     1       3.231  -1.871   2.387  1.00  0.00    -0.017 A 
BRANCH   8  13
ATOM     13  S   UNL     1       1.345   1.982   0.885  1.00  0.00     0.264 S 
ATOM     14  O   UNL     1       2.254   3.052   0.542  1.00  0.00    -0.201 OA
ATOM     15  O   UNL     1       0.216   2.151   1.763  1.00  0.00    -0.201 OA
BRANCH  13  16
ATOM     16  N   UNL     1       0.773   1.523  -0.614  1.00  0.00    -0.249 N 
ATOM     17  C   UNL     1      -0.594  -0.512  -0.264  1.00  0.00     0.115 C 
ATOM     18  C   UNL     1      -0.423   0.844  -0.881  1.00  0.00     0.230 C 
ATOM     19  O   UNL     1      -1.152   1.255  -1.773  1.00  0.00    -0.274 OA
ATOM     20  H   UNL     1       1.333   1.753  -1.390  1.00  0.00     0.183 HD
ENDBRANCH  13  16
ENDBRANCH   8  13
BRANCH  12  21
ATOM     21  C   UNL     1       3.516  -3.239   2.884  1.00  0.00    -0.011 A 
ATOM     22  C   UNL     1       2.842  -3.823   4.036  1.00  0.00     0.027 A 
ATOM     23  C   UNL     1       4.404  -3.998   2.218  1.00  0.00     0.080 A 
ATOM     24  C   UNL     1       3.102  -5.080   4.420  1.00  0.00     0.095 A 
ATOM     25  C   UNL     1       4.686  -5.404   2.616  1.00  0.00     0.255 A 
ATOM     26  N   UNL     1       4.008  -5.862   3.732  1.00  0.00    -0.258 N 
ATOM     27  O   UNL     1       5.476  -6.052   1.938  1.00  0.00    -0.269 OA
BRANCH  26  28
ATOM     28  C   UNL     1       4.276  -7.216   4.143  1.00  0.00     0.451 C 
ATOM     29  F   UNL     1       3.926  -8.096   3.173  1.00  0.00    -0.185 F 
ATOM     30  F   UNL     1       5.593  -7.391   4.412  1.00  0.00    -0.185 F 
ENDBRANCH  26  28
ENDBRANCH  12  21
ENDBRANCH   4   7
ENDBRANCH   2   3
ENDBRANCH   1   2
BRANCH   1  31
ATOM     31  C   UNL     1       2.324   5.934   3.758  1.00  0.00     0.118 C 
BRANCH  31  32
ATOM     32  N   UNL     1       3.044   6.950   3.001  1.00  0.00    -0.352 N 
ATOM     33  C   UNL     1       2.594   8.111   2.414  1.00  0.00     0.251 C 
ATOM     34  H   UNL     1       4.007   6.779   2.892  1.00  0.00     0.163 HD
ATOM     35  O   UNL     1       3.309   8.678   1.591  1.00  0.00    -0.269 OA
BRANCH  33  36
ATOM     36  C   UNL     1       1.269   8.692   2.749  1.00  0.00     0.039 A 
ATOM     37  C   UNL     1       0.569   9.397   1.761  1.00  0.00     0.014 A 
ATOM     38  C   UNL     1       0.737   8.618   4.037  1.00  0.00     0.014 A 
ATOM     39  C   UNL     1      -0.668   9.982   2.053  1.00  0.00     0.010 A 
ATOM     40  C   UNL     1      -0.538   9.114   4.302  1.00  0.00     0.010 A 
ATOM     41  C   UNL     1      -1.246   9.824   3.322  1.00  0.00    -0.014 A 
BRANCH  41  42
ATOM     42  C   UNL     1      -2.563  10.425   3.663  1.00  0.00     0.031 A 
ATOM     43  C   UNL     1      -2.665  11.451   4.761  1.00  0.00     0.074 A 
ATOM     44  C   UNL     1      -3.680   9.994   3.047  1.00  0.00     0.049 A 
ATOM     45  N   UNL     1      -3.731  12.025   5.263  1.00  0.00    -0.248 NA
ATOM     46  C   UNL     1      -1.407  11.858   5.407  1.00  0.00     0.031 C 
ATOM     47  C   UNL     1      -3.734   8.963   2.009  1.00  0.00     0.029 A 
ATOM     48  N   UNL     1      -4.991  10.364   3.218  1.00  0.00    -0.354 N 
ATOM     49  C   UNL     1      -3.275  12.821   6.306  1.00  0.00     0.074 A 
ATOM     50  C   UNL     1      -1.845  12.626   6.393  1.00  0.00     0.031 C 
ATOM     51  C   UNL     1      -5.009   8.799   1.621  1.00  0.00     0.029 A 
ATOM     52  C   UNL     1      -5.864   9.686   2.403  1.00  0.00     0.049 A 
ATOM     53  H   UNL     1      -5.279  11.049   3.864  1.00  0.00     0.167 HD
ATOM     54  C   UNL     1      -3.977  13.655   7.111  1.00  0.00     0.031 A 
ATOM     55  C   UNL     1      -7.204   9.765   2.297  1.00  0.00     0.031 A 
ATOM     56  C   UNL     1      -5.392  13.885   7.000  1.00  0.00     0.049 A 
ATOM     57  C   UNL     1      -7.958  10.734   3.161  1.00  0.00     0.074 A 
ATOM     58  C   UNL     1      -6.179  14.781   7.703  1.00  0.00     0.029 A 
ATOM     59  N   UNL     1      -6.232  13.212   6.127  1.00  0.00    -0.354 N 
ATOM     60  N   UNL     1      -7.502  11.540   4.088  1.00  0.00    -0.248 NA
ATOM     61  C   UNL     1      -9.411  10.812   2.954  1.00  0.00     0.031 C 
ATOM     62  C   UNL     1      -7.504  14.621   7.282  1.00  0.00     0.029 A 
ATOM     63  C   UNL     1      -7.534  13.657   6.288  1.00  0.00     0.049 A 
ATOM     64  H   UNL     1      -5.946  12.520   5.488  1.00  0.00     0.167 HD
ATOM     65  C   UNL     1      -8.606  12.233   4.565  1.00  0.00     0.074 A 
ATOM     66  C   UNL     1      -9.752  11.765   3.812  1.00  0.00     0.031 C 
ATOM     67  C   UNL     1      -8.665  13.174   5.539  1.00  0.00     0.031 A 
BRANCH  54  68
ATOM     68  C   UNL     1      -3.214  14.372   8.190  1.00  0.00    -0.014 A 
ATOM     69  C   UNL     1      -2.297  15.391   7.885  1.00  0.00     0.009 A 
ATOM     70  C   UNL     1      -3.419  14.025   9.535  1.00  0.00     0.009 A 
ATOM     71  C   UNL     1      -1.564  16.011   8.900  1.00  0.00     0.001 A 
ATOM     72  C   UNL     1      -2.707  14.667  10.549  1.00  0.00     0.001 A 
ATOM     73  C   UNL     1      -1.770  15.650  10.230  1.00  0.00     0.000 A 
ENDBRANCH  54  68
BRANCH  55  74
ATOM     74  C   UNL     1      -7.911   8.913   1.307  1.00  0.00    -0.014 A 
ATOM     75  C   UNL     1      -8.396   9.467   0.114  1.00  0.00     0.009 A 
ATOM     76  C   UNL     1      -8.072   7.538   1.534  1.00  0.00     0.009 A 
ATOM     77  C   UNL     1      -9.041   8.663  -0.829  1.00  0.00     0.001 A 
ATOM     78  C   UNL     1      -8.697   6.732   0.580  1.00  0.00     0.001 A 
ATOM     79  C   UNL     1      -9.185   7.295  -0.598  1.00  0.00     0.000 A 
ENDBRANCH  55  74
BRANCH  67  80
ATOM     80  C   UNL     1     -10.010  13.769   5.836  1.00  0.00    -0.014 A 
ATOM     81  C   UNL     1     -10.982  13.045   6.544  1.00  0.00     0.009 A 
ATOM     82  C   UNL     1     -10.294  15.085   5.439  1.00  0.00     0.009 A 
ATOM     83  C   UNL     1     -12.223  13.619   6.824  1.00  0.00     0.001 A 
ATOM     84  C   UNL     1     -11.527  15.664   5.742  1.00  0.00     0.001 A 
ATOM     85  C   UNL     1     -12.493  14.929   6.427  1.00  0.00     0.000 A 
ENDBRANCH  67  80
ENDBRANCH  41  42
ENDBRANCH  33  36
ENDBRANCH  31  32
ENDBRANCH   1  31
TORSDOF 14
