REMARK SMILES COc1cc([C@@H](O)[C@H](C)[C@H](C)C(=O)NCCCNC(=O)c2ccc(-c3c4nc(c(-c5ccccc5)c5ccc([nH]5)c(-c5ccccc5)c5nc(c(-c6ccccc6)c6ccc3[nH]6)C=C5)C=C4)cc2)cc(OC)c1OC
REMARK SMILES IDX 15 1 14 2 12 3 13 4 10 6 11 7 8 8 9 9 6 10 5 11 3 12 4 13
REMARK SMILES IDX 73 14 70 15 69 16 2 17 1 18 74 19 75 20 71 21 72 22 7 23
REMARK SMILES IDX 16 25 17 26 18 27 19 28 20 30 21 31 22 32 68 33 23 34 67 35
REMARK SMILES IDX 24 36 25 37 26 38 61 39 27 40 66 41 60 42 62 43 28 44 65 45
REMARK SMILES IDX 59 46 58 47 29 49 51 50 36 51 50 52 37 53 40 54 49 55 63 56
REMARK SMILES IDX 38 57 39 58 48 60 64 61 41 62 30 63 31 64 35 65 32 66 34 67
REMARK SMILES IDX 33 68 52 69 53 70 57 71 54 72 56 73 55 74 42 75 43 76 47 77
REMARK SMILES IDX 44 78 46 79 45 80
REMARK H PARENT 14 5 7 24 18 29 62 48 40 59
REMARK Flexibility Score: inf
ROOT
ATOM      1  C   UNL     1      -4.585  -3.606  -1.575  1.00  0.00     0.117 C 
ENDROOT
BRANCH   1   2
ATOM      2  N   UNL     1      -4.819  -4.399  -2.762  1.00  0.00    -0.356 N 
ATOM      3  C   UNL     1      -4.303  -5.599  -3.117  1.00  0.00     0.223 C 
ATOM      4  O   UNL     1      -4.803  -6.161  -4.098  1.00  0.00    -0.275 OA
ATOM      5  H   UNL     1      -5.450  -4.008  -3.409  1.00  0.00     0.163 HD
BRANCH   3   6
ATOM      6  C   UNL     1      -3.135  -6.251  -2.377  1.00  0.00     0.081 C 
ATOM      7  C   UNL     1      -1.857  -5.425  -2.536  1.00  0.00     0.018 C 
BRANCH   6   8
ATOM      8  C   UNL     1      -3.427  -6.857  -0.960  1.00  0.00     0.031 C 
ATOM      9  C   UNL     1      -2.951  -6.014   0.232  1.00  0.00     0.011 C 
BRANCH   8  10
ATOM     10  C   UNL     1      -4.906  -7.322  -0.834  1.00  0.00     0.148 C 
BRANCH  10  11
ATOM     11  C   UNL     1      -5.210  -8.366   0.220  1.00  0.00    -0.012 A 
ATOM     12  C   UNL     1      -5.612  -9.033   2.530  1.00  0.00     0.165 A 
ATOM     13  C   UNL     1      -5.199  -8.078   1.587  1.00  0.00     0.057 A 
ATOM     14  C   UNL     1      -6.114 -10.284   2.128  1.00  0.00     0.203 A 
ATOM     15  C   UNL     1      -6.123 -10.578   0.749  1.00  0.00     0.165 A 
ATOM     16  C   UNL     1      -5.653  -9.631  -0.177  1.00  0.00     0.057 A 
BRANCH  12  17
ATOM     17  O   UNL     1      -5.610  -8.649   3.849  1.00  0.00    -0.493 OA
ATOM     18  C   UNL     1      -4.278  -8.528   4.355  1.00  0.00     0.278 C 
ENDBRANCH  12  17
BRANCH  14  19
ATOM     19  O   UNL     1      -6.630 -11.240   2.958  1.00  0.00    -0.490 OA
ATOM     20  C   UNL     1      -6.425 -11.162   4.358  1.00  0.00     0.278 C 
ENDBRANCH  14  19
BRANCH  15  21
ATOM     21  O   UNL     1      -6.549 -11.717   0.112  1.00  0.00    -0.493 OA
ATOM     22  C   UNL     1      -7.229 -12.715   0.856  1.00  0.00     0.278 C 
ENDBRANCH  15  21
ENDBRANCH  10  11
BRANCH  10  23
ATOM     23  O   UNL     1      -5.767  -6.213  -0.582  1.00  0.00    -0.388 OA
ATOM     24  H   UNL     1      -5.561  -5.835   0.288  1.00  0.00     0.211 HD
ENDBRANCH  10  23
ENDBRANCH   8  10
ENDBRANCH   6   8
ENDBRANCH   3   6
ENDBRANCH   1   2
BRANCH   1  25
ATOM     25  C   UNL     1      -4.420  -2.132  -1.887  1.00  0.00     0.042 C 
BRANCH  25  26
ATOM     26  C   UNL     1      -5.670  -1.499  -2.473  1.00  0.00     0.118 C 
BRANCH  26  27
ATOM     27  N   UNL     1      -6.780  -1.444  -1.528  1.00  0.00    -0.352 N 
ATOM     28  C   UNL     1      -7.391  -0.355  -0.953  1.00  0.00     0.251 C 
ATOM     29  H   UNL     1      -7.148  -2.318  -1.263  1.00  0.00     0.163 HD
ATOM     30  O   UNL     1      -8.211  -0.502  -0.052  1.00  0.00    -0.269 OA
BRANCH  28  31
ATOM     31  C   UNL     1      -7.028   1.002  -1.406  1.00  0.00     0.039 A 
ATOM     32  C   UNL     1      -6.766   1.996  -0.460  1.00  0.00     0.014 A 
ATOM     33  C   UNL     1      -6.909   1.278  -2.768  1.00  0.00     0.014 A 
ATOM     34  C   UNL     1      -6.297   3.242  -0.881  1.00  0.00     0.010 A 
ATOM     35  C   UNL     1      -6.337   2.473  -3.177  1.00  0.00     0.010 A 
ATOM     36  C   UNL     1      -6.035   3.473  -2.240  1.00  0.00    -0.014 A 
BRANCH  36  37
ATOM     37  C   UNL     1      -5.486   4.758  -2.739  1.00  0.00     0.031 A 
ATOM     38  C   UNL     1      -6.278   5.552  -3.742  1.00  0.00     0.074 A 
ATOM     39  C   UNL     1      -4.247   5.153  -2.389  1.00  0.00     0.049 A 
ATOM     40  N   UNL     1      -5.912   6.583  -4.459  1.00  0.00    -0.248 NA
ATOM     41  C   UNL     1      -7.652   5.091  -4.009  1.00  0.00     0.031 C 
ATOM     42  C   UNL     1      -3.360   4.458  -1.452  1.00  0.00     0.029 A 
ATOM     43  N   UNL     1      -3.509   6.234  -2.802  1.00  0.00    -0.354 N 
ATOM     44  C   UNL     1      -6.988   6.858  -5.293  1.00  0.00     0.074 A 
ATOM     45  C   UNL     1      -8.002   5.862  -5.026  1.00  0.00     0.031 C 
ATOM     46  C   UNL     1      -2.209   5.143  -1.347  1.00  0.00     0.029 A 
ATOM     47  C   UNL     1      -2.256   6.293  -2.243  1.00  0.00     0.049 A 
ATOM     48  H   UNL     1      -3.846   6.905  -3.439  1.00  0.00     0.167 HD
ATOM     49  C   UNL     1      -7.130   7.861  -6.190  1.00  0.00     0.031 A 
ATOM     50  C   UNL     1      -1.252   7.169  -2.442  1.00  0.00     0.031 A 
ATOM     51  C   UNL     1      -6.143   8.880  -6.417  1.00  0.00     0.049 A 
ATOM     52  C   UNL     1      -1.443   8.294  -3.421  1.00  0.00     0.074 A 
ATOM     53  C   UNL     1      -6.214   9.978  -7.254  1.00  0.00     0.029 A 
ATOM     54  N   UNL     1      -4.909   8.931  -5.787  1.00  0.00    -0.354 N 
ATOM     55  N   UNL     1      -2.481   8.565  -4.175  1.00  0.00    -0.248 NA
ATOM     56  C   UNL     1      -0.327   9.240  -3.570  1.00  0.00     0.031 C 
ATOM     57  C   UNL     1      -5.009  10.680  -7.153  1.00  0.00     0.029 A 
ATOM     58  C   UNL     1      -4.208  10.041  -6.220  1.00  0.00     0.049 A 
ATOM     59  H   UNL     1      -4.582   8.275  -5.130  1.00  0.00     0.167 HD
ATOM     60  C   UNL     1      -2.159   9.729  -4.859  1.00  0.00     0.074 A 
ATOM     61  C   UNL     1      -0.831  10.116  -4.429  1.00  0.00     0.031 C 
ATOM     62  C   UNL     1      -2.898  10.419  -5.760  1.00  0.00     0.031 A 
BRANCH  49  63
ATOM     63  C   UNL     1      -8.402   7.900  -6.988  1.00  0.00    -0.014 A 
ATOM     64  C   UNL     1      -9.629   8.228  -6.388  1.00  0.00     0.009 A 
ATOM     65  C   UNL     1      -8.371   7.620  -8.363  1.00  0.00     0.009 A 
ATOM     66  C   UNL     1     -10.805   8.232  -7.140  1.00  0.00     0.001 A 
ATOM     67  C   UNL     1      -9.544   7.656  -9.118  1.00  0.00     0.001 A 
ATOM     68  C   UNL     1     -10.761   7.950  -8.504  1.00  0.00     0.000 A 
ENDBRANCH  49  63
BRANCH  50  69
ATOM     69  C   UNL     1       0.018   7.032  -1.683  1.00  0.00    -0.014 A 
ATOM     70  C   UNL     1       0.328   7.937  -0.656  1.00  0.00     0.009 A 
ATOM     71  C   UNL     1       0.927   6.005  -1.980  1.00  0.00     0.009 A 
ATOM     72  C   UNL     1       1.534   7.831   0.041  1.00  0.00     0.001 A 
ATOM     73  C   UNL     1       2.120   5.887  -1.264  1.00  0.00     0.001 A 
ATOM     74  C   UNL     1       2.427   6.805  -0.260  1.00  0.00     0.000 A 
ENDBRANCH  50  69
BRANCH  62  75
ATOM     75  C   UNL     1      -2.321  11.696  -6.296  1.00  0.00    -0.014 A 
ATOM     76  C   UNL     1      -1.308  11.688  -7.266  1.00  0.00     0.009 A 
ATOM     77  C   UNL     1      -2.857  12.923  -5.874  1.00  0.00     0.009 A 
ATOM     78  C   UNL     1      -0.829  12.890  -7.789  1.00  0.00     0.001 A 
ATOM     79  C   UNL     1      -2.391  14.121  -6.416  1.00  0.00     0.001 A 
ATOM     80  C   UNL     1      -1.375  14.104  -7.369  1.00  0.00     0.000 A 
ENDBRANCH  62  75
ENDBRANCH  36  37
ENDBRANCH  28  31
ENDBRANCH  26  27
ENDBRANCH  25  26
ENDBRANCH   1  25
TORSDOF 17
