REMARK SMILES CCN(C(=O)c1ccccc1C(=O)NCCCNC(=O)c1ccc(-c2c3nc(c(-c4ccccc4)c4ccc([nH]4)c(-c4ccccc4)c4nc(c(-c5ccccc5)c5ccc2[nH]5)C=C4)C=C3)cc1)[C@H](CCO)c1ccccc1
REMARK SMILES IDX 12 1 13 2 14 3 11 5 6 6 7 7 8 8 10 9 9 10 4 11 5 12 3 13
REMARK SMILES IDX 2 14 1 15 69 16 73 17 74 18 78 19 75 20 77 21 76 22 70 23
REMARK SMILES IDX 71 24 72 25 15 27 16 28 17 29 18 30 19 31 20 33 21 34 22 35
REMARK SMILES IDX 68 36 23 37 67 38 24 39 25 40 26 41 61 42 27 43 66 44 60 45
REMARK SMILES IDX 62 46 28 47 65 48 59 49 58 50 29 52 51 53 36 54 50 55 37 56
REMARK SMILES IDX 40 57 49 58 63 59 38 60 39 61 48 63 64 64 41 65 30 66 31 67
REMARK SMILES IDX 35 68 32 69 34 70 33 71 52 72 53 73 57 74 54 75 56 76 55 77
REMARK SMILES IDX 42 78 43 79 47 80 44 81 46 82 45 83
REMARK H PARENT 14 4 72 26 18 32 62 51 40 62
REMARK Flexibility Score: inf
ROOT
ATOM      1  C   UNL     1       2.529  -2.377  -4.088  1.00  0.00     0.252 C 
ATOM      2  O   UNL     1       1.952  -3.109  -4.896  1.00  0.00    -0.269 OA
ATOM      3  N   UNL     1       1.741  -1.583  -3.288  1.00  0.00    -0.352 N 
ATOM      4  H   UNL     1       0.783  -1.561  -3.515  1.00  0.00     0.163 HD
ENDROOT
BRANCH   1   5
ATOM      5  C   UNL     1       4.022  -2.341  -4.130  1.00  0.00     0.052 A 
ATOM      6  C   UNL     1       4.941  -2.436  -3.073  1.00  0.00     0.052 A 
ATOM      7  C   UNL     1       6.331  -2.442  -3.343  1.00  0.00     0.014 A 
ATOM      8  C   UNL     1       6.818  -2.396  -4.644  1.00  0.00     0.001 A 
ATOM      9  C   UNL     1       4.545  -2.305  -5.444  1.00  0.00     0.014 A 
ATOM     10  C   UNL     1       5.921  -2.333  -5.699  1.00  0.00     0.001 A 
BRANCH   6  11
ATOM     11  C   UNL     1       4.644  -2.503  -1.627  1.00  0.00     0.255 C 
ATOM     12  O   UNL     1       5.168  -1.594  -0.989  1.00  0.00    -0.269 OA
BRANCH  11  13
ATOM     13  N   UNL     1       3.888  -3.550  -1.084  1.00  0.00    -0.332 N 
BRANCH  13  14
ATOM     14  C   UNL     1       3.714  -4.783  -1.896  1.00  0.00     0.117 C 
ATOM     15  C   UNL     1       4.002  -6.106  -1.199  1.00  0.00     0.027 C 
ENDBRANCH  13  14
BRANCH  13  16
ATOM     16  C   UNL     1       3.488  -3.586   0.372  1.00  0.00     0.118 C 
BRANCH  16  17
ATOM     17  C   UNL     1       3.753  -2.390   1.335  1.00  0.00    -0.025 A 
ATOM     18  C   UNL     1       4.217  -2.670   2.636  1.00  0.00     0.006 A 
ATOM     19  C   UNL     1       3.530  -1.034   1.057  1.00  0.00     0.006 A 
ATOM     20  C   UNL     1       4.492  -1.652   3.563  1.00  0.00     0.000 A 
ATOM     21  C   UNL     1       3.813  -0.008   1.968  1.00  0.00     0.000 A 
ATOM     22  C   UNL     1       4.302  -0.317   3.225  1.00  0.00     0.000 A 
ENDBRANCH  16  17
BRANCH  16  23
ATOM     23  C   UNL     1       2.086  -4.217   0.687  1.00  0.00     0.058 C 
BRANCH  23  24
ATOM     24  C   UNL     1       0.998  -4.213  -0.388  1.00  0.00     0.158 C 
BRANCH  24  25
ATOM     25  O   UNL     1       0.800  -5.519  -0.919  1.00  0.00    -0.396 OA
ATOM     26  H   UNL     1       1.623  -5.831  -1.326  1.00  0.00     0.210 HD
ENDBRANCH  24  25
ENDBRANCH  23  24
ENDBRANCH  16  23
ENDBRANCH  13  16
ENDBRANCH  11  13
ENDBRANCH   6  11
ENDBRANCH   1   5
BRANCH   3  27
ATOM     27  C   UNL     1       2.136  -0.785  -2.164  1.00  0.00     0.118 C 
BRANCH  27  28
ATOM     28  C   UNL     1       1.168   0.295  -1.694  1.00  0.00     0.042 C 
BRANCH  28  29
ATOM     29  C   UNL     1       0.061  -0.062  -0.688  1.00  0.00     0.118 C 
BRANCH  29  30
ATOM     30  N   UNL     1       0.360  -1.051   0.338  1.00  0.00    -0.352 N 
ATOM     31  C   UNL     1      -0.030  -1.204   1.650  1.00  0.00     0.251 C 
ATOM     32  H   UNL     1       0.971  -1.759   0.029  1.00  0.00     0.163 HD
ATOM     33  O   UNL     1       0.023  -2.311   2.185  1.00  0.00    -0.269 OA
BRANCH  31  34
ATOM     34  C   UNL     1      -0.420  -0.065   2.485  1.00  0.00     0.039 A 
ATOM     35  C   UNL     1       0.093   0.002   3.791  1.00  0.00     0.014 A 
ATOM     36  C   UNL     1      -1.245   0.938   2.002  1.00  0.00     0.014 A 
ATOM     37  C   UNL     1      -0.126   1.136   4.566  1.00  0.00     0.010 A 
ATOM     38  C   UNL     1      -1.361   2.113   2.719  1.00  0.00     0.010 A 
ATOM     39  C   UNL     1      -0.793   2.225   3.999  1.00  0.00    -0.014 A 
BRANCH  39  40
ATOM     40  C   UNL     1      -0.937   3.521   4.691  1.00  0.00     0.031 A 
ATOM     41  C   UNL     1      -2.321   4.051   4.921  1.00  0.00     0.074 A 
ATOM     42  C   UNL     1       0.158   4.266   4.925  1.00  0.00     0.049 A 
ATOM     43  N   UNL     1      -2.706   5.269   5.186  1.00  0.00    -0.248 NA
ATOM     44  C   UNL     1      -3.424   3.088   4.748  1.00  0.00     0.031 C 
ATOM     45  C   UNL     1       1.544   3.847   4.690  1.00  0.00     0.029 A 
ATOM     46  N   UNL     1       0.275   5.553   5.379  1.00  0.00    -0.354 N 
ATOM     47  C   UNL     1      -4.094   5.234   5.138  1.00  0.00     0.074 A 
ATOM     48  C   UNL     1      -4.480   3.886   4.784  1.00  0.00     0.031 C 
ATOM     49  C   UNL     1       2.371   4.853   5.017  1.00  0.00     0.029 A 
ATOM     50  C   UNL     1       1.574   6.000   5.428  1.00  0.00     0.049 A 
ATOM     51  H   UNL     1      -0.496   6.103   5.645  1.00  0.00     0.167 HD
ATOM     52  C   UNL     1      -4.963   6.242   5.378  1.00  0.00     0.031 A 
ATOM     53  C   UNL     1       2.054   7.215   5.749  1.00  0.00     0.031 A 
ATOM     54  C   UNL     1      -4.545   7.554   5.785  1.00  0.00     0.049 A 
ATOM     55  C   UNL     1       1.068   8.293   6.100  1.00  0.00     0.074 A 
ATOM     56  C   UNL     1      -5.320   8.644   6.132  1.00  0.00     0.029 A 
ATOM     57  N   UNL     1      -3.218   7.938   5.927  1.00  0.00    -0.354 N 
ATOM     58  N   UNL     1      -0.244   8.247   6.079  1.00  0.00    -0.248 NA
ATOM     59  C   UNL     1       1.623   9.582   6.527  1.00  0.00     0.031 C 
ATOM     60  C   UNL     1      -4.459   9.694   6.471  1.00  0.00     0.029 A 
ATOM     61  C   UNL     1      -3.150   9.245   6.367  1.00  0.00     0.049 A 
ATOM     62  H   UNL     1      -2.440   7.363   5.741  1.00  0.00     0.167 HD
ATOM     63  C   UNL     1      -0.673   9.492   6.514  1.00  0.00     0.074 A 
ATOM     64  C   UNL     1       0.521  10.264   6.806  1.00  0.00     0.031 C 
ATOM     65  C   UNL     1      -1.936   9.963   6.658  1.00  0.00     0.031 A 
BRANCH  52  66
ATOM     66  C   UNL     1      -6.426   5.947   5.202  1.00  0.00    -0.014 A 
ATOM     67  C   UNL     1      -7.105   5.077   6.071  1.00  0.00     0.009 A 
ATOM     68  C   UNL     1      -7.135   6.532   4.141  1.00  0.00     0.009 A 
ATOM     69  C   UNL     1      -8.446   4.756   5.850  1.00  0.00     0.001 A 
ATOM     70  C   UNL     1      -8.485   6.234   3.941  1.00  0.00     0.001 A 
ATOM     71  C   UNL     1      -9.136   5.336   4.787  1.00  0.00     0.000 A 
ENDBRANCH  52  66
BRANCH  53  72
ATOM     72  C   UNL     1       3.519   7.460   5.785  1.00  0.00    -0.014 A 
ATOM     73  C   UNL     1       4.178   7.605   7.016  1.00  0.00     0.009 A 
ATOM     74  C   UNL     1       4.272   7.533   4.603  1.00  0.00     0.009 A 
ATOM     75  C   UNL     1       5.553   7.847   7.062  1.00  0.00     0.001 A 
ATOM     76  C   UNL     1       5.652   7.750   4.653  1.00  0.00     0.001 A 
ATOM     77  C   UNL     1       6.290   7.915   5.882  1.00  0.00     0.000 A 
ENDBRANCH  53  72
BRANCH  65  78
ATOM     78  C   UNL     1      -2.076  11.355   7.193  1.00  0.00    -0.014 A 
ATOM     79  C   UNL     1      -1.829  12.471   6.381  1.00  0.00     0.009 A 
ATOM     80  C   UNL     1      -2.512  11.545   8.513  1.00  0.00     0.009 A 
ATOM     81  C   UNL     1      -1.993  13.758   6.892  1.00  0.00     0.001 A 
ATOM     82  C   UNL     1      -2.699  12.833   9.013  1.00  0.00     0.001 A 
ATOM     83  C   UNL     1      -2.432  13.937   8.204  1.00  0.00     0.000 A 
ENDBRANCH  65  78
ENDBRANCH  39  40
ENDBRANCH  31  34
ENDBRANCH  29  30
ENDBRANCH  28  29
ENDBRANCH  27  28
ENDBRANCH   3  27
TORSDOF 18
