REMARK SMILES [NH3+][C@H]1C=C[C@@H](C(=O)NC2(CC(=O)NCCCNC(=O)c3ccc(-c4c5nc(c(-c6ccccc6)c6ccc([nH]6)c(-c6ccccc6)c6nc(c(-c7ccccc7)c7ccc4[nH]7)C=C6)C=C5)cc3)CCCCC2)C1
REMARK SMILES IDX 14 1 13 2 11 3 12 4 10 6 9 7 68 8 72 9 69 10 71 11 70 12
REMARK SMILES IDX 8 13 6 14 7 15 5 17 2 18 3 19 73 20 4 21 1 22 15 26 16 27
REMARK SMILES IDX 17 28 18 29 19 31 20 32 21 33 67 34 22 35 66 36 23 37 24 38
REMARK SMILES IDX 25 39 60 40 26 41 65 42 59 43 61 44 27 45 64 46 58 47 57 48
REMARK SMILES IDX 28 50 50 51 35 52 49 53 36 54 39 55 48 56 62 57 37 58 38 59
REMARK SMILES IDX 47 61 63 62 40 63 29 64 30 65 34 66 31 67 33 68 32 69 51 70
REMARK SMILES IDX 52 71 56 72 53 73 55 74 54 75 41 76 42 77 46 78 43 79 45 80
REMARK SMILES IDX 44 81
REMARK H PARENT 13 5 8 16 1 23 1 24 1 25 17 30 61 49 39 60
REMARK Flexibility Score: inf
ROOT
ATOM      1  C   UNL     1       2.903  -2.828   0.777  1.00  0.00     0.117 C 
ENDROOT
BRANCH   1   2
ATOM      2  N   UNL     1       3.837  -3.415  -0.169  1.00  0.00    -0.356 N 
ATOM      3  C   UNL     1       4.600  -2.834  -1.136  1.00  0.00     0.222 C 
ATOM      4  O   UNL     1       5.115  -3.575  -1.978  1.00  0.00    -0.275 OA
ATOM      5  H   UNL     1       3.935  -4.392  -0.100  1.00  0.00     0.163 HD
BRANCH   3   6
ATOM      6  C   UNL     1       4.876  -1.337  -1.174  1.00  0.00     0.128 C 
BRANCH   6   7
ATOM      7  C   UNL     1       3.906  -0.430  -2.010  1.00  0.00     0.049 C 
ATOM      8  C   UNL     1       4.718   0.740  -2.642  1.00  0.00     0.029 C 
ATOM      9  C   UNL     1       2.855   0.193  -1.083  1.00  0.00     0.029 C 
ATOM     10  C   UNL     1       5.258   1.749  -1.623  1.00  0.00     0.002 C 
ATOM     11  C   UNL     1       3.387   1.180  -0.046  1.00  0.00     0.002 C 
ATOM     12  C   UNL     1       4.155   2.302  -0.729  1.00  0.00     0.000 C 
BRANCH   7  13
ATOM     13  N   UNL     1       3.345  -1.231  -3.137  1.00  0.00    -0.350 N 
ATOM     14  C   UNL     1       2.348  -1.160  -4.052  1.00  0.00     0.227 C 
ATOM     15  O   UNL     1       2.519  -1.874  -5.053  1.00  0.00    -0.274 OA
ATOM     16  H   UNL     1       3.854  -2.067  -3.249  1.00  0.00     0.164 HD
BRANCH  14  17
ATOM     17  C   UNL     1       1.016  -0.401  -3.943  1.00  0.00     0.107 C 
ATOM     18  C   UNL     1      -0.676   0.337  -2.325  1.00  0.00     0.205 C 
ATOM     19  C   UNL     1       0.082   1.482  -2.912  1.00  0.00     0.033 C 
ATOM     20  C   UNL     1       0.110  -0.889  -2.809  1.00  0.00     0.087 C 
ATOM     21  C   UNL     1       1.018   1.084  -3.785  1.00  0.00    -0.012 C 
BRANCH  18  22
ATOM     22  N   UNL     1      -0.745   0.423  -0.875  1.00  0.00    -0.352 N 
ATOM     23  H   UNL     1      -1.276   1.252  -0.608  1.00  0.00     0.345 HD
ATOM     24  H   UNL     1       0.199   0.486  -0.493  1.00  0.00     0.345 HD
ATOM     25  H   UNL     1      -1.205  -0.409  -0.506  1.00  0.00     0.345 HD
ENDBRANCH  18  22
ENDBRANCH  14  17
ENDBRANCH   7  13
ENDBRANCH   6   7
ENDBRANCH   3   6
ENDBRANCH   1   2
BRANCH   1  26
ATOM     26  C   UNL     1       1.496  -2.804   0.177  1.00  0.00     0.042 C 
BRANCH  26  27
ATOM     27  C   UNL     1       0.607  -3.988   0.532  1.00  0.00     0.118 C 
BRANCH  27  28
ATOM     28  N   UNL     1      -0.095  -3.774   1.789  1.00  0.00    -0.352 N 
ATOM     29  C   UNL     1      -1.391  -3.438   2.090  1.00  0.00     0.251 C 
ATOM     30  H   UNL     1       0.474  -3.893   2.583  1.00  0.00     0.163 HD
ATOM     31  O   UNL     1      -1.627  -3.101   3.258  1.00  0.00    -0.269 OA
BRANCH  29  32
ATOM     32  C   UNL     1      -2.514  -3.444   1.111  1.00  0.00     0.039 A 
ATOM     33  C   UNL     1      -3.622  -2.624   1.381  1.00  0.00     0.014 A 
ATOM     34  C   UNL     1      -2.580  -4.295   0.007  1.00  0.00     0.014 A 
ATOM     35  C   UNL     1      -4.754  -2.642   0.555  1.00  0.00     0.010 A 
ATOM     36  C   UNL     1      -3.670  -4.245  -0.873  1.00  0.00     0.010 A 
ATOM     37  C   UNL     1      -4.784  -3.438  -0.599  1.00  0.00    -0.014 A 
BRANCH  37  38
ATOM     38  C   UNL     1      -5.975  -3.466  -1.496  1.00  0.00     0.031 A 
ATOM     39  C   UNL     1      -6.741  -4.748  -1.719  1.00  0.00     0.074 A 
ATOM     40  C   UNL     1      -6.355  -2.353  -2.155  1.00  0.00     0.049 A 
ATOM     41  N   UNL     1      -7.754  -4.982  -2.519  1.00  0.00    -0.248 NA
ATOM     42  C   UNL     1      -6.296  -5.929  -0.962  1.00  0.00     0.031 C 
ATOM     43  C   UNL     1      -5.701  -1.047  -2.063  1.00  0.00     0.029 A 
ATOM     44  N   UNL     1      -7.384  -2.146  -3.044  1.00  0.00    -0.354 N 
ATOM     45  C   UNL     1      -8.044  -6.335  -2.383  1.00  0.00     0.074 A 
ATOM     46  C   UNL     1      -7.075  -6.880  -1.457  1.00  0.00     0.031 C 
ATOM     47  C   UNL     1      -6.355  -0.172  -2.844  1.00  0.00     0.029 A 
ATOM     48  C   UNL     1      -7.447  -0.861  -3.525  1.00  0.00     0.049 A 
ATOM     49  H   UNL     1      -8.016  -2.853  -3.310  1.00  0.00     0.167 HD
ATOM     50  C   UNL     1      -9.035  -7.061  -2.958  1.00  0.00     0.031 A 
ATOM     51  C   UNL     1      -8.278  -0.297  -4.423  1.00  0.00     0.031 A 
ATOM     52  C   UNL     1     -10.019  -6.527  -3.862  1.00  0.00     0.049 A 
ATOM     53  C   UNL     1      -9.365  -1.121  -5.054  1.00  0.00     0.074 A 
ATOM     54  C   UNL     1     -11.094  -7.174  -4.447  1.00  0.00     0.029 A 
ATOM     55  N   UNL     1     -10.049  -5.217  -4.312  1.00  0.00    -0.354 N 
ATOM     56  N   UNL     1      -9.656  -2.385  -4.869  1.00  0.00    -0.248 NA
ATOM     57  C   UNL     1     -10.245  -0.434  -6.011  1.00  0.00     0.031 C 
ATOM     58  C   UNL     1     -11.747  -6.268  -5.290  1.00  0.00     0.029 A 
ATOM     59  C   UNL     1     -11.110  -5.042  -5.186  1.00  0.00     0.049 A 
ATOM     60  H   UNL     1      -9.411  -4.514  -4.051  1.00  0.00     0.167 HD
ATOM     61  C   UNL     1     -10.765  -2.639  -5.667  1.00  0.00     0.074 A 
ATOM     62  C   UNL     1     -11.105  -1.394  -6.324  1.00  0.00     0.031 C 
ATOM     63  C   UNL     1     -11.440  -3.802  -5.838  1.00  0.00     0.031 A 
BRANCH  50  64
ATOM     64  C   UNL     1      -9.096  -8.529  -2.630  1.00  0.00    -0.014 A 
ATOM     65  C   UNL     1      -9.477  -8.978  -1.355  1.00  0.00     0.009 A 
ATOM     66  C   UNL     1      -8.800  -9.479  -3.621  1.00  0.00     0.009 A 
ATOM     67  C   UNL     1      -9.515 -10.344  -1.067  1.00  0.00     0.001 A 
ATOM     68  C   UNL     1      -8.869 -10.845  -3.339  1.00  0.00     0.001 A 
ATOM     69  C   UNL     1      -9.215 -11.276  -2.060  1.00  0.00     0.000 A 
ENDBRANCH  50  64
BRANCH  51  70
ATOM     70  C   UNL     1      -8.116   1.138  -4.780  1.00  0.00    -0.014 A 
ATOM     71  C   UNL     1      -9.054   2.089  -4.351  1.00  0.00     0.009 A 
ATOM     72  C   UNL     1      -7.022   1.561  -5.550  1.00  0.00     0.009 A 
ATOM     73  C   UNL     1      -8.910   3.433  -4.706  1.00  0.00     0.001 A 
ATOM     74  C   UNL     1      -6.866   2.909  -5.878  1.00  0.00     0.001 A 
ATOM     75  C   UNL     1      -7.814   3.842  -5.463  1.00  0.00     0.000 A 
ENDBRANCH  51  70
BRANCH  63  76
ATOM     76  C   UNL     1     -12.635  -3.777  -6.749  1.00  0.00    -0.014 A 
ATOM     77  C   UNL     1     -12.489  -3.684  -8.142  1.00  0.00     0.009 A 
ATOM     78  C   UNL     1     -13.925  -3.887  -6.206  1.00  0.00     0.009 A 
ATOM     79  C   UNL     1     -13.614  -3.670  -8.970  1.00  0.00     0.001 A 
ATOM     80  C   UNL     1     -15.046  -3.899  -7.038  1.00  0.00     0.001 A 
ATOM     81  C   UNL     1     -14.890  -3.782  -8.418  1.00  0.00     0.000 A 
ENDBRANCH  63  76
ENDBRANCH  37  38
ENDBRANCH  29  32
ENDBRANCH  27  28
ENDBRANCH  26  27
ENDBRANCH   1  26
TORSDOF 14
