REMARK SMILES C[C@@H](C(=O)NCCCNC(=O)c1ccc(-c2c3nc(c(-c4ccccc4)c4ccc([nH]4)c(-c4ccccc4)c4nc(c(-c5ccccc5)c5ccc2[nH]5)C=C4)C=C3)cc1)c1cc(/C=C/S(C)(=O)=O)cc(C(=O)c2ccccc2)c1
REMARK SMILES IDX 6 1 5 2 3 3 4 4 2 6 1 7 60 8 61 9 79 10 62 11 70 12 69 13
REMARK SMILES IDX 63 14 64 15 65 16 66 17 67 18 68 19 71 20 72 21 73 22 74 23
REMARK SMILES IDX 78 24 75 25 77 26 76 27 7 28 8 29 9 30 10 31 11 33 12 34
REMARK SMILES IDX 13 35 59 36 14 37 58 38 15 39 16 40 17 41 52 42 18 43 57 44
REMARK SMILES IDX 51 45 53 46 19 47 56 48 50 49 49 50 20 52 42 53 27 54 41 55
REMARK SMILES IDX 28 56 31 57 40 58 54 59 29 60 30 61 39 63 55 64 32 65 21 66
REMARK SMILES IDX 22 67 26 68 23 69 25 70 24 71 43 72 44 73 48 74 45 75 47 76
REMARK SMILES IDX 46 77 33 78 34 79 38 80 35 81 37 82 36 83
REMARK H PARENT 5 5 9 32 53 51 31 62
REMARK Flexibility Score: inf
ROOT
ATOM      1  C   UNL     1       3.524   0.353  -2.080  1.00  0.00     0.117 C 
ENDROOT
BRANCH   1   2
ATOM      2  N   UNL     1       2.478  -0.360  -2.785  1.00  0.00    -0.356 N 
ATOM      3  C   UNL     1       1.136  -0.416  -2.558  1.00  0.00     0.227 C 
ATOM      4  O   UNL     1       0.486  -1.137  -3.317  1.00  0.00    -0.274 OA
ATOM      5  H   UNL     1       2.788  -0.891  -3.554  1.00  0.00     0.163 HD
BRANCH   3   6
ATOM      6  C   UNL     1       0.509   0.421  -1.430  1.00  0.00     0.105 C 
ATOM      7  C   UNL     1       0.938  -0.042  -0.033  1.00  0.00     0.023 C 
BRANCH   6   8
ATOM      8  C   UNL     1      -1.017   0.431  -1.436  1.00  0.00    -0.035 A 
ATOM      9  C   UNL     1      -1.711   1.639  -1.274  1.00  0.00     0.012 A 
ATOM     10  C   UNL     1      -1.743  -0.765  -1.446  1.00  0.00     0.016 A 
ATOM     11  C   UNL     1      -3.103   1.666  -1.090  1.00  0.00    -0.024 A 
ATOM     12  C   UNL     1      -3.125  -0.773  -1.248  1.00  0.00     0.023 A 
ATOM     13  C   UNL     1      -3.801   0.445  -1.084  1.00  0.00     0.020 A 
BRANCH  11  14
ATOM     14  C   UNL     1      -3.845   2.920  -0.844  1.00  0.00     0.020 C 
ATOM     15  C   UNL     1      -3.285   4.135  -0.726  1.00  0.00     0.106 C 
BRANCH  15  16
ATOM     16  S   UNL     1      -4.255   5.526  -0.355  1.00  0.00     0.168 S 
ATOM     17  C   UNL     1      -3.427   6.142   1.093  1.00  0.00     0.163 C 
ATOM     18  O   UNL     1      -4.056   6.508  -1.406  1.00  0.00    -0.225 OA
ATOM     19  O   UNL     1      -5.587   5.129   0.050  1.00  0.00    -0.225 OA
ENDBRANCH  15  16
ENDBRANCH  11  14
BRANCH  12  20
ATOM     20  C   UNL     1      -3.886  -2.058  -1.201  1.00  0.00     0.193 C 
ATOM     21  O   UNL     1      -5.110  -2.057  -1.285  1.00  0.00    -0.289 OA
BRANCH  20  22
ATOM     22  C   UNL     1      -3.177  -3.358  -1.081  1.00  0.00     0.022 A 
ATOM     23  C   UNL     1      -3.431  -4.348  -2.033  1.00  0.00     0.012 A 
ATOM     24  C   UNL     1      -2.246  -3.586  -0.058  1.00  0.00     0.012 A 
ATOM     25  C   UNL     1      -2.715  -5.546  -1.994  1.00  0.00     0.001 A 
ATOM     26  C   UNL     1      -1.528  -4.783  -0.029  1.00  0.00     0.001 A 
ATOM     27  C   UNL     1      -1.757  -5.758  -1.000  1.00  0.00     0.000 A 
ENDBRANCH  20  22
ENDBRANCH  12  20
ENDBRANCH   6   8
ENDBRANCH   3   6
ENDBRANCH   1   2
BRANCH   1  28
ATOM     28  C   UNL     1       4.363  -0.588  -1.217  1.00  0.00     0.042 C 
BRANCH  28  29
ATOM     29  C   UNL     1       5.092  -1.677  -1.999  1.00  0.00     0.118 C 
BRANCH  29  30
ATOM     30  N   UNL     1       6.012  -1.134  -2.984  1.00  0.00    -0.352 N 
ATOM     31  C   UNL     1       7.362  -1.308  -3.139  1.00  0.00     0.251 C 
ATOM     32  H   UNL     1       5.595  -0.542  -3.652  1.00  0.00     0.163 HD
ATOM     33  O   UNL     1       7.969  -0.581  -3.920  1.00  0.00    -0.269 OA
BRANCH  31  34
ATOM     34  C   UNL     1       8.098  -2.341  -2.377  1.00  0.00     0.039 A 
ATOM     35  C   UNL     1       9.395  -2.042  -1.948  1.00  0.00     0.014 A 
ATOM     36  C   UNL     1       7.562  -3.608  -2.130  1.00  0.00     0.014 A 
ATOM     37  C   UNL     1      10.129  -2.991  -1.236  1.00  0.00     0.010 A 
ATOM     38  C   UNL     1       8.265  -4.527  -1.349  1.00  0.00     0.010 A 
ATOM     39  C   UNL     1       9.559  -4.230  -0.900  1.00  0.00    -0.014 A 
BRANCH  39  40
ATOM     40  C   UNL     1      10.312  -5.196  -0.059  1.00  0.00     0.031 A 
ATOM     41  C   UNL     1      10.736  -6.533  -0.603  1.00  0.00     0.074 A 
ATOM     42  C   UNL     1      10.604  -4.866   1.214  1.00  0.00     0.049 A 
ATOM     43  N   UNL     1      11.443  -7.470  -0.022  1.00  0.00    -0.248 NA
ATOM     44  C   UNL     1      10.294  -6.873  -1.964  1.00  0.00     0.031 C 
ATOM     45  C   UNL     1      10.206  -3.622   1.877  1.00  0.00     0.029 A 
ATOM     46  N   UNL     1      11.315  -5.541   2.174  1.00  0.00    -0.354 N 
ATOM     47  C   UNL     1      11.531  -8.506  -0.944  1.00  0.00     0.074 A 
ATOM     48  C   UNL     1      10.756  -8.108  -2.099  1.00  0.00     0.031 C 
ATOM     49  C   UNL     1      10.718  -3.602   3.117  1.00  0.00     0.029 A 
ATOM     50  C   UNL     1      11.445  -4.845   3.351  1.00  0.00     0.049 A 
ATOM     51  H   UNL     1      11.695  -6.438   2.033  1.00  0.00     0.167 HD
ATOM     52  C   UNL     1      12.212  -9.674  -0.848  1.00  0.00     0.031 A 
ATOM     53  C   UNL     1      12.083  -5.166   4.492  1.00  0.00     0.031 A 
ATOM     54  C   UNL     1      12.977 -10.075   0.304  1.00  0.00     0.049 A 
ATOM     55  C   UNL     1      12.820  -6.472   4.576  1.00  0.00     0.074 A 
ATOM     56  C   UNL     1      13.740 -11.218   0.479  1.00  0.00     0.029 A 
ATOM     57  N   UNL     1      13.072  -9.350   1.482  1.00  0.00    -0.354 N 
ATOM     58  N   UNL     1      12.957  -7.405   3.665  1.00  0.00    -0.248 NA
ATOM     59  C   UNL     1      13.505  -6.759   5.843  1.00  0.00     0.031 C 
ATOM     60  C   UNL     1      14.247 -11.211   1.783  1.00  0.00     0.029 A 
ATOM     61  C   UNL     1      13.855 -10.033   2.398  1.00  0.00     0.049 A 
ATOM     62  H   UNL     1      12.645  -8.477   1.643  1.00  0.00     0.167 HD
ATOM     63  C   UNL     1      13.759  -8.381   4.242  1.00  0.00     0.074 A 
ATOM     64  C   UNL     1      14.102  -7.910   5.568  1.00  0.00     0.031 C 
ATOM     65  C   UNL     1      14.172  -9.563   3.722  1.00  0.00     0.031 A 
BRANCH  52  66
ATOM     66  C   UNL     1      12.152 -10.610  -2.026  1.00  0.00    -0.014 A 
ATOM     67  C   UNL     1      12.783 -10.292  -3.241  1.00  0.00     0.009 A 
ATOM     68  C   UNL     1      11.493 -11.843  -1.910  1.00  0.00     0.009 A 
ATOM     69  C   UNL     1      12.721 -11.171  -4.324  1.00  0.00     0.001 A 
ATOM     70  C   UNL     1      11.459 -12.735  -2.985  1.00  0.00     0.001 A 
ATOM     71  C   UNL     1      12.065 -12.394  -4.193  1.00  0.00     0.000 A 
ENDBRANCH  52  66
BRANCH  53  72
ATOM     72  C   UNL     1      12.067  -4.225   5.643  1.00  0.00    -0.014 A 
ATOM     73  C   UNL     1      13.237  -3.558   6.039  1.00  0.00     0.009 A 
ATOM     74  C   UNL     1      10.880  -3.993   6.355  1.00  0.00     0.009 A 
ATOM     75  C   UNL     1      13.224  -2.702   7.143  1.00  0.00     0.001 A 
ATOM     76  C   UNL     1      10.863  -3.111   7.437  1.00  0.00     0.001 A 
ATOM     77  C   UNL     1      12.037  -2.475   7.837  1.00  0.00     0.000 A 
ENDBRANCH  53  72
BRANCH  65  78
ATOM     78  C   UNL     1      15.055 -10.416   4.591  1.00  0.00    -0.014 A 
ATOM     79  C   UNL     1      14.556 -11.046   5.743  1.00  0.00     0.009 A 
ATOM     80  C   UNL     1      16.405 -10.595   4.251  1.00  0.00     0.009 A 
ATOM     81  C   UNL     1      15.403 -11.796   6.562  1.00  0.00     0.001 A 
ATOM     82  C   UNL     1      17.241 -11.373   5.052  1.00  0.00     0.001 A 
ATOM     83  C   UNL     1      16.743 -11.961   6.214  1.00  0.00     0.000 A 
ENDBRANCH  65  78
ENDBRANCH  39  40
ENDBRANCH  31  34
ENDBRANCH  29  30
ENDBRANCH  28  29
ENDBRANCH   1  28
TORSDOF 15
