REMARK SMILES CCOc1ccc(-c2cnc(N)cc2C(=O)NCCCNC(=O)c2ccc(-c3c4nc(c(-c5ccccc5)c5ccc([nH]5)c(-c5ccccc5)c5nc(c(-c6ccccc6)c6ccc3[nH]6)C=C5)C=C4)cc2)c(Cl)c1
REMARK SMILES IDX 18 1 17 2 15 3 16 4 14 6 8 7 9 8 10 9 13 10 11 11 7 12 4 13
REMARK SMILES IDX 5 14 74 15 6 16 72 17 73 18 3 19 2 20 1 21 12 22 19 25 20 26
REMARK SMILES IDX 21 27 22 28 23 30 24 31 25 32 71 33 26 34 70 35 27 36 28 37
REMARK SMILES IDX 29 38 64 39 30 40 69 41 63 42 65 43 31 44 68 45 62 46 61 47
REMARK SMILES IDX 32 49 54 50 39 51 53 52 40 53 43 54 52 55 66 56 41 57 42 58
REMARK SMILES IDX 51 60 67 61 44 62 33 63 34 64 38 65 35 66 37 67 36 68 55 69
REMARK SMILES IDX 56 70 60 71 57 72 59 73 58 74 45 75 46 76 50 77 47 78 49 79
REMARK SMILES IDX 48 80
REMARK H PARENT 17 5 12 23 12 24 21 29 65 48 43 59
REMARK Flexibility Score: inf
ROOT
ATOM      1  C   UNL     1       9.099   0.573   5.041  1.00  0.00     0.118 C 
ENDROOT
BRANCH   1   2
ATOM      2  N   UNL     1       7.677   0.694   4.788  1.00  0.00    -0.352 N 
ATOM      3  C   UNL     1       6.888   1.378   3.898  1.00  0.00     0.252 C 
ATOM      4  O   UNL     1       5.691   1.105   3.991  1.00  0.00    -0.269 OA
ATOM      5  H   UNL     1       7.143   0.149   5.410  1.00  0.00     0.163 HD
BRANCH   3   6
ATOM      6  C   UNL     1       7.381   2.340   2.850  1.00  0.00     0.052 A 
ATOM      7  C   UNL     1       6.518   2.793   1.825  1.00  0.00     0.014 A 
ATOM      8  C   UNL     1       7.092   3.595   0.831  1.00  0.00     0.123 A 
ATOM      9  N   UNL     1       8.390   3.961   0.772  1.00  0.00    -0.239 NA
ATOM     10  C   UNL     1       8.700   2.808   2.837  1.00  0.00     0.061 A 
ATOM     11  C   UNL     1       9.173   3.561   1.774  1.00  0.00     0.124 A 
BRANCH   7  12
ATOM     12  C   UNL     1       5.077   2.503   1.705  1.00  0.00     0.003 A 
ATOM     13  C   UNL     1       2.340   1.945   1.333  1.00  0.00     0.120 A 
ATOM     14  C   UNL     1       3.283   1.413   0.461  1.00  0.00     0.047 A 
ATOM     15  C   UNL     1       2.739   2.793   2.362  1.00  0.00     0.067 A 
ATOM     16  C   UNL     1       4.640   1.672   0.657  1.00  0.00     0.014 A 
ATOM     17  C   UNL     1       4.097   3.081   2.541  1.00  0.00     0.052 A 
ATOM     18  Cl  UNL     1       4.516   4.210   3.789  1.00  0.00    -0.084 Cl
BRANCH  13  19
ATOM     19  O   UNL     1       1.001   1.758   1.136  1.00  0.00    -0.494 OA
BRANCH  19  20
ATOM     20  C   UNL     1       0.583   0.403   1.344  1.00  0.00     0.226 C 
ATOM     21  C   UNL     1       0.451  -0.341   0.025  1.00  0.00     0.049 C 
ENDBRANCH  19  20
ENDBRANCH  13  19
ENDBRANCH   7  12
BRANCH  11  22
ATOM     22  N   UNL     1      10.490   3.971   1.726  1.00  0.00    -0.384 N 
ATOM     23  H   UNL     1      10.812   4.505   0.964  1.00  0.00     0.158 HD
ATOM     24  H   UNL     1      11.108   3.729   2.453  1.00  0.00     0.158 HD
ENDBRANCH  11  22
ENDBRANCH   3   6
ENDBRANCH   1   2
BRANCH   1  25
ATOM     25  C   UNL     1       9.559   1.517   6.153  1.00  0.00     0.042 C 
BRANCH  25  26
ATOM     26  C   UNL     1       9.024   1.144   7.537  1.00  0.00     0.118 C 
BRANCH  26  27
ATOM     27  N   UNL     1       9.516  -0.151   7.981  1.00  0.00    -0.352 N 
ATOM     28  C   UNL     1      10.305  -0.495   9.047  1.00  0.00     0.251 C 
ATOM     29  H   UNL     1       9.234  -0.909   7.420  1.00  0.00     0.163 HD
ATOM     30  O   UNL     1      10.807  -1.615   9.078  1.00  0.00    -0.269 OA
BRANCH  28  31
ATOM     31  C   UNL     1      10.555   0.445  10.163  1.00  0.00     0.039 A 
ATOM     32  C   UNL     1      11.809   0.417  10.784  1.00  0.00     0.014 A 
ATOM     33  C   UNL     1       9.547   1.268  10.672  1.00  0.00     0.014 A 
ATOM     34  C   UNL     1      12.058   1.226  11.895  1.00  0.00     0.010 A 
ATOM     35  C   UNL     1       9.816   2.123  11.743  1.00  0.00     0.010 A 
ATOM     36  C   UNL     1      11.066   2.094  12.377  1.00  0.00    -0.014 A 
BRANCH  36  37
ATOM     37  C   UNL     1      11.325   2.955  13.557  1.00  0.00     0.031 A 
ATOM     38  C   UNL     1      10.590   2.724  14.849  1.00  0.00     0.074 A 
ATOM     39  C   UNL     1      12.202   3.972  13.457  1.00  0.00     0.049 A 
ATOM     40  N   UNL     1      10.693   3.370  15.985  1.00  0.00    -0.248 NA
ATOM     41  C   UNL     1       9.593   1.643  14.862  1.00  0.00     0.031 C 
ATOM     42  C   UNL     1      12.942   4.335  12.247  1.00  0.00     0.029 A 
ATOM     43  N   UNL     1      12.617   4.888  14.390  1.00  0.00    -0.354 N 
ATOM     44  C   UNL     1       9.760   2.789  16.835  1.00  0.00     0.074 A 
ATOM     45  C   UNL     1       9.074   1.767  16.075  1.00  0.00     0.031 C 
ATOM     46  C   UNL     1      13.740   5.381  12.519  1.00  0.00     0.029 A 
ATOM     47  C   UNL     1      13.550   5.774  13.912  1.00  0.00     0.049 A 
ATOM     48  H   UNL     1      12.278   4.908  15.314  1.00  0.00     0.167 HD
ATOM     49  C   UNL     1       9.506   3.070  18.136  1.00  0.00     0.031 A 
ATOM     50  C   UNL     1      14.187   6.787  14.527  1.00  0.00     0.031 A 
ATOM     51  C   UNL     1      10.197   4.074  18.900  1.00  0.00     0.049 A 
ATOM     52  C   UNL     1      13.919   7.053  15.980  1.00  0.00     0.074 A 
ATOM     53  C   UNL     1      10.059   4.387  20.242  1.00  0.00     0.029 A 
ATOM     54  N   UNL     1      11.159   4.930  18.387  1.00  0.00    -0.354 N 
ATOM     55  N   UNL     1      13.091   6.442  16.792  1.00  0.00    -0.248 NA
ATOM     56  C   UNL     1      14.693   8.135  16.605  1.00  0.00     0.031 C 
ATOM     57  C   UNL     1      10.911   5.460  20.531  1.00  0.00     0.029 A 
ATOM     58  C   UNL     1      11.611   5.783  19.380  1.00  0.00     0.049 A 
ATOM     59  H   UNL     1      11.474   4.931  17.454  1.00  0.00     0.167 HD
ATOM     60  C   UNL     1      13.257   7.051  18.028  1.00  0.00     0.074 A 
ATOM     61  C   UNL     1      14.279   8.065  17.863  1.00  0.00     0.031 C 
ATOM     62  C   UNL     1      12.621   6.793  19.197  1.00  0.00     0.031 A 
BRANCH  49  63
ATOM     63  C   UNL     1       8.419   2.279  18.811  1.00  0.00    -0.014 A 
ATOM     64  C   UNL     1       8.592   0.921  19.124  1.00  0.00     0.009 A 
ATOM     65  C   UNL     1       7.210   2.905  19.152  1.00  0.00     0.009 A 
ATOM     66  C   UNL     1       7.562   0.197  19.727  1.00  0.00     0.001 A 
ATOM     67  C   UNL     1       6.191   2.185  19.780  1.00  0.00     0.001 A 
ATOM     68  C   UNL     1       6.364   0.829  20.056  1.00  0.00     0.000 A 
ENDBRANCH  49  63
BRANCH  50  69
ATOM     69  C   UNL     1      15.172   7.602  13.772  1.00  0.00    -0.014 A 
ATOM     70  C   UNL     1      16.548   7.443  13.999  1.00  0.00     0.009 A 
ATOM     71  C   UNL     1      14.743   8.530  12.811  1.00  0.00     0.009 A 
ATOM     72  C   UNL     1      17.474   8.213  13.292  1.00  0.00     0.001 A 
ATOM     73  C   UNL     1      15.672   9.280  12.088  1.00  0.00     0.001 A 
ATOM     74  C   UNL     1      17.036   9.126  12.334  1.00  0.00     0.000 A 
ENDBRANCH  50  69
BRANCH  62  75
ATOM     75  C   UNL     1      13.033   7.608  20.389  1.00  0.00    -0.014 A 
ATOM     76  C   UNL     1      12.667   8.958  20.509  1.00  0.00     0.009 A 
ATOM     77  C   UNL     1      13.783   7.011  21.414  1.00  0.00     0.009 A 
ATOM     78  C   UNL     1      13.080   9.705  21.614  1.00  0.00     0.001 A 
ATOM     79  C   UNL     1      14.171   7.754  22.530  1.00  0.00     0.001 A 
ATOM     80  C   UNL     1      13.829   9.102  22.624  1.00  0.00     0.000 A 
ENDBRANCH  62  75
ENDBRANCH  36  37
ENDBRANCH  28  31
ENDBRANCH  26  27
ENDBRANCH  25  26
ENDBRANCH   1  25
TORSDOF 14
