REMARK SMILES NC(=[NH2+])N1CCC[C@H]1C(=O)NCCCNC(=O)c1ccc(-c2c3nc(c(-c4ccccc4)c4ccc([nH]4)c(-c4ccccc4)c4nc(c(-c5ccccc5)c5ccc2[nH]5)C=C4)C=C3)cc1
REMARK SMILES IDX 13 1 12 2 11 3 9 4 10 5 8 7 4 8 5 9 6 10 7 11 2 12 3 13 1 16
REMARK SMILES IDX 14 19 15 20 16 21 17 23 18 24 19 25 65 26 20 27 64 28 21 29
REMARK SMILES IDX 22 30 23 31 58 32 24 33 63 34 57 35 59 36 25 37 62 38 56 39
REMARK SMILES IDX 55 40 26 42 48 43 33 44 47 45 34 46 37 47 46 48 60 49 35 50
REMARK SMILES IDX 36 51 45 53 61 54 38 55 27 56 28 57 32 58 29 59 31 60 30 61
REMARK SMILES IDX 49 62 50 63 54 64 51 65 53 66 52 67 39 68 40 69 44 70 41 71
REMARK SMILES IDX 43 72 42 73
REMARK H PARENT 11 6 3 14 3 15 1 17 1 18 15 22 59 41 37 52
REMARK Flexibility Score: inf
ROOT
ATOM      1  C   UNL     1      -5.455  -1.218  -3.397  1.00  0.00     0.042 C 
ENDROOT
BRANCH   1   2
ATOM      2  C   UNL     1      -4.376  -2.288  -3.217  1.00  0.00     0.117 C 
BRANCH   2   3
ATOM      3  N   UNL     1      -3.078  -1.830  -3.673  1.00  0.00    -0.353 N 
ATOM      4  C   UNL     1      -1.991  -1.322  -3.027  1.00  0.00     0.257 C 
ATOM      5  O   UNL     1      -1.043  -1.042  -3.775  1.00  0.00    -0.271 OA
ATOM      6  H   UNL     1      -2.957  -1.900  -4.647  1.00  0.00     0.163 HD
BRANCH   4   7
ATOM      7  C   UNL     1      -1.873  -1.223  -1.477  1.00  0.00     0.237 C 
ATOM      8  N   UNL     1      -0.890  -0.184  -1.066  1.00  0.00    -0.253 N 
ATOM      9  C   UNL     1      -1.540   0.839  -0.254  1.00  0.00     0.201 C 
ATOM     10  C   UNL     1      -2.671   0.078   0.407  1.00  0.00     0.042 C 
ATOM     11  C   UNL     1      -3.148  -0.811  -0.725  1.00  0.00     0.055 C 
BRANCH   8  12
ATOM     12  C   UNL     1       0.464  -0.322  -1.069  1.00  0.00     0.341 C 
ATOM     13  N   UNL     1       1.234   0.295  -0.241  1.00  0.00    -0.291 N 
ATOM     14  H   UNL     1       2.209   0.162  -0.283  1.00  0.00     0.256 HD
ATOM     15  H   UNL     1       0.849   0.900   0.434  1.00  0.00     0.256 HD
ATOM     16  N   UNL     1       0.974  -1.145  -1.998  1.00  0.00    -0.291 N 
ATOM     17  H   UNL     1       1.948  -1.286  -2.049  1.00  0.00     0.256 HD
ATOM     18  H   UNL     1       0.376  -1.609  -2.627  1.00  0.00     0.256 HD
ENDBRANCH   8  12
ENDBRANCH   4   7
ENDBRANCH   2   3
ENDBRANCH   1   2
BRANCH   1  19
ATOM     19  C   UNL     1      -5.768  -0.881  -4.853  1.00  0.00     0.118 C 
BRANCH  19  20
ATOM     20  N   UNL     1      -6.499  -1.942  -5.524  1.00  0.00    -0.352 N 
ATOM     21  C   UNL     1      -7.727  -1.918  -6.135  1.00  0.00     0.251 C 
ATOM     22  H   UNL     1      -6.042  -2.814  -5.543  1.00  0.00     0.163 HD
ATOM     23  O   UNL     1      -8.249  -2.980  -6.474  1.00  0.00    -0.269 OA
BRANCH  21  24
ATOM     24  C   UNL     1      -8.441  -0.644  -6.382  1.00  0.00     0.039 A 
ATOM     25  C   UNL     1      -9.829  -0.612  -6.206  1.00  0.00     0.014 A 
ATOM     26  C   UNL     1      -7.777   0.495  -6.844  1.00  0.00     0.014 A 
ATOM     27  C   UNL     1     -10.541   0.566  -6.451  1.00  0.00     0.010 A 
ATOM     28  C   UNL     1      -8.477   1.688  -7.026  1.00  0.00     0.010 A 
ATOM     29  C   UNL     1      -9.868   1.733  -6.843  1.00  0.00    -0.014 A 
BRANCH  29  30
ATOM     30  C   UNL     1     -10.605   2.999  -7.088  1.00  0.00     0.031 A 
ATOM     31  C   UNL     1     -10.667   3.585  -8.473  1.00  0.00     0.074 A 
ATOM     32  C   UNL     1     -11.176   3.652  -6.058  1.00  0.00     0.049 A 
ATOM     33  N   UNL     1     -11.211   4.708  -8.871  1.00  0.00    -0.248 NA
ATOM     34  C   UNL     1     -10.014   2.820  -9.547  1.00  0.00     0.031 C 
ATOM     35  C   UNL     1     -11.163   3.213  -4.662  1.00  0.00     0.029 A 
ATOM     36  N   UNL     1     -11.874   4.834  -6.028  1.00  0.00    -0.354 N 
ATOM     37  C   UNL     1     -10.944   4.796 -10.231  1.00  0.00     0.074 A 
ATOM     38  C   UNL     1     -10.160   3.632 -10.584  1.00  0.00     0.031 C 
ATOM     39  C   UNL     1     -11.838   4.102  -3.915  1.00  0.00     0.029 A 
ATOM     40  C   UNL     1     -12.303   5.188  -4.772  1.00  0.00     0.049 A 
ATOM     41  H   UNL     1     -12.051   5.376  -6.831  1.00  0.00     0.167 HD
ATOM     42  C   UNL     1     -11.327   5.750 -11.113  1.00  0.00     0.031 A 
ATOM     43  C   UNL     1     -12.989   6.269  -4.355  1.00  0.00     0.031 A 
ATOM     44  C   UNL     1     -12.124   6.898 -10.774  1.00  0.00     0.049 A 
ATOM     45  C   UNL     1     -13.413   7.308  -5.354  1.00  0.00     0.074 A 
ATOM     46  C   UNL     1     -12.610   7.889 -11.610  1.00  0.00     0.029 A 
ATOM     47  N   UNL     1     -12.556   7.207  -9.494  1.00  0.00    -0.354 N 
ATOM     48  N   UNL     1     -13.199   7.346  -6.646  1.00  0.00    -0.248 NA
ATOM     49  C   UNL     1     -14.185   8.447  -4.836  1.00  0.00     0.031 C 
ATOM     50  C   UNL     1     -13.306   8.818 -10.829  1.00  0.00     0.029 A 
ATOM     51  C   UNL     1     -13.290   8.381  -9.514  1.00  0.00     0.049 A 
ATOM     52  H   UNL     1     -12.369   6.671  -8.689  1.00  0.00     0.167 HD
ATOM     53  C   UNL     1     -13.831   8.496  -7.100  1.00  0.00     0.074 A 
ATOM     54  C   UNL     1     -14.446   9.121  -5.947  1.00  0.00     0.031 C 
ATOM     55  C   UNL     1     -13.898   8.989  -8.360  1.00  0.00     0.031 A 
BRANCH  42  56
ATOM     56  C   UNL     1     -10.877   5.593 -12.538  1.00  0.00    -0.014 A 
ATOM     57  C   UNL     1     -11.435   4.611 -13.372  1.00  0.00     0.009 A 
ATOM     58  C   UNL     1      -9.906   6.459 -13.063  1.00  0.00     0.009 A 
ATOM     59  C   UNL     1     -11.002   4.476 -14.693  1.00  0.00     0.001 A 
ATOM     60  C   UNL     1      -9.493   6.338 -14.392  1.00  0.00     0.001 A 
ATOM     61  C   UNL     1     -10.034   5.341 -15.202  1.00  0.00     0.000 A 
ENDBRANCH  42  56
BRANCH  43  62
ATOM     62  C   UNL     1     -13.338   6.414  -2.919  1.00  0.00    -0.014 A 
ATOM     63  C   UNL     1     -14.660   6.224  -2.488  1.00  0.00     0.009 A 
ATOM     64  C   UNL     1     -12.355   6.744  -1.974  1.00  0.00     0.009 A 
ATOM     65  C   UNL     1     -14.994   6.384  -1.141  1.00  0.00     0.001 A 
ATOM     66  C   UNL     1     -12.687   6.878  -0.625  1.00  0.00     0.001 A 
ATOM     67  C   UNL     1     -14.007   6.706  -0.211  1.00  0.00     0.000 A 
ENDBRANCH  43  62
BRANCH  55  68
ATOM     68  C   UNL     1     -14.692  10.247  -8.563  1.00  0.00    -0.014 A 
ATOM     69  C   UNL     1     -14.195  11.494  -8.156  1.00  0.00     0.009 A 
ATOM     70  C   UNL     1     -15.939  10.184  -9.204  1.00  0.00     0.009 A 
ATOM     71  C   UNL     1     -14.947  12.652  -8.361  1.00  0.00     0.001 A 
ATOM     72  C   UNL     1     -16.678  11.346  -9.428  1.00  0.00     0.001 A 
ATOM     73  C   UNL     1     -16.185  12.578  -8.999  1.00  0.00     0.000 A 
ENDBRANCH  55  68
ENDBRANCH  29  30
ENDBRANCH  21  24
ENDBRANCH  19  20
ENDBRANCH   1  19
TORSDOF 11
