REMARK SMILES O=C(NCCCNC(=O)c1ccccc1C(=O)Nc1ccc(N2C(=O)[C@H]3[C@@H]4CC[C@@H](C4)[C@@H]3C2=O)cc1)c1ccc(-c2c3nc(c(-c4ccccc4)c4ccc([nH]4)c(-c4ccccc4)c4nc(c(-c5ccccc5)c5ccc2[nH]5)C=C4)C=C3)cc1
REMARK SMILES IDX 5 1 4 2 3 3 1 4 2 5 37 7 38 8 84 9 39 10 83 11 40 12 41 13
REMARK SMILES IDX 42 14 77 15 43 16 82 17 76 18 78 19 44 20 81 21 75 22 74 23
REMARK SMILES IDX 45 25 67 26 52 27 66 28 53 29 56 30 65 31 79 32 54 33 55 34
REMARK SMILES IDX 64 36 80 37 57 38 46 39 47 40 51 41 48 42 50 43 49 44 68 45
REMARK SMILES IDX 69 46 73 47 70 48 72 49 71 50 58 51 59 52 63 53 60 54 62 55
REMARK SMILES IDX 61 56 6 57 7 58 8 59 9 61 10 62 11 63 15 64 12 65 14 66
REMARK SMILES IDX 13 67 16 68 17 69 18 70 19 72 20 73 36 74 21 75 35 76 22 77
REMARK SMILES IDX 23 78 24 79 33 80 25 81 26 82 32 83 34 84 27 85 30 86 28 87
REMARK SMILES IDX 31 88 29 89
REMARK H PARENT 3 6 78 24 56 35 7 60 18 71
REMARK Flexibility Score: inf
ROOT
ATOM      1  C   UNL     1       5.040   1.734  -1.631  1.00  0.00     0.042 C 
ENDROOT
BRANCH   1   2
ATOM      2  C   UNL     1       4.589   0.968  -0.395  1.00  0.00     0.118 C 
BRANCH   2   3
ATOM      3  N   UNL     1       3.144   0.951  -0.210  1.00  0.00    -0.352 N 
ATOM      4  O   UNL     1       1.090   0.002  -0.058  1.00  0.00    -0.269 OA
ATOM      5  C   UNL     1       2.304  -0.139  -0.143  1.00  0.00     0.251 C 
ATOM      6  H   UNL     1       2.712   1.831  -0.121  1.00  0.00     0.163 HD
BRANCH   5   7
ATOM      7  C   UNL     1       2.896  -1.489  -0.229  1.00  0.00     0.039 A 
ATOM      8  C   UNL     1       3.965  -1.834   0.599  1.00  0.00     0.014 A 
ATOM      9  C   UNL     1       2.448  -2.367  -1.218  1.00  0.00     0.014 A 
ATOM     10  C   UNL     1       4.707  -2.970   0.310  1.00  0.00     0.010 A 
ATOM     11  C   UNL     1       3.132  -3.566  -1.432  1.00  0.00     0.010 A 
ATOM     12  C   UNL     1       4.293  -3.857  -0.699  1.00  0.00    -0.014 A 
BRANCH  12  13
ATOM     13  C   UNL     1       5.059  -5.109  -0.918  1.00  0.00     0.031 A 
ATOM     14  C   UNL     1       5.756  -5.392  -2.221  1.00  0.00     0.074 A 
ATOM     15  C   UNL     1       5.145  -5.987   0.100  1.00  0.00     0.049 A 
ATOM     16  N   UNL     1       6.461  -6.443  -2.562  1.00  0.00    -0.248 NA
ATOM     17  C   UNL     1       5.647  -4.377  -3.281  1.00  0.00     0.031 C 
ATOM     18  C   UNL     1       4.510  -5.821   1.412  1.00  0.00     0.029 A 
ATOM     19  N   UNL     1       5.816  -7.176   0.206  1.00  0.00    -0.354 N 
ATOM     20  C   UNL     1       6.852  -6.232  -3.879  1.00  0.00     0.074 A 
ATOM     21  C   UNL     1       6.299  -4.957  -4.282  1.00  0.00     0.031 C 
ATOM     22  C   UNL     1       4.870  -6.837   2.207  1.00  0.00     0.029 A 
ATOM     23  C   UNL     1       5.692  -7.764   1.441  1.00  0.00     0.049 A 
ATOM     24  H   UNL     1       6.336  -7.571  -0.531  1.00  0.00     0.167 HD
ATOM     25  C   UNL     1       7.602  -7.031  -4.675  1.00  0.00     0.031 A 
ATOM     26  C   UNL     1       6.165  -8.933   1.906  1.00  0.00     0.031 A 
ATOM     27  C   UNL     1       8.163  -8.293  -4.264  1.00  0.00     0.049 A 
ATOM     28  C   UNL     1       6.974  -9.802   0.994  1.00  0.00     0.074 A 
ATOM     29  C   UNL     1       8.964  -9.158  -4.991  1.00  0.00     0.029 A 
ATOM     30  N   UNL     1       7.983  -8.869  -3.017  1.00  0.00    -0.354 N 
ATOM     31  N   UNL     1       7.346  -9.577  -0.242  1.00  0.00    -0.248 NA
ATOM     32  C   UNL     1       7.422 -11.090   1.539  1.00  0.00     0.031 C 
ATOM     33  C   UNL     1       9.230 -10.279  -4.198  1.00  0.00     0.029 A 
ATOM     34  C   UNL     1       8.637 -10.089  -2.961  1.00  0.00     0.049 A 
ATOM     35  H   UNL     1       7.467  -8.471  -2.279  1.00  0.00     0.167 HD
ATOM     36  C   UNL     1       8.080 -10.691  -0.622  1.00  0.00     0.074 A 
ATOM     37  C   UNL     1       8.123 -11.577   0.524  1.00  0.00     0.031 C 
ATOM     38  C   UNL     1       8.662 -10.959  -1.815  1.00  0.00     0.031 A 
BRANCH  25  39
ATOM     39  C   UNL     1       7.845  -6.586  -6.091  1.00  0.00    -0.014 A 
ATOM     40  C   UNL     1       8.752  -5.557  -6.389  1.00  0.00     0.009 A 
ATOM     41  C   UNL     1       7.214  -7.261  -7.148  1.00  0.00     0.009 A 
ATOM     42  C   UNL     1       9.006  -5.202  -7.717  1.00  0.00     0.001 A 
ATOM     43  C   UNL     1       7.486  -6.919  -8.475  1.00  0.00     0.001 A 
ATOM     44  C   UNL     1       8.378  -5.887  -8.758  1.00  0.00     0.000 A 
ENDBRANCH  25  39
BRANCH  26  45
ATOM     45  C   UNL     1       5.853  -9.353   3.295  1.00  0.00    -0.014 A 
ATOM     46  C   UNL     1       6.856  -9.392   4.274  1.00  0.00     0.009 A 
ATOM     47  C   UNL     1       4.540  -9.700   3.651  1.00  0.00     0.009 A 
ATOM     48  C   UNL     1       6.553  -9.788   5.578  1.00  0.00     0.001 A 
ATOM     49  C   UNL     1       4.234 -10.065   4.962  1.00  0.00     0.001 A 
ATOM     50  C   UNL     1       5.242 -10.117   5.922  1.00  0.00     0.000 A 
ENDBRANCH  26  45
BRANCH  38  51
ATOM     51  C   UNL     1       9.409 -12.255  -1.925  1.00  0.00    -0.014 A 
ATOM     52  C   UNL     1       8.728 -13.478  -2.015  1.00  0.00     0.009 A 
ATOM     53  C   UNL     1      10.812 -12.249  -1.950  1.00  0.00     0.009 A 
ATOM     54  C   UNL     1       9.440 -14.676  -2.093  1.00  0.00     0.001 A 
ATOM     55  C   UNL     1      11.520 -13.446  -2.055  1.00  0.00     0.001 A 
ATOM     56  C   UNL     1      10.834 -14.659  -2.115  1.00  0.00     0.000 A 
ENDBRANCH  38  51
ENDBRANCH  12  13
ENDBRANCH   5   7
ENDBRANCH   2   3
ENDBRANCH   1   2
BRANCH   1  57
ATOM     57  C   UNL     1       5.096   3.232  -1.403  1.00  0.00     0.118 C 
BRANCH  57  58
ATOM     58  N   UNL     1       6.069   3.587  -0.386  1.00  0.00    -0.352 N 
ATOM     59  C   UNL     1       6.654   4.793  -0.131  1.00  0.00     0.252 C 
ATOM     60  H   UNL     1       6.347   2.851   0.206  1.00  0.00     0.163 HD
ATOM     61  O   UNL     1       7.544   4.871   0.714  1.00  0.00    -0.269 OA
BRANCH  59  62
ATOM     62  C   UNL     1       6.341   5.975  -0.947  1.00  0.00     0.052 A 
ATOM     63  C   UNL     1       7.490   6.503  -1.577  1.00  0.00     0.014 A 
ATOM     64  C   UNL     1       5.079   6.543  -1.180  1.00  0.00     0.052 A 
ATOM     65  C   UNL     1       7.394   7.538  -2.500  1.00  0.00     0.001 A 
ATOM     66  C   UNL     1       5.011   7.583  -2.136  1.00  0.00     0.014 A 
ATOM     67  C   UNL     1       6.147   8.066  -2.794  1.00  0.00     0.001 A 
BRANCH  64  68
ATOM     68  C   UNL     1       3.745   6.096  -0.673  1.00  0.00     0.256 C 
ATOM     69  O   UNL     1       2.799   6.148  -1.467  1.00  0.00    -0.269 OA
ATOM     70  N   UNL     1       3.481   5.521   0.547  1.00  0.00    -0.322 N 
ATOM     71  H   UNL     1       2.575   5.144   0.625  1.00  0.00     0.170 HD
BRANCH  70  72
ATOM     72  C   UNL     1       4.257   5.372   1.693  1.00  0.00     0.041 A 
ATOM     73  C   UNL     1       4.230   4.119   2.314  1.00  0.00     0.028 A 
ATOM     74  C   UNL     1       5.081   6.379   2.181  1.00  0.00     0.028 A 
ATOM     75  C   UNL     1       5.200   3.800   3.261  1.00  0.00     0.029 A 
ATOM     76  C   UNL     1       5.973   6.090   3.216  1.00  0.00     0.029 A 
ATOM     77  C   UNL     1       6.106   4.774   3.686  1.00  0.00     0.052 A 
BRANCH  77  78
ATOM     78  N   UNL     1       7.245   4.420   4.435  1.00  0.00    -0.250 N 
ATOM     79  C   UNL     1       7.851   5.260   5.378  1.00  0.00     0.237 C 
ATOM     80  C   UNL     1       8.045   3.297   4.131  1.00  0.00     0.237 C 
ATOM     81  O   UNL     1       7.396   6.198   6.011  1.00  0.00    -0.274 OA
ATOM     82  C   UNL     1       9.278   4.844   5.316  1.00  0.00     0.095 C 
ATOM     83  C   UNL     1       9.103   3.341   5.191  1.00  0.00     0.095 C 
ATOM     84  O   UNL     1       7.905   2.425   3.299  1.00  0.00    -0.274 OA
ATOM     85  C   UNL     1      10.493   4.954   6.238  1.00  0.00     0.002 C 
ATOM     86  C   UNL     1      10.546   2.875   5.335  1.00  0.00     0.002 C 
ATOM     87  C   UNL     1      11.687   5.048   5.261  1.00  0.00     0.005 C 
ATOM     88  C   UNL     1      10.762   3.512   6.732  1.00  0.00     0.009 C 
ATOM     89  C   UNL     1      11.581   3.689   4.508  1.00  0.00     0.005 C 
ENDBRANCH  77  78
ENDBRANCH  70  72
ENDBRANCH  64  68
ENDBRANCH  59  62
ENDBRANCH  57  58
ENDBRANCH   1  57
TORSDOF 13
