REMARK SMILES C[C@H](C(=O)NCCCNC(=O)c1ccc(-c2c3nc(c(-c4ccccc4)c4ccc([nH]4)c(-c4ccccc4)c4nc(c(-c5ccccc5)c5ccc2[nH]5)C=C4)C=C3)cc1)[C@H](C)[NH+]1CCN(S(C)(=O)=O)CC1
REMARK SMILES IDX 6 1 5 2 3 3 4 4 2 6 1 7 60 8 61 9 62 10 63 11 71 12 64 14
REMARK SMILES IDX 70 15 65 16 66 17 67 18 68 19 69 20 7 21 8 22 9 23 10 24
REMARK SMILES IDX 11 26 12 27 13 28 59 29 14 30 58 31 15 32 16 33 17 34 52 35
REMARK SMILES IDX 18 36 57 37 51 38 53 39 19 40 56 41 50 42 49 43 20 45 42 46
REMARK SMILES IDX 27 47 41 48 28 49 31 50 40 51 54 52 29 53 30 54 39 56 55 57
REMARK SMILES IDX 32 58 21 59 22 60 26 61 23 62 25 63 24 64 43 65 44 66 48 67
REMARK SMILES IDX 45 68 47 69 46 70 33 71 34 72 38 73 35 74 37 75 36 76
REMARK H PARENT 5 5 62 13 9 25 53 44 31 55
REMARK Flexibility Score: inf
ROOT
ATOM      1  C   UNL     1      -2.724  -2.889  -3.045  1.00  0.00     0.117 C 
ENDROOT
BRANCH   1   2
ATOM      2  N   UNL     1      -2.872  -1.469  -3.292  1.00  0.00    -0.356 N 
ATOM      3  C   UNL     1      -2.570  -0.359  -2.582  1.00  0.00     0.228 C 
ATOM      4  O   UNL     1      -3.214   0.632  -2.968  1.00  0.00    -0.275 OA
ATOM      5  H   UNL     1      -3.280  -1.269  -4.165  1.00  0.00     0.163 HD
BRANCH   3   6
ATOM      6  C   UNL     1      -1.433  -0.154  -1.546  1.00  0.00     0.133 C 
ATOM      7  C   UNL     1      -1.732   1.188  -0.826  1.00  0.00     0.024 C 
BRANCH   6   8
ATOM      8  C   UNL     1      -0.908  -1.179  -0.469  1.00  0.00     0.193 C 
ATOM      9  C   UNL     1       0.549  -1.540  -0.845  1.00  0.00     0.076 C 
BRANCH   8  10
ATOM     10  N   UNL     1      -1.798  -2.295  -0.128  1.00  0.00    -0.330 N 
ATOM     11  C   UNL     1      -1.219  -3.611   0.199  1.00  0.00     0.279 C 
ATOM     12  C   UNL     1      -2.963  -1.910   0.697  1.00  0.00     0.279 C 
ATOM     13  H   UNL     1      -2.157  -2.513  -1.057  1.00  0.00     0.348 HD
ATOM     14  C   UNL     1      -1.317  -4.111   1.651  1.00  0.00     0.163 C 
ATOM     15  C   UNL     1      -3.054  -2.453   2.131  1.00  0.00     0.163 C 
ATOM     16  N   UNL     1      -2.658  -3.868   2.201  1.00  0.00    -0.191 NA
BRANCH  16  17
ATOM     17  S   UNL     1      -3.758  -5.104   2.414  1.00  0.00     0.211 S 
ATOM     18  C   UNL     1      -4.238  -5.577   0.766  1.00  0.00     0.176 C 
ATOM     19  O   UNL     1      -3.047  -6.226   2.982  1.00  0.00    -0.212 OA
ATOM     20  O   UNL     1      -4.935  -4.559   3.062  1.00  0.00    -0.212 OA
ENDBRANCH  16  17
ENDBRANCH   8  10
ENDBRANCH   6   8
ENDBRANCH   3   6
ENDBRANCH   1   2
BRANCH   1  21
ATOM     21  C   UNL     1      -3.899  -3.394  -2.206  1.00  0.00     0.042 C 
BRANCH  21  22
ATOM     22  C   UNL     1      -5.039  -4.112  -2.912  1.00  0.00     0.118 C 
BRANCH  22  23
ATOM     23  N   UNL     1      -4.686  -5.448  -3.352  1.00  0.00    -0.352 N 
ATOM     24  C   UNL     1      -5.203  -6.693  -3.090  1.00  0.00     0.251 C 
ATOM     25  H   UNL     1      -3.916  -5.466  -3.965  1.00  0.00     0.163 HD
ATOM     26  O   UNL     1      -4.593  -7.657  -3.555  1.00  0.00    -0.269 OA
BRANCH  24  27
ATOM     27  C   UNL     1      -6.425  -6.950  -2.271  1.00  0.00     0.039 A 
ATOM     28  C   UNL     1      -6.561  -8.227  -1.701  1.00  0.00     0.014 A 
ATOM     29  C   UNL     1      -7.474  -6.045  -2.105  1.00  0.00     0.014 A 
ATOM     30  C   UNL     1      -7.711  -8.582  -0.985  1.00  0.00     0.010 A 
ATOM     31  C   UNL     1      -8.576  -6.362  -1.298  1.00  0.00     0.010 A 
ATOM     32  C   UNL     1      -8.731  -7.647  -0.762  1.00  0.00    -0.014 A 
BRANCH  32  33
ATOM     33  C   UNL     1      -9.982  -8.030  -0.044  1.00  0.00     0.031 A 
ATOM     34  C   UNL     1     -11.318  -7.968  -0.747  1.00  0.00     0.074 A 
ATOM     35  C   UNL     1      -9.933  -8.434   1.241  1.00  0.00     0.049 A 
ATOM     36  N   UNL     1     -12.511  -8.265  -0.290  1.00  0.00    -0.248 NA
ATOM     37  C   UNL     1     -11.318  -7.488  -2.138  1.00  0.00     0.031 C 
ATOM     38  C   UNL     1      -8.721  -8.513   2.059  1.00  0.00     0.029 A 
ATOM     39  N   UNL     1     -10.931  -8.858   2.086  1.00  0.00    -0.354 N 
ATOM     40  C   UNL     1     -13.395  -7.994  -1.329  1.00  0.00     0.074 A 
ATOM     41  C   UNL     1     -12.612  -7.447  -2.414  1.00  0.00     0.031 C 
ATOM     42  C   UNL     1      -9.041  -8.989   3.273  1.00  0.00     0.029 A 
ATOM     43  C   UNL     1     -10.482  -9.211   3.336  1.00  0.00     0.049 A 
ATOM     44  H   UNL     1     -11.878  -8.904   1.820  1.00  0.00     0.167 HD
ATOM     45  C   UNL     1     -14.733  -8.205  -1.394  1.00  0.00     0.031 A 
ATOM     46  C   UNL     1     -11.152  -9.659   4.416  1.00  0.00     0.031 A 
ATOM     47  C   UNL     1     -15.521  -8.751  -0.321  1.00  0.00     0.049 A 
ATOM     48  C   UNL     1     -12.639  -9.867   4.330  1.00  0.00     0.074 A 
ATOM     49  C   UNL     1     -16.876  -9.036  -0.303  1.00  0.00     0.029 A 
ATOM     50  N   UNL     1     -15.025  -9.093   0.928  1.00  0.00    -0.354 N 
ATOM     51  N   UNL     1     -13.448  -9.663   3.318  1.00  0.00    -0.248 NA
ATOM     52  C   UNL     1     -13.303 -10.390   5.534  1.00  0.00     0.031 C 
ATOM     53  C   UNL     1     -17.210  -9.496   0.975  1.00  0.00     0.029 A 
ATOM     54  C   UNL     1     -16.050  -9.567   1.730  1.00  0.00     0.049 A 
ATOM     55  H   UNL     1     -14.083  -9.011   1.203  1.00  0.00     0.167 HD
ATOM     56  C   UNL     1     -14.707 -10.061   3.752  1.00  0.00     0.074 A 
ATOM     57  C   UNL     1     -14.551 -10.537   5.110  1.00  0.00     0.031 C 
ATOM     58  C   UNL     1     -15.886 -10.037   3.082  1.00  0.00     0.031 A 
BRANCH  45  59
ATOM     59  C   UNL     1     -15.430  -7.831  -2.677  1.00  0.00    -0.014 A 
ATOM     60  C   UNL     1     -15.190  -8.534  -3.870  1.00  0.00     0.009 A 
ATOM     61  C   UNL     1     -16.355  -6.775  -2.691  1.00  0.00     0.009 A 
ATOM     62  C   UNL     1     -15.822  -8.156  -5.057  1.00  0.00     0.001 A 
ATOM     63  C   UNL     1     -17.013  -6.423  -3.871  1.00  0.00     0.001 A 
ATOM     64  C   UNL     1     -16.736  -7.104  -5.056  1.00  0.00     0.000 A 
ENDBRANCH  45  59
BRANCH  46  65
ATOM     65  C   UNL     1     -10.417  -9.957   5.676  1.00  0.00    -0.014 A 
ATOM     66  C   UNL     1     -10.280 -11.277   6.134  1.00  0.00     0.009 A 
ATOM     67  C   UNL     1      -9.852  -8.918   6.431  1.00  0.00     0.009 A 
ATOM     68  C   UNL     1      -9.620 -11.546   7.336  1.00  0.00     0.001 A 
ATOM     69  C   UNL     1      -9.162  -9.192   7.614  1.00  0.00     0.001 A 
ATOM     70  C   UNL     1      -9.056 -10.504   8.072  1.00  0.00     0.000 A 
ENDBRANCH  46  65
BRANCH  58  71
ATOM     71  C   UNL     1     -17.094 -10.587   3.792  1.00  0.00    -0.014 A 
ATOM     72  C   UNL     1     -17.669  -9.928   4.890  1.00  0.00     0.009 A 
ATOM     73  C   UNL     1     -17.682 -11.777   3.333  1.00  0.00     0.009 A 
ATOM     74  C   UNL     1     -18.777 -10.475   5.542  1.00  0.00     0.001 A 
ATOM     75  C   UNL     1     -18.811 -12.302   3.963  1.00  0.00     0.001 A 
ATOM     76  C   UNL     1     -19.350 -11.658   5.075  1.00  0.00     0.000 A 
ENDBRANCH  58  71
ENDBRANCH  32  33
ENDBRANCH  24  27
ENDBRANCH  22  23
ENDBRANCH  21  22
ENDBRANCH   1  21
TORSDOF 13
