REMARK SMILES Cc1nccn1CCC[NH+]1CCC2(CC1)[C@@H](C(=O)NCCCNC(=O)c1ccc(-c3c4nc(c(-c5ccccc5)c5ccc([nH]5)c(-c5ccccc5)c5nc(c(-c6ccccc6)c6ccc3[nH]6)C=C5)C=C4)cc1)CC(=O)N2C
REMARK SMILES IDX 20 1 19 2 17 3 18 4 16 6 10 7 11 8 15 9 12 11 14 12 13 13
REMARK SMILES IDX 77 14 74 15 75 16 78 17 76 18 9 19 8 20 7 21 6 22 1 23 2 24
REMARK SMILES IDX 3 25 4 26 5 27 21 28 22 29 23 30 24 31 25 33 26 34 27 35
REMARK SMILES IDX 73 36 28 37 72 38 29 39 30 40 31 41 66 42 32 43 71 44 65 45
REMARK SMILES IDX 67 46 33 47 70 48 64 49 63 50 34 52 56 53 41 54 55 55 42 56
REMARK SMILES IDX 45 57 54 58 68 59 43 60 44 61 53 63 69 64 46 65 35 66 36 67
REMARK SMILES IDX 40 68 37 69 39 70 38 71 57 72 58 73 62 74 59 75 61 76 60 77
REMARK SMILES IDX 47 78 48 79 52 80 49 81 51 82 50 83
REMARK H PARENT 19 5 10 10 23 32 67 51 45 62
REMARK Flexibility Score: inf
ROOT
ATOM      1  C   UNL     1       2.110  -2.705   4.734  1.00  0.00     0.117 C 
ENDROOT
BRANCH   1   2
ATOM      2  N   UNL     1       1.982  -2.875   3.297  1.00  0.00    -0.356 N 
ATOM      3  C   UNL     1       1.420  -3.891   2.602  1.00  0.00     0.226 C 
ATOM      4  O   UNL     1       1.935  -4.171   1.516  1.00  0.00    -0.275 OA
ATOM      5  H   UNL     1       2.358  -2.147   2.751  1.00  0.00     0.163 HD
BRANCH   3   6
ATOM      6  C   UNL     1       0.263  -4.734   3.119  1.00  0.00     0.114 C 
ATOM      7  N   UNL     1      -3.454  -2.489   3.078  1.00  0.00    -0.335 N 
ATOM      8  C   UNL     1      -3.556  -3.916   3.408  1.00  0.00     0.264 C 
ATOM      9  C   UNL     1      -2.384  -1.865   3.825  1.00  0.00     0.264 C 
ATOM     10  H   UNL     1      -4.265  -1.971   3.416  1.00  0.00     0.348 HD
ATOM     11  C   UNL     1      -2.257  -4.691   3.156  1.00  0.00     0.091 C 
ATOM     12  C   UNL     1      -1.022  -2.534   3.660  1.00  0.00     0.091 C 
ATOM     13  C   UNL     1      -0.984  -4.073   3.803  1.00  0.00     0.065 C 
ATOM     14  N   UNL     1      -0.835  -4.542   5.196  1.00  0.00    -0.339 N 
ATOM     15  C   UNL     1       0.765  -5.831   4.049  1.00  0.00     0.116 C 
ATOM     16  C   UNL     1       0.130  -5.521   5.363  1.00  0.00     0.223 C 
ATOM     17  C   UNL     1      -1.509  -3.978   6.347  1.00  0.00     0.147 C 
ATOM     18  O   UNL     1       0.454  -6.048   6.424  1.00  0.00    -0.275 OA
BRANCH   7  19
ATOM     19  C   UNL     1      -3.603  -2.229   1.644  1.00  0.00     0.264 C 
BRANCH  19  20
ATOM     20  C   UNL     1      -3.133  -0.923   0.974  1.00  0.00     0.083 C 
BRANCH  20  21
ATOM     21  C   UNL     1      -1.643  -0.568   0.844  1.00  0.00     0.129 C 
BRANCH  21  22
ATOM     22  N   UNL     1      -0.722  -1.416   0.110  1.00  0.00    -0.335 N 
ATOM     23  C   UNL     1       1.078   0.363  -0.190  1.00  0.00     0.087 C 
ATOM     24  C   UNL     1       0.524  -1.006  -0.342  1.00  0.00     0.105 A 
ATOM     25  N   UNL     1       1.166  -1.998  -0.922  1.00  0.00    -0.242 NA
ATOM     26  C   UNL     1       0.356  -3.085  -0.802  1.00  0.00     0.131 A 
ATOM     27  C   UNL     1      -0.816  -2.747  -0.172  1.00  0.00     0.107 A 
ENDBRANCH  21  22
ENDBRANCH  20  21
ENDBRANCH  19  20
ENDBRANCH   7  19
ENDBRANCH   3   6
ENDBRANCH   1   2
BRANCH   1  28
ATOM     28  C   UNL     1       3.407  -3.318   5.256  1.00  0.00     0.042 C 
BRANCH  28  29
ATOM     29  C   UNL     1       4.603  -2.466   4.889  1.00  0.00     0.118 C 
BRANCH  29  30
ATOM     30  N   UNL     1       4.639  -1.185   5.610  1.00  0.00    -0.352 N 
ATOM     31  C   UNL     1       5.619  -0.211   5.559  1.00  0.00     0.251 C 
ATOM     32  H   UNL     1       3.872  -0.997   6.199  1.00  0.00     0.163 HD
ATOM     33  O   UNL     1       5.705   0.659   6.423  1.00  0.00    -0.269 OA
BRANCH  31  34
ATOM     34  C   UNL     1       6.551  -0.234   4.424  1.00  0.00     0.039 A 
ATOM     35  C   UNL     1       7.921   0.006   4.551  1.00  0.00     0.014 A 
ATOM     36  C   UNL     1       6.000  -0.594   3.202  1.00  0.00     0.014 A 
ATOM     37  C   UNL     1       8.726  -0.174   3.428  1.00  0.00     0.010 A 
ATOM     38  C   UNL     1       6.814  -1.062   2.221  1.00  0.00     0.010 A 
ATOM     39  C   UNL     1       8.152  -0.716   2.268  1.00  0.00    -0.014 A 
BRANCH  39  40
ATOM     40  C   UNL     1       8.897  -0.966   1.052  1.00  0.00     0.031 A 
ATOM     41  C   UNL     1      10.053  -1.870   1.203  1.00  0.00     0.074 A 
ATOM     42  C   UNL     1       8.435  -0.582  -0.158  1.00  0.00     0.049 A 
ATOM     43  N   UNL     1      11.294  -1.528   1.162  1.00  0.00    -0.248 NA
ATOM     44  C   UNL     1       9.827  -3.273   1.577  1.00  0.00     0.031 C 
ATOM     45  C   UNL     1       7.157   0.061  -0.505  1.00  0.00     0.029 A 
ATOM     46  N   UNL     1       8.981  -0.816  -1.376  1.00  0.00    -0.354 N 
ATOM     47  C   UNL     1      12.021  -2.699   1.306  1.00  0.00     0.074 A 
ATOM     48  C   UNL     1      11.081  -3.707   1.734  1.00  0.00     0.031 C 
ATOM     49  C   UNL     1       6.928  -0.072  -1.831  1.00  0.00     0.029 A 
ATOM     50  C   UNL     1       8.114  -0.638  -2.445  1.00  0.00     0.049 A 
ATOM     51  H   UNL     1       9.919  -1.091  -1.493  1.00  0.00     0.167 HD
ATOM     52  C   UNL     1      13.293  -2.793   0.832  1.00  0.00     0.031 A 
ATOM     53  C   UNL     1       8.355  -0.963  -3.738  1.00  0.00     0.031 A 
ATOM     54  C   UNL     1      13.792  -1.510   0.400  1.00  0.00     0.049 A 
ATOM     55  C   UNL     1       9.829  -1.034  -3.896  1.00  0.00     0.074 A 
ATOM     56  C   UNL     1      14.014  -0.298   1.024  1.00  0.00     0.029 A 
ATOM     57  N   UNL     1      13.713  -1.237  -0.948  1.00  0.00    -0.354 N 
ATOM     58  N   UNL     1      10.599   0.013  -3.789  1.00  0.00    -0.248 NA
ATOM     59  C   UNL     1      10.488  -2.312  -3.663  1.00  0.00     0.031 C 
ATOM     60  C   UNL     1      13.565   0.679   0.086  1.00  0.00     0.029 A 
ATOM     61  C   UNL     1      13.180   0.020  -1.084  1.00  0.00     0.049 A 
ATOM     62  H   UNL     1      13.987  -1.835  -1.680  1.00  0.00     0.167 HD
ATOM     63  C   UNL     1      11.679  -0.420  -3.031  1.00  0.00     0.074 A 
ATOM     64  C   UNL     1      11.613  -1.882  -3.080  1.00  0.00     0.031 C 
ATOM     65  C   UNL     1      12.339   0.431  -2.188  1.00  0.00     0.031 A 
BRANCH  52  66
ATOM     66  C   UNL     1      13.938  -4.069   0.380  1.00  0.00    -0.014 A 
ATOM     67  C   UNL     1      15.307  -4.050   0.060  1.00  0.00     0.009 A 
ATOM     68  C   UNL     1      13.204  -5.203  -0.011  1.00  0.00     0.009 A 
ATOM     69  C   UNL     1      15.893  -5.082  -0.679  1.00  0.00     0.001 A 
ATOM     70  C   UNL     1      13.795  -6.253  -0.716  1.00  0.00     0.001 A 
ATOM     71  C   UNL     1      15.133  -6.179  -1.075  1.00  0.00     0.000 A 
ENDBRANCH  52  66
BRANCH  53  72
ATOM     72  C   UNL     1       7.401  -1.458  -4.752  1.00  0.00    -0.014 A 
ATOM     73  C   UNL     1       7.732  -1.474  -6.116  1.00  0.00     0.009 A 
ATOM     74  C   UNL     1       6.251  -2.166  -4.353  1.00  0.00     0.009 A 
ATOM     75  C   UNL     1       6.966  -2.207  -7.035  1.00  0.00     0.001 A 
ATOM     76  C   UNL     1       5.486  -2.896  -5.269  1.00  0.00     0.001 A 
ATOM     77  C   UNL     1       5.854  -2.930  -6.609  1.00  0.00     0.000 A 
ENDBRANCH  53  72
BRANCH  65  78
ATOM     78  C   UNL     1      11.970   1.898  -2.237  1.00  0.00    -0.014 A 
ATOM     79  C   UNL     1      10.681   2.375  -1.937  1.00  0.00     0.009 A 
ATOM     80  C   UNL     1      12.991   2.838  -2.430  1.00  0.00     0.009 A 
ATOM     81  C   UNL     1      10.416   3.747  -1.865  1.00  0.00     0.001 A 
ATOM     82  C   UNL     1      12.732   4.208  -2.339  1.00  0.00     0.001 A 
ATOM     83  C   UNL     1      11.445   4.663  -2.063  1.00  0.00     0.000 A 
ENDBRANCH  65  78
ENDBRANCH  39  40
ENDBRANCH  31  34
ENDBRANCH  29  30
ENDBRANCH  28  29
ENDBRANCH   1  28
TORSDOF 14
