REMARK SMILES Nc1nc(N2CCCCC2)nc2c1[C@H](C(=O)NCCCNC(=O)c1ccc(-c3c4nc(c(-c5ccccc5)c5ccc([nH]5)c(-c5ccccc5)c5nc(c(-c6ccccc6)c6ccc3[nH]6)C=C5)C=C4)cc1)CC(=O)N2
REMARK SMILES IDX 19 1 18 2 17 3 15 4 16 5 14 7 2 8 3 9 13 10 4 11 12 12 11 13
REMARK SMILES IDX 75 14 72 15 73 16 74 18 1 19 5 22 6 23 10 24 7 25 9 26 8 27
REMARK SMILES IDX 20 28 21 29 22 30 23 32 24 33 25 34 71 35 26 36 70 37 27 38
REMARK SMILES IDX 28 39 29 40 64 41 30 42 69 43 63 44 65 45 31 46 68 47 62 48
REMARK SMILES IDX 61 49 32 51 54 52 39 53 53 54 40 55 43 56 52 57 66 58 41 59
REMARK SMILES IDX 42 60 51 62 67 63 44 64 33 65 34 66 38 67 35 68 37 69 36 70
REMARK SMILES IDX 55 71 56 72 60 73 57 74 59 75 58 76 45 77 46 78 50 79 47 80
REMARK SMILES IDX 49 81 48 82
REMARK H PARENT 17 6 75 17 1 20 1 21 21 31 65 50 43 61
REMARK Flexibility Score: inf
ROOT
ATOM      1  C   UNL     1      -4.975   2.199  -2.063  1.00  0.00     0.042 C 
ENDROOT
BRANCH   1   2
ATOM      2  C   UNL     1      -3.668   2.849  -1.622  1.00  0.00     0.117 C 
BRANCH   2   3
ATOM      3  N   UNL     1      -2.969   2.042  -0.638  1.00  0.00    -0.355 N 
ATOM      4  C   UNL     1      -1.888   1.234  -0.630  1.00  0.00     0.228 C 
ATOM      5  O   UNL     1      -1.634   0.760   0.489  1.00  0.00    -0.274 OA
ATOM      6  H   UNL     1      -3.392   2.098   0.249  1.00  0.00     0.163 HD
BRANCH   4   7
ATOM      7  C   UNL     1      -0.933   0.945  -1.803  1.00  0.00     0.125 C 
ATOM      8  C   UNL     1       0.482  -0.976  -0.869  1.00  0.00     0.135 A 
ATOM      9  N   UNL     1       0.912  -2.241  -0.902  1.00  0.00    -0.196 NA
ATOM     10  C   UNL     1      -0.458  -0.494  -1.751  1.00  0.00     0.050 A 
ATOM     11  C   UNL     1       0.383  -3.067  -1.815  1.00  0.00     0.229 A 
ATOM     12  C   UNL     1      -1.002  -1.445  -2.589  1.00  0.00     0.144 A 
ATOM     13  N   UNL     1      -0.610  -2.720  -2.642  1.00  0.00    -0.195 NA
ATOM     14  N   UNL     1      -2.025  -1.075  -3.458  1.00  0.00    -0.310 N 
ATOM     15  C   UNL     1      -1.337   1.232  -3.239  1.00  0.00     0.119 C 
ATOM     16  C   UNL     1      -2.342   0.225  -3.737  1.00  0.00     0.226 C 
ATOM     17  H   UNL     1      -2.547  -1.787  -3.894  1.00  0.00     0.171 HD
ATOM     18  O   UNL     1      -3.302   0.535  -4.427  1.00  0.00    -0.275 OA
BRANCH   8  19
ATOM     19  N   UNL     1       1.069  -0.163   0.088  1.00  0.00    -0.383 N 
ATOM     20  H   UNL     1       1.739  -0.534   0.706  1.00  0.00     0.158 HD
ATOM     21  H   UNL     1       0.815   0.787   0.150  1.00  0.00     0.158 HD
ENDBRANCH   8  19
BRANCH  11  22
ATOM     22  N   UNL     1       0.990  -4.292  -1.963  1.00  0.00    -0.341 N 
ATOM     23  C   UNL     1       0.577  -5.326  -1.033  1.00  0.00     0.119 C 
ATOM     24  C   UNL     1       1.319  -4.699  -3.316  1.00  0.00     0.119 C 
ATOM     25  C   UNL     1       1.681  -6.382  -0.941  1.00  0.00     0.022 C 
ATOM     26  C   UNL     1       2.472  -5.700  -3.243  1.00  0.00     0.022 C 
ATOM     27  C   UNL     1       2.128  -6.870  -2.321  1.00  0.00     0.004 C 
ENDBRANCH  11  22
ENDBRANCH   4   7
ENDBRANCH   2   3
ENDBRANCH   1   2
BRANCH   1  28
ATOM     28  C   UNL     1      -6.061   2.228  -0.990  1.00  0.00     0.118 C 
BRANCH  28  29
ATOM     29  N   UNL     1      -6.518   3.580  -0.700  1.00  0.00    -0.352 N 
ATOM     30  C   UNL     1      -7.724   4.186  -0.942  1.00  0.00     0.251 C 
ATOM     31  H   UNL     1      -5.851   4.154  -0.257  1.00  0.00     0.163 HD
ATOM     32  O   UNL     1      -7.819   5.405  -0.823  1.00  0.00    -0.269 OA
BRANCH  30  33
ATOM     33  C   UNL     1      -8.911   3.398  -1.339  1.00  0.00     0.039 A 
ATOM     34  C   UNL     1      -9.784   3.932  -2.293  1.00  0.00     0.014 A 
ATOM     35  C   UNL     1      -9.211   2.179  -0.727  1.00  0.00     0.014 A 
ATOM     36  C   UNL     1     -10.931   3.224  -2.664  1.00  0.00     0.010 A 
ATOM     37  C   UNL     1     -10.317   1.442  -1.145  1.00  0.00     0.010 A 
ATOM     38  C   UNL     1     -11.195   1.964  -2.107  1.00  0.00    -0.014 A 
BRANCH  38  39
ATOM     39  C   UNL     1     -12.403   1.188  -2.481  1.00  0.00     0.031 A 
ATOM     40  C   UNL     1     -13.472   0.927  -1.456  1.00  0.00     0.074 A 
ATOM     41  C   UNL     1     -12.521   0.677  -3.721  1.00  0.00     0.049 A 
ATOM     42  N   UNL     1     -14.541   0.177  -1.548  1.00  0.00    -0.248 NA
ATOM     43  C   UNL     1     -13.308   1.582  -0.148  1.00  0.00     0.031 C 
ATOM     44  C   UNL     1     -11.557   0.855  -4.809  1.00  0.00     0.029 A 
ATOM     45  N   UNL     1     -13.507  -0.102  -4.273  1.00  0.00    -0.354 N 
ATOM     46  C   UNL     1     -15.161   0.251  -0.307  1.00  0.00     0.074 A 
ATOM     47  C   UNL     1     -14.333   1.090   0.532  1.00  0.00     0.031 C 
ATOM     48  C   UNL     1     -12.015   0.229  -5.906  1.00  0.00     0.029 A 
ATOM     49  C   UNL     1     -13.277  -0.430  -5.587  1.00  0.00     0.049 A 
ATOM     50  H   UNL     1     -14.302  -0.398  -3.774  1.00  0.00     0.167 HD
ATOM     51  C   UNL     1     -16.324  -0.314   0.095  1.00  0.00     0.031 A 
ATOM     52  C   UNL     1     -14.000  -1.183  -6.436  1.00  0.00     0.031 A 
ATOM     53  C   UNL     1     -17.159  -1.134  -0.740  1.00  0.00     0.049 A 
ATOM     54  C   UNL     1     -15.275  -1.818  -5.960  1.00  0.00     0.074 A 
ATOM     55  C   UNL     1     -18.362  -1.742  -0.425  1.00  0.00     0.029 A 
ATOM     56  N   UNL     1     -16.885  -1.447  -2.061  1.00  0.00    -0.354 N 
ATOM     57  N   UNL     1     -15.842  -1.746  -4.781  1.00  0.00    -0.248 NA
ATOM     58  C   UNL     1     -16.009  -2.638  -6.934  1.00  0.00     0.031 C 
ATOM     59  C   UNL     1     -18.802  -2.447  -1.550  1.00  0.00     0.029 A 
ATOM     60  C   UNL     1     -17.894  -2.242  -2.576  1.00  0.00     0.049 A 
ATOM     61  H   UNL     1     -16.090  -1.149  -2.560  1.00  0.00     0.167 HD
ATOM     62  C   UNL     1     -17.009  -2.492  -4.877  1.00  0.00     0.074 A 
ATOM     63  C   UNL     1     -17.075  -2.998  -6.233  1.00  0.00     0.031 C 
ATOM     64  C   UNL     1     -17.944  -2.736  -3.926  1.00  0.00     0.031 A 
BRANCH  51  65
ATOM     65  C   UNL     1     -16.760  -0.060   1.509  1.00  0.00    -0.014 A 
ATOM     66  C   UNL     1     -17.265   1.191   1.895  1.00  0.00     0.009 A 
ATOM     67  C   UNL     1     -16.699  -1.093   2.458  1.00  0.00     0.009 A 
ATOM     68  C   UNL     1     -17.673   1.413   3.212  1.00  0.00     0.001 A 
ATOM     69  C   UNL     1     -17.131  -0.875   3.768  1.00  0.00     0.001 A 
ATOM     70  C   UNL     1     -17.610   0.379   4.145  1.00  0.00     0.000 A 
ENDBRANCH  51  65
BRANCH  52  71
ATOM     71  C   UNL     1     -13.546  -1.359  -7.839  1.00  0.00    -0.014 A 
ATOM     72  C   UNL     1     -14.210  -0.694  -8.881  1.00  0.00     0.009 A 
ATOM     73  C   UNL     1     -12.451  -2.181  -8.143  1.00  0.00     0.009 A 
ATOM     74  C   UNL     1     -13.796  -0.863 -10.204  1.00  0.00     0.001 A 
ATOM     75  C   UNL     1     -12.025  -2.329  -9.465  1.00  0.00     0.001 A 
ATOM     76  C   UNL     1     -12.702  -1.676 -10.494  1.00  0.00     0.000 A 
ENDBRANCH  52  71
BRANCH  64  77
ATOM     77  C   UNL     1     -19.132  -3.559  -4.327  1.00  0.00    -0.014 A 
ATOM     78  C   UNL     1     -19.033  -4.949  -4.480  1.00  0.00     0.009 A 
ATOM     79  C   UNL     1     -20.378  -2.938  -4.506  1.00  0.00     0.009 A 
ATOM     80  C   UNL     1     -20.156  -5.701  -4.830  1.00  0.00     0.001 A 
ATOM     81  C   UNL     1     -21.504  -3.694  -4.834  1.00  0.00     0.001 A 
ATOM     82  C   UNL     1     -21.390  -5.074  -5.002  1.00  0.00     0.000 A 
ENDBRANCH  64  77
ENDBRANCH  38  39
ENDBRANCH  30  33
ENDBRANCH  28  29
ENDBRANCH   1  28
TORSDOF 12
