REMARK SMILES O=C(NCCCNC(=O)c1cc(-c2ccccn2)nc2ccc(F)cc12)c1ccc(-c2c3nc(c(-c4ccccc4)c4ccc([nH]4)c(-c4ccccc4)c4nc(c(-c5ccccc5)c5ccc2[nH]5)C=C4)C=C3)cc1
REMARK SMILES IDX 4 1 3 2 1 3 2 4 27 6 28 7 74 8 29 9 73 10 30 11 31 12 32 13
REMARK SMILES IDX 67 14 33 15 72 16 66 17 68 18 34 19 71 20 65 21 64 22 35 24
REMARK SMILES IDX 57 25 42 26 56 27 43 28 46 29 55 30 69 31 44 32 45 33 54 35
REMARK SMILES IDX 70 36 47 37 36 38 37 39 41 40 38 41 40 42 39 43 58 44 59 45
REMARK SMILES IDX 63 46 60 47 62 48 61 49 48 50 49 51 53 52 50 53 52 54 51 55
REMARK SMILES IDX 5 56 6 57 7 58 8 59 9 61 10 62 11 63 26 64 12 65 20 66 25 67
REMARK SMILES IDX 19 68 21 69 23 70 22 71 24 72 13 73 14 74 18 75 15 76 17 77
REMARK SMILES IDX 16 78
REMARK H PARENT 3 5 68 23 46 34 7 60
REMARK Flexibility Score: inf
ROOT
ATOM      1  C   UNL     1       4.573  -1.238   0.540  1.00  0.00     0.118 C 
ENDROOT
BRANCH   1   2
ATOM      2  N   UNL     1       3.131  -1.119   0.388  1.00  0.00    -0.352 N 
ATOM      3  O   UNL     1       1.133  -0.137   0.136  1.00  0.00    -0.269 OA
ATOM      4  C   UNL     1       2.351  -0.065  -0.011  1.00  0.00     0.251 C 
ATOM      5  H   UNL     1       2.629  -1.937   0.610  1.00  0.00     0.163 HD
BRANCH   4   6
ATOM      6  C   UNL     1       2.939   1.151  -0.621  1.00  0.00     0.039 A 
ATOM      7  C   UNL     1       2.331   2.387  -0.368  1.00  0.00     0.014 A 
ATOM      8  C   UNL     1       4.004   1.078  -1.521  1.00  0.00     0.014 A 
ATOM      9  C   UNL     1       2.798   3.544  -1.001  1.00  0.00     0.010 A 
ATOM     10  C   UNL     1       4.518   2.239  -2.093  1.00  0.00     0.010 A 
ATOM     11  C   UNL     1       3.898   3.478  -1.867  1.00  0.00    -0.014 A 
BRANCH  11  12
ATOM     12  C   UNL     1       4.354   4.654  -2.648  1.00  0.00     0.031 A 
ATOM     13  C   UNL     1       4.219   4.628  -4.148  1.00  0.00     0.074 A 
ATOM     14  C   UNL     1       4.934   5.706  -2.041  1.00  0.00     0.049 A 
ATOM     15  N   UNL     1       4.715   5.449  -5.037  1.00  0.00    -0.248 NA
ATOM     16  C   UNL     1       3.443   3.516  -4.725  1.00  0.00     0.031 C 
ATOM     17  C   UNL     1       5.111   5.862  -0.597  1.00  0.00     0.029 A 
ATOM     18  N   UNL     1       5.498   6.840  -2.572  1.00  0.00    -0.354 N 
ATOM     19  C   UNL     1       4.345   4.932  -6.272  1.00  0.00     0.074 A 
ATOM     20  C   UNL     1       3.607   3.715  -6.025  1.00  0.00     0.031 C 
ATOM     21  C   UNL     1       5.736   7.027  -0.357  1.00  0.00     0.029 A 
ATOM     22  C   UNL     1       6.047   7.675  -1.629  1.00  0.00     0.049 A 
ATOM     23  H   UNL     1       5.508   7.035  -3.537  1.00  0.00     0.167 HD
ATOM     24  C   UNL     1       4.587   5.436  -7.503  1.00  0.00     0.031 A 
ATOM     25  C   UNL     1       6.744   8.820  -1.774  1.00  0.00     0.031 A 
ATOM     26  C   UNL     1       5.277   6.671  -7.747  1.00  0.00     0.049 A 
ATOM     27  C   UNL     1       7.011   9.355  -3.155  1.00  0.00     0.074 A 
ATOM     28  C   UNL     1       5.535   7.282  -8.961  1.00  0.00     0.029 A 
ATOM     29  N   UNL     1       5.798   7.491  -6.761  1.00  0.00    -0.354 N 
ATOM     30  N   UNL     1       6.653   8.856  -4.313  1.00  0.00    -0.248 NA
ATOM     31  C   UNL     1       7.776  10.608  -3.252  1.00  0.00     0.031 C 
ATOM     32  C   UNL     1       6.246   8.457  -8.712  1.00  0.00     0.029 A 
ATOM     33  C   UNL     1       6.387   8.599  -7.341  1.00  0.00     0.049 A 
ATOM     34  H   UNL     1       5.757   7.312  -5.794  1.00  0.00     0.167 HD
ATOM     35  C   UNL     1       7.127   9.743  -5.272  1.00  0.00     0.074 A 
ATOM     36  C   UNL     1       7.792  10.815  -4.563  1.00  0.00     0.031 C 
ATOM     37  C   UNL     1       7.022   9.669  -6.620  1.00  0.00     0.031 A 
BRANCH  24  38
ATOM     38  C   UNL     1       4.096   4.665  -8.694  1.00  0.00    -0.014 A 
ATOM     39  C   UNL     1       5.018   4.031  -9.540  1.00  0.00     0.009 A 
ATOM     40  C   UNL     1       2.735   4.652  -9.034  1.00  0.00     0.009 A 
ATOM     41  C   UNL     1       4.590   3.410 -10.714  1.00  0.00     0.001 A 
ATOM     42  C   UNL     1       2.306   4.008 -10.196  1.00  0.00     0.001 A 
ATOM     43  C   UNL     1       3.234   3.397 -11.040  1.00  0.00     0.000 A 
ENDBRANCH  24  38
BRANCH  25  44
ATOM     44  C   UNL     1       7.245   9.534  -0.571  1.00  0.00    -0.014 A 
ATOM     45  C   UNL     1       8.292   8.998   0.196  1.00  0.00     0.009 A 
ATOM     46  C   UNL     1       6.665  10.747  -0.170  1.00  0.00     0.009 A 
ATOM     47  C   UNL     1       8.738   9.653   1.345  1.00  0.00     0.001 A 
ATOM     48  C   UNL     1       7.132  11.414   0.966  1.00  0.00     0.001 A 
ATOM     49  C   UNL     1       8.162  10.864   1.726  1.00  0.00     0.000 A 
ENDBRANCH  25  44
BRANCH  37  50
ATOM     50  C   UNL     1       7.601  10.783  -7.442  1.00  0.00    -0.014 A 
ATOM     51  C   UNL     1       6.740  11.680  -8.094  1.00  0.00     0.009 A 
ATOM     52  C   UNL     1       8.978  10.847  -7.697  1.00  0.00     0.009 A 
ATOM     53  C   UNL     1       7.245  12.606  -9.007  1.00  0.00     0.001 A 
ATOM     54  C   UNL     1       9.482  11.789  -8.595  1.00  0.00     0.001 A 
ATOM     55  C   UNL     1       8.615  12.658  -9.258  1.00  0.00     0.000 A 
ENDBRANCH  37  50
ENDBRANCH  11  12
ENDBRANCH   4   6
ENDBRANCH   1   2
BRANCH   1  56
ATOM     56  C   UNL     1       4.997  -1.421   1.991  1.00  0.00     0.042 C 
BRANCH  56  57
ATOM     57  C   UNL     1       4.440  -2.668   2.662  1.00  0.00     0.118 C 
BRANCH  57  58
ATOM     58  N   UNL     1       4.865  -3.903   2.011  1.00  0.00    -0.352 N 
ATOM     59  C   UNL     1       5.611  -4.949   2.495  1.00  0.00     0.252 C 
ATOM     60  H   UNL     1       4.569  -4.002   1.077  1.00  0.00     0.163 HD
ATOM     61  O   UNL     1       5.923  -5.873   1.746  1.00  0.00    -0.269 OA
BRANCH  59  62
ATOM     62  C   UNL     1       6.014  -4.977   3.916  1.00  0.00     0.051 A 
ATOM     63  C   UNL     1       5.007  -4.818   4.864  1.00  0.00     0.045 A 
ATOM     64  C   UNL     1       7.356  -5.164   4.312  1.00  0.00     0.016 A 
ATOM     65  C   UNL     1       5.360  -4.706   6.196  1.00  0.00     0.090 A 
ATOM     66  C   UNL     1       7.605  -5.099   5.700  1.00  0.00     0.072 A 
ATOM     67  C   UNL     1       8.439  -5.400   3.429  1.00  0.00     0.050 A 
ATOM     68  N   UNL     1       6.644  -4.855   6.606  1.00  0.00    -0.246 NA
ATOM     69  C   UNL     1       8.906  -5.280   6.156  1.00  0.00     0.032 A 
ATOM     70  C   UNL     1       9.723  -5.586   3.924  1.00  0.00     0.123 A 
ATOM     71  C   UNL     1       9.968  -5.529   5.284  1.00  0.00     0.041 A 
ATOM     72  F   UNL     1      10.733  -5.823   3.077  1.00  0.00    -0.207 F 
BRANCH  65  73
ATOM     73  C   UNL     1       4.352  -4.324   7.199  1.00  0.00     0.089 A 
ATOM     74  C   UNL     1       3.154  -5.025   7.340  1.00  0.00     0.030 A 
ATOM     75  N   UNL     1       4.591  -3.170   7.877  1.00  0.00    -0.255 NA
ATOM     76  C   UNL     1       2.173  -4.530   8.195  1.00  0.00     0.004 A 
ATOM     77  C   UNL     1       3.628  -2.720   8.710  1.00  0.00     0.112 A 
ATOM     78  C   UNL     1       2.412  -3.353   8.894  1.00  0.00     0.020 A 
ENDBRANCH  65  73
ENDBRANCH  59  62
ENDBRANCH  57  58
ENDBRANCH  56  57
ENDBRANCH   1  56
TORSDOF 11
