REMARK SMILES O=C(NCCCNC(=O)[C@@H]1CCCC[C@@H]1C(=O)Nc1cccc(C(F)(F)F)c1)c1ccc(-c2c3nc(c(-c4ccccc4)c4ccc([nH]4)c(-c4ccccc4)c4nc(c(-c5ccccc5)c5ccc2[nH]5)C=C4)C=C3)cc1
REMARK SMILES IDX 5 1 4 2 3 3 1 4 2 5 29 7 30 8 76 9 31 10 75 11 32 12 33 13
REMARK SMILES IDX 34 14 69 15 35 16 74 17 68 18 70 19 36 20 73 21 67 22 66 23
REMARK SMILES IDX 37 25 59 26 44 27 58 28 45 29 48 30 57 31 71 32 46 33 47 34
REMARK SMILES IDX 56 36 72 37 49 38 38 39 39 40 43 41 40 42 42 43 41 44 60 45
REMARK SMILES IDX 61 46 65 47 62 48 64 49 63 50 50 51 51 52 55 53 52 54 54 55
REMARK SMILES IDX 53 56 6 57 7 58 8 59 9 61 10 62 11 63 15 64 12 65 14 66
REMARK SMILES IDX 13 67 16 68 17 69 18 70 19 72 20 73 28 74 21 75 23 76 22 77
REMARK SMILES IDX 24 78 25 79 26 80 27 81
REMARK H PARENT 3 6 70 24 48 35 7 60 18 71
REMARK Flexibility Score: inf
ROOT
ATOM      1  C   UNL     1       6.368  -1.506  -1.749  1.00  0.00     0.042 C 
ENDROOT
BRANCH   1   2
ATOM      2  C   UNL     1       5.156  -0.816  -2.384  1.00  0.00     0.118 C 
BRANCH   2   3
ATOM      3  N   UNL     1       3.892  -0.881  -1.673  1.00  0.00    -0.352 N 
ATOM      4  O   UNL     1       1.942  -0.216  -0.845  1.00  0.00    -0.269 OA
ATOM      5  C   UNL     1       3.147   0.023  -0.944  1.00  0.00     0.251 C 
ATOM      6  H   UNL     1       3.471  -1.770  -1.721  1.00  0.00     0.163 HD
BRANCH   5   7
ATOM      7  C   UNL     1       3.693   1.186  -0.172  1.00  0.00     0.039 A 
ATOM      8  C   UNL     1       4.912   1.813  -0.402  1.00  0.00     0.014 A 
ATOM      9  C   UNL     1       2.926   1.634   0.928  1.00  0.00     0.014 A 
ATOM     10  C   UNL     1       5.398   2.776   0.496  1.00  0.00     0.010 A 
ATOM     11  C   UNL     1       3.395   2.626   1.808  1.00  0.00     0.010 A 
ATOM     12  C   UNL     1       4.659   3.186   1.620  1.00  0.00    -0.014 A 
BRANCH  12  13
ATOM     13  C   UNL     1       5.233   4.236   2.509  1.00  0.00     0.031 A 
ATOM     14  C   UNL     1       5.712   3.936   3.905  1.00  0.00     0.074 A 
ATOM     15  C   UNL     1       5.426   5.472   2.006  1.00  0.00     0.049 A 
ATOM     16  N   UNL     1       6.474   4.666   4.686  1.00  0.00    -0.248 NA
ATOM     17  C   UNL     1       5.279   2.669   4.509  1.00  0.00     0.031 C 
ATOM     18  C   UNL     1       4.976   5.917   0.687  1.00  0.00     0.029 A 
ATOM     19  N   UNL     1       6.099   6.556   2.515  1.00  0.00    -0.354 N 
ATOM     20  C   UNL     1       6.615   3.948   5.869  1.00  0.00     0.074 A 
ATOM     21  C   UNL     1       5.830   2.740   5.715  1.00  0.00     0.031 C 
ATOM     22  C   UNL     1       5.463   7.144   0.451  1.00  0.00     0.029 A 
ATOM     23  C   UNL     1       6.227   7.586   1.615  1.00  0.00     0.049 A 
ATOM     24  H   UNL     1       6.455   6.590   3.432  1.00  0.00     0.167 HD
ATOM     25  C   UNL     1       7.335   4.260   6.976  1.00  0.00     0.031 A 
ATOM     26  C   UNL     1       6.905   8.747   1.693  1.00  0.00     0.031 A 
ATOM     27  C   UNL     1       8.110   5.466   7.142  1.00  0.00     0.049 A 
ATOM     28  C   UNL     1       7.702   9.065   2.924  1.00  0.00     0.074 A 
ATOM     29  C   UNL     1       8.917   5.832   8.208  1.00  0.00     0.029 A 
ATOM     30  N   UNL     1       8.162   6.508   6.231  1.00  0.00    -0.354 N 
ATOM     31  N   UNL     1       7.905   8.331   3.990  1.00  0.00    -0.248 NA
ATOM     32  C   UNL     1       8.376  10.371   2.953  1.00  0.00     0.031 C 
ATOM     33  C   UNL     1       9.410   7.120   7.967  1.00  0.00     0.029 A 
ATOM     34  C   UNL     1       8.960   7.530   6.724  1.00  0.00     0.049 A 
ATOM     35  H   UNL     1       7.701   6.522   5.361  1.00  0.00     0.167 HD
ATOM     36  C   UNL     1       8.745   9.077   4.808  1.00  0.00     0.074 A 
ATOM     37  C   UNL     1       9.031  10.310   4.104  1.00  0.00     0.031 C 
ATOM     38  C   UNL     1       9.235   8.763   6.032  1.00  0.00     0.031 A 
BRANCH  25  39
ATOM     39  C   UNL     1       7.312   3.286   8.124  1.00  0.00    -0.014 A 
ATOM     40  C   UNL     1       7.983   2.055   8.052  1.00  0.00     0.009 A 
ATOM     41  C   UNL     1       6.674   3.639   9.325  1.00  0.00     0.009 A 
ATOM     42  C   UNL     1       7.991   1.187   9.147  1.00  0.00     0.001 A 
ATOM     43  C   UNL     1       6.705   2.781  10.426  1.00  0.00     0.001 A 
ATOM     44  C   UNL     1       7.356   1.552  10.334  1.00  0.00     0.000 A 
ENDBRANCH  25  39
BRANCH  26  45
ATOM     45  C   UNL     1       6.889   9.684   0.540  1.00  0.00    -0.014 A 
ATOM     46  C   UNL     1       8.042   9.884  -0.235  1.00  0.00     0.009 A 
ATOM     47  C   UNL     1       5.715  10.374   0.203  1.00  0.00     0.009 A 
ATOM     48  C   UNL     1       8.022  10.769  -1.314  1.00  0.00     0.001 A 
ATOM     49  C   UNL     1       5.690  11.235  -0.895  1.00  0.00     0.001 A 
ATOM     50  C   UNL     1       6.845  11.437  -1.648  1.00  0.00     0.000 A 
ENDBRANCH  26  45
BRANCH  38  51
ATOM     51  C   UNL     1      10.155   9.761   6.678  1.00  0.00    -0.014 A 
ATOM     52  C   UNL     1       9.677  10.987   7.170  1.00  0.00     0.009 A 
ATOM     53  C   UNL     1      11.522   9.467   6.806  1.00  0.00     0.009 A 
ATOM     54  C   UNL     1      10.556  11.914   7.735  1.00  0.00     0.001 A 
ATOM     55  C   UNL     1      12.393  10.384   7.397  1.00  0.00     0.001 A 
ATOM     56  C   UNL     1      11.912  11.611   7.850  1.00  0.00     0.000 A 
ENDBRANCH  38  51
ENDBRANCH  12  13
ENDBRANCH   5   7
ENDBRANCH   2   3
ENDBRANCH   1   2
BRANCH   1  57
ATOM     57  C   UNL     1       6.461  -3.042  -1.715  1.00  0.00     0.117 C 
BRANCH  57  58
ATOM     58  N   UNL     1       5.690  -3.758  -2.704  1.00  0.00    -0.356 N 
ATOM     59  C   UNL     1       5.503  -5.106  -2.828  1.00  0.00     0.223 C 
ATOM     60  H   UNL     1       5.238  -3.201  -3.378  1.00  0.00     0.163 HD
ATOM     61  O   UNL     1       5.091  -5.501  -3.918  1.00  0.00    -0.275 OA
BRANCH  59  62
ATOM     62  C   UNL     1       5.818  -6.057  -1.660  1.00  0.00     0.091 C 
ATOM     63  C   UNL     1       6.013  -7.483  -2.216  1.00  0.00     0.014 C 
ATOM     64  C   UNL     1       4.783  -5.976  -0.508  1.00  0.00     0.091 C 
ATOM     65  C   UNL     1       6.189  -8.529  -1.126  1.00  0.00     0.001 C 
ATOM     66  C   UNL     1       4.803  -7.178   0.461  1.00  0.00     0.014 C 
ATOM     67  C   UNL     1       4.976  -8.535  -0.212  1.00  0.00     0.001 C 
BRANCH  64  68
ATOM     68  C   UNL     1       3.352  -5.760  -0.988  1.00  0.00     0.228 C 
ATOM     69  O   UNL     1       2.886  -6.478  -1.879  1.00  0.00    -0.274 OA
ATOM     70  N   UNL     1       2.478  -4.910  -0.375  1.00  0.00    -0.326 N 
ATOM     71  H   UNL     1       1.552  -5.062  -0.674  1.00  0.00     0.169 HD
BRANCH  70  72
ATOM     72  C   UNL     1       2.554  -3.873   0.574  1.00  0.00     0.041 A 
ATOM     73  C   UNL     1       1.346  -3.471   1.156  1.00  0.00     0.026 A 
ATOM     74  C   UNL     1       3.702  -3.169   0.927  1.00  0.00     0.039 A 
ATOM     75  C   UNL     1       1.297  -2.423   2.081  1.00  0.00     0.003 A 
ATOM     76  C   UNL     1       3.680  -2.115   1.863  1.00  0.00     0.058 A 
ATOM     77  C   UNL     1       2.461  -1.748   2.436  1.00  0.00     0.013 A 
BRANCH  76  78
ATOM     78  C   UNL     1       4.954  -1.380   2.197  1.00  0.00     0.416 C 
ATOM     79  F   UNL     1       4.832  -0.509   3.237  1.00  0.00    -0.166 F 
ATOM     80  F   UNL     1       5.971  -2.224   2.530  1.00  0.00    -0.166 F 
ATOM     81  F   UNL     1       5.430  -0.647   1.157  1.00  0.00    -0.166 F 
ENDBRANCH  76  78
ENDBRANCH  70  72
ENDBRANCH  64  68
ENDBRANCH  59  62
ENDBRANCH  57  58
ENDBRANCH   1  57
TORSDOF 13
