REMARK SMILES Cn1c(=O)c2c(nc(Nc3cccc(Cl)c3Cl)n2CC(=O)NCCCNC(=O)c2ccc(-c3c4nc(c(-c5ccccc5)c5ccc([nH]5)c(-c5ccccc5)c5nc(c(-c6ccccc6)c6ccc3[nH]6)C=C5)C=C4)cc2)n(C)c1=O
REMARK SMILES IDX 23 1 22 2 20 3 21 4 19 6 18 7 1 8 2 9 3 10 79 11 4 12 5 13
REMARK SMILES IDX 77 14 80 15 6 16 78 17 7 18 8 19 9 20 10 22 11 23 16 24
REMARK SMILES IDX 12 25 14 26 17 27 13 28 15 29 24 30 25 31 26 32 27 33 28 35
REMARK SMILES IDX 29 36 30 37 76 38 31 39 75 40 32 41 33 42 34 43 69 44 35 45
REMARK SMILES IDX 74 46 68 47 70 48 36 49 73 50 67 51 66 52 37 54 59 55 44 56
REMARK SMILES IDX 58 57 45 58 48 59 57 60 71 61 46 62 47 63 56 65 72 66 49 67
REMARK SMILES IDX 38 68 39 69 43 70 40 71 42 72 41 73 60 74 61 75 65 76 62 77
REMARK SMILES IDX 64 78 63 79 50 80 51 81 55 82 52 83 54 84 53 85
REMARK H PARENT 22 5 9 21 26 34 70 53 48 64
REMARK Flexibility Score: inf
ROOT
ATOM      1  C   UNL     1      -1.252   6.857  -0.362  1.00  0.00     0.117 C 
ENDROOT
BRANCH   1   2
ATOM      2  N   UNL     1      -0.472   6.194   0.658  1.00  0.00    -0.354 N 
ATOM      3  C   UNL     1       0.781   5.659   0.562  1.00  0.00     0.240 C 
ATOM      4  O   UNL     1       1.327   5.335   1.619  1.00  0.00    -0.273 OA
ATOM      5  H   UNL     1      -0.902   6.117   1.541  1.00  0.00     0.163 HD
BRANCH   3   6
ATOM      6  C   UNL     1       1.513   5.605  -0.769  1.00  0.00     0.226 C 
BRANCH   6   7
ATOM      7  N   UNL     1       0.883   4.806  -1.810  1.00  0.00    -0.295 N 
ATOM      8  C   UNL     1       1.057   0.159  -0.062  1.00  0.00     0.159 C 
ATOM      9  N   UNL     1       0.688   1.176  -1.029  1.00  0.00    -0.261 N 
ATOM     10  C   UNL     1       1.121   2.478  -0.743  1.00  0.00     0.282 A 
ATOM     11  C   UNL     1      -0.041   0.786  -2.165  1.00  0.00     0.332 A 
ATOM     12  O   UNL     1       1.783   2.764   0.242  1.00  0.00    -0.267 OA
ATOM     13  C   UNL     1       0.723   3.434  -1.726  1.00  0.00     0.154 A 
ATOM     14  N   UNL     1      -0.348   1.784  -3.092  1.00  0.00    -0.279 N 
ATOM     15  O   UNL     1      -0.396  -0.383  -2.334  1.00  0.00    -0.247 OA
ATOM     16  C   UNL     1       0.045   3.079  -2.845  1.00  0.00     0.170 A 
ATOM     17  C   UNL     1      -1.074   1.460  -4.306  1.00  0.00     0.157 C 
ATOM     18  N   UNL     1      -0.182   4.141  -3.650  1.00  0.00    -0.194 NA
ATOM     19  C   UNL     1       0.378   5.181  -3.057  1.00  0.00     0.210 A 
BRANCH  19  20
ATOM     20  N   UNL     1       0.305   6.403  -3.640  1.00  0.00    -0.324 N 
ATOM     21  H   UNL     1      -0.170   6.389  -4.502  1.00  0.00     0.170 HD
BRANCH  20  22
ATOM     22  C   UNL     1       0.760   7.686  -3.285  1.00  0.00     0.061 A 
ATOM     23  C   UNL     1      -0.227   8.681  -3.116  1.00  0.00     0.028 A 
ATOM     24  C   UNL     1       2.106   8.034  -3.066  1.00  0.00     0.083 A 
ATOM     25  C   UNL     1       0.088   9.932  -2.591  1.00  0.00     0.004 A 
ATOM     26  C   UNL     1       2.420   9.298  -2.536  1.00  0.00     0.061 A 
ATOM     27  Cl  UNL     1       3.361   6.899  -3.459  1.00  0.00    -0.080 Cl
ATOM     28  C   UNL     1       1.409  10.229  -2.276  1.00  0.00     0.022 A 
ATOM     29  Cl  UNL     1       4.037   9.758  -2.134  1.00  0.00    -0.083 Cl
ENDBRANCH  20  22
ENDBRANCH  19  20
ENDBRANCH   6   7
ENDBRANCH   3   6
ENDBRANCH   1   2
BRANCH   1  30
ATOM     30  C   UNL     1      -2.334   5.974  -0.977  1.00  0.00     0.042 C 
BRANCH  30  31
ATOM     31  C   UNL     1      -3.507   5.794  -0.035  1.00  0.00     0.118 C 
BRANCH  31  32
ATOM     32  N   UNL     1      -4.277   7.024   0.143  1.00  0.00    -0.352 N 
ATOM     33  C   UNL     1      -5.425   7.205   0.886  1.00  0.00     0.251 C 
ATOM     34  H   UNL     1      -3.935   7.820  -0.325  1.00  0.00     0.163 HD
ATOM     35  O   UNL     1      -6.154   8.168   0.681  1.00  0.00    -0.269 OA
BRANCH  33  36
ATOM     36  C   UNL     1      -5.763   6.218   1.927  1.00  0.00     0.039 A 
ATOM     37  C   UNL     1      -7.085   5.817   2.129  1.00  0.00     0.014 A 
ATOM     38  C   UNL     1      -4.731   5.679   2.694  1.00  0.00     0.014 A 
ATOM     39  C   UNL     1      -7.343   4.812   3.057  1.00  0.00     0.010 A 
ATOM     40  C   UNL     1      -4.964   4.588   3.493  1.00  0.00     0.010 A 
ATOM     41  C   UNL     1      -6.272   4.183   3.717  1.00  0.00    -0.014 A 
BRANCH  41  42
ATOM     42  C   UNL     1      -6.498   2.984   4.516  1.00  0.00     0.031 A 
ATOM     43  C   UNL     1      -7.202   1.914   3.764  1.00  0.00     0.074 A 
ATOM     44  C   UNL     1      -5.956   2.772   5.735  1.00  0.00     0.049 A 
ATOM     45  N   UNL     1      -8.427   1.538   3.916  1.00  0.00    -0.248 NA
ATOM     46  C   UNL     1      -6.538   1.324   2.588  1.00  0.00     0.031 C 
ATOM     47  C   UNL     1      -4.988   3.611   6.454  1.00  0.00     0.029 A 
ATOM     48  N   UNL     1      -6.077   1.694   6.559  1.00  0.00    -0.354 N 
ATOM     49  C   UNL     1      -8.613   0.492   3.020  1.00  0.00     0.074 A 
ATOM     50  C   UNL     1      -7.510   0.552   2.096  1.00  0.00     0.031 C 
ATOM     51  C   UNL     1      -4.438   2.906   7.470  1.00  0.00     0.029 A 
ATOM     52  C   UNL     1      -5.136   1.639   7.585  1.00  0.00     0.049 A 
ATOM     53  H   UNL     1      -6.775   1.010   6.440  1.00  0.00     0.167 HD
ATOM     54  C   UNL     1      -9.475  -0.521   3.311  1.00  0.00     0.031 A 
ATOM     55  C   UNL     1      -4.937   0.616   8.455  1.00  0.00     0.031 A 
ATOM     56  C   UNL     1     -10.354  -0.161   4.396  1.00  0.00     0.049 A 
ATOM     57  C   UNL     1      -6.178  -0.187   8.458  1.00  0.00     0.074 A 
ATOM     58  C   UNL     1     -11.288   0.829   4.622  1.00  0.00     0.029 A 
ATOM     59  N   UNL     1     -10.005  -0.655   5.630  1.00  0.00    -0.354 N 
ATOM     60  N   UNL     1      -7.315   0.245   8.918  1.00  0.00    -0.248 NA
ATOM     61  C   UNL     1      -6.251  -1.331   7.567  1.00  0.00     0.031 C 
ATOM     62  C   UNL     1     -11.142   1.170   5.998  1.00  0.00     0.029 A 
ATOM     63  C   UNL     1     -10.189   0.322   6.567  1.00  0.00     0.049 A 
ATOM     64  H   UNL     1      -9.675  -1.565   5.809  1.00  0.00     0.167 HD
ATOM     65  C   UNL     1      -8.256  -0.258   8.035  1.00  0.00     0.074 A 
ATOM     66  C   UNL     1      -7.561  -1.318   7.306  1.00  0.00     0.031 C 
ATOM     67  C   UNL     1      -9.407   0.430   7.780  1.00  0.00     0.031 A 
BRANCH  54  68
ATOM     68  C   UNL     1      -9.183  -1.971   2.988  1.00  0.00    -0.014 A 
ATOM     69  C   UNL     1     -10.124  -2.943   3.373  1.00  0.00     0.009 A 
ATOM     70  C   UNL     1      -7.910  -2.443   2.612  1.00  0.00     0.009 A 
ATOM     71  C   UNL     1      -9.782  -4.299   3.455  1.00  0.00     0.001 A 
ATOM     72  C   UNL     1      -7.578  -3.799   2.651  1.00  0.00     0.001 A 
ATOM     73  C   UNL     1      -8.507  -4.725   3.100  1.00  0.00     0.000 A 
ENDBRANCH  54  68
BRANCH  55  74
ATOM     74  C   UNL     1      -3.691   0.102   9.072  1.00  0.00    -0.014 A 
ATOM     75  C   UNL     1      -3.754  -0.841  10.115  1.00  0.00     0.009 A 
ATOM     76  C   UNL     1      -2.451   0.281   8.434  1.00  0.00     0.009 A 
ATOM     77  C   UNL     1      -2.640  -1.621  10.459  1.00  0.00     0.001 A 
ATOM     78  C   UNL     1      -1.337  -0.494   8.781  1.00  0.00     0.001 A 
ATOM     79  C   UNL     1      -1.437  -1.460   9.778  1.00  0.00     0.000 A 
ENDBRANCH  55  74
BRANCH  67  80
ATOM     80  C   UNL     1      -9.795   1.550   8.714  1.00  0.00    -0.014 A 
ATOM     81  C   UNL     1      -9.059   2.738   8.860  1.00  0.00     0.009 A 
ATOM     82  C   UNL     1     -11.057   1.466   9.321  1.00  0.00     0.009 A 
ATOM     83  C   UNL     1      -9.582   3.811   9.593  1.00  0.00     0.001 A 
ATOM     84  C   UNL     1     -11.587   2.543  10.031  1.00  0.00     0.001 A 
ATOM     85  C   UNL     1     -10.850   3.717  10.166  1.00  0.00     0.000 A 
ENDBRANCH  67  80
ENDBRANCH  41  42
ENDBRANCH  33  36
ENDBRANCH  31  32
ENDBRANCH  30  31
ENDBRANCH   1  30
TORSDOF 13
