REMARK SMILES C[NH+]1CCC(C(=O)N2C[C@@H](C(=O)NCCCNC(=O)c3ccc(-c4c5nc(c(-c6ccccc6)c6ccc([nH]6)c(-c6ccccc6)c6nc(c(-c7ccccc7)c7ccc4[nH]7)C=C6)C=C5)cc3)[C@H](c3ccc4c(c3)OCO4)C2)CC1
REMARK SMILES IDX 15 1 14 2 13 3 11 4 12 5 10 7 8 8 9 9 78 10 68 11 6 12 7 13
REMARK SMILES IDX 5 14 1 15 2 16 3 17 80 18 4 20 79 21 69 22 70 23 74 24 71 25
REMARK SMILES IDX 73 26 72 27 75 28 77 29 76 30 16 31 17 32 18 33 19 35 20 36
REMARK SMILES IDX 21 37 67 38 22 39 66 40 23 41 24 42 25 43 60 44 26 45 65 46
REMARK SMILES IDX 59 47 61 48 27 49 64 50 58 51 57 52 28 54 50 55 35 56 49 57
REMARK SMILES IDX 36 58 39 59 48 60 62 61 37 62 38 63 47 65 63 66 40 67 29 68
REMARK SMILES IDX 30 69 34 70 31 71 33 72 32 73 51 74 52 75 56 76 53 77 55 78
REMARK SMILES IDX 54 79 41 80 42 81 46 82 43 83 45 84 44 85
REMARK H PARENT 13 6 2 19 17 34 61 53 39 64
REMARK Flexibility Score: inf
ROOT
ATOM      1  C   UNL     1       0.367   0.727   6.936  1.00  0.00     0.042 C 
ENDROOT
BRANCH   1   2
ATOM      2  C   UNL     1       1.735   0.763   6.286  1.00  0.00     0.117 C 
BRANCH   2   3
ATOM      3  N   UNL     1       2.303  -0.551   6.040  1.00  0.00    -0.356 N 
ATOM      4  C   UNL     1       3.058  -0.978   4.988  1.00  0.00     0.225 C 
ATOM      5  O   UNL     1       3.600  -2.079   5.069  1.00  0.00    -0.275 OA
ATOM      6  H   UNL     1       2.118  -1.228   6.730  1.00  0.00     0.163 HD
BRANCH   4   7
ATOM      7  C   UNL     1       3.189  -0.104   3.764  1.00  0.00     0.107 C 
ATOM      8  N   UNL     1       3.681  -0.017   1.522  1.00  0.00    -0.341 N 
ATOM      9  C   UNL     1       3.240  -0.963   2.519  1.00  0.00     0.133 C 
ATOM     10  C   UNL     1       4.688   0.861   2.121  1.00  0.00     0.128 C 
ATOM     11  C   UNL     1       4.516   0.688   3.655  1.00  0.00     0.053 C 
BRANCH   8  12
ATOM     12  C   UNL     1       3.313   0.128   0.210  1.00  0.00     0.226 C 
ATOM     13  O   UNL     1       4.105   0.637  -0.593  1.00  0.00    -0.275 OA
BRANCH  12  14
ATOM     14  C   UNL     1       1.849  -0.040  -0.228  1.00  0.00     0.090 C 
ATOM     15  C   UNL     1      -2.452   0.010  -0.280  1.00  0.00     0.332 C 
ATOM     16  N   UNL     1      -1.046  -0.034   0.119  1.00  0.00    -0.337 N 
ATOM     17  C   UNL     1      -0.358   1.202  -0.270  1.00  0.00     0.262 C 
ATOM     18  C   UNL     1      -0.373  -1.210  -0.456  1.00  0.00     0.262 C 
ATOM     19  H   UNL     1      -1.008  -0.115   1.136  1.00  0.00     0.347 HD
ATOM     20  C   UNL     1       1.078   1.201   0.247  1.00  0.00     0.075 C 
ATOM     21  C   UNL     1       1.054  -1.303   0.096  1.00  0.00     0.075 C 
ENDBRANCH  12  14
ENDBRANCH   8  12
BRANCH  11  22
ATOM     22  C   UNL     1       4.467   1.932   4.529  1.00  0.00    -0.038 A 
ATOM     23  C   UNL     1       3.873   3.144   4.104  1.00  0.00     0.008 A 
ATOM     24  C   UNL     1       4.853   1.803   5.879  1.00  0.00     0.054 A 
ATOM     25  C   UNL     1       3.606   4.179   5.012  1.00  0.00     0.051 A 
ATOM     26  C   UNL     1       4.523   2.814   6.759  1.00  0.00     0.166 A 
ATOM     27  C   UNL     1       3.902   3.964   6.339  1.00  0.00     0.165 A 
ATOM     28  O   UNL     1       4.621   2.744   8.115  1.00  0.00    -0.454 OA
ATOM     29  O   UNL     1       3.556   4.772   7.377  1.00  0.00    -0.454 OA
ATOM     30  C   UNL     1       3.847   3.904   8.495  1.00  0.00     0.468 C 
ENDBRANCH  11  22
ENDBRANCH   4   7
ENDBRANCH   2   3
ENDBRANCH   1   2
BRANCH   1  31
ATOM     31  C   UNL     1       0.371   0.081   8.314  1.00  0.00     0.118 C 
BRANCH  31  32
ATOM     32  N   UNL     1       1.216   0.781   9.280  1.00  0.00    -0.352 N 
ATOM     33  C   UNL     1       0.873   1.515  10.390  1.00  0.00     0.251 C 
ATOM     34  H   UNL     1       2.183   0.716   9.108  1.00  0.00     0.163 HD
ATOM     35  O   UNL     1       1.719   2.186  10.975  1.00  0.00    -0.269 OA
BRANCH  33  36
ATOM     36  C   UNL     1      -0.529   1.525  10.854  1.00  0.00     0.039 A 
ATOM     37  C   UNL     1      -1.133   2.739  11.194  1.00  0.00     0.014 A 
ATOM     38  C   UNL     1      -1.258   0.338  10.910  1.00  0.00     0.014 A 
ATOM     39  C   UNL     1      -2.501   2.774  11.479  1.00  0.00     0.010 A 
ATOM     40  C   UNL     1      -2.632   0.388  11.092  1.00  0.00     0.010 A 
ATOM     41  C   UNL     1      -3.271   1.607  11.369  1.00  0.00    -0.014 A 
BRANCH  41  42
ATOM     42  C   UNL     1      -4.746   1.596  11.535  1.00  0.00     0.031 A 
ATOM     43  C   UNL     1      -5.359   0.715  12.587  1.00  0.00     0.074 A 
ATOM     44  C   UNL     1      -5.532   2.250  10.657  1.00  0.00     0.049 A 
ATOM     45  N   UNL     1      -6.605   0.344  12.734  1.00  0.00    -0.248 NA
ATOM     46  C   UNL     1      -4.436   0.136  13.577  1.00  0.00     0.031 C 
ATOM     47  C   UNL     1      -5.067   3.119   9.574  1.00  0.00     0.029 A 
ATOM     48  N   UNL     1      -6.899   2.256  10.522  1.00  0.00    -0.354 N 
ATOM     49  C   UNL     1      -6.604  -0.552  13.796  1.00  0.00     0.074 A 
ATOM     50  C   UNL     1      -5.233  -0.693  14.234  1.00  0.00     0.031 C 
ATOM     51  C   UNL     1      -6.129   3.581   8.893  1.00  0.00     0.029 A 
ATOM     52  C   UNL     1      -7.343   2.996   9.453  1.00  0.00     0.049 A 
ATOM     53  H   UNL     1      -7.503   1.775  11.133  1.00  0.00     0.167 HD
ATOM     54  C   UNL     1      -7.653  -1.195  14.360  1.00  0.00     0.031 A 
ATOM     55  C   UNL     1      -8.585   3.163   8.960  1.00  0.00     0.031 A 
ATOM     56  C   UNL     1      -9.019  -1.020  13.950  1.00  0.00     0.049 A 
ATOM     57  C   UNL     1      -9.737   2.452   9.614  1.00  0.00     0.074 A 
ATOM     58  C   UNL     1     -10.161  -1.575  14.498  1.00  0.00     0.029 A 
ATOM     59  N   UNL     1      -9.426  -0.217  12.897  1.00  0.00    -0.354 N 
ATOM     60  N   UNL     1      -9.726   1.629  10.634  1.00  0.00    -0.248 NA
ATOM     61  C   UNL     1     -11.073   2.694   9.049  1.00  0.00     0.031 C 
ATOM     62  C   UNL     1     -11.260  -1.132  13.756  1.00  0.00     0.029 A 
ATOM     63  C   UNL     1     -10.803  -0.266  12.775  1.00  0.00     0.049 A 
ATOM     64  H   UNL     1      -8.826   0.310  12.322  1.00  0.00     0.167 HD
ATOM     65  C   UNL     1     -11.053   1.283  10.855  1.00  0.00     0.074 A 
ATOM     66  C   UNL     1     -11.842   1.985   9.864  1.00  0.00     0.031 C 
ATOM     67  C   UNL     1     -11.570   0.459  11.796  1.00  0.00     0.031 A 
BRANCH  54  68
ATOM     68  C   UNL     1      -7.356  -2.153  15.478  1.00  0.00    -0.014 A 
ATOM     69  C   UNL     1      -6.937  -1.697  16.738  1.00  0.00     0.009 A 
ATOM     70  C   UNL     1      -7.521  -3.532  15.275  1.00  0.00     0.009 A 
ATOM     71  C   UNL     1      -6.649  -2.605  17.758  1.00  0.00     0.001 A 
ATOM     72  C   UNL     1      -7.261  -4.436  16.306  1.00  0.00     0.001 A 
ATOM     73  C   UNL     1      -6.815  -3.972  17.543  1.00  0.00     0.000 A 
ENDBRANCH  54  68
BRANCH  55  74
ATOM     74  C   UNL     1      -8.808   4.045   7.786  1.00  0.00    -0.014 A 
ATOM     75  C   UNL     1      -9.427   5.294   7.950  1.00  0.00     0.009 A 
ATOM     76  C   UNL     1      -8.406   3.650   6.501  1.00  0.00     0.009 A 
ATOM     77  C   UNL     1      -9.661   6.119   6.847  1.00  0.00     0.001 A 
ATOM     78  C   UNL     1      -8.618   4.488   5.404  1.00  0.00     0.001 A 
ATOM     79  C   UNL     1      -9.252   5.718   5.576  1.00  0.00     0.000 A 
ENDBRANCH  55  74
BRANCH  67  80
ATOM     80  C   UNL     1     -13.063   0.315  11.847  1.00  0.00    -0.014 A 
ATOM     81  C   UNL     1     -13.751  -0.479  10.918  1.00  0.00     0.009 A 
ATOM     82  C   UNL     1     -13.778   0.925  12.889  1.00  0.00     0.009 A 
ATOM     83  C   UNL     1     -15.133  -0.646  11.024  1.00  0.00     0.001 A 
ATOM     84  C   UNL     1     -15.155   0.738  13.006  1.00  0.00     0.001 A 
ATOM     85  C   UNL     1     -15.832  -0.044  12.071  1.00  0.00     0.000 A 
ENDBRANCH  67  80
ENDBRANCH  41  42
ENDBRANCH  33  36
ENDBRANCH  31  32
ENDBRANCH   1  31
TORSDOF 13
