REMARK SMILES C[C@@H](Oc1ccc(/C=C2\C(=O)[NH+]=C(NCCCNC(=O)c3ccc(-c4c5nc(c(-c6ccccc6)c6ccc([nH]6)c(-c6ccccc6)c6nc(c(-c7ccccc7)c7ccc4[nH]7)C=C6)C=C5)cc3)N(c3ccc4c(c3)OCO4)C2=O)cc1)C(=O)[O-]
REMARK SMILES IDX 15 1 14 2 8 3 9 4 10 5 79 6 11 7 12 8 69 9 80 10 13 11 7 14
REMARK SMILES IDX 4 15 5 16 82 17 6 18 81 19 3 20 2 21 1 22 83 23 84 24 85 25
REMARK SMILES IDX 70 26 71 27 75 28 72 29 74 30 73 31 76 32 78 33 77 34 16 35
REMARK SMILES IDX 17 36 18 37 19 38 20 40 21 41 22 42 68 43 23 44 67 45 24 46
REMARK SMILES IDX 25 47 26 48 61 49 27 50 66 51 60 52 62 53 28 54 65 55 59 56
REMARK SMILES IDX 58 57 29 59 51 60 36 61 50 62 37 63 40 64 49 65 63 66 38 67
REMARK SMILES IDX 39 68 48 70 64 71 41 72 30 73 31 74 35 75 32 76 34 77 33 78
REMARK SMILES IDX 52 79 53 80 57 81 54 82 56 83 55 84 42 85 43 86 47 87 44 88
REMARK SMILES IDX 46 89 45 90
REMARK H PARENT 12 12 14 13 18 39 62 58 40 69
REMARK Flexibility Score: inf
ROOT
ATOM      1  C   UNL     1       7.884   6.917  -6.412  1.00  0.00     0.199 C 
ENDROOT
BRANCH   1   2
ATOM      2  N   UNL     1       8.617   5.799  -5.850  1.00  0.00    -0.277 N 
ATOM      3  C   UNL     1       6.206   1.913  -3.086  1.00  0.00     0.031 C 
ATOM      4  C   UNL     1       6.903   3.022  -3.401  1.00  0.00     0.138 C 
ATOM      5  C   UNL     1       6.397   4.406  -3.420  1.00  0.00     0.321 C 
ATOM      6  C   UNL     1       8.322   2.823  -3.752  1.00  0.00     0.328 C 
ATOM      7  O   UNL     1       5.530   4.798  -2.654  1.00  0.00    -0.250 OA
ATOM      8  N   UNL     1       6.957   5.209  -4.372  1.00  0.00    -0.210 N 
ATOM      9  N   UNL     1       8.870   3.853  -4.504  1.00  0.00    -0.162 N 
ATOM     10  O   UNL     1       8.928   1.808  -3.404  1.00  0.00    -0.249 OA
ATOM     11  C   UNL     1       8.123   4.962  -4.880  1.00  0.00     0.366 C 
ATOM     12  H   UNL     1       6.460   6.000  -4.682  1.00  0.00     0.270 HD
ATOM     13  H   UNL     1       9.527   5.630  -6.185  1.00  0.00     0.260 HD
BRANCH   3  14
ATOM     14  C   UNL     1       4.791   1.742  -2.733  1.00  0.00    -0.024 A 
ATOM     15  C   UNL     1       2.120   1.183  -2.064  1.00  0.00     0.120 A 
ATOM     16  C   UNL     1       2.415   2.188  -2.981  1.00  0.00     0.047 A 
ATOM     17  C   UNL     1       3.148   0.420  -1.522  1.00  0.00     0.047 A 
ATOM     18  C   UNL     1       3.745   2.460  -3.322  1.00  0.00     0.012 A 
ATOM     19  C   UNL     1       4.474   0.707  -1.844  1.00  0.00     0.012 A 
BRANCH  15  20
ATOM     20  O   UNL     1       0.806   0.886  -1.839  1.00  0.00    -0.485 OA
BRANCH  20  21
ATOM     21  C   UNL     1       0.380   1.076  -0.482  1.00  0.00     0.216 C 
ATOM     22  C   UNL     1       0.582  -0.175   0.368  1.00  0.00     0.059 C 
BRANCH  21  23
ATOM     23  C   UNL     1      -1.113   1.383  -0.493  1.00  0.00     0.082 C 
ATOM     24  O   UNL     1      -1.680   2.209   0.208  1.00  0.00    -0.546 OA
ATOM     25  O   UNL     1      -1.835   0.584  -1.308  1.00  0.00    -0.546 OA
ENDBRANCH  21  23
ENDBRANCH  20  21
ENDBRANCH  15  20
ENDBRANCH   3  14
BRANCH   9  26
ATOM     26  C   UNL     1      10.200   3.656  -4.961  1.00  0.00     0.115 A 
ATOM     27  C   UNL     1      11.265   4.356  -4.353  1.00  0.00     0.048 A 
ATOM     28  C   UNL     1      10.447   2.660  -5.914  1.00  0.00     0.094 A 
ATOM     29  C   UNL     1      12.589   4.024  -4.661  1.00  0.00     0.054 A 
ATOM     30  C   UNL     1      11.758   2.352  -6.184  1.00  0.00     0.169 A 
ATOM     31  C   UNL     1      12.800   3.003  -5.565  1.00  0.00     0.166 A 
ATOM     32  O   UNL     1      12.181   1.367  -7.020  1.00  0.00    -0.453 OA
ATOM     33  O   UNL     1      14.007   2.486  -5.924  1.00  0.00    -0.454 OA
ATOM     34  C   UNL     1      13.584   1.337  -6.691  1.00  0.00     0.468 C 
ENDBRANCH   9  26
ENDBRANCH   1   2
BRANCH   1  35
ATOM     35  C   UNL     1       8.258   8.216  -5.713  1.00  0.00     0.059 C 
BRANCH  35  36
ATOM     36  C   UNL     1       9.729   8.591  -5.854  1.00  0.00     0.119 C 
BRANCH  36  37
ATOM     37  N   UNL     1      10.133   8.791  -7.239  1.00  0.00    -0.352 N 
ATOM     38  C   UNL     1      10.725   9.866  -7.849  1.00  0.00     0.251 C 
ATOM     39  H   UNL     1       9.950   8.028  -7.835  1.00  0.00     0.163 HD
ATOM     40  O   UNL     1      10.817   9.882  -9.074  1.00  0.00    -0.269 OA
BRANCH  38  41
ATOM     41  C   UNL     1      11.248  11.003  -7.061  1.00  0.00     0.039 A 
ATOM     42  C   UNL     1      11.134  12.291  -7.594  1.00  0.00     0.014 A 
ATOM     43  C   UNL     1      11.908  10.812  -5.845  1.00  0.00     0.014 A 
ATOM     44  C   UNL     1      11.658  13.382  -6.899  1.00  0.00     0.010 A 
ATOM     45  C   UNL     1      12.350  11.910  -5.109  1.00  0.00     0.010 A 
ATOM     46  C   UNL     1      12.259  13.203  -5.643  1.00  0.00    -0.014 A 
BRANCH  46  47
ATOM     47  C   UNL     1      12.849  14.352  -4.909  1.00  0.00     0.031 A 
ATOM     48  C   UNL     1      14.332  14.398  -4.647  1.00  0.00     0.074 A 
ATOM     49  C   UNL     1      12.055  15.342  -4.460  1.00  0.00     0.049 A 
ATOM     50  N   UNL     1      15.034  15.313  -4.025  1.00  0.00    -0.248 NA
ATOM     51  C   UNL     1      15.130  13.256  -5.125  1.00  0.00     0.031 C 
ATOM     52  C   UNL     1      10.601  15.401  -4.616  1.00  0.00     0.029 A 
ATOM     53  N   UNL     1      12.364  16.495  -3.782  1.00  0.00    -0.354 N 
ATOM     54  C   UNL     1      16.344  14.848  -4.024  1.00  0.00     0.074 A 
ATOM     55  C   UNL     1      16.332  13.546  -4.652  1.00  0.00     0.031 C 
ATOM     56  C   UNL     1      10.149  16.548  -4.083  1.00  0.00     0.029 A 
ATOM     57  C   UNL     1      11.273  17.286  -3.516  1.00  0.00     0.049 A 
ATOM     58  H   UNL     1      13.281  16.732  -3.511  1.00  0.00     0.167 HD
ATOM     59  C   UNL     1      17.463  15.459  -3.567  1.00  0.00     0.031 A 
ATOM     60  C   UNL     1      11.189  18.475  -2.890  1.00  0.00     0.031 A 
ATOM     61  C   UNL     1      17.479  16.759  -2.953  1.00  0.00     0.049 A 
ATOM     62  C   UNL     1      12.445  19.130  -2.384  1.00  0.00     0.074 A 
ATOM     63  C   UNL     1      18.567  17.485  -2.499  1.00  0.00     0.029 A 
ATOM     64  N   UNL     1      16.353  17.529  -2.708  1.00  0.00    -0.354 N 
ATOM     65  N   UNL     1      13.684  18.707  -2.450  1.00  0.00    -0.248 NA
ATOM     66  C   UNL     1      12.289  20.439  -1.735  1.00  0.00     0.031 C 
ATOM     67  C   UNL     1      18.092  18.672  -1.930  1.00  0.00     0.029 A 
ATOM     68  C   UNL     1      16.717  18.715  -2.093  1.00  0.00     0.049 A 
ATOM     69  H   UNL     1      15.431  17.271  -2.938  1.00  0.00     0.167 HD
ATOM     70  C   UNL     1      14.459  19.715  -1.890  1.00  0.00     0.074 A 
ATOM     71  C   UNL     1      13.550  20.774  -1.501  1.00  0.00     0.031 C 
ATOM     72  C   UNL     1      15.802  19.762  -1.718  1.00  0.00     0.031 A 
BRANCH  59  73
ATOM     73  C   UNL     1      18.764  14.716  -3.711  1.00  0.00    -0.014 A 
ATOM     74  C   UNL     1      19.340  14.488  -4.972  1.00  0.00     0.009 A 
ATOM     75  C   UNL     1      19.438  14.260  -2.567  1.00  0.00     0.009 A 
ATOM     76  C   UNL     1      20.539  13.782  -5.087  1.00  0.00     0.001 A 
ATOM     77  C   UNL     1      20.655  13.584  -2.683  1.00  0.00     0.001 A 
ATOM     78  C   UNL     1      21.198  13.335  -3.943  1.00  0.00     0.000 A 
ENDBRANCH  59  73
BRANCH  60  79
ATOM     79  C   UNL     1       9.869  19.142  -2.731  1.00  0.00    -0.014 A 
ATOM     80  C   UNL     1       9.574  20.317  -3.439  1.00  0.00     0.009 A 
ATOM     81  C   UNL     1       8.904  18.617  -1.858  1.00  0.00     0.009 A 
ATOM     82  C   UNL     1       8.354  20.971  -3.251  1.00  0.00     0.001 A 
ATOM     83  C   UNL     1       7.672  19.255  -1.696  1.00  0.00     0.001 A 
ATOM     84  C   UNL     1       7.403  20.437  -2.383  1.00  0.00     0.000 A 
ENDBRANCH  60  79
BRANCH  72  85
ATOM     85  C   UNL     1      16.378  21.025  -1.137  1.00  0.00    -0.014 A 
ATOM     86  C   UNL     1      16.178  21.378   0.206  1.00  0.00     0.009 A 
ATOM     87  C   UNL     1      17.162  21.860  -1.949  1.00  0.00     0.009 A 
ATOM     88  C   UNL     1      16.714  22.565   0.711  1.00  0.00     0.001 A 
ATOM     89  C   UNL     1      17.726  23.028  -1.433  1.00  0.00     0.001 A 
ATOM     90  C   UNL     1      17.490  23.386  -0.107  1.00  0.00     0.000 A 
ENDBRANCH  72  85
ENDBRANCH  46  47
ENDBRANCH  38  41
ENDBRANCH  36  37
ENDBRANCH  35  36
ENDBRANCH   1  35
TORSDOF 14
