REMARK SMILES C=C[C@@H](C)Oc1cnc2ccccc2c1C(=O)NCCCNC(=O)c1ccc(-c2c3nc(c(-c4ccccc4)c4ccc([nH]4)c(-c4ccccc4)c4nc(c(-c5ccccc5)c5ccc2[nH]5)C=C4)C=C3)cc1
REMARK SMILES IDX 19 1 18 2 16 3 17 4 15 6 6 7 7 8 8 9 14 10 9 11 13 12 10 13
REMARK SMILES IDX 12 14 11 15 5 16 3 17 4 18 2 19 1 20 20 21 21 22 22 23 23 24
REMARK SMILES IDX 24 26 25 27 26 28 72 29 27 30 71 31 28 32 29 33 30 34 65 35
REMARK SMILES IDX 31 36 70 37 64 38 66 39 32 40 69 41 63 42 62 43 33 45 55 46
REMARK SMILES IDX 40 47 54 48 41 49 44 50 53 51 67 52 42 53 43 54 52 56 68 57
REMARK SMILES IDX 45 58 34 59 35 60 39 61 36 62 38 63 37 64 56 65 57 66 61 67
REMARK SMILES IDX 58 68 60 69 59 70 46 71 47 72 51 73 48 74 50 75 49 76
REMARK H PARENT 18 5 22 25 66 44 44 55
REMARK Flexibility Score: inf
ROOT
ATOM      1  C   UNL     1      -4.938  -5.809  -0.836  1.00  0.00     0.118 C 
ENDROOT
BRANCH   1   2
ATOM      2  N   UNL     1      -4.391  -4.824   0.088  1.00  0.00    -0.352 N 
ATOM      3  C   UNL     1      -3.132  -4.444   0.496  1.00  0.00     0.255 C 
ATOM      4  O   UNL     1      -3.120  -3.744   1.513  1.00  0.00    -0.269 OA
ATOM      5  H   UNL     1      -5.097  -4.301   0.531  1.00  0.00     0.163 HD
BRANCH   3   6
ATOM      6  C   UNL     1      -1.837  -4.735  -0.210  1.00  0.00     0.092 A 
ATOM      7  C   UNL     1      -0.926  -3.660  -0.315  1.00  0.00     0.151 A 
ATOM      8  C   UNL     1       0.303  -3.910  -0.896  1.00  0.00     0.159 A 
ATOM      9  N   UNL     1       0.641  -5.062  -1.501  1.00  0.00    -0.252 NA
ATOM     10  C   UNL     1      -1.434  -6.013  -0.710  1.00  0.00     0.017 A 
ATOM     11  C   UNL     1      -0.210  -6.082  -1.415  1.00  0.00     0.071 A 
ATOM     12  C   UNL     1      -2.103  -7.241  -0.520  1.00  0.00     0.011 A 
ATOM     13  C   UNL     1       0.184  -7.265  -2.024  1.00  0.00     0.029 A 
ATOM     14  C   UNL     1      -1.714  -8.423  -1.153  1.00  0.00     0.001 A 
ATOM     15  C   UNL     1      -0.574  -8.428  -1.933  1.00  0.00     0.002 A 
BRANCH   7  16
ATOM     16  O   UNL     1      -1.186  -2.445   0.254  1.00  0.00    -0.484 OA
BRANCH  16  17
ATOM     17  C   UNL     1      -1.101  -1.250  -0.545  1.00  0.00     0.192 C 
ATOM     18  C   UNL     1      -1.813  -1.361  -1.894  1.00  0.00     0.057 C 
BRANCH  17  19
ATOM     19  C   UNL     1       0.315  -0.737  -0.682  1.00  0.00     0.009 C 
ATOM     20  C   UNL     1       0.885   0.165   0.129  1.00  0.00     0.008 C 
ENDBRANCH  17  19
ENDBRANCH  16  17
ENDBRANCH   7  16
ENDBRANCH   3   6
ENDBRANCH   1   2
BRANCH   1  21
ATOM     21  C   UNL     1      -5.420  -7.044  -0.053  1.00  0.00     0.042 C 
BRANCH  21  22
ATOM     22  C   UNL     1      -6.818  -6.930   0.545  1.00  0.00     0.118 C 
BRANCH  22  23
ATOM     23  N   UNL     1      -7.847  -7.361  -0.388  1.00  0.00    -0.352 N 
ATOM     24  C   UNL     1      -8.626  -8.485  -0.412  1.00  0.00     0.251 C 
ATOM     25  H   UNL     1      -8.012  -6.736  -1.130  1.00  0.00     0.163 HD
ATOM     26  O   UNL     1      -9.253  -8.733  -1.453  1.00  0.00    -0.269 OA
BRANCH  24  27
ATOM     27  C   UNL     1      -8.759  -9.419   0.737  1.00  0.00     0.039 A 
ATOM     28  C   UNL     1      -9.032 -10.768   0.466  1.00  0.00     0.014 A 
ATOM     29  C   UNL     1      -8.744  -8.994   2.069  1.00  0.00     0.014 A 
ATOM     30  C   UNL     1      -9.278 -11.672   1.506  1.00  0.00     0.010 A 
ATOM     31  C   UNL     1      -8.905  -9.914   3.112  1.00  0.00     0.010 A 
ATOM     32  C   UNL     1      -9.211 -11.255   2.844  1.00  0.00    -0.014 A 
BRANCH  32  33
ATOM     33  C   UNL     1      -9.537 -12.195   3.953  1.00  0.00     0.031 A 
ATOM     34  C   UNL     1     -10.745 -11.954   4.825  1.00  0.00     0.074 A 
ATOM     35  C   UNL     1      -8.752 -13.264   4.191  1.00  0.00     0.049 A 
ATOM     36  N   UNL     1     -11.197 -12.663   5.831  1.00  0.00    -0.248 NA
ATOM     37  C   UNL     1     -11.537 -10.745   4.546  1.00  0.00     0.031 C 
ATOM     38  C   UNL     1      -7.535 -13.603   3.454  1.00  0.00     0.029 A 
ATOM     39  N   UNL     1      -8.869 -14.268   5.121  1.00  0.00    -0.354 N 
ATOM     40  C   UNL     1     -12.305 -11.975   6.314  1.00  0.00     0.074 A 
ATOM     41  C   UNL     1     -12.429 -10.770   5.525  1.00  0.00     0.031 C 
ATOM     42  C   UNL     1      -7.038 -14.756   3.933  1.00  0.00     0.029 A 
ATOM     43  C   UNL     1      -7.885 -15.223   5.026  1.00  0.00     0.049 A 
ATOM     44  H   UNL     1      -9.588 -14.301   5.792  1.00  0.00     0.167 HD
ATOM     45  C   UNL     1     -13.159 -12.320   7.308  1.00  0.00     0.031 A 
ATOM     46  C   UNL     1      -7.694 -16.355   5.729  1.00  0.00     0.031 A 
ATOM     47  C   UNL     1     -13.062 -13.528   8.082  1.00  0.00     0.049 A 
ATOM     48  C   UNL     1      -8.672 -16.735   6.805  1.00  0.00     0.074 A 
ATOM     49  C   UNL     1     -13.905 -13.986   9.081  1.00  0.00     0.029 A 
ATOM     50  N   UNL     1     -12.064 -14.478   7.934  1.00  0.00    -0.354 N 
ATOM     51  N   UNL     1      -9.742 -16.097   7.212  1.00  0.00    -0.248 NA
ATOM     52  C   UNL     1      -8.426 -18.005   7.502  1.00  0.00     0.031 C 
ATOM     53  C   UNL     1     -13.398 -15.201   9.558  1.00  0.00     0.029 A 
ATOM     54  C   UNL     1     -12.266 -15.518   8.826  1.00  0.00     0.049 A 
ATOM     55  H   UNL     1     -11.321 -14.421   7.291  1.00  0.00     0.167 HD
ATOM     56  C   UNL     1     -10.313 -16.902   8.189  1.00  0.00     0.074 A 
ATOM     57  C   UNL     1      -9.479 -18.080   8.304  1.00  0.00     0.031 C 
ATOM     58  C   UNL     1     -11.431 -16.685   8.925  1.00  0.00     0.031 A 
BRANCH  45  59
ATOM     59  C   UNL     1     -14.280 -11.364   7.613  1.00  0.00    -0.014 A 
ATOM     60  C   UNL     1     -15.357 -11.200   6.726  1.00  0.00     0.009 A 
ATOM     61  C   UNL     1     -14.270 -10.629   8.809  1.00  0.00     0.009 A 
ATOM     62  C   UNL     1     -16.376 -10.289   7.010  1.00  0.00     0.001 A 
ATOM     63  C   UNL     1     -15.305  -9.740   9.103  1.00  0.00     0.001 A 
ATOM     64  C   UNL     1     -16.351  -9.562   8.199  1.00  0.00     0.000 A 
ENDBRANCH  45  59
BRANCH  46  65
ATOM     65  C   UNL     1      -6.549 -17.246   5.405  1.00  0.00    -0.014 A 
ATOM     66  C   UNL     1      -6.766 -18.468   4.750  1.00  0.00     0.009 A 
ATOM     67  C   UNL     1      -5.239 -16.884   5.752  1.00  0.00     0.009 A 
ATOM     68  C   UNL     1      -5.697 -19.322   4.471  1.00  0.00     0.001 A 
ATOM     69  C   UNL     1      -4.169 -17.729   5.449  1.00  0.00     0.001 A 
ATOM     70  C   UNL     1      -4.399 -18.950   4.817  1.00  0.00     0.000 A 
ENDBRANCH  46  65
BRANCH  58  71
ATOM     71  C   UNL     1     -11.835 -17.766   9.886  1.00  0.00    -0.014 A 
ATOM     72  C   UNL     1     -11.126 -17.989  11.076  1.00  0.00     0.009 A 
ATOM     73  C   UNL     1     -12.956 -18.562   9.601  1.00  0.00     0.009 A 
ATOM     74  C   UNL     1     -11.508 -19.015  11.942  1.00  0.00     0.001 A 
ATOM     75  C   UNL     1     -13.350 -19.570  10.481  1.00  0.00     0.001 A 
ATOM     76  C   UNL     1     -12.620 -19.803  11.645  1.00  0.00     0.000 A 
ENDBRANCH  58  71
ENDBRANCH  32  33
ENDBRANCH  24  27
ENDBRANCH  22  23
ENDBRANCH  21  22
ENDBRANCH   1  21
TORSDOF 13
