REMARK SMILES CC(C)n1ccc(C#CC(=O)NCCCNC(=O)c2ccc(-c3c4nc(c(-c5ccccc5)c5ccc([nH]5)c(-c5ccccc5)c5nc(c(-c6ccccc6)c6ccc3[nH]6)C=C5)C=C4)cc2)n1
REMARK SMILES IDX 14 1 13 2 12 3 10 4 11 5 9 7 8 8 7 9 4 10 5 11 67 12 6 13
REMARK SMILES IDX 2 14 1 15 3 16 15 17 16 18 17 19 18 21 19 22 20 23 66 24
REMARK SMILES IDX 21 25 65 26 22 27 23 28 24 29 59 30 25 31 64 32 58 33 60 34
REMARK SMILES IDX 26 35 63 36 57 37 56 38 27 40 49 41 34 42 48 43 35 44 38 45
REMARK SMILES IDX 47 46 61 47 36 48 37 49 46 51 62 52 39 53 28 54 29 55 33 56
REMARK SMILES IDX 30 57 32 58 31 59 50 60 51 61 55 62 52 63 54 64 53 65 40 66
REMARK SMILES IDX 41 67 45 68 42 69 44 70 43 71
REMARK H PARENT 12 6 16 20 60 39 38 50
REMARK Flexibility Score: inf
ROOT
ATOM      1  C   UNL     1      -6.612   1.599  -2.866  1.00  0.00     0.042 C 
ENDROOT
BRANCH   1   2
ATOM      2  C   UNL     1      -5.763   2.335  -1.826  1.00  0.00     0.118 C 
BRANCH   2   3
ATOM      3  N   UNL     1      -6.447   2.502  -0.550  1.00  0.00    -0.345 N 
ATOM      4  C   UNL     1      -6.138   1.913   0.647  1.00  0.00     0.296 C 
ATOM      5  O   UNL     1      -6.796   2.154   1.654  1.00  0.00    -0.260 OA
ATOM      6  H   UNL     1      -7.222   3.109  -0.549  1.00  0.00     0.164 HD
BRANCH   4   7
ATOM      7  C   UNL     1      -5.038   0.998   0.717  1.00  0.00     0.002 C 
ATOM      8  C   UNL     1      -4.106   0.227   0.731  1.00  0.00    -0.034 C 
BRANCH   8   9
ATOM      9  C   UNL     1      -3.031  -0.692   0.683  1.00  0.00     0.135 A 
ATOM     10  N   UNL     1      -1.029  -1.349   0.591  1.00  0.00    -0.269 N 
ATOM     11  C   UNL     1      -1.781  -2.494   0.545  1.00  0.00     0.110 A 
ATOM     12  N   UNL     1      -1.778  -0.230   0.674  1.00  0.00    -0.164 NA
ATOM     13  C   UNL     1      -3.094  -2.093   0.607  1.00  0.00     0.059 A 
BRANCH  10  14
ATOM     14  C   UNL     1       0.430  -1.287   0.598  1.00  0.00     0.101 C 
ATOM     15  C   UNL     1       0.988  -0.046  -0.101  1.00  0.00     0.033 C 
ATOM     16  C   UNL     1       0.964  -1.399   2.025  1.00  0.00     0.033 C 
ENDBRANCH  10  14
ENDBRANCH   8   9
ENDBRANCH   4   7
ENDBRANCH   2   3
ENDBRANCH   1   2
BRANCH   1  17
ATOM     17  C   UNL     1      -7.816   2.405  -3.328  1.00  0.00     0.118 C 
BRANCH  17  18
ATOM     18  N   UNL     1      -7.482   3.559  -4.173  1.00  0.00    -0.352 N 
ATOM     19  C   UNL     1      -8.348   4.352  -4.915  1.00  0.00     0.251 C 
ATOM     20  H   UNL     1      -6.528   3.800  -4.218  1.00  0.00     0.163 HD
ATOM     21  O   UNL     1      -7.938   5.051  -5.833  1.00  0.00    -0.269 OA
BRANCH  19  22
ATOM     22  C   UNL     1      -9.778   4.363  -4.546  1.00  0.00     0.039 A 
ATOM     23  C   UNL     1     -10.819   4.427  -5.478  1.00  0.00     0.014 A 
ATOM     24  C   UNL     1     -10.058   4.247  -3.192  1.00  0.00     0.014 A 
ATOM     25  C   UNL     1     -12.134   4.345  -5.011  1.00  0.00     0.010 A 
ATOM     26  C   UNL     1     -11.300   3.862  -2.791  1.00  0.00     0.010 A 
ATOM     27  C   UNL     1     -12.361   4.060  -3.652  1.00  0.00    -0.014 A 
BRANCH  27  28
ATOM     28  C   UNL     1     -13.675   3.749  -3.100  1.00  0.00     0.031 A 
ATOM     29  C   UNL     1     -14.270   2.577  -3.786  1.00  0.00     0.074 A 
ATOM     30  C   UNL     1     -14.142   4.289  -1.944  1.00  0.00     0.049 A 
ATOM     31  N   UNL     1     -15.206   2.602  -4.673  1.00  0.00    -0.248 NA
ATOM     32  C   UNL     1     -13.594   1.268  -3.678  1.00  0.00     0.031 C 
ATOM     33  C   UNL     1     -13.461   5.242  -1.050  1.00  0.00     0.029 A 
ATOM     34  N   UNL     1     -15.294   4.041  -1.256  1.00  0.00    -0.354 N 
ATOM     35  C   UNL     1     -15.446   1.269  -4.988  1.00  0.00     0.074 A 
ATOM     36  C   UNL     1     -14.274   0.547  -4.575  1.00  0.00     0.031 C 
ATOM     37  C   UNL     1     -14.097   5.298   0.146  1.00  0.00     0.029 A 
ATOM     38  C   UNL     1     -15.318   4.520   0.060  1.00  0.00     0.049 A 
ATOM     39  H   UNL     1     -16.055   3.559  -1.655  1.00  0.00     0.167 HD
ATOM     40  C   UNL     1     -16.730   0.843  -5.153  1.00  0.00     0.031 A 
ATOM     41  C   UNL     1     -16.279   4.309   1.001  1.00  0.00     0.031 A 
ATOM     42  C   UNL     1     -17.617   1.977  -5.276  1.00  0.00     0.049 A 
ATOM     43  C   UNL     1     -17.504   3.928   0.271  1.00  0.00     0.074 A 
ATOM     44  C   UNL     1     -17.838   2.986  -6.188  1.00  0.00     0.029 A 
ATOM     45  N   UNL     1     -18.084   2.412  -4.062  1.00  0.00    -0.354 N 
ATOM     46  N   UNL     1     -18.139   4.750  -0.514  1.00  0.00    -0.248 NA
ATOM     47  C   UNL     1     -17.778   2.516   0.060  1.00  0.00     0.031 C 
ATOM     48  C   UNL     1     -18.250   4.119  -5.420  1.00  0.00     0.029 A 
ATOM     49  C   UNL     1     -18.367   3.747  -4.080  1.00  0.00     0.049 A 
ATOM     50  H   UNL     1     -18.201   1.833  -3.275  1.00  0.00     0.167 HD
ATOM     51  C   UNL     1     -18.497   3.970  -1.598  1.00  0.00     0.074 A 
ATOM     52  C   UNL     1     -18.404   2.590  -1.119  1.00  0.00     0.031 C 
ATOM     53  C   UNL     1     -18.510   4.505  -2.856  1.00  0.00     0.031 A 
BRANCH  40  54
ATOM     54  C   UNL     1     -17.250  -0.467  -4.578  1.00  0.00    -0.014 A 
ATOM     55  C   UNL     1     -18.622  -0.750  -4.715  1.00  0.00     0.009 A 
ATOM     56  C   UNL     1     -16.542  -1.260  -3.653  1.00  0.00     0.009 A 
ATOM     57  C   UNL     1     -19.257  -1.715  -3.922  1.00  0.00     0.001 A 
ATOM     58  C   UNL     1     -17.166  -2.244  -2.880  1.00  0.00     0.001 A 
ATOM     59  C   UNL     1     -18.530  -2.455  -2.997  1.00  0.00     0.000 A 
ENDBRANCH  40  54
BRANCH  41  60
ATOM     60  C   UNL     1     -16.188   4.147   2.476  1.00  0.00    -0.014 A 
ATOM     61  C   UNL     1     -17.316   4.276   3.311  1.00  0.00     0.009 A 
ATOM     62  C   UNL     1     -15.046   3.545   3.032  1.00  0.00     0.009 A 
ATOM     63  C   UNL     1     -17.309   3.791   4.631  1.00  0.00     0.001 A 
ATOM     64  C   UNL     1     -15.041   3.054   4.346  1.00  0.00     0.001 A 
ATOM     65  C   UNL     1     -16.176   3.165   5.143  1.00  0.00     0.000 A 
ENDBRANCH  41  60
BRANCH  53  66
ATOM     66  C   UNL     1     -18.541   6.005  -2.976  1.00  0.00    -0.014 A 
ATOM     67  C   UNL     1     -17.494   6.859  -2.586  1.00  0.00     0.009 A 
ATOM     68  C   UNL     1     -19.659   6.567  -3.608  1.00  0.00     0.009 A 
ATOM     69  C   UNL     1     -17.583   8.240  -2.805  1.00  0.00     0.001 A 
ATOM     70  C   UNL     1     -19.739   7.939  -3.845  1.00  0.00     0.001 A 
ATOM     71  C   UNL     1     -18.704   8.777  -3.437  1.00  0.00     0.000 A 
ENDBRANCH  53  66
ENDBRANCH  27  28
ENDBRANCH  19  22
ENDBRANCH  17  18
ENDBRANCH   1  17
TORSDOF 12
