REMARK SMILES Cc1cc(C)n([C@H](C)[C@H](C)C(=O)NCCCNC(=O)c2ccc(-c3c4nc(c(-c5ccccc5)c5ccc([nH]5)c(-c5ccccc5)c5nc(c(-c6ccccc6)c6ccc3[nH]6)C=C5)C=C4)cc2)n1
REMARK SMILES IDX 15 1 14 2 13 3 11 4 12 5 9 7 10 8 7 9 8 10 6 11 1 12 2 13
REMARK SMILES IDX 3 14 68 15 4 16 5 17 16 18 17 19 18 20 19 22 20 23 21 24
REMARK SMILES IDX 67 25 22 26 66 27 23 28 24 29 25 30 60 31 26 32 65 33 59 34
REMARK SMILES IDX 61 35 27 36 64 37 58 38 57 39 28 41 50 42 35 43 49 44 36 45
REMARK SMILES IDX 39 46 48 47 62 48 37 49 38 50 47 52 63 53 40 54 29 55 30 56
REMARK SMILES IDX 34 57 31 58 33 59 32 60 51 61 52 62 56 63 53 64 55 65 54 66
REMARK SMILES IDX 41 67 42 68 46 69 43 70 45 71 44 72
REMARK H PARENT 13 6 17 21 61 40 39 51
REMARK Flexibility Score: inf
ROOT
ATOM      1  C   UNL     1       2.459   6.381   0.966  1.00  0.00     0.042 C 
ENDROOT
BRANCH   1   2
ATOM      2  C   UNL     1       0.944   6.520   0.899  1.00  0.00     0.117 C 
BRANCH   2   3
ATOM      3  N   UNL     1       0.474   7.183  -0.307  1.00  0.00    -0.356 N 
ATOM      4  C   UNL     1      -0.358   6.745  -1.290  1.00  0.00     0.224 C 
ATOM      5  O   UNL     1      -0.687   7.555  -2.161  1.00  0.00    -0.275 OA
ATOM      6  H   UNL     1       0.813   8.098  -0.433  1.00  0.00     0.163 HD
BRANCH   4   7
ATOM      7  C   UNL     1      -0.872   5.318  -1.336  1.00  0.00     0.100 C 
ATOM      8  C   UNL     1       0.284   4.344  -1.599  1.00  0.00     0.020 C 
BRANCH   7   9
ATOM      9  C   UNL     1      -1.766   4.907  -0.140  1.00  0.00     0.116 C 
ATOM     10  C   UNL     1      -2.318   6.030   0.751  1.00  0.00     0.034 C 
BRANCH   9  11
ATOM     11  N   UNL     1      -2.864   4.041  -0.598  1.00  0.00    -0.266 N 
ATOM     12  C   UNL     1      -4.137   0.744  -0.759  1.00  0.00     0.069 C 
ATOM     13  C   UNL     1      -3.897   2.203  -0.828  1.00  0.00     0.060 A 
ATOM     14  C   UNL     1      -4.769   3.210  -1.288  1.00  0.00     0.048 A 
ATOM     15  N   UNL     1      -2.731   2.712  -0.418  1.00  0.00    -0.178 NA
ATOM     16  C   UNL     1      -4.071   4.392  -1.157  1.00  0.00     0.036 A 
ATOM     17  C   UNL     1      -4.482   5.777  -1.498  1.00  0.00     0.066 C 
ENDBRANCH   9  11
ENDBRANCH   7   9
ENDBRANCH   4   7
ENDBRANCH   2   3
ENDBRANCH   1   2
BRANCH   1  18
ATOM     18  C   UNL     1       3.143   7.705   1.251  1.00  0.00     0.118 C 
BRANCH  18  19
ATOM     19  N   UNL     1       2.823   8.240   2.577  1.00  0.00    -0.352 N 
ATOM     20  C   UNL     1       3.206   9.458   3.117  1.00  0.00     0.251 C 
ATOM     21  H   UNL     1       2.269   7.666   3.154  1.00  0.00     0.163 HD
ATOM     22  O   UNL     1       3.163   9.668   4.312  1.00  0.00    -0.269 OA
BRANCH  20  23
ATOM     23  C   UNL     1       3.682  10.493   2.183  1.00  0.00     0.039 A 
ATOM     24  C   UNL     1       4.873  11.181   2.413  1.00  0.00     0.014 A 
ATOM     25  C   UNL     1       2.960  10.670   1.007  1.00  0.00     0.014 A 
ATOM     26  C   UNL     1       5.388  11.972   1.390  1.00  0.00     0.010 A 
ATOM     27  C   UNL     1       3.558  11.298  -0.054  1.00  0.00     0.010 A 
ATOM     28  C   UNL     1       4.745  11.995   0.140  1.00  0.00    -0.014 A 
BRANCH  28  29
ATOM     29  C   UNL     1       5.362  12.662  -1.001  1.00  0.00     0.031 A 
ATOM     30  C   UNL     1       6.794  12.334  -1.230  1.00  0.00     0.074 A 
ATOM     31  C   UNL     1       4.679  13.400  -1.902  1.00  0.00     0.049 A 
ATOM     32  N   UNL     1       7.804  13.112  -1.028  1.00  0.00    -0.248 NA
ATOM     33  C   UNL     1       7.163  10.961  -1.606  1.00  0.00     0.031 C 
ATOM     34  C   UNL     1       3.231  13.604  -2.020  1.00  0.00     0.029 A 
ATOM     35  N   UNL     1       5.158  14.049  -2.997  1.00  0.00    -0.354 N 
ATOM     36  C   UNL     1       8.928  12.406  -1.440  1.00  0.00     0.074 A 
ATOM     37  C   UNL     1       8.497  11.042  -1.628  1.00  0.00     0.031 C 
ATOM     38  C   UNL     1       2.940  14.100  -3.243  1.00  0.00     0.029 A 
ATOM     39  C   UNL     1       4.185  14.427  -3.912  1.00  0.00     0.049 A 
ATOM     40  H   UNL     1       6.115  14.235  -3.130  1.00  0.00     0.167 HD
ATOM     41  C   UNL     1      10.062  13.057  -1.826  1.00  0.00     0.031 A 
ATOM     42  C   UNL     1       4.390  14.958  -5.140  1.00  0.00     0.031 A 
ATOM     43  C   UNL     1      10.033  14.448  -1.441  1.00  0.00     0.049 A 
ATOM     44  C   UNL     1       5.746  15.550  -5.143  1.00  0.00     0.074 A 
ATOM     45  C   UNL     1       9.892  15.126  -0.245  1.00  0.00     0.029 A 
ATOM     46  N   UNL     1       9.739  15.365  -2.424  1.00  0.00    -0.354 N 
ATOM     47  N   UNL     1       6.065  16.597  -4.438  1.00  0.00    -0.248 NA
ATOM     48  C   UNL     1       6.862  14.721  -5.567  1.00  0.00     0.031 C 
ATOM     49  C   UNL     1       9.040  16.230  -0.550  1.00  0.00     0.029 A 
ATOM     50  C   UNL     1       8.782  16.208  -1.922  1.00  0.00     0.049 A 
ATOM     51  H   UNL     1      10.143  15.408  -3.321  1.00  0.00     0.167 HD
ATOM     52  C   UNL     1       7.324  16.306  -3.934  1.00  0.00     0.074 A 
ATOM     53  C   UNL     1       7.810  15.197  -4.755  1.00  0.00     0.031 C 
ATOM     54  C   UNL     1       7.727  16.792  -2.721  1.00  0.00     0.031 A 
BRANCH  41  55
ATOM     55  C   UNL     1      10.986  12.561  -2.911  1.00  0.00    -0.014 A 
ATOM     56  C   UNL     1      12.137  13.314  -3.209  1.00  0.00     0.009 A 
ATOM     57  C   UNL     1      10.623  11.568  -3.839  1.00  0.00     0.009 A 
ATOM     58  C   UNL     1      12.826  13.146  -4.416  1.00  0.00     0.001 A 
ATOM     59  C   UNL     1      11.333  11.369  -5.026  1.00  0.00     0.001 A 
ATOM     60  C   UNL     1      12.416  12.182  -5.330  1.00  0.00     0.000 A 
ENDBRANCH  41  55
BRANCH  42  61
ATOM     61  C   UNL     1       3.603  14.770  -6.376  1.00  0.00    -0.014 A 
ATOM     62  C   UNL     1       3.819  15.596  -7.489  1.00  0.00     0.009 A 
ATOM     63  C   UNL     1       2.850  13.597  -6.565  1.00  0.00     0.009 A 
ATOM     64  C   UNL     1       3.352  15.229  -8.758  1.00  0.00     0.001 A 
ATOM     65  C   UNL     1       2.379  13.233  -7.830  1.00  0.00     0.001 A 
ATOM     66  C   UNL     1       2.648  14.040  -8.931  1.00  0.00     0.000 A 
ENDBRANCH  42  61
BRANCH  54  67
ATOM     67  C   UNL     1       6.864  17.840  -2.055  1.00  0.00    -0.014 A 
ATOM     68  C   UNL     1       5.506  17.644  -1.746  1.00  0.00     0.009 A 
ATOM     69  C   UNL     1       7.475  19.024  -1.616  1.00  0.00     0.009 A 
ATOM     70  C   UNL     1       4.771  18.623  -1.069  1.00  0.00     0.001 A 
ATOM     71  C   UNL     1       6.749  19.992  -0.917  1.00  0.00     0.001 A 
ATOM     72  C   UNL     1       5.395  19.797  -0.654  1.00  0.00     0.000 A 
ENDBRANCH  54  67
ENDBRANCH  28  29
ENDBRANCH  20  23
ENDBRANCH  18  19
ENDBRANCH   1  18
TORSDOF 12
