REMARK SMILES C[C@H]1CCc2sc3ncn4nc(/C=C\C(=O)NCCCNC(=O)c5ccc(-c6c7nc(c(-c8ccccc8)c8ccc([nH]8)c(-c8ccccc8)c8nc(c(-c9ccccc9)c9ccc6[nH]9)C=C8)C=C7)cc5)nc4c3c2C1
REMARK SMILES IDX 19 1 18 2 17 3 15 4 16 5 14 7 13 8 12 9 1 10 2 11 3 12 76 13
REMARK SMILES IDX 4 14 75 15 5 16 74 17 6 18 7 19 73 20 8 21 10 22 72 23 9 24
REMARK SMILES IDX 11 25 20 26 21 27 22 28 23 30 24 31 25 32 71 33 26 34 70 35
REMARK SMILES IDX 27 36 28 37 29 38 64 39 30 40 69 41 63 42 65 43 31 44 68 45
REMARK SMILES IDX 62 46 61 47 32 49 54 50 39 51 53 52 40 53 43 54 52 55 66 56
REMARK SMILES IDX 41 57 42 58 51 60 67 61 44 62 33 63 34 64 38 65 35 66 37 67
REMARK SMILES IDX 36 68 55 69 56 70 60 71 57 72 59 73 58 74 45 75 46 76 50 77
REMARK SMILES IDX 47 78 49 79 48 80
REMARK H PARENT 17 6 21 29 65 48 43 59
REMARK Flexibility Score: inf
ROOT
ATOM      1  C   UNL     1       3.966  -4.809   1.597  1.00  0.00     0.042 C 
ENDROOT
BRANCH   1   2
ATOM      2  C   UNL     1       2.578  -4.686   1.000  1.00  0.00     0.118 C 
BRANCH   2   3
ATOM      3  N   UNL     1       2.465  -4.526  -0.432  1.00  0.00    -0.352 N 
ATOM      4  C   UNL     1       1.822  -5.304  -1.347  1.00  0.00     0.244 C 
ATOM      5  O   UNL     1       1.653  -4.869  -2.487  1.00  0.00    -0.270 OA
ATOM      6  H   UNL     1       2.921  -3.736  -0.802  1.00  0.00     0.163 HD
BRANCH   4   7
ATOM      7  C   UNL     1       1.501  -6.726  -1.081  1.00  0.00     0.075 C 
ATOM      8  C   UNL     1       0.787  -7.329  -0.117  1.00  0.00     0.057 C 
BRANCH   8   9
ATOM      9  C   UNL     1       0.133  -6.772   1.021  1.00  0.00     0.175 A 
ATOM     10  C   UNL     1      -2.076  -0.200   1.024  1.00  0.00     0.008 C 
ATOM     11  C   UNL     1      -0.608  -0.484   1.329  1.00  0.00    -0.009 C 
ATOM     12  C   UNL     1      -0.169   0.255   2.605  1.00  0.00     0.009 C 
ATOM     13  C   UNL     1      -0.321  -2.005   1.384  1.00  0.00     0.041 C 
ATOM     14  C   UNL     1      -0.706  -0.334   3.914  1.00  0.00     0.047 C 
ATOM     15  C   UNL     1      -0.620  -2.609   2.726  1.00  0.00    -0.020 A 
ATOM     16  C   UNL     1      -0.777  -1.827   3.858  1.00  0.00     0.011 A 
ATOM     17  C   UNL     1      -0.664  -3.984   3.090  1.00  0.00     0.060 A 
ATOM     18  S   UNL     1      -1.056  -2.739   5.276  1.00  0.00    -0.120 S 
ATOM     19  C   UNL     1      -0.787  -4.212   4.455  1.00  0.00     0.129 A 
ATOM     20  C   UNL     1      -0.460  -5.223   2.311  1.00  0.00     0.168 A 
ATOM     21  N   UNL     1      -0.666  -5.404   5.132  1.00  0.00    -0.225 NA
ATOM     22  N   UNL     1      -0.297  -6.380   3.017  1.00  0.00    -0.201 N 
ATOM     23  N   UNL     1      -0.252  -5.443   1.035  1.00  0.00    -0.207 NA
ATOM     24  C   UNL     1      -0.373  -6.451   4.406  1.00  0.00     0.227 A 
ATOM     25  N   UNL     1       0.079  -7.393   2.214  1.00  0.00    -0.145 NA
ENDBRANCH   8   9
ENDBRANCH   4   7
ENDBRANCH   2   3
ENDBRANCH   1   2
BRANCH   1  26
ATOM     26  C   UNL     1       4.125  -3.996   2.886  1.00  0.00     0.118 C 
BRANCH  26  27
ATOM     27  N   UNL     1       3.056  -4.188   3.885  1.00  0.00    -0.352 N 
ATOM     28  C   UNL     1       2.617  -3.308   4.865  1.00  0.00     0.251 C 
ATOM     29  H   UNL     1       2.593  -5.056   3.853  1.00  0.00     0.163 HD
ATOM     30  O   UNL     1       2.168  -3.747   5.928  1.00  0.00    -0.269 OA
BRANCH  28  31
ATOM     31  C   UNL     1       2.704  -1.853   4.641  1.00  0.00     0.039 A 
ATOM     32  C   UNL     1       2.824  -0.919   5.674  1.00  0.00     0.014 A 
ATOM     33  C   UNL     1       2.739  -1.428   3.322  1.00  0.00     0.014 A 
ATOM     34  C   UNL     1       3.157   0.396   5.349  1.00  0.00     0.010 A 
ATOM     35  C   UNL     1       3.263  -0.210   3.003  1.00  0.00     0.010 A 
ATOM     36  C   UNL     1       3.446   0.717   4.011  1.00  0.00    -0.014 A 
BRANCH  36  37
ATOM     37  C   UNL     1       4.272   1.862   3.668  1.00  0.00     0.031 A 
ATOM     38  C   UNL     1       5.572   1.812   4.390  1.00  0.00     0.074 A 
ATOM     39  C   UNL     1       4.097   2.649   2.588  1.00  0.00     0.049 A 
ATOM     40  N   UNL     1       5.907   2.505   5.424  1.00  0.00    -0.248 NA
ATOM     41  C   UNL     1       6.494   0.697   4.094  1.00  0.00     0.031 C 
ATOM     42  C   UNL     1       3.104   2.559   1.514  1.00  0.00     0.029 A 
ATOM     43  N   UNL     1       4.898   3.653   2.159  1.00  0.00    -0.354 N 
ATOM     44  C   UNL     1       7.179   2.070   5.769  1.00  0.00     0.074 A 
ATOM     45  C   UNL     1       7.363   0.807   5.101  1.00  0.00     0.031 C 
ATOM     46  C   UNL     1       3.511   3.307   0.459  1.00  0.00     0.029 A 
ATOM     47  C   UNL     1       4.699   4.047   0.844  1.00  0.00     0.049 A 
ATOM     48  H   UNL     1       5.574   4.073   2.740  1.00  0.00     0.167 HD
ATOM     49  C   UNL     1       8.086   2.920   6.324  1.00  0.00     0.031 A 
ATOM     50  C   UNL     1       5.505   4.881   0.137  1.00  0.00     0.031 A 
ATOM     51  C   UNL     1       7.463   4.165   6.707  1.00  0.00     0.049 A 
ATOM     52  C   UNL     1       6.335   5.622   1.127  1.00  0.00     0.074 A 
ATOM     53  C   UNL     1       6.418   4.502   7.547  1.00  0.00     0.029 A 
ATOM     54  N   UNL     1       7.595   5.218   5.828  1.00  0.00    -0.354 N 
ATOM     55  N   UNL     1       5.835   6.457   1.994  1.00  0.00    -0.248 NA
ATOM     56  C   UNL     1       7.627   5.052   1.484  1.00  0.00     0.031 C 
ATOM     57  C   UNL     1       5.668   5.474   6.819  1.00  0.00     0.029 A 
ATOM     58  C   UNL     1       6.347   5.754   5.631  1.00  0.00     0.049 A 
ATOM     59  H   UNL     1       8.434   5.529   5.415  1.00  0.00     0.167 HD
ATOM     60  C   UNL     1       6.507   6.184   3.179  1.00  0.00     0.074 A 
ATOM     61  C   UNL     1       7.657   5.369   2.783  1.00  0.00     0.031 C 
ATOM     62  C   UNL     1       5.912   6.372   4.395  1.00  0.00     0.031 A 
BRANCH  49  63
ATOM     63  C   UNL     1       9.574   2.806   6.120  1.00  0.00    -0.014 A 
ATOM     64  C   UNL     1      10.413   3.708   6.796  1.00  0.00     0.009 A 
ATOM     65  C   UNL     1      10.169   2.028   5.109  1.00  0.00     0.009 A 
ATOM     66  C   UNL     1      11.754   3.869   6.429  1.00  0.00     0.001 A 
ATOM     67  C   UNL     1      11.517   2.155   4.768  1.00  0.00     0.001 A 
ATOM     68  C   UNL     1      12.304   3.097   5.411  1.00  0.00     0.000 A 
ENDBRANCH  49  63
BRANCH  50  69
ATOM     69  C   UNL     1       5.850   4.838  -1.304  1.00  0.00    -0.014 A 
ATOM     70  C   UNL     1       6.507   5.918  -1.918  1.00  0.00     0.009 A 
ATOM     71  C   UNL     1       5.796   3.623  -2.014  1.00  0.00     0.009 A 
ATOM     72  C   UNL     1       7.128   5.773  -3.168  1.00  0.00     0.001 A 
ATOM     73  C   UNL     1       6.415   3.479  -3.263  1.00  0.00     0.001 A 
ATOM     74  C   UNL     1       7.097   4.549  -3.832  1.00  0.00     0.000 A 
ENDBRANCH  50  69
BRANCH  62  75
ATOM     75  C   UNL     1       4.568   7.067   4.439  1.00  0.00    -0.014 A 
ATOM     76  C   UNL     1       3.410   6.565   3.815  1.00  0.00     0.009 A 
ATOM     77  C   UNL     1       4.427   8.165   5.301  1.00  0.00     0.009 A 
ATOM     78  C   UNL     1       2.158   7.153   4.039  1.00  0.00     0.001 A 
ATOM     79  C   UNL     1       3.176   8.739   5.540  1.00  0.00     0.001 A 
ATOM     80  C   UNL     1       2.042   8.235   4.908  1.00  0.00     0.000 A 
ENDBRANCH  62  75
ENDBRANCH  36  37
ENDBRANCH  28  31
ENDBRANCH  26  27
ENDBRANCH   1  26
TORSDOF 11
