REMARK SMILES CCn1ccc(NC(=O)[C@H]2[C@@H](C(=O)NCCCNC(=O)c3ccc(-c4c5nc(c(-c6ccccc6)c6ccc([nH]6)c(-c6ccccc6)c6nc(c(-c7ccccc7)c7ccc4[nH]7)C=C6)C=C5)cc3)[C@H]3C=C[C@@H]2C3)n1
REMARK SMILES IDX 15 1 14 2 12 3 13 4 11 6 10 7 72 8 69 9 71 10 73 11 70 12
REMARK SMILES IDX 8 13 7 14 9 16 6 17 3 18 4 19 74 20 5 21 2 22 1 23 16 24
REMARK SMILES IDX 17 25 18 26 19 27 20 29 21 30 22 31 68 32 23 33 67 34 24 35
REMARK SMILES IDX 25 36 26 37 61 38 27 39 66 40 60 41 62 42 28 43 65 44 59 45
REMARK SMILES IDX 58 46 29 48 51 49 36 50 50 51 37 52 40 53 49 54 63 55 38 56
REMARK SMILES IDX 39 57 48 59 64 60 41 61 30 62 31 63 35 64 32 65 34 66 33 67
REMARK SMILES IDX 52 68 53 69 57 70 54 71 56 72 55 73 42 74 43 75 47 76 44 77
REMARK SMILES IDX 46 78 45 79
REMARK H PARENT 14 5 7 15 18 28 62 47 40 58
REMARK Flexibility Score: inf
ROOT
ATOM      1  C   UNL     1       3.941  -5.564   7.016  1.00  0.00     0.117 C 
ENDROOT
BRANCH   1   2
ATOM      2  N   UNL     1       3.833  -4.429   7.926  1.00  0.00    -0.356 N 
ATOM      3  C   UNL     1       2.925  -3.415   8.026  1.00  0.00     0.224 C 
ATOM      4  O   UNL     1       3.031  -2.658   8.993  1.00  0.00    -0.275 OA
ATOM      5  H   UNL     1       4.553  -4.386   8.596  1.00  0.00     0.163 HD
BRANCH   3   6
ATOM      6  C   UNL     1       1.743  -3.358   7.079  1.00  0.00     0.098 C 
ATOM      7  C   UNL     1       1.964  -3.180   5.547  1.00  0.00     0.099 C 
ATOM      8  C   UNL     1       1.004  -2.015   5.185  1.00  0.00     0.025 C 
ATOM      9  C   UNL     1       0.707  -2.239   7.388  1.00  0.00     0.025 C 
ATOM     10  C   UNL     1       1.500  -0.743   5.833  1.00  0.00    -0.027 C 
ATOM     11  C   UNL     1      -0.167  -2.305   6.123  1.00  0.00     0.017 C 
ATOM     12  C   UNL     1       1.327  -0.883   7.155  1.00  0.00    -0.027 C 
BRANCH   7  13
ATOM     13  C   UNL     1       3.336  -2.885   4.981  1.00  0.00     0.230 C 
ATOM     14  N   UNL     1       3.670  -3.357   3.741  1.00  0.00    -0.309 N 
ATOM     15  H   UNL     1       4.573  -3.098   3.449  1.00  0.00     0.171 HD
ATOM     16  O   UNL     1       4.182  -2.245   5.609  1.00  0.00    -0.274 OA
BRANCH  14  17
ATOM     17  C   UNL     1       2.989  -4.123   2.825  1.00  0.00     0.154 A 
ATOM     18  N   UNL     1       2.796  -5.371   1.113  1.00  0.00    -0.271 N 
ATOM     19  C   UNL     1       1.545  -5.326   1.645  1.00  0.00     0.111 A 
ATOM     20  N   UNL     1       3.692  -4.657   1.822  1.00  0.00    -0.155 NA
ATOM     21  C   UNL     1       1.629  -4.482   2.723  1.00  0.00     0.068 A 
BRANCH  18  22
ATOM     22  C   UNL     1       3.224  -6.078  -0.081  1.00  0.00     0.141 C 
ATOM     23  C   UNL     1       2.130  -6.250  -1.124  1.00  0.00     0.029 C 
ENDBRANCH  18  22
ENDBRANCH  14  17
ENDBRANCH   7  13
ENDBRANCH   3   6
ENDBRANCH   1   2
BRANCH   1  24
ATOM     24  C   UNL     1       5.128  -5.470   6.050  1.00  0.00     0.042 C 
BRANCH  24  25
ATOM     25  C   UNL     1       6.474  -5.327   6.730  1.00  0.00     0.118 C 
BRANCH  25  26
ATOM     26  N   UNL     1       7.171  -6.590   6.918  1.00  0.00    -0.352 N 
ATOM     27  C   UNL     1       8.522  -6.766   7.159  1.00  0.00     0.251 C 
ATOM     28  H   UNL     1       6.623  -7.406   6.867  1.00  0.00     0.163 HD
ATOM     29  O   UNL     1       9.047  -7.854   6.993  1.00  0.00    -0.269 OA
BRANCH  27  30
ATOM     30  C   UNL     1       9.325  -5.607   7.612  1.00  0.00     0.039 A 
ATOM     31  C   UNL     1      10.642  -5.441   7.177  1.00  0.00     0.014 A 
ATOM     32  C   UNL     1       8.752  -4.678   8.480  1.00  0.00     0.014 A 
ATOM     33  C   UNL     1      11.352  -4.311   7.581  1.00  0.00     0.010 A 
ATOM     34  C   UNL     1       9.395  -3.497   8.758  1.00  0.00     0.010 A 
ATOM     35  C   UNL     1      10.717  -3.336   8.365  1.00  0.00    -0.014 A 
BRANCH  35  36
ATOM     36  C   UNL     1      11.400  -2.094   8.709  1.00  0.00     0.031 A 
ATOM     37  C   UNL     1      11.909  -1.318   7.548  1.00  0.00     0.074 A 
ATOM     38  C   UNL     1      11.396  -1.564   9.952  1.00  0.00     0.049 A 
ATOM     39  N   UNL     1      13.140  -1.076   7.242  1.00  0.00    -0.248 NA
ATOM     40  C   UNL     1      10.939  -0.851   6.544  1.00  0.00     0.031 C 
ATOM     41  C   UNL     1      10.666  -2.030  11.138  1.00  0.00     0.029 A 
ATOM     42  N   UNL     1      11.959  -0.404  10.387  1.00  0.00    -0.354 N 
ATOM     43  C   UNL     1      13.104  -0.263   6.113  1.00  0.00     0.074 A 
ATOM     44  C   UNL     1      11.744  -0.295   5.636  1.00  0.00     0.031 C 
ATOM     45  C   UNL     1      10.630  -1.045  12.063  1.00  0.00     0.029 A 
ATOM     46  C   UNL     1      11.480   0.041  11.613  1.00  0.00     0.049 A 
ATOM     47  H   UNL     1      12.648   0.080   9.876  1.00  0.00     0.167 HD
ATOM     48  C   UNL     1      14.142   0.564   5.804  1.00  0.00     0.031 A 
ATOM     49  C   UNL     1      11.742   1.230  12.208  1.00  0.00     0.031 A 
ATOM     50  C   UNL     1      15.330   0.223   6.547  1.00  0.00     0.049 A 
ATOM     51  C   UNL     1      12.967   1.775  11.585  1.00  0.00     0.074 A 
ATOM     52  C   UNL     1      16.128  -0.897   6.656  1.00  0.00     0.029 A 
ATOM     53  N   UNL     1      15.623   1.004   7.640  1.00  0.00    -0.354 N 
ATOM     54  N   UNL     1      14.146   1.246  11.735  1.00  0.00    -0.248 NA
ATOM     55  C   UNL     1      12.821   2.664  10.444  1.00  0.00     0.031 C 
ATOM     56  C   UNL     1      16.493  -0.955   8.034  1.00  0.00     0.029 A 
ATOM     57  C   UNL     1      15.958   0.167   8.671  1.00  0.00     0.049 A 
ATOM     58  H   UNL     1      15.597   1.987   7.675  1.00  0.00     0.167 HD
ATOM     59  C   UNL     1      14.741   1.359  10.488  1.00  0.00     0.074 A 
ATOM     60  C   UNL     1      13.932   2.345   9.773  1.00  0.00     0.031 C 
ATOM     61  C   UNL     1      15.652   0.436  10.058  1.00  0.00     0.031 A 
BRANCH  48  62
ATOM     62  C   UNL     1      13.969   1.931   5.181  1.00  0.00    -0.014 A 
ATOM     63  C   UNL     1      15.119   2.708   4.941  1.00  0.00     0.009 A 
ATOM     64  C   UNL     1      12.732   2.596   5.098  1.00  0.00     0.009 A 
ATOM     65  C   UNL     1      15.036   4.091   4.734  1.00  0.00     0.001 A 
ATOM     66  C   UNL     1      12.644   3.968   4.848  1.00  0.00     0.001 A 
ATOM     67  C   UNL     1      13.798   4.722   4.700  1.00  0.00     0.000 A 
ENDBRANCH  48  62
BRANCH  49  68
ATOM     68  C   UNL     1      10.896   2.036  13.111  1.00  0.00    -0.014 A 
ATOM     69  C   UNL     1      11.457   3.053  13.899  1.00  0.00     0.009 A 
ATOM     70  C   UNL     1       9.495   1.996  12.991  1.00  0.00     0.009 A 
ATOM     71  C   UNL     1      10.649   4.024  14.504  1.00  0.00     0.001 A 
ATOM     72  C   UNL     1       8.687   2.964  13.598  1.00  0.00     0.001 A 
ATOM     73  C   UNL     1       9.266   3.989  14.340  1.00  0.00     0.000 A 
ENDBRANCH  49  68
BRANCH  61  74
ATOM     74  C   UNL     1      16.189  -0.551  11.067  1.00  0.00    -0.014 A 
ATOM     75  C   UNL     1      15.376  -1.463  11.764  1.00  0.00     0.009 A 
ATOM     76  C   UNL     1      17.580  -0.661  11.207  1.00  0.00     0.009 A 
ATOM     77  C   UNL     1      15.940  -2.433  12.600  1.00  0.00     0.001 A 
ATOM     78  C   UNL     1      18.144  -1.644  12.022  1.00  0.00     0.001 A 
ATOM     79  C   UNL     1      17.325  -2.526  12.724  1.00  0.00     0.000 A 
ENDBRANCH  61  74
ENDBRANCH  35  36
ENDBRANCH  27  30
ENDBRANCH  25  26
ENDBRANCH  24  25
ENDBRANCH   1  24
TORSDOF 13
