REMARK SMILES O=C(C[C@H]1C[N@@H+](Cc2c(F)cccc2F)CCO1)NCCCNC(=O)c1ccc(-c2c3nc(c(-c4ccccc4)c4ccc([nH]4)c(-c4ccccc4)c4nc(c(-c5ccccc5)c5ccc2[nH]5)C=C4)C=C3)cc1
REMARK SMILES IDX 20 1 19 2 1 3 2 4 3 6 4 7 5 8 18 9 6 10 17 11 16 12 7 14
REMARK SMILES IDX 8 15 9 16 14 17 10 18 11 19 13 20 15 21 12 22 21 23 22 24
REMARK SMILES IDX 23 25 24 26 25 28 26 29 27 30 73 31 28 32 72 33 29 34 30 35
REMARK SMILES IDX 31 36 66 37 32 38 71 39 65 40 67 41 33 42 70 43 64 44 63 45
REMARK SMILES IDX 34 47 56 48 41 49 55 50 42 51 45 52 54 53 68 54 43 55 44 56
REMARK SMILES IDX 53 58 69 59 46 60 35 61 36 62 40 63 37 64 39 65 38 66 57 67
REMARK SMILES IDX 58 68 62 69 59 70 61 71 60 72 47 73 48 74 52 75 49 76 51 77
REMARK SMILES IDX 50 78
REMARK H PARENT 19 5 6 13 23 27 67 46 45 57
REMARK Flexibility Score: inf
ROOT
ATOM      1  C   UNL     1       7.936   2.769   3.211  1.00  0.00     0.117 C 
ENDROOT
BRANCH   1   2
ATOM      2  N   UNL     1       7.417   2.083   2.019  1.00  0.00    -0.356 N 
ATOM      3  O   UNL     1       6.500   0.307   3.117  1.00  0.00    -0.275 OA
ATOM      4  C   UNL     1       6.585   0.975   2.085  1.00  0.00     0.222 C 
ATOM      5  H   UNL     1       7.672   2.425   1.132  1.00  0.00     0.163 HD
BRANCH   4   6
ATOM      6  C   UNL     1       5.678   0.632   0.866  1.00  0.00     0.138 C 
BRANCH   6   7
ATOM      7  C   UNL     1       4.204   1.155   0.925  1.00  0.00     0.182 C 
ATOM      8  C   UNL     1       3.858   1.859   2.242  1.00  0.00     0.295 C 
ATOM      9  O   UNL     1       3.847   1.989  -0.214  1.00  0.00    -0.366 OA
ATOM     10  N   UNL     1       3.775   3.321   2.128  1.00  0.00    -0.327 N 
ATOM     11  C   UNL     1       2.661   2.817  -0.025  1.00  0.00     0.222 C 
ATOM     12  C   UNL     1       2.622   3.613   1.298  1.00  0.00     0.291 C 
ATOM     13  H   UNL     1       3.676   3.685   3.075  1.00  0.00     0.348 HD
BRANCH  10  14
ATOM     14  C   UNL     1       4.987   4.050   1.702  1.00  0.00     0.305 C 
BRANCH  14  15
ATOM     15  C   UNL     1       5.328   4.425   0.260  1.00  0.00     0.078 A 
ATOM     16  C   UNL     1       4.830   5.622  -0.252  1.00  0.00     0.135 A 
ATOM     17  C   UNL     1       6.186   3.736  -0.614  1.00  0.00     0.135 A 
ATOM     18  F   UNL     1       4.121   6.435   0.543  1.00  0.00    -0.206 F 
ATOM     19  C   UNL     1       5.081   6.047  -1.562  1.00  0.00     0.040 A 
ATOM     20  C   UNL     1       6.405   4.107  -1.942  1.00  0.00     0.040 A 
ATOM     21  F   UNL     1       6.947   2.724  -0.209  1.00  0.00    -0.206 F 
ATOM     22  C   UNL     1       5.841   5.269  -2.426  1.00  0.00     0.006 A 
ENDBRANCH  14  15
ENDBRANCH  10  14
ENDBRANCH   6   7
ENDBRANCH   4   6
ENDBRANCH   1   2
BRANCH   1  23
ATOM     23  C   UNL     1       8.542   4.194   3.032  1.00  0.00     0.042 C 
BRANCH  23  24
ATOM     24  C   UNL     1       7.702   5.491   2.883  1.00  0.00     0.118 C 
BRANCH  24  25
ATOM     25  N   UNL     1       6.730   5.791   3.928  1.00  0.00    -0.352 N 
ATOM     26  C   UNL     1       6.311   7.010   4.447  1.00  0.00     0.251 C 
ATOM     27  H   UNL     1       6.301   5.002   4.331  1.00  0.00     0.163 HD
ATOM     28  O   UNL     1       5.412   7.040   5.271  1.00  0.00    -0.269 OA
BRANCH  26  29
ATOM     29  C   UNL     1       6.980   8.289   4.083  1.00  0.00     0.039 A 
ATOM     30  C   UNL     1       7.482   9.084   5.123  1.00  0.00     0.014 A 
ATOM     31  C   UNL     1       7.083   8.744   2.767  1.00  0.00     0.014 A 
ATOM     32  C   UNL     1       8.197  10.257   4.840  1.00  0.00     0.010 A 
ATOM     33  C   UNL     1       7.824   9.905   2.483  1.00  0.00     0.010 A 
ATOM     34  C   UNL     1       8.435  10.645   3.511  1.00  0.00    -0.014 A 
BRANCH  34  35
ATOM     35  C   UNL     1       9.431  11.715   3.194  1.00  0.00     0.031 A 
ATOM     36  C   UNL     1       9.036  13.018   2.554  1.00  0.00     0.074 A 
ATOM     37  C   UNL     1      10.739  11.473   3.426  1.00  0.00     0.049 A 
ATOM     38  N   UNL     1       9.802  14.006   2.154  1.00  0.00    -0.248 NA
ATOM     39  C   UNL     1       7.603  13.238   2.324  1.00  0.00     0.031 C 
ATOM     40  C   UNL     1      11.277  10.251   4.029  1.00  0.00     0.029 A 
ATOM     41  N   UNL     1      11.857  12.235   3.175  1.00  0.00    -0.354 N 
ATOM     42  C   UNL     1       8.947  14.962   1.618  1.00  0.00     0.074 A 
ATOM     43  C   UNL     1       7.606  14.418   1.715  1.00  0.00     0.031 C 
ATOM     44  C   UNL     1      12.613  10.351   4.113  1.00  0.00     0.029 A 
ATOM     45  C   UNL     1      13.035  11.619   3.526  1.00  0.00     0.049 A 
ATOM     46  H   UNL     1      11.816  13.136   2.780  1.00  0.00     0.167 HD
ATOM     47  C   UNL     1       9.245  16.180   1.099  1.00  0.00     0.031 A 
ATOM     48  C   UNL     1      14.316  12.009   3.378  1.00  0.00     0.031 A 
ATOM     49  C   UNL     1      10.577  16.724   0.983  1.00  0.00     0.049 A 
ATOM     50  C   UNL     1      14.622  13.335   2.741  1.00  0.00     0.074 A 
ATOM     51  C   UNL     1      10.962  17.969   0.510  1.00  0.00     0.029 A 
ATOM     52  N   UNL     1      11.742  16.056   1.329  1.00  0.00    -0.354 N 
ATOM     53  N   UNL     1      13.795  14.249   2.297  1.00  0.00    -0.248 NA
ATOM     54  C   UNL     1      16.043  13.685   2.590  1.00  0.00     0.031 C 
ATOM     55  C   UNL     1      12.360  18.028   0.506  1.00  0.00     0.029 A 
ATOM     56  C   UNL     1      12.845  16.847   1.042  1.00  0.00     0.049 A 
ATOM     57  H   UNL     1      11.780  15.154   1.721  1.00  0.00     0.167 HD
ATOM     58  C   UNL     1      14.593  15.290   1.839  1.00  0.00     0.074 A 
ATOM     59  C   UNL     1      15.967  14.905   2.078  1.00  0.00     0.031 C 
ATOM     60  C   UNL     1      14.214  16.461   1.270  1.00  0.00     0.031 A 
BRANCH  47  61
ATOM     61  C   UNL     1       8.103  17.017   0.584  1.00  0.00    -0.014 A 
ATOM     62  C   UNL     1       7.171  17.596   1.460  1.00  0.00     0.009 A 
ATOM     63  C   UNL     1       7.992  17.279  -0.791  1.00  0.00     0.009 A 
ATOM     64  C   UNL     1       6.129  18.386   0.965  1.00  0.00     0.001 A 
ATOM     65  C   UNL     1       6.968  18.094  -1.280  1.00  0.00     0.001 A 
ATOM     66  C   UNL     1       6.032  18.638  -0.403  1.00  0.00     0.000 A 
ENDBRANCH  47  61
BRANCH  48  67
ATOM     67  C   UNL     1      15.423  11.122   3.831  1.00  0.00    -0.014 A 
ATOM     68  C   UNL     1      16.227  11.483   4.922  1.00  0.00     0.009 A 
ATOM     69  C   UNL     1      15.692   9.918   3.160  1.00  0.00     0.009 A 
ATOM     70  C   UNL     1      17.295  10.673   5.314  1.00  0.00     0.001 A 
ATOM     71  C   UNL     1      16.739   9.092   3.576  1.00  0.00     0.001 A 
ATOM     72  C   UNL     1      17.547   9.476   4.645  1.00  0.00     0.000 A 
ENDBRANCH  48  67
BRANCH  60  73
ATOM     73  C   UNL     1      15.304  17.427   0.887  1.00  0.00    -0.014 A 
ATOM     74  C   UNL     1      16.169  17.166  -0.188  1.00  0.00     0.009 A 
ATOM     75  C   UNL     1      15.448  18.631   1.593  1.00  0.00     0.009 A 
ATOM     76  C   UNL     1      17.175  18.075  -0.525  1.00  0.00     0.001 A 
ATOM     77  C   UNL     1      16.434  19.553   1.235  1.00  0.00     0.001 A 
ATOM     78  C   UNL     1      17.303  19.269   0.183  1.00  0.00     0.000 A 
ENDBRANCH  60  73
ENDBRANCH  34  35
ENDBRANCH  26  29
ENDBRANCH  24  25
ENDBRANCH  23  24
ENDBRANCH   1  23
TORSDOF 13
