REMARK SMILES O=C(NCCCNC(=O)[C@H]1[NH2+][C@@H](c2cc(Br)ccc2O)[C@@H]2C(=O)N(c3ccccc3)C(=O)[C@H]21)c1ccc(-c2c3nc(c(-c4ccccc4)c4ccc([nH]4)c(-c4ccccc4)c4nc(c(-c5ccccc5)c5ccc2[nH]5)C=C4)C=C3)cc1
REMARK SMILES IDX 5 1 4 2 3 3 1 4 2 5 34 7 35 8 81 9 36 10 80 11 37 12 38 13
REMARK SMILES IDX 39 14 74 15 40 16 79 17 73 18 75 19 41 20 78 21 72 22 71 23
REMARK SMILES IDX 42 25 64 26 49 27 63 28 50 29 53 30 62 31 76 32 51 33 52 34
REMARK SMILES IDX 61 36 77 37 54 38 43 39 44 40 48 41 45 42 47 43 46 44 65 45
REMARK SMILES IDX 66 46 70 47 67 48 69 49 68 50 55 51 56 52 60 53 57 54 59 55
REMARK SMILES IDX 58 56 6 57 7 58 8 59 9 61 10 62 11 63 33 64 12 65 21 68
REMARK SMILES IDX 31 69 22 70 24 71 32 72 23 73 13 74 14 75 19 76 15 77 18 78
REMARK SMILES IDX 16 79 17 80 20 81 25 83 26 84 30 85 27 86 29 87 28 88
REMARK H PARENT 3 6 75 24 53 35 7 60 11 66 11 67 20 82
REMARK Flexibility Score: inf
ROOT
ATOM      1  C   UNL     1       9.708  -0.170  -6.922  1.00  0.00     0.042 C 
ENDROOT
BRANCH   1   2
ATOM      2  C   UNL     1      10.302  -0.144  -8.325  1.00  0.00     0.118 C 
BRANCH   2   3
ATOM      3  N   UNL     1      10.669   1.198  -8.745  1.00  0.00    -0.352 N 
ATOM      4  O   UNL     1      12.027   2.962  -9.071  1.00  0.00    -0.269 OA
ATOM      5  C   UNL     1      11.912   1.746  -8.944  1.00  0.00     0.251 C 
ATOM      6  H   UNL     1       9.912   1.806  -8.912  1.00  0.00     0.163 HD
BRANCH   5   7
ATOM      7  C   UNL     1      13.113   0.884  -9.004  1.00  0.00     0.039 A 
ATOM      8  C   UNL     1      13.089  -0.332  -9.691  1.00  0.00     0.014 A 
ATOM      9  C   UNL     1      14.300   1.328  -8.414  1.00  0.00     0.014 A 
ATOM     10  C   UNL     1      14.206  -1.159  -9.678  1.00  0.00     0.010 A 
ATOM     11  C   UNL     1      15.452   0.538  -8.486  1.00  0.00     0.010 A 
ATOM     12  C   UNL     1      15.409  -0.721  -9.103  1.00  0.00    -0.014 A 
BRANCH  12  13
ATOM     13  C   UNL     1      16.628  -1.556  -9.247  1.00  0.00     0.031 A 
ATOM     14  C   UNL     1      17.317  -2.148  -8.052  1.00  0.00     0.074 A 
ATOM     15  C   UNL     1      17.100  -1.793 -10.487  1.00  0.00     0.049 A 
ATOM     16  N   UNL     1      18.379  -2.914  -8.013  1.00  0.00    -0.248 NA
ATOM     17  C   UNL     1      16.751  -1.839  -6.730  1.00  0.00     0.031 C 
ATOM     18  C   UNL     1      16.520  -1.264 -11.726  1.00  0.00     0.029 A 
ATOM     19  N   UNL     1      18.159  -2.551 -10.916  1.00  0.00    -0.354 N 
ATOM     20  C   UNL     1      18.620  -3.163  -6.668  1.00  0.00     0.074 A 
ATOM     21  C   UNL     1      17.609  -2.446  -5.920  1.00  0.00     0.031 C 
ATOM     22  C   UNL     1      17.195  -1.756 -12.774  1.00  0.00     0.029 A 
ATOM     23  C   UNL     1      18.297  -2.574 -12.283  1.00  0.00     0.049 A 
ATOM     24  H   UNL     1      18.762  -3.032 -10.304  1.00  0.00     0.167 HD
ATOM     25  C   UNL     1      19.593  -3.923  -6.109  1.00  0.00     0.031 A 
ATOM     26  C   UNL     1      19.219  -3.170 -13.060  1.00  0.00     0.031 A 
ATOM     27  C   UNL     1      20.601  -4.630  -6.859  1.00  0.00     0.049 A 
ATOM     28  C   UNL     1      20.308  -3.971 -12.411  1.00  0.00     0.074 A 
ATOM     29  C   UNL     1      21.611  -5.450  -6.385  1.00  0.00     0.029 A 
ATOM     30  N   UNL     1      20.732  -4.594  -8.239  1.00  0.00    -0.354 N 
ATOM     31  N   UNL     1      20.498  -4.226 -11.140  1.00  0.00    -0.248 NA
ATOM     32  C   UNL     1      21.309  -4.566 -13.305  1.00  0.00     0.031 C 
ATOM     33  C   UNL     1      22.387  -5.864  -7.473  1.00  0.00     0.029 A 
ATOM     34  C   UNL     1      21.823  -5.353  -8.631  1.00  0.00     0.049 A 
ATOM     35  H   UNL     1      20.137  -4.101  -8.850  1.00  0.00     0.167 HD
ATOM     36  C   UNL     1      21.630  -5.026 -11.081  1.00  0.00     0.074 A 
ATOM     37  C   UNL     1      22.068  -5.232 -12.447  1.00  0.00     0.031 C 
ATOM     38  C   UNL     1      22.251  -5.542  -9.993  1.00  0.00     0.031 A 
BRANCH  25  39
ATOM     39  C   UNL     1      19.637  -4.006  -4.607  1.00  0.00    -0.014 A 
ATOM     40  C   UNL     1      18.667  -4.720  -3.885  1.00  0.00     0.009 A 
ATOM     41  C   UNL     1      20.693  -3.401  -3.908  1.00  0.00     0.009 A 
ATOM     42  C   UNL     1      18.738  -4.797  -2.492  1.00  0.00     0.001 A 
ATOM     43  C   UNL     1      20.776  -3.503  -2.518  1.00  0.00     0.001 A 
ATOM     44  C   UNL     1      19.794  -4.194  -1.810  1.00  0.00     0.000 A 
ENDBRANCH  25  39
BRANCH  26  45
ATOM     45  C   UNL     1      19.156  -3.012 -14.536  1.00  0.00    -0.014 A 
ATOM     46  C   UNL     1      18.837  -4.101 -15.361  1.00  0.00     0.009 A 
ATOM     47  C   UNL     1      19.403  -1.762 -15.127  1.00  0.00     0.009 A 
ATOM     48  C   UNL     1      18.790  -3.946 -16.748  1.00  0.00     0.001 A 
ATOM     49  C   UNL     1      19.322  -1.603 -16.511  1.00  0.00     0.001 A 
ATOM     50  C   UNL     1      19.026  -2.697 -17.321  1.00  0.00     0.000 A 
ENDBRANCH  26  45
BRANCH  38  51
ATOM     51  C   UNL     1      23.455  -6.405 -10.243  1.00  0.00    -0.014 A 
ATOM     52  C   UNL     1      24.671  -5.854 -10.677  1.00  0.00     0.009 A 
ATOM     53  C   UNL     1      23.376  -7.788 -10.018  1.00  0.00     0.009 A 
ATOM     54  C   UNL     1      25.773  -6.677 -10.916  1.00  0.00     0.001 A 
ATOM     55  C   UNL     1      24.488  -8.604 -10.228  1.00  0.00     0.001 A 
ATOM     56  C   UNL     1      25.682  -8.050 -10.687  1.00  0.00     0.000 A 
ENDBRANCH  38  51
ENDBRANCH  12  13
ENDBRANCH   5   7
ENDBRANCH   2   3
ENDBRANCH   1   2
BRANCH   1  57
ATOM     57  C   UNL     1       8.305   0.426  -6.840  1.00  0.00     0.118 C 
BRANCH  57  58
ATOM     58  N   UNL     1       7.364  -0.412  -7.545  1.00  0.00    -0.351 N 
ATOM     59  C   UNL     1       6.444  -1.293  -7.100  1.00  0.00     0.279 C 
ATOM     60  H   UNL     1       7.399  -0.325  -8.525  1.00  0.00     0.163 HD
ATOM     61  O   UNL     1       5.808  -1.885  -7.982  1.00  0.00    -0.268 OA
BRANCH  59  62
ATOM     62  C   UNL     1       6.121  -1.531  -5.595  1.00  0.00     0.286 C 
ATOM     63  N   UNL     1       5.058  -2.626  -5.555  1.00  0.00    -0.328 N 
ATOM     64  C   UNL     1       7.106  -2.184  -4.673  1.00  0.00     0.166 C 
ATOM     65  C   UNL     1       5.755  -3.941  -5.284  1.00  0.00     0.231 C 
ATOM     66  H   UNL     1       4.572  -2.670  -6.451  1.00  0.00     0.347 HD
ATOM     67  H   UNL     1       4.373  -2.430  -4.825  1.00  0.00     0.347 HD
ATOM     68  C   UNL     1       7.219  -3.558  -5.281  1.00  0.00     0.161 C 
ATOM     69  C   UNL     1       8.512  -1.883  -4.293  1.00  0.00     0.244 C 
ATOM     70  C   UNL     1       8.260  -4.172  -4.401  1.00  0.00     0.244 C 
ATOM     71  N   UNL     1       9.102  -3.118  -4.033  1.00  0.00    -0.250 N 
ATOM     72  O   UNL     1       8.954  -0.758  -4.127  1.00  0.00    -0.273 OA
ATOM     73  O   UNL     1       8.347  -5.358  -4.153  1.00  0.00    -0.273 OA
BRANCH  65  74
ATOM     74  C   UNL     1       5.342  -5.034  -6.246  1.00  0.00     0.053 A 
ATOM     75  C   UNL     1       5.796  -5.062  -7.577  1.00  0.00     0.029 A 
ATOM     76  C   UNL     1       4.452  -6.043  -5.845  1.00  0.00     0.124 A 
ATOM     77  C   UNL     1       5.386  -6.067  -8.456  1.00  0.00     0.018 A 
ATOM     78  C   UNL     1       4.040  -7.049  -6.723  1.00  0.00     0.048 A 
ATOM     79  Br  UNL     1       6.023  -6.071 -10.236  1.00  0.00    -0.051 Br
ATOM     80  C   UNL     1       4.511  -7.062  -8.034  1.00  0.00     0.019 A 
BRANCH  76  81
ATOM     81  O   UNL     1       3.978  -6.040  -4.563  1.00  0.00    -0.507 OA
ATOM     82  H   UNL     1       4.247  -5.370  -3.965  1.00  0.00     0.293 HD
ENDBRANCH  76  81
ENDBRANCH  65  74
BRANCH  71  83
ATOM     83  C   UNL     1      10.381  -3.286  -3.434  1.00  0.00     0.052 A 
ATOM     84  C   UNL     1      11.133  -4.450  -3.654  1.00  0.00     0.027 A 
ATOM     85  C   UNL     1      10.942  -2.288  -2.621  1.00  0.00     0.027 A 
ATOM     86  C   UNL     1      12.409  -4.601  -3.099  1.00  0.00     0.002 A 
ATOM     87  C   UNL     1      12.207  -2.450  -2.044  1.00  0.00     0.002 A 
ATOM     88  C   UNL     1      12.944  -3.603  -2.291  1.00  0.00     0.000 A 
ENDBRANCH  71  83
ENDBRANCH  59  62
ENDBRANCH  57  58
ENDBRANCH   1  57
TORSDOF 13
