REMARK SMILES Cc1nc[nH]c1C(=O)N1CCC2(CC1)C[C@@H](C(=O)NCCCNC(=O)c1ccc(-c3c4nc(c(-c5ccccc5)c5ccc([nH]5)c(-c5ccccc5)c5nc(c(-c6ccccc6)c6ccc3[nH]6)C=C5)C=C4)cc1)N(C(=O)C1CC1)C2
REMARK SMILES IDX 21 1 20 2 19 3 17 4 18 5 16 7 7 8 8 9 9 10 10 11 14 12 11 13
REMARK SMILES IDX 13 14 12 15 15 16 80 17 74 18 6 19 1 20 2 21 3 22 4 23 5 24
REMARK SMILES IDX 75 26 76 27 77 28 78 29 79 30 22 31 23 32 24 33 25 35 26 36
REMARK SMILES IDX 27 37 73 38 28 39 72 40 29 41 30 42 31 43 66 44 32 45 71 46
REMARK SMILES IDX 65 47 67 48 33 49 70 50 64 51 63 52 34 54 56 55 41 56 55 57
REMARK SMILES IDX 42 58 45 59 54 60 68 61 43 62 44 63 53 65 69 66 46 67 35 68
REMARK SMILES IDX 36 69 40 70 37 71 39 72 38 73 57 74 58 75 62 76 59 77 61 78
REMARK SMILES IDX 60 79 47 80 48 81 52 82 49 83 51 84 50 85
REMARK H PARENT 19 6 5 25 23 34 67 53 45 64
REMARK Flexibility Score: inf
ROOT
ATOM      1  C   UNL     1       6.417  -3.635   2.708  1.00  0.00     0.042 C 
ENDROOT
BRANCH   1   2
ATOM      2  C   UNL     1       6.598  -2.438   1.804  1.00  0.00     0.117 C 
BRANCH   2   3
ATOM      3  N   UNL     1       7.827  -2.339   1.077  1.00  0.00    -0.354 N 
ATOM      4  C   UNL     1       7.943  -2.260  -0.290  1.00  0.00     0.242 C 
ATOM      5  O   UNL     1       8.866  -1.557  -0.717  1.00  0.00    -0.273 OA
ATOM      6  H   UNL     1       8.660  -2.327   1.601  1.00  0.00     0.163 HD
BRANCH   4   7
ATOM      7  C   UNL     1       6.881  -2.864  -1.272  1.00  0.00     0.175 C 
ATOM      8  C   UNL     1       0.145  -2.344  -0.472  1.00  0.00     0.272 C 
ATOM      9  O   UNL     1      -0.649  -3.236  -0.771  1.00  0.00    -0.267 OA
ATOM     10  N   UNL     1       1.510  -2.560  -0.559  1.00  0.00    -0.337 N 
ATOM     11  C   UNL     1       2.022  -3.452  -1.587  1.00  0.00     0.120 C 
ATOM     12  C   UNL     1       2.404  -2.308   0.552  1.00  0.00     0.120 C 
ATOM     13  C   UNL     1       3.332  -2.883  -2.160  1.00  0.00     0.030 C 
ATOM     14  C   UNL     1       3.733  -1.787   0.035  1.00  0.00     0.030 C 
ATOM     15  C   UNL     1       4.402  -2.684  -1.048  1.00  0.00    -0.006 C 
ATOM     16  C   UNL     1       5.677  -1.969  -1.578  1.00  0.00     0.044 C 
ATOM     17  C   UNL     1       4.895  -4.082  -0.602  1.00  0.00     0.127 C 
ATOM     18  N   UNL     1       6.320  -4.151  -0.873  1.00  0.00    -0.330 N 
BRANCH   8  19
ATOM     19  C   UNL     1      -0.332  -1.026  -0.109  1.00  0.00     0.127 A 
ATOM     20  C   UNL     1       1.552   0.766  -0.416  1.00  0.00     0.069 C 
ATOM     21  C   UNL     1       0.204   0.258  -0.089  1.00  0.00     0.068 A 
ATOM     22  N   UNL     1      -0.764   1.187   0.228  1.00  0.00    -0.241 NA
ATOM     23  C   UNL     1      -1.878   0.512   0.348  1.00  0.00     0.197 A 
ATOM     24  N   UNL     1      -1.666  -0.819   0.181  1.00  0.00    -0.340 N 
ATOM     25  H   UNL     1      -2.351  -1.522   0.254  1.00  0.00     0.168 HD
ENDBRANCH   8  19
BRANCH  18  26
ATOM     26  C   UNL     1       7.132  -5.269  -1.027  1.00  0.00     0.226 C 
ATOM     27  O   UNL     1       8.254  -5.168  -1.508  1.00  0.00    -0.275 OA
BRANCH  26  28
ATOM     28  C   UNL     1       6.729  -6.638  -0.599  1.00  0.00     0.079 C 
ATOM     29  C   UNL     1       5.491  -7.112   0.101  1.00  0.00     0.014 C 
ATOM     30  C   UNL     1       5.678  -7.408  -1.362  1.00  0.00     0.014 C 
ENDBRANCH  26  28
ENDBRANCH  18  26
ENDBRANCH   4   7
ENDBRANCH   2   3
ENDBRANCH   1   2
BRANCH   1  31
ATOM     31  C   UNL     1       6.630  -3.303   4.170  1.00  0.00     0.118 C 
BRANCH  31  32
ATOM     32  N   UNL     1       5.653  -2.351   4.700  1.00  0.00    -0.352 N 
ATOM     33  C   UNL     1       4.931  -2.377   5.870  1.00  0.00     0.251 C 
ATOM     34  H   UNL     1       5.487  -1.567   4.128  1.00  0.00     0.163 HD
ATOM     35  O   UNL     1       4.079  -1.517   6.075  1.00  0.00    -0.269 OA
BRANCH  33  36
ATOM     36  C   UNL     1       5.145  -3.458   6.857  1.00  0.00     0.039 A 
ATOM     37  C   UNL     1       4.049  -3.963   7.560  1.00  0.00     0.014 A 
ATOM     38  C   UNL     1       6.414  -3.995   7.069  1.00  0.00     0.014 A 
ATOM     39  C   UNL     1       4.221  -5.056   8.411  1.00  0.00     0.010 A 
ATOM     40  C   UNL     1       6.556  -5.167   7.796  1.00  0.00     0.010 A 
ATOM     41  C   UNL     1       5.468  -5.697   8.497  1.00  0.00    -0.014 A 
BRANCH  41  42
ATOM     42  C   UNL     1       5.657  -6.908   9.332  1.00  0.00     0.031 A 
ATOM     43  C   UNL     1       6.658  -6.904  10.457  1.00  0.00     0.074 A 
ATOM     44  C   UNL     1       4.967  -8.027   9.040  1.00  0.00     0.049 A 
ATOM     45  N   UNL     1       6.952  -7.860  11.301  1.00  0.00    -0.248 NA
ATOM     46  C   UNL     1       7.464  -5.684  10.635  1.00  0.00     0.031 C 
ATOM     47  C   UNL     1       4.030  -8.180   7.924  1.00  0.00     0.029 A 
ATOM     48  N   UNL     1       4.942  -9.249   9.663  1.00  0.00    -0.354 N 
ATOM     49  C   UNL     1       7.983  -7.363  12.089  1.00  0.00     0.074 A 
ATOM     50  C   UNL     1       8.316  -6.054  11.577  1.00  0.00     0.031 C 
ATOM     51  C   UNL     1       3.480  -9.404   7.976  1.00  0.00     0.029 A 
ATOM     52  C   UNL     1       4.054 -10.134   9.100  1.00  0.00     0.049 A 
ATOM     53  H   UNL     1       5.506  -9.470  10.438  1.00  0.00     0.167 HD
ATOM     54  C   UNL     1       8.580  -7.930  13.163  1.00  0.00     0.031 A 
ATOM     55  C   UNL     1       3.730 -11.390   9.459  1.00  0.00     0.031 A 
ATOM     56  C   UNL     1       8.232  -9.226  13.677  1.00  0.00     0.049 A 
ATOM     57  C   UNL     1       4.382 -11.989  10.672  1.00  0.00     0.074 A 
ATOM     58  C   UNL     1       8.719  -9.866  14.803  1.00  0.00     0.029 A 
ATOM     59  N   UNL     1       7.311 -10.082  13.093  1.00  0.00    -0.354 N 
ATOM     60  N   UNL     1       5.285 -11.467  11.468  1.00  0.00    -0.248 NA
ATOM     61  C   UNL     1       3.954 -13.342  11.050  1.00  0.00     0.031 C 
ATOM     62  C   UNL     1       8.135 -11.136  14.865  1.00  0.00     0.029 A 
ATOM     63  C   UNL     1       7.233 -11.257  13.820  1.00  0.00     0.049 A 
ATOM     64  H   UNL     1       6.789  -9.883  12.282  1.00  0.00     0.167 HD
ATOM     65  C   UNL     1       5.511 -12.415  12.458  1.00  0.00     0.074 A 
ATOM     66  C   UNL     1       4.637 -13.535  12.170  1.00  0.00     0.031 C 
ATOM     67  C   UNL     1       6.361 -12.362  13.512  1.00  0.00     0.031 A 
BRANCH  54  68
ATOM     68  C   UNL     1       9.674  -7.149  13.840  1.00  0.00    -0.014 A 
ATOM     69  C   UNL     1       9.405  -5.951  14.524  1.00  0.00     0.009 A 
ATOM     70  C   UNL     1      10.994  -7.624  13.806  1.00  0.00     0.009 A 
ATOM     71  C   UNL     1      10.440  -5.223  15.116  1.00  0.00     0.001 A 
ATOM     72  C   UNL     1      12.021  -6.913  14.429  1.00  0.00     0.001 A 
ATOM     73  C   UNL     1      11.746  -5.707  15.072  1.00  0.00     0.000 A 
ENDBRANCH  54  68
BRANCH  55  74
ATOM     74  C   UNL     1       2.710 -12.141   8.681  1.00  0.00    -0.014 A 
ATOM     75  C   UNL     1       1.445 -12.407   9.229  1.00  0.00     0.009 A 
ATOM     76  C   UNL     1       2.988 -12.580   7.377  1.00  0.00     0.009 A 
ATOM     77  C   UNL     1       0.490 -13.117   8.497  1.00  0.00     0.001 A 
ATOM     78  C   UNL     1       2.021 -13.262   6.635  1.00  0.00     0.001 A 
ATOM     79  C   UNL     1       0.776 -13.538   7.199  1.00  0.00     0.000 A 
ENDBRANCH  55  74
BRANCH  67  80
ATOM     80  C   UNL     1       6.358 -13.533  14.455  1.00  0.00    -0.014 A 
ATOM     81  C   UNL     1       6.875 -14.782  14.077  1.00  0.00     0.009 A 
ATOM     82  C   UNL     1       5.861 -13.368  15.757  1.00  0.00     0.009 A 
ATOM     83  C   UNL     1       6.855 -15.853  14.972  1.00  0.00     0.001 A 
ATOM     84  C   UNL     1       5.874 -14.431  16.661  1.00  0.00     0.001 A 
ATOM     85  C   UNL     1       6.360 -15.675  16.264  1.00  0.00     0.000 A 
ENDBRANCH  67  80
ENDBRANCH  41  42
ENDBRANCH  33  36
ENDBRANCH  31  32
ENDBRANCH   1  31
TORSDOF 13
