REMARK SMILES CC(C)c1cc(N2CCC(C(=O)NCCCNC(=O)c3ccc(-c4c5nc(c(-c6ccccc6)c6ccc([nH]6)c(-c6ccccc6)c6nc(c(-c7ccccc7)c7ccc4[nH]7)C=C6)C=C5)cc3)CC2)nc(-c2ccc(F)cc2)n1
REMARK SMILES IDX 15 1 14 2 13 3 11 4 12 5 10 7 7 8 8 9 69 10 9 11 68 12 6 13
REMARK SMILES IDX 4 14 5 15 79 16 71 17 70 18 2 19 1 20 3 21 72 22 73 23 78 24
REMARK SMILES IDX 74 25 77 26 75 27 76 28 16 29 17 30 18 31 19 33 20 34 21 35
REMARK SMILES IDX 67 36 22 37 66 38 23 39 24 40 25 41 60 42 26 43 65 44 59 45
REMARK SMILES IDX 61 46 27 47 64 48 58 49 57 50 28 52 50 53 35 54 49 55 36 56
REMARK SMILES IDX 39 57 48 58 62 59 37 60 38 61 47 63 63 64 40 65 29 66 30 67
REMARK SMILES IDX 34 68 31 69 33 70 32 71 51 72 52 73 56 74 53 75 55 76 54 77
REMARK SMILES IDX 41 78 42 79 46 80 43 81 45 82 44 83
REMARK H PARENT 13 6 17 32 61 51 39 62
REMARK Flexibility Score: inf
ROOT
ATOM      1  C   UNL     1      -8.406  -1.067   1.757  1.00  0.00     0.042 C 
ENDROOT
BRANCH   1   2
ATOM      2  C   UNL     1      -7.702  -2.187   2.514  1.00  0.00     0.117 C 
BRANCH   2   3
ATOM      3  N   UNL     1      -8.112  -3.514   2.069  1.00  0.00    -0.356 N 
ATOM      4  C   UNL     1      -7.410  -4.515   1.468  1.00  0.00     0.223 C 
ATOM      5  O   UNL     1      -8.011  -5.559   1.204  1.00  0.00    -0.275 OA
ATOM      6  H   UNL     1      -9.061  -3.722   2.230  1.00  0.00     0.163 HD
BRANCH   4   7
ATOM      7  C   UNL     1      -5.935  -4.365   1.120  1.00  0.00     0.082 C 
ATOM      8  N   UNL     1      -3.861  -2.478   1.272  1.00  0.00    -0.356 N 
ATOM      9  C   UNL     1      -4.338  -2.774  -0.067  1.00  0.00     0.119 C 
ATOM     10  C   UNL     1      -3.703  -3.608   2.163  1.00  0.00     0.119 C 
ATOM     11  C   UNL     1      -5.761  -3.286   0.039  1.00  0.00     0.035 C 
ATOM     12  C   UNL     1      -5.076  -4.234   2.395  1.00  0.00     0.035 C 
BRANCH   8  13
ATOM     13  C   UNL     1      -3.123  -1.325   1.405  1.00  0.00     0.132 A 
ATOM     14  C   UNL     1      -1.082  -0.138   1.470  1.00  0.00     0.049 A 
ATOM     15  C   UNL     1      -1.744  -1.352   1.474  1.00  0.00     0.071 A 
ATOM     16  N   UNL     1      -1.745   1.032   1.417  1.00  0.00    -0.233 NA
ATOM     17  C   UNL     1      -3.086   0.966   1.412  1.00  0.00     0.161 A 
ATOM     18  N   UNL     1      -3.805  -0.168   1.388  1.00  0.00    -0.211 NA
BRANCH  14  19
ATOM     19  C   UNL     1       0.433  -0.093   1.439  1.00  0.00     0.032 C 
ATOM     20  C   UNL     1       0.925  -0.095  -0.009  1.00  0.00     0.014 C 
ATOM     21  C   UNL     1       0.988   1.120   2.191  1.00  0.00     0.014 C 
ENDBRANCH  14  19
BRANCH  17  22
ATOM     22  C   UNL     1      -3.812   2.237   1.473  1.00  0.00     0.019 A 
ATOM     23  C   UNL     1      -3.575   3.252   0.527  1.00  0.00     0.015 A 
ATOM     24  C   UNL     1      -4.734   2.491   2.506  1.00  0.00     0.015 A 
ATOM     25  C   UNL     1      -4.237   4.480   0.610  1.00  0.00     0.040 A 
ATOM     26  C   UNL     1      -5.381   3.726   2.602  1.00  0.00     0.040 A 
ATOM     27  C   UNL     1      -5.128   4.707   1.651  1.00  0.00     0.123 A 
ATOM     28  F   UNL     1      -5.746   5.891   1.744  1.00  0.00    -0.207 F 
ENDBRANCH  17  22
ENDBRANCH   8  13
ENDBRANCH   4   7
ENDBRANCH   2   3
ENDBRANCH   1   2
BRANCH   1  29
ATOM     29  C   UNL     1      -9.916  -1.035   1.952  1.00  0.00     0.118 C 
BRANCH  29  30
ATOM     30  N   UNL     1     -10.304  -0.746   3.326  1.00  0.00    -0.352 N 
ATOM     31  C   UNL     1     -10.902   0.366   3.867  1.00  0.00     0.251 C 
ATOM     32  H   UNL     1     -10.105  -1.463   3.971  1.00  0.00     0.163 HD
ATOM     33  O   UNL     1     -10.970   0.491   5.088  1.00  0.00    -0.269 OA
BRANCH  31  34
ATOM     34  C   UNL     1     -11.436   1.429   2.991  1.00  0.00     0.039 A 
ATOM     35  C   UNL     1     -11.174   2.764   3.312  1.00  0.00     0.014 A 
ATOM     36  C   UNL     1     -12.190   1.118   1.857  1.00  0.00     0.014 A 
ATOM     37  C   UNL     1     -11.576   3.779   2.440  1.00  0.00     0.010 A 
ATOM     38  C   UNL     1     -12.520   2.121   0.950  1.00  0.00     0.010 A 
ATOM     39  C   UNL     1     -12.199   3.459   1.223  1.00  0.00    -0.014 A 
BRANCH  39  40
ATOM     40  C   UNL     1     -12.470   4.495   0.195  1.00  0.00     0.031 A 
ATOM     41  C   UNL     1     -13.878   4.792  -0.238  1.00  0.00     0.074 A 
ATOM     42  C   UNL     1     -11.434   5.102  -0.417  1.00  0.00     0.049 A 
ATOM     43  N   UNL     1     -14.297   5.580  -1.196  1.00  0.00    -0.248 NA
ATOM     44  C   UNL     1     -14.955   4.098   0.486  1.00  0.00     0.031 C 
ATOM     45  C   UNL     1     -10.018   4.882  -0.108  1.00  0.00     0.029 A 
ATOM     46  N   UNL     1     -11.409   6.017  -1.440  1.00  0.00    -0.354 N 
ATOM     47  C   UNL     1     -15.682   5.466  -1.200  1.00  0.00     0.074 A 
ATOM     48  C   UNL     1     -16.029   4.502  -0.178  1.00  0.00     0.031 C 
ATOM     49  C   UNL     1      -9.267   5.654  -0.908  1.00  0.00     0.029 A 
ATOM     50  C   UNL     1     -10.140   6.378  -1.825  1.00  0.00     0.049 A 
ATOM     51  H   UNL     1     -12.224   6.380  -1.858  1.00  0.00     0.167 HD
ATOM     52  C   UNL     1     -16.582   6.117  -1.974  1.00  0.00     0.031 A 
ATOM     53  C   UNL     1      -9.722   7.183  -2.821  1.00  0.00     0.031 A 
ATOM     54  C   UNL     1     -16.234   7.072  -2.993  1.00  0.00     0.049 A 
ATOM     55  C   UNL     1     -10.741   7.844  -3.707  1.00  0.00     0.074 A 
ATOM     56  C   UNL     1     -17.077   7.824  -3.793  1.00  0.00     0.029 A 
ATOM     57  N   UNL     1     -14.937   7.396  -3.362  1.00  0.00    -0.354 N 
ATOM     58  N   UNL     1     -12.049   7.782  -3.650  1.00  0.00    -0.248 NA
ATOM     59  C   UNL     1     -10.225   8.685  -4.796  1.00  0.00     0.031 C 
ATOM     60  C   UNL     1     -16.292   8.552  -4.692  1.00  0.00     0.029 A 
ATOM     61  C   UNL     1     -14.958   8.303  -4.409  1.00  0.00     0.049 A 
ATOM     62  H   UNL     1     -14.123   7.035  -2.943  1.00  0.00     0.167 HD
ATOM     63  C   UNL     1     -12.512   8.590  -4.680  1.00  0.00     0.074 A 
ATOM     64  C   UNL     1     -11.346   9.148  -5.332  1.00  0.00     0.031 C 
ATOM     65  C   UNL     1     -13.790   8.844  -5.054  1.00  0.00     0.031 A 
BRANCH  52  66
ATOM     66  C   UNL     1     -18.038   5.802  -1.763  1.00  0.00    -0.014 A 
ATOM     67  C   UNL     1     -18.709   6.201  -0.596  1.00  0.00     0.009 A 
ATOM     68  C   UNL     1     -18.762   5.140  -2.768  1.00  0.00     0.009 A 
ATOM     69  C   UNL     1     -20.065   5.910  -0.424  1.00  0.00     0.001 A 
ATOM     70  C   UNL     1     -20.123   4.878  -2.607  1.00  0.00     0.001 A 
ATOM     71  C   UNL     1     -20.771   5.254  -1.431  1.00  0.00     0.000 A 
ENDBRANCH  52  66
BRANCH  53  72
ATOM     72  C   UNL     1      -8.268   7.393  -3.047  1.00  0.00    -0.014 A 
ATOM     73  C   UNL     1      -7.681   8.644  -2.802  1.00  0.00     0.009 A 
ATOM     74  C   UNL     1      -7.457   6.346  -3.516  1.00  0.00     0.009 A 
ATOM     75  C   UNL     1      -6.321   8.849  -3.046  1.00  0.00     0.001 A 
ATOM     76  C   UNL     1      -6.091   6.545  -3.728  1.00  0.00     0.001 A 
ATOM     77  C   UNL     1      -5.527   7.799  -3.503  1.00  0.00     0.000 A 
ENDBRANCH  53  72
BRANCH  65  78
ATOM     78  C   UNL     1     -13.998   9.778  -6.214  1.00  0.00    -0.014 A 
ATOM     79  C   UNL     1     -13.706   9.380  -7.527  1.00  0.00     0.009 A 
ATOM     80  C   UNL     1     -14.547  11.051  -5.995  1.00  0.00     0.009 A 
ATOM     81  C   UNL     1     -13.938  10.248  -8.596  1.00  0.00     0.001 A 
ATOM     82  C   UNL     1     -14.808  11.904  -7.068  1.00  0.00     0.001 A 
ATOM     83  C   UNL     1     -14.496  11.505  -8.366  1.00  0.00     0.000 A 
ENDBRANCH  65  78
ENDBRANCH  39  40
ENDBRANCH  31  34
ENDBRANCH  29  30
ENDBRANCH   1  29
TORSDOF 13
