REMARK SMILES CCOC(=O)c1c(NC(=O)c2ncccc2C(=O)NCCCNC(=O)c2ccc(-c3c4nc(c(-c5ccccc5)c5ccc([nH]5)c(-c5ccccc5)c5nc(c(-c6ccccc6)c6ccc3[nH]6)C=C5)C=C4)cc2)sc2c1CC[C@H](C)C2
REMARK SMILES IDX 17 1 18 2 19 3 16 5 11 6 12 7 13 8 15 9 14 10 9 11 8 12
REMARK SMILES IDX 10 14 7 15 6 16 76 17 74 18 75 19 77 20 81 21 78 22 79 23
REMARK SMILES IDX 80 24 4 25 5 26 3 27 2 28 1 29 20 30 21 31 22 32 23 33 24 34
REMARK SMILES IDX 25 36 26 37 27 38 73 39 28 40 72 41 29 42 30 43 31 44 66 45
REMARK SMILES IDX 32 46 71 47 65 48 67 49 33 50 70 51 64 52 63 53 34 55 56 56
REMARK SMILES IDX 41 57 55 58 42 59 45 60 54 61 68 62 43 63 44 64 53 66 69 67
REMARK SMILES IDX 46 68 35 69 36 70 40 71 37 72 39 73 38 74 57 75 58 76 62 77
REMARK SMILES IDX 59 78 61 79 60 80 47 81 48 82 52 83 49 84 51 85 50 86
REMARK H PARENT 19 4 8 13 23 35 67 54 45 65
REMARK Flexibility Score: inf
ROOT
ATOM      1  C   UNL     1       3.632   4.719   0.722  1.00  0.00     0.253 C 
ATOM      2  O   UNL     1       3.488   5.921   0.517  1.00  0.00    -0.269 OA
ATOM      3  N   UNL     1       4.865   4.161   0.466  1.00  0.00    -0.352 N 
ATOM      4  H   UNL     1       5.527   4.800   0.117  1.00  0.00     0.163 HD
ENDROOT
BRANCH   1   5
ATOM      5  C   UNL     1       2.498   3.929   1.245  1.00  0.00     0.071 A 
ATOM      6  C   UNL     1       1.183   4.153   0.841  1.00  0.00     0.141 A 
ATOM      7  N   UNL     1       0.112   3.480   1.372  1.00  0.00    -0.250 NA
ATOM      8  C   UNL     1       0.351   2.578   2.342  1.00  0.00     0.112 A 
ATOM      9  C   UNL     1       2.693   2.995   2.272  1.00  0.00     0.018 A 
ATOM     10  C   UNL     1       1.616   2.291   2.808  1.00  0.00     0.021 A 
BRANCH   6  11
ATOM     11  C   UNL     1       0.756   5.261  -0.044  1.00  0.00     0.275 C 
ATOM     12  N   UNL     1       1.167   5.439  -1.334  1.00  0.00    -0.311 N 
ATOM     13  H   UNL     1       0.827   6.277  -1.724  1.00  0.00     0.171 HD
ATOM     14  O   UNL     1      -0.018   6.104   0.426  1.00  0.00    -0.267 OA
BRANCH  12  15
ATOM     15  C   UNL     1       1.938   4.731  -2.214  1.00  0.00     0.110 A 
ATOM     16  C   UNL     1       2.429   3.449  -2.405  1.00  0.00     0.098 A 
ATOM     17  C   UNL     1       3.366   3.438  -3.524  1.00  0.00    -0.017 A 
ATOM     18  S   UNL     1       2.431   5.818  -3.438  1.00  0.00    -0.122 S 
ATOM     19  C   UNL     1       3.455   4.676  -4.131  1.00  0.00     0.011 A 
ATOM     20  C   UNL     1       4.133   2.263  -4.078  1.00  0.00     0.038 C 
ATOM     21  C   UNL     1       4.340   5.036  -5.279  1.00  0.00     0.050 C 
ATOM     22  C   UNL     1       5.297   2.719  -4.987  1.00  0.00     0.008 C 
ATOM     23  C   UNL     1       4.803   3.764  -6.011  1.00  0.00    -0.009 C 
ATOM     24  C   UNL     1       5.858   4.127  -7.048  1.00  0.00     0.008 C 
BRANCH  16  25
ATOM     25  C   UNL     1       2.079   2.274  -1.627  1.00  0.00     0.341 C 
ATOM     26  O   UNL     1       2.912   1.645  -0.973  1.00  0.00    -0.246 OA
BRANCH  25  27
ATOM     27  O   UNL     1       0.770   1.933  -1.730  1.00  0.00    -0.462 OA
BRANCH  27  28
ATOM     28  C   UNL     1       0.288   0.879  -0.877  1.00  0.00     0.230 C 
ATOM     29  C   UNL     1       0.890  -0.490  -1.141  1.00  0.00     0.049 C 
ENDBRANCH  27  28
ENDBRANCH  25  27
ENDBRANCH  16  25
ENDBRANCH  12  15
ENDBRANCH   6  11
ENDBRANCH   1   5
BRANCH   3  30
ATOM     30  C   UNL     1       5.377   2.800   0.615  1.00  0.00     0.118 C 
BRANCH  30  31
ATOM     31  C   UNL     1       6.013   2.225  -0.647  1.00  0.00     0.042 C 
BRANCH  31  32
ATOM     32  C   UNL     1       7.248   2.955  -1.126  1.00  0.00     0.118 C 
BRANCH  32  33
ATOM     33  N   UNL     1       8.411   2.776  -0.268  1.00  0.00    -0.352 N 
ATOM     34  C   UNL     1       9.716   3.134  -0.540  1.00  0.00     0.251 C 
ATOM     35  H   UNL     1       8.248   2.352   0.605  1.00  0.00     0.163 HD
ATOM     36  O   UNL     1      10.640   2.679   0.124  1.00  0.00    -0.269 OA
BRANCH  34  37
ATOM     37  C   UNL     1       9.989   4.049  -1.667  1.00  0.00     0.039 A 
ATOM     38  C   UNL     1      11.076   3.821  -2.513  1.00  0.00     0.014 A 
ATOM     39  C   UNL     1       9.130   5.123  -1.898  1.00  0.00     0.014 A 
ATOM     40  C   UNL     1      11.237   4.629  -3.636  1.00  0.00     0.010 A 
ATOM     41  C   UNL     1       9.209   5.831  -3.076  1.00  0.00     0.010 A 
ATOM     42  C   UNL     1      10.281   5.616  -3.933  1.00  0.00    -0.014 A 
BRANCH  42  43
ATOM     43  C   UNL     1      10.353   6.336  -5.203  1.00  0.00     0.031 A 
ATOM     44  C   UNL     1      10.487   5.474  -6.412  1.00  0.00     0.074 A 
ATOM     45  C   UNL     1      10.142   7.663  -5.342  1.00  0.00     0.049 A 
ATOM     46  N   UNL     1      11.455   5.457  -7.265  1.00  0.00    -0.248 NA
ATOM     47  C   UNL     1       9.464   4.449  -6.661  1.00  0.00     0.031 C 
ATOM     48  C   UNL     1       9.702   8.636  -4.334  1.00  0.00     0.029 A 
ATOM     49  N   UNL     1      10.191   8.414  -6.478  1.00  0.00    -0.354 N 
ATOM     50  C   UNL     1      11.099   4.542  -8.253  1.00  0.00     0.074 A 
ATOM     51  C   UNL     1       9.898   3.893  -7.793  1.00  0.00     0.031 C 
ATOM     52  C   UNL     1       9.313   9.779  -4.944  1.00  0.00     0.029 A 
ATOM     53  C   UNL     1       9.647   9.686  -6.353  1.00  0.00     0.049 A 
ATOM     54  H   UNL     1      10.581   8.082  -7.319  1.00  0.00     0.167 HD
ATOM     55  C   UNL     1      11.737   4.522  -9.456  1.00  0.00     0.031 A 
ATOM     56  C   UNL     1       9.480  10.603  -7.336  1.00  0.00     0.031 A 
ATOM     57  C   UNL     1      13.001   5.208  -9.392  1.00  0.00     0.049 A 
ATOM     58  C   UNL     1      10.400  10.243  -8.436  1.00  0.00     0.074 A 
ATOM     59  C   UNL     1      14.154   5.044  -8.649  1.00  0.00     0.029 A 
ATOM     60  N   UNL     1      13.050   6.489  -9.885  1.00  0.00    -0.354 N 
ATOM     61  N   UNL     1      11.695  10.335  -8.346  1.00  0.00    -0.248 NA
ATOM     62  C   UNL     1       9.905   9.391  -9.503  1.00  0.00     0.031 C 
ATOM     63  C   UNL     1      14.567   6.370  -8.324  1.00  0.00     0.029 A 
ATOM     64  C   UNL     1      13.691   7.259  -8.951  1.00  0.00     0.049 A 
ATOM     65  H   UNL     1      12.691   6.797 -10.749  1.00  0.00     0.167 HD
ATOM     66  C   UNL     1      12.171   9.225  -9.025  1.00  0.00     0.074 A 
ATOM     67  C   UNL     1      11.035   8.752  -9.815  1.00  0.00     0.031 C 
ATOM     68  C   UNL     1      13.350   8.636  -8.669  1.00  0.00     0.031 A 
BRANCH  55  69
ATOM     69  C   UNL     1      11.049   4.244 -10.770  1.00  0.00    -0.014 A 
ATOM     70  C   UNL     1      11.811   4.319 -11.953  1.00  0.00     0.009 A 
ATOM     71  C   UNL     1       9.651   4.220 -10.919  1.00  0.00     0.009 A 
ATOM     72  C   UNL     1      11.205   4.475 -13.204  1.00  0.00     0.001 A 
ATOM     73  C   UNL     1       9.042   4.334 -12.173  1.00  0.00     0.001 A 
ATOM     74  C   UNL     1       9.819   4.497 -13.312  1.00  0.00     0.000 A 
ENDBRANCH  55  69
BRANCH  56  75
ATOM     75  C   UNL     1       8.463  11.662  -7.487  1.00  0.00    -0.014 A 
ATOM     76  C   UNL     1       8.668  12.726  -8.381  1.00  0.00     0.009 A 
ATOM     77  C   UNL     1       7.168  11.475  -6.973  1.00  0.00     0.009 A 
ATOM     78  C   UNL     1       7.602  13.539  -8.789  1.00  0.00     0.001 A 
ATOM     79  C   UNL     1       6.104  12.289  -7.378  1.00  0.00     0.001 A 
ATOM     80  C   UNL     1       6.318  13.308  -8.301  1.00  0.00     0.000 A 
ENDBRANCH  56  75
BRANCH  68  81
ATOM     81  C   UNL     1      14.249   9.364  -7.699  1.00  0.00    -0.014 A 
ATOM     82  C   UNL     1      13.848   9.741  -6.405  1.00  0.00     0.009 A 
ATOM     83  C   UNL     1      15.596   9.538  -8.052  1.00  0.00     0.009 A 
ATOM     84  C   UNL     1      14.761  10.307  -5.508  1.00  0.00     0.001 A 
ATOM     85  C   UNL     1      16.513  10.078  -7.148  1.00  0.00     0.001 A 
ATOM     86  C   UNL     1      16.094  10.470  -5.879  1.00  0.00     0.000 A 
ENDBRANCH  68  81
ENDBRANCH  42  43
ENDBRANCH  34  37
ENDBRANCH  32  33
ENDBRANCH  31  32
ENDBRANCH  30  31
ENDBRANCH   3  30
TORSDOF 15
