REMARK SMILES CN(CCOCC1CC1)c1nccnc1C(=O)NCCCNC(=O)c1ccc(-c2c3nc(c(-c4ccccc4)c4ccc([nH]4)c(-c4ccccc4)c4nc(c(-c5ccccc5)c5ccc2[nH]5)C=C4)C=C3)cc1
REMARK SMILES IDX 16 1 17 2 18 3 15 5 10 6 11 7 12 8 14 9 13 10 2 11 1 12 3 13
REMARK SMILES IDX 4 14 5 15 6 16 7 17 8 18 9 19 19 20 20 21 21 22 22 23 23 24
REMARK SMILES IDX 24 26 25 27 26 28 72 29 27 30 71 31 28 32 29 33 30 34 65 35
REMARK SMILES IDX 31 36 70 37 64 38 66 39 32 40 69 41 63 42 62 43 33 45 55 46
REMARK SMILES IDX 40 47 54 48 41 49 44 50 53 51 67 52 42 53 43 54 52 56 68 57
REMARK SMILES IDX 45 58 34 59 35 60 39 61 36 62 38 63 37 64 56 65 57 66 61 67
REMARK SMILES IDX 58 68 60 69 59 70 46 71 47 72 51 73 48 74 50 75 49 76
REMARK H PARENT 18 4 22 25 66 44 44 55
REMARK Flexibility Score: inf
ROOT
ATOM      1  C   UNL     1      -1.431   1.404  -3.639  1.00  0.00     0.273 C 
ATOM      2  O   UNL     1      -1.877   1.193  -4.777  1.00  0.00    -0.267 OA
ATOM      3  N   UNL     1      -2.430   1.290  -2.598  1.00  0.00    -0.351 N 
ATOM      4  H   UNL     1      -3.111   2.000  -2.562  1.00  0.00     0.163 HD
ENDROOT
BRANCH   1   5
ATOM      5  C   UNL     1      -0.070   2.224  -3.577  1.00  0.00     0.170 A 
ATOM      6  C   UNL     1       1.306   1.867  -3.267  1.00  0.00     0.160 A 
ATOM      7  N   UNL     1       2.284   2.823  -3.411  1.00  0.00    -0.235 NA
ATOM      8  C   UNL     1       1.967   4.059  -3.808  1.00  0.00     0.133 A 
ATOM      9  N   UNL     1      -0.356   3.521  -3.969  1.00  0.00    -0.246 NA
ATOM     10  C   UNL     1       0.670   4.399  -4.080  1.00  0.00     0.132 A 
BRANCH   6  11
ATOM     11  N   UNL     1       1.882   0.736  -2.724  1.00  0.00    -0.355 N 
ATOM     12  C   UNL     1       3.110   0.906  -1.918  1.00  0.00     0.145 C 
BRANCH  11  13
ATOM     13  C   UNL     1       1.251  -0.520  -2.472  1.00  0.00     0.146 C 
BRANCH  13  14
ATOM     14  C   UNL     1       0.315  -0.374  -1.288  1.00  0.00     0.181 C 
BRANCH  14  15
ATOM     15  O   UNL     1       0.494   0.542  -0.174  1.00  0.00    -0.379 OA
BRANCH  15  16
ATOM     16  C   UNL     1       0.186   1.949  -0.370  1.00  0.00     0.163 C 
BRANCH  16  17
ATOM     17  C   UNL     1      -0.865   2.558   0.543  1.00  0.00     0.015 C 
ATOM     18  C   UNL     1      -1.237   4.016   0.261  1.00  0.00     0.006 C 
ATOM     19  C   UNL     1      -2.283   2.970   0.136  1.00  0.00     0.006 C 
ENDBRANCH  16  17
ENDBRANCH  15  16
ENDBRANCH  14  15
ENDBRANCH  13  14
ENDBRANCH  11  13
ENDBRANCH   6  11
ENDBRANCH   1   5
BRANCH   3  20
ATOM     20  C   UNL     1      -2.539   0.209  -1.573  1.00  0.00     0.118 C 
BRANCH  20  21
ATOM     21  C   UNL     1      -3.615   0.104  -0.493  1.00  0.00     0.042 C 
BRANCH  21  22
ATOM     22  C   UNL     1      -4.083  -1.317  -0.106  1.00  0.00     0.118 C 
BRANCH  22  23
ATOM     23  N   UNL     1      -3.178  -2.444  -0.345  1.00  0.00    -0.352 N 
ATOM     24  C   UNL     1      -2.768  -3.553   0.393  1.00  0.00     0.251 C 
ATOM     25  H   UNL     1      -2.762  -2.411  -1.236  1.00  0.00     0.163 HD
ATOM     26  O   UNL     1      -2.050  -4.360  -0.145  1.00  0.00    -0.269 OA
BRANCH  24  27
ATOM     27  C   UNL     1      -3.140  -3.753   1.825  1.00  0.00     0.039 A 
ATOM     28  C   UNL     1      -2.292  -4.511   2.652  1.00  0.00     0.014 A 
ATOM     29  C   UNL     1      -4.296  -3.226   2.376  1.00  0.00     0.014 A 
ATOM     30  C   UNL     1      -2.554  -4.627   4.027  1.00  0.00     0.010 A 
ATOM     31  C   UNL     1      -4.465  -3.196   3.755  1.00  0.00     0.010 A 
ATOM     32  C   UNL     1      -3.608  -3.907   4.606  1.00  0.00    -0.014 A 
BRANCH  32  33
ATOM     33  C   UNL     1      -3.881  -3.883   6.072  1.00  0.00     0.031 A 
ATOM     34  C   UNL     1      -5.271  -4.194   6.579  1.00  0.00     0.074 A 
ATOM     35  C   UNL     1      -2.939  -3.452   6.936  1.00  0.00     0.049 A 
ATOM     36  N   UNL     1      -5.784  -4.006   7.769  1.00  0.00    -0.248 NA
ATOM     37  C   UNL     1      -6.234  -4.719   5.594  1.00  0.00     0.031 C 
ATOM     38  C   UNL     1      -1.573  -3.052   6.586  1.00  0.00     0.029 A 
ATOM     39  N   UNL     1      -2.996  -3.261   8.296  1.00  0.00    -0.354 N 
ATOM     40  C   UNL     1      -7.135  -4.318   7.649  1.00  0.00     0.074 A 
ATOM     41  C   UNL     1      -7.374  -4.638   6.261  1.00  0.00     0.031 C 
ATOM     42  C   UNL     1      -0.911  -2.709   7.703  1.00  0.00     0.029 A 
ATOM     43  C   UNL     1      -1.817  -2.809   8.841  1.00  0.00     0.049 A 
ATOM     44  H   UNL     1      -3.805  -3.432   8.829  1.00  0.00     0.167 HD
ATOM     45  C   UNL     1      -8.088  -4.370   8.610  1.00  0.00     0.031 A 
ATOM     46  C   UNL     1      -1.503  -2.504  10.114  1.00  0.00     0.031 A 
ATOM     47  C   UNL     1      -7.829  -4.138  10.004  1.00  0.00     0.049 A 
ATOM     48  C   UNL     1      -2.556  -2.639  11.178  1.00  0.00     0.074 A 
ATOM     49  C   UNL     1      -8.693  -4.268  11.076  1.00  0.00     0.029 A 
ATOM     50  N   UNL     1      -6.601  -3.753  10.519  1.00  0.00    -0.354 N 
ATOM     51  N   UNL     1      -3.812  -2.993  11.057  1.00  0.00    -0.248 NA
ATOM     52  C   UNL     1      -2.143  -2.343  12.558  1.00  0.00     0.031 C 
ATOM     53  C   UNL     1      -7.995  -3.929  12.239  1.00  0.00     0.029 A 
ATOM     54  C   UNL     1      -6.686  -3.634  11.894  1.00  0.00     0.049 A 
ATOM     55  H   UNL     1      -5.790  -3.589   9.985  1.00  0.00     0.167 HD
ATOM     56  C   UNL     1      -4.332  -2.990  12.345  1.00  0.00     0.074 A 
ATOM     57  C   UNL     1      -3.251  -2.616  13.233  1.00  0.00     0.031 C 
ATOM     58  C   UNL     1      -5.593  -3.270  12.757  1.00  0.00     0.031 A 
BRANCH  45  59
ATOM     59  C   UNL     1      -9.489  -4.716   8.182  1.00  0.00    -0.014 A 
ATOM     60  C   UNL     1      -9.810  -5.994   7.692  1.00  0.00     0.009 A 
ATOM     61  C   UNL     1     -10.508  -3.756   8.280  1.00  0.00     0.009 A 
ATOM     62  C   UNL     1     -11.105  -6.284   7.259  1.00  0.00     0.001 A 
ATOM     63  C   UNL     1     -11.811  -4.060   7.880  1.00  0.00     0.001 A 
ATOM     64  C   UNL     1     -12.106  -5.319   7.357  1.00  0.00     0.000 A 
ENDBRANCH  45  59
BRANCH  46  65
ATOM     65  C   UNL     1      -0.120  -2.081  10.463  1.00  0.00    -0.014 A 
ATOM     66  C   UNL     1       0.722  -2.948  11.178  1.00  0.00     0.009 A 
ATOM     67  C   UNL     1       0.369  -0.821  10.088  1.00  0.00     0.009 A 
ATOM     68  C   UNL     1       2.013  -2.551  11.535  1.00  0.00     0.001 A 
ATOM     69  C   UNL     1       1.671  -0.437  10.421  1.00  0.00     0.001 A 
ATOM     70  C   UNL     1       2.488  -1.298  11.153  1.00  0.00     0.000 A 
ENDBRANCH  46  65
BRANCH  58  71
ATOM     71  C   UNL     1      -5.857  -3.224  14.233  1.00  0.00    -0.014 A 
ATOM     72  C   UNL     1      -5.938  -2.004  14.921  1.00  0.00     0.009 A 
ATOM     73  C   UNL     1      -6.080  -4.420  14.934  1.00  0.00     0.009 A 
ATOM     74  C   UNL     1      -6.206  -1.984  16.290  1.00  0.00     0.001 A 
ATOM     75  C   UNL     1      -6.376  -4.395  16.297  1.00  0.00     0.001 A 
ATOM     76  C   UNL     1      -6.430  -3.179  16.975  1.00  0.00     0.000 A 
ENDBRANCH  58  71
ENDBRANCH  32  33
ENDBRANCH  24  27
ENDBRANCH  22  23
ENDBRANCH  21  22
ENDBRANCH  20  21
ENDBRANCH   3  20
TORSDOF 16
