REMARK SMILES C[C@H](C(=O)NCCCNC(=O)c1ccc(-c2c3nc(c(-c4ccccc4)c4ccc([nH]4)c(-c4ccccc4)c4nc(c(-c5ccccc5)c5ccc2[nH]5)C=C4)C=C3)cc1)[C@@H](C)[N@@H+](C)C[C@H]1C[C@H](O)C1
REMARK SMILES IDX 3 1 4 2 5 3 2 5 1 6 60 7 61 8 62 9 63 10 64 12 65 13 69 14
REMARK SMILES IDX 66 15 67 16 68 17 6 19 7 20 8 21 9 22 10 23 11 25 12 26
REMARK SMILES IDX 13 27 59 28 14 29 58 30 15 31 16 32 17 33 52 34 18 35 57 36
REMARK SMILES IDX 51 37 53 38 19 39 56 40 50 41 49 42 20 44 42 45 27 46 41 47
REMARK SMILES IDX 28 48 31 49 40 50 54 51 29 52 30 53 39 55 55 56 32 57 21 58
REMARK SMILES IDX 22 59 26 60 23 61 25 62 24 63 43 64 44 65 48 66 45 67 47 68
REMARK SMILES IDX 46 69 33 70 34 71 38 72 35 73 37 74 36 75
REMARK H PARENT 5 4 62 11 68 18 9 24 53 43 31 54
REMARK Flexibility Score: inf
ROOT
ATOM      1  C   UNL     1       1.059  -0.080  -0.135  1.00  0.00     0.228 C 
ATOM      2  O   UNL     1       2.279  -0.235   0.031  1.00  0.00    -0.275 OA
ATOM      3  N   UNL     1       0.273  -0.838   0.690  1.00  0.00    -0.356 N 
ATOM      4  H   UNL     1       0.737  -1.609   1.087  1.00  0.00     0.163 HD
ENDROOT
BRANCH   1   5
ATOM      5  C   UNL     1       0.584   0.843  -1.297  1.00  0.00     0.133 C 
ATOM      6  C   UNL     1       0.981   0.101  -2.588  1.00  0.00     0.024 C 
BRANCH   5   7
ATOM      7  C   UNL     1      -0.895   1.295  -1.309  1.00  0.00     0.192 C 
ATOM      8  C   UNL     1      -1.257   1.996   0.012  1.00  0.00     0.076 C 
BRANCH   7   9
ATOM      9  N   UNL     1      -1.391   1.968  -2.532  1.00  0.00    -0.334 N 
ATOM     10  C   UNL     1      -2.752   1.564  -2.881  1.00  0.00     0.332 C 
ATOM     11  H   UNL     1      -0.720   1.575  -3.191  1.00  0.00     0.348 HD
BRANCH   9  12
ATOM     12  C   UNL     1      -1.076   3.369  -2.843  1.00  0.00     0.265 C 
BRANCH  12  13
ATOM     13  C   UNL     1      -1.593   4.413  -1.860  1.00  0.00     0.049 C 
ATOM     14  C   UNL     1      -3.093   4.381  -1.411  1.00  0.00     0.041 C 
ATOM     15  C   UNL     1      -1.865   5.895  -2.234  1.00  0.00     0.041 C 
ATOM     16  C   UNL     1      -2.949   5.885  -1.114  1.00  0.00     0.115 C 
BRANCH  16  17
ATOM     17  O   UNL     1      -2.519   6.226   0.223  1.00  0.00    -0.393 OA
ATOM     18  H   UNL     1      -1.738   5.701   0.455  1.00  0.00     0.210 HD
ENDBRANCH  16  17
ENDBRANCH  12  13
ENDBRANCH   9  12
ENDBRANCH   7   9
ENDBRANCH   5   7
ENDBRANCH   1   5
BRANCH   3  19
ATOM     19  C   UNL     1      -1.121  -0.716   1.090  1.00  0.00     0.117 C 
BRANCH  19  20
ATOM     20  C   UNL     1      -1.759  -1.917   1.748  1.00  0.00     0.042 C 
BRANCH  20  21
ATOM     21  C   UNL     1      -1.379  -2.089   3.207  1.00  0.00     0.118 C 
BRANCH  21  22
ATOM     22  N   UNL     1      -1.766  -0.973   4.075  1.00  0.00    -0.352 N 
ATOM     23  C   UNL     1      -2.784  -0.785   4.983  1.00  0.00     0.251 C 
ATOM     24  H   UNL     1      -1.173  -0.192   3.990  1.00  0.00     0.163 HD
ATOM     25  O   UNL     1      -2.913   0.320   5.511  1.00  0.00    -0.269 OA
BRANCH  23  26
ATOM     26  C   UNL     1      -3.756  -1.855   5.300  1.00  0.00     0.039 A 
ATOM     27  C   UNL     1      -5.080  -1.519   5.606  1.00  0.00     0.014 A 
ATOM     28  C   UNL     1      -3.384  -3.193   5.292  1.00  0.00     0.014 A 
ATOM     29  C   UNL     1      -6.033  -2.528   5.778  1.00  0.00     0.010 A 
ATOM     30  C   UNL     1      -4.354  -4.183   5.283  1.00  0.00     0.010 A 
ATOM     31  C   UNL     1      -5.692  -3.870   5.546  1.00  0.00    -0.014 A 
BRANCH  31  32
ATOM     32  C   UNL     1      -6.697  -4.964   5.591  1.00  0.00     0.031 A 
ATOM     33  C   UNL     1      -6.485  -6.154   6.494  1.00  0.00     0.074 A 
ATOM     34  C   UNL     1      -7.755  -4.933   4.755  1.00  0.00     0.049 A 
ATOM     35  N   UNL     1      -7.200  -7.246   6.605  1.00  0.00    -0.248 NA
ATOM     36  C   UNL     1      -5.285  -6.143   7.350  1.00  0.00     0.031 C 
ATOM     37  C   UNL     1      -8.035  -3.885   3.770  1.00  0.00     0.029 A 
ATOM     38  N   UNL     1      -8.796  -5.814   4.601  1.00  0.00    -0.354 N 
ATOM     39  C   UNL     1      -6.520  -8.052   7.510  1.00  0.00     0.074 A 
ATOM     40  C   UNL     1      -5.299  -7.365   7.857  1.00  0.00     0.031 C 
ATOM     41  C   UNL     1      -9.197  -4.155   3.154  1.00  0.00     0.029 A 
ATOM     42  C   UNL     1      -9.722  -5.415   3.666  1.00  0.00     0.049 A 
ATOM     43  H   UNL     1      -8.873  -6.652   5.111  1.00  0.00     0.167 HD
ATOM     44  C   UNL     1      -6.893  -9.240   8.041  1.00  0.00     0.031 A 
ATOM     45  C   UNL     1     -10.869  -5.996   3.270  1.00  0.00     0.031 A 
ATOM     46  C   UNL     1      -8.129  -9.904   7.732  1.00  0.00     0.049 A 
ATOM     47  C   UNL     1     -11.286  -7.292   3.907  1.00  0.00     0.074 A 
ATOM     48  C   UNL     1      -8.637 -11.075   8.265  1.00  0.00     0.029 A 
ATOM     49  N   UNL     1      -9.058  -9.443   6.814  1.00  0.00    -0.354 N 
ATOM     50  N   UNL     1     -10.664  -8.003   4.816  1.00  0.00    -0.248 NA
ATOM     51  C   UNL     1     -12.572  -7.854   3.475  1.00  0.00     0.031 C 
ATOM     52  C   UNL     1      -9.860 -11.342   7.639  1.00  0.00     0.029 A 
ATOM     53  C   UNL     1     -10.133 -10.311   6.755  1.00  0.00     0.049 A 
ATOM     54  H   UNL     1      -8.967  -8.619   6.282  1.00  0.00     0.167 HD
ATOM     55  C   UNL     1     -11.490  -9.087   5.078  1.00  0.00     0.074 A 
ATOM     56  C   UNL     1     -12.670  -8.922   4.253  1.00  0.00     0.031 C 
ATOM     57  C   UNL     1     -11.291 -10.130   5.920  1.00  0.00     0.031 A 
BRANCH  44  58
ATOM     58  C   UNL     1      -5.957  -9.879   9.030  1.00  0.00    -0.014 A 
ATOM     59  C   UNL     1      -5.745  -9.313  10.299  1.00  0.00     0.009 A 
ATOM     60  C   UNL     1      -5.291 -11.070   8.701  1.00  0.00     0.009 A 
ATOM     61  C   UNL     1      -4.855  -9.900  11.199  1.00  0.00     0.001 A 
ATOM     62  C   UNL     1      -4.425 -11.673   9.617  1.00  0.00     0.001 A 
ATOM     63  C   UNL     1      -4.200 -11.083  10.859  1.00  0.00     0.000 A 
ENDBRANCH  44  58
BRANCH  45  64
ATOM     64  C   UNL     1     -11.723  -5.343   2.243  1.00  0.00    -0.014 A 
ATOM     65  C   UNL     1     -12.954  -4.771   2.600  1.00  0.00     0.009 A 
ATOM     66  C   UNL     1     -11.316  -5.292   0.900  1.00  0.00     0.009 A 
ATOM     67  C   UNL     1     -13.774  -4.190   1.630  1.00  0.00     0.001 A 
ATOM     68  C   UNL     1     -12.124  -4.683  -0.062  1.00  0.00     0.001 A 
ATOM     69  C   UNL     1     -13.357  -4.143   0.301  1.00  0.00     0.000 A 
ENDBRANCH  45  64
BRANCH  57  70
ATOM     70  C   UNL     1     -12.384 -11.157   5.999  1.00  0.00    -0.014 A 
ATOM     71  C   UNL     1     -12.618 -12.050   4.941  1.00  0.00     0.009 A 
ATOM     72  C   UNL     1     -13.172 -11.246   7.156  1.00  0.00     0.009 A 
ATOM     73  C   UNL     1     -13.650 -12.985   5.025  1.00  0.00     0.001 A 
ATOM     74  C   UNL     1     -14.184 -12.203   7.249  1.00  0.00     0.001 A 
ATOM     75  C   UNL     1     -14.429 -13.063   6.179  1.00  0.00     0.000 A 
ENDBRANCH  57  70
ENDBRANCH  31  32
ENDBRANCH  23  26
ENDBRANCH  21  22
ENDBRANCH  20  21
ENDBRANCH  19  20
ENDBRANCH   3  19
TORSDOF 15
