REMARK SMILES CCOc1ccc(NC(=O)[C@@H]2[C@@H](C(=O)NCCCNC(=O)c3ccc(-c4c5nc(c(-c6ccccc6)c6ccc([nH]6)c(-c6ccccc6)c6nc(c(-c7ccccc7)c7ccc4[nH]7)C=C6)C=C5)cc3)[C@H]3C=C[C@@H]2C3)cc1
REMARK SMILES IDX 16 1 15 2 13 3 14 4 12 6 11 7 73 8 70 9 72 10 74 11 71 12
REMARK SMILES IDX 9 13 8 14 10 16 7 17 4 18 5 19 76 20 6 21 75 22 3 23 2 24
REMARK SMILES IDX 1 25 17 26 18 27 19 28 20 29 21 31 22 32 23 33 69 34 24 35
REMARK SMILES IDX 68 36 25 37 26 38 27 39 62 40 28 41 67 42 61 43 63 44 29 45
REMARK SMILES IDX 66 46 60 47 59 48 30 50 52 51 37 52 51 53 38 54 41 55 50 56
REMARK SMILES IDX 64 57 39 58 40 59 49 61 65 62 42 63 31 64 32 65 36 66 33 67
REMARK SMILES IDX 35 68 34 69 53 70 54 71 58 72 55 73 57 74 56 75 43 76 44 77
REMARK SMILES IDX 48 78 45 79 47 80 46 81
REMARK H PARENT 15 5 8 15 19 30 63 49 41 60
REMARK Flexibility Score: inf
ROOT
ATOM      1  C   UNL     1       8.874   0.275  -6.809  1.00  0.00     0.117 C 
ENDROOT
BRANCH   1   2
ATOM      2  N   UNL     1       7.864   0.951  -7.587  1.00  0.00    -0.356 N 
ATOM      3  C   UNL     1       6.550   1.175  -7.377  1.00  0.00     0.224 C 
ATOM      4  O   UNL     1       6.044   1.996  -8.153  1.00  0.00    -0.275 OA
ATOM      5  H   UNL     1       8.199   1.321  -8.435  1.00  0.00     0.163 HD
BRANCH   3   6
ATOM      6  C   UNL     1       5.742   0.578  -6.215  1.00  0.00     0.098 C 
ATOM      7  C   UNL     1       5.788  -0.972  -5.926  1.00  0.00     0.099 C 
ATOM      8  C   UNL     1       4.319  -1.391  -6.107  1.00  0.00     0.025 C 
ATOM      9  C   UNL     1       4.226   0.782  -6.585  1.00  0.00     0.025 C 
ATOM     10  C   UNL     1       3.984  -1.281  -7.578  1.00  0.00    -0.027 C 
ATOM     11  C   UNL     1       3.548  -0.162  -5.610  1.00  0.00     0.017 C 
ATOM     12  C   UNL     1       3.900   0.024  -7.859  1.00  0.00    -0.027 C 
BRANCH   7  13
ATOM     13  C   UNL     1       6.496  -1.363  -4.607  1.00  0.00     0.228 C 
ATOM     14  N   UNL     1       6.035  -1.220  -3.335  1.00  0.00    -0.326 N 
ATOM     15  H   UNL     1       6.763  -1.062  -2.691  1.00  0.00     0.169 HD
ATOM     16  O   UNL     1       7.693  -1.691  -4.676  1.00  0.00    -0.274 OA
BRANCH  14  17
ATOM     17  C   UNL     1       4.779  -1.240  -2.718  1.00  0.00     0.041 A 
ATOM     18  C   UNL     1       2.248  -0.991  -1.534  1.00  0.00     0.119 A 
ATOM     19  C   UNL     1       2.460  -1.915  -2.552  1.00  0.00     0.048 A 
ATOM     20  C   UNL     1       3.336  -0.307  -1.001  1.00  0.00     0.048 A 
ATOM     21  C   UNL     1       3.731  -2.063  -3.117  1.00  0.00     0.030 A 
ATOM     22  C   UNL     1       4.601  -0.441  -1.586  1.00  0.00     0.030 A 
BRANCH  18  23
ATOM     23  O   UNL     1       0.964  -0.881  -1.085  1.00  0.00    -0.494 OA
BRANCH  23  24
ATOM     24  C   UNL     1       0.542   0.429  -0.694  1.00  0.00     0.226 C 
ATOM     25  C   UNL     1       0.419   0.496   0.817  1.00  0.00     0.049 C 
ENDBRANCH  23  24
ENDBRANCH  18  23
ENDBRANCH  14  17
ENDBRANCH   7  13
ENDBRANCH   3   6
ENDBRANCH   1   2
BRANCH   1  26
ATOM     26  C   UNL     1       9.268  -1.075  -7.402  1.00  0.00     0.042 C 
BRANCH  26  27
ATOM     27  C   UNL     1       9.718  -1.032  -8.862  1.00  0.00     0.118 C 
BRANCH  27  28
ATOM     28  N   UNL     1      10.881  -0.183  -9.079  1.00  0.00    -0.352 N 
ATOM     29  C   UNL     1      12.107  -0.473  -9.614  1.00  0.00     0.251 C 
ATOM     30  H   UNL     1      10.767   0.752  -8.793  1.00  0.00     0.163 HD
ATOM     31  O   UNL     1      13.008   0.366  -9.547  1.00  0.00    -0.269 OA
BRANCH  29  32
ATOM     32  C   UNL     1      12.379  -1.778 -10.255  1.00  0.00     0.039 A 
ATOM     33  C   UNL     1      13.611  -2.392 -10.015  1.00  0.00     0.014 A 
ATOM     34  C   UNL     1      11.461  -2.376 -11.124  1.00  0.00     0.014 A 
ATOM     35  C   UNL     1      13.901  -3.628 -10.598  1.00  0.00     0.010 A 
ATOM     36  C   UNL     1      11.723  -3.641 -11.652  1.00  0.00     0.010 A 
ATOM     37  C   UNL     1      12.946  -4.278 -11.396  1.00  0.00    -0.014 A 
BRANCH  37  38
ATOM     38  C   UNL     1      13.218  -5.634 -11.940  1.00  0.00     0.031 A 
ATOM     39  C   UNL     1      13.345  -5.864 -13.420  1.00  0.00     0.074 A 
ATOM     40  C   UNL     1      13.309  -6.675 -11.090  1.00  0.00     0.049 A 
ATOM     41  N   UNL     1      13.604  -6.976 -14.061  1.00  0.00    -0.248 NA
ATOM     42  C   UNL     1      13.129  -4.702 -14.295  1.00  0.00     0.031 C 
ATOM     43  C   UNL     1      13.140  -6.598  -9.637  1.00  0.00     0.029 A 
ATOM     44  N   UNL     1      13.564  -8.002 -11.325  1.00  0.00    -0.354 N 
ATOM     45  C   UNL     1      13.567  -6.652 -15.412  1.00  0.00     0.074 A 
ATOM     46  C   UNL     1      13.216  -5.251 -15.498  1.00  0.00     0.031 C 
ATOM     47  C   UNL     1      13.327  -7.818  -9.108  1.00  0.00     0.029 A 
ATOM     48  C   UNL     1      13.600  -8.765 -10.184  1.00  0.00     0.049 A 
ATOM     49  H   UNL     1      13.708  -8.373 -12.226  1.00  0.00     0.167 HD
ATOM     50  C   UNL     1      13.817  -7.444 -16.483  1.00  0.00     0.031 A 
ATOM     51  C   UNL     1      13.831 -10.081 -10.017  1.00  0.00     0.031 A 
ATOM     52  C   UNL     1      14.173  -8.836 -16.397  1.00  0.00     0.049 A 
ATOM     53  C   UNL     1      14.133 -10.932 -11.216  1.00  0.00     0.074 A 
ATOM     54  C   UNL     1      14.523  -9.702 -17.420  1.00  0.00     0.029 A 
ATOM     55  N   UNL     1      14.217  -9.569 -15.222  1.00  0.00    -0.354 N 
ATOM     56  N   UNL     1      14.190 -10.588 -12.480  1.00  0.00    -0.248 NA
ATOM     57  C   UNL     1      14.421 -12.350 -10.962  1.00  0.00     0.031 C 
ATOM     58  C   UNL     1      14.726 -10.972 -16.868  1.00  0.00     0.029 A 
ATOM     59  C   UNL     1      14.557 -10.884 -15.495  1.00  0.00     0.049 A 
ATOM     60  H   UNL     1      14.033  -9.209 -14.324  1.00  0.00     0.167 HD
ATOM     61  C   UNL     1      14.533 -11.742 -13.171  1.00  0.00     0.074 A 
ATOM     62  C   UNL     1      14.698 -12.788 -12.182  1.00  0.00     0.031 C 
ATOM     63  C   UNL     1      14.695 -11.920 -14.505  1.00  0.00     0.031 A 
BRANCH  50  64
ATOM     64  C   UNL     1      13.699  -6.819 -17.846  1.00  0.00    -0.014 A 
ATOM     65  C   UNL     1      14.630  -5.869 -18.298  1.00  0.00     0.009 A 
ATOM     66  C   UNL     1      12.656  -7.206 -18.702  1.00  0.00     0.009 A 
ATOM     67  C   UNL     1      14.494  -5.290 -19.561  1.00  0.00     0.001 A 
ATOM     68  C   UNL     1      12.539  -6.646 -19.976  1.00  0.00     0.001 A 
ATOM     69  C   UNL     1      13.451  -5.681 -20.401  1.00  0.00     0.000 A 
ENDBRANCH  50  64
BRANCH  51  70
ATOM     70  C   UNL     1      13.808 -10.665  -8.652  1.00  0.00    -0.014 A 
ATOM     71  C   UNL     1      14.999 -11.060  -8.025  1.00  0.00     0.009 A 
ATOM     72  C   UNL     1      12.594 -10.818  -7.964  1.00  0.00     0.009 A 
ATOM     73  C   UNL     1      14.973 -11.614  -6.743  1.00  0.00     0.001 A 
ATOM     74  C   UNL     1      12.574 -11.348  -6.673  1.00  0.00     0.001 A 
ATOM     75  C   UNL     1      13.762 -11.753  -6.066  1.00  0.00     0.000 A 
ENDBRANCH  51  70
BRANCH  63  76
ATOM     76  C   UNL     1      15.075 -13.300 -14.963  1.00  0.00    -0.014 A 
ATOM     77  C   UNL     1      14.155 -14.359 -14.921  1.00  0.00     0.009 A 
ATOM     78  C   UNL     1      16.368 -13.541 -15.454  1.00  0.00     0.009 A 
ATOM     79  C   UNL     1      14.535 -15.642 -15.320  1.00  0.00     0.001 A 
ATOM     80  C   UNL     1      16.736 -14.818 -15.880  1.00  0.00     0.001 A 
ATOM     81  C   UNL     1      15.824 -15.870 -15.802  1.00  0.00     0.000 A 
ENDBRANCH  63  76
ENDBRANCH  37  38
ENDBRANCH  29  32
ENDBRANCH  27  28
ENDBRANCH  26  27
ENDBRANCH   1  26
TORSDOF 14
