REMARK SMILES Nc1c(Cl)ccc2c1C=C(C(=O)NCCCNC(=O)c1ccc(-c3c4nc(c(-c5ccccc5)c5ccc([nH]5)c(-c5ccccc5)c5nc(c(-c6ccccc6)c6ccc3[nH]6)C=C5)C=C4)cc1)[C@@H](C(F)(F)F)O2
REMARK SMILES IDX 15 1 14 2 13 3 11 4 12 5 10 7 2 8 3 9 8 10 4 11 5 12 7 13
REMARK SMILES IDX 9 14 6 15 73 16 68 17 1 18 69 21 70 22 71 23 72 24 16 25
REMARK SMILES IDX 17 26 18 27 19 29 20 30 21 31 67 32 22 33 66 34 23 35 24 36
REMARK SMILES IDX 25 37 60 38 26 39 65 40 59 41 61 42 27 43 64 44 58 45 57 46
REMARK SMILES IDX 28 48 50 49 35 50 49 51 36 52 39 53 48 54 62 55 37 56 38 57
REMARK SMILES IDX 47 59 63 60 40 61 29 62 30 63 34 64 31 65 33 66 32 67 51 68
REMARK SMILES IDX 52 69 56 70 53 71 55 72 54 73 41 74 42 75 46 76 43 77 45 78
REMARK SMILES IDX 44 79
REMARK H PARENT 13 6 1 19 1 20 17 28 61 47 39 58
REMARK Flexibility Score: inf
ROOT
ATOM      1  C   UNL     1      -5.635   4.101   2.608  1.00  0.00     0.042 C 
ENDROOT
BRANCH   1   2
ATOM      2  C   UNL     1      -4.156   4.457   2.650  1.00  0.00     0.118 C 
BRANCH   2   3
ATOM      3  N   UNL     1      -3.346   3.322   3.067  1.00  0.00    -0.352 N 
ATOM      4  C   UNL     1      -2.471   2.462   2.501  1.00  0.00     0.251 C 
ATOM      5  O   UNL     1      -2.030   1.594   3.262  1.00  0.00    -0.270 OA
ATOM      6  H   UNL     1      -3.469   3.128   4.024  1.00  0.00     0.163 HD
BRANCH   4   7
ATOM      7  C   UNL     1      -2.024   2.498   1.079  1.00  0.00     0.067 C 
ATOM      8  C   UNL     1       0.407   0.650  -1.065  1.00  0.00     0.061 A 
ATOM      9  C   UNL     1       0.824   0.709  -2.415  1.00  0.00     0.064 A 
ATOM     10  C   UNL     1      -0.655   1.490  -0.661  1.00  0.00     0.042 A 
ATOM     11  Cl  UNL     1       2.143  -0.265  -2.975  1.00  0.00    -0.082 Cl
ATOM     12  C   UNL     1       0.185   1.533  -3.345  1.00  0.00     0.026 A 
ATOM     13  C   UNL     1      -1.274   2.323  -1.606  1.00  0.00     0.130 A 
ATOM     14  C   UNL     1      -1.182   1.516   0.707  1.00  0.00     0.027 C 
ATOM     15  C   UNL     1      -0.873   2.336  -2.940  1.00  0.00     0.049 A 
ATOM     16  O   UNL     1      -2.323   3.145  -1.298  1.00  0.00    -0.475 OA
ATOM     17  C   UNL     1      -2.425   3.551   0.092  1.00  0.00     0.314 C 
BRANCH   8  18
ATOM     18  N   UNL     1       1.113  -0.141  -0.154  1.00  0.00    -0.397 N 
ATOM     19  H   UNL     1       1.848  -0.716  -0.468  1.00  0.00     0.156 HD
ATOM     20  H   UNL     1       0.876  -0.123   0.801  1.00  0.00     0.156 HD
ENDBRANCH   8  18
BRANCH  17  21
ATOM     21  C   UNL     1      -1.680   4.884   0.301  1.00  0.00     0.429 C 
ATOM     22  F   UNL     1      -2.338   5.893  -0.324  1.00  0.00    -0.167 F 
ATOM     23  F   UNL     1      -1.598   5.234   1.607  1.00  0.00    -0.167 F 
ATOM     24  F   UNL     1      -0.418   4.862  -0.179  1.00  0.00    -0.167 F 
ENDBRANCH  17  21
ENDBRANCH   4   7
ENDBRANCH   2   3
ENDBRANCH   1   2
BRANCH   1  25
ATOM     25  C   UNL     1      -6.247   4.041   4.003  1.00  0.00     0.118 C 
BRANCH  25  26
ATOM     26  N   UNL     1      -6.274   5.359   4.630  1.00  0.00    -0.352 N 
ATOM     27  C   UNL     1      -7.319   6.238   4.762  1.00  0.00     0.251 C 
ATOM     28  H   UNL     1      -5.419   5.661   5.015  1.00  0.00     0.163 HD
ATOM     29  O   UNL     1      -7.111   7.415   5.043  1.00  0.00    -0.269 OA
BRANCH  27  30
ATOM     30  C   UNL     1      -8.697   5.757   4.566  1.00  0.00     0.039 A 
ATOM     31  C   UNL     1      -9.592   6.513   3.806  1.00  0.00     0.014 A 
ATOM     32  C   UNL     1      -9.105   4.560   5.163  1.00  0.00     0.014 A 
ATOM     33  C   UNL     1     -10.887   6.037   3.598  1.00  0.00     0.010 A 
ATOM     34  C   UNL     1     -10.366   4.051   4.893  1.00  0.00     0.010 A 
ATOM     35  C   UNL     1     -11.272   4.794   4.123  1.00  0.00    -0.014 A 
BRANCH  35  36
ATOM     36  C   UNL     1     -12.641   4.267   3.936  1.00  0.00     0.031 A 
ATOM     37  C   UNL     1     -13.550   4.145   5.126  1.00  0.00     0.074 A 
ATOM     38  C   UNL     1     -13.041   3.850   2.721  1.00  0.00     0.049 A 
ATOM     39  N   UNL     1     -14.753   3.639   5.191  1.00  0.00    -0.248 NA
ATOM     40  C   UNL     1     -13.033   4.637   6.415  1.00  0.00     0.031 C 
ATOM     41  C   UNL     1     -12.235   3.900   1.499  1.00  0.00     0.029 A 
ATOM     42  N   UNL     1     -14.229   3.298   2.316  1.00  0.00    -0.354 N 
ATOM     43  C   UNL     1     -15.129   3.743   6.523  1.00  0.00     0.074 A 
ATOM     44  C   UNL     1     -14.015   4.314   7.244  1.00  0.00     0.031 C 
ATOM     45  C   UNL     1     -12.964   3.425   0.476  1.00  0.00     0.029 A 
ATOM     46  C   UNL     1     -14.271   3.007   0.975  1.00  0.00     0.049 A 
ATOM     47  H   UNL     1     -14.980   3.126   2.928  1.00  0.00     0.167 HD
ATOM     48  C   UNL     1     -16.312   3.417   7.090  1.00  0.00     0.031 A 
ATOM     49  C   UNL     1     -15.254   2.464   0.232  1.00  0.00     0.031 A 
ATOM     50  C   UNL     1     -17.428   2.878   6.368  1.00  0.00     0.049 A 
ATOM     51  C   UNL     1     -16.551   2.090   0.890  1.00  0.00     0.074 A 
ATOM     52  C   UNL     1     -18.685   2.559   6.849  1.00  0.00     0.029 A 
ATOM     53  N   UNL     1     -17.425   2.590   5.014  1.00  0.00    -0.354 N 
ATOM     54  N   UNL     1     -16.904   2.224   2.146  1.00  0.00    -0.248 NA
ATOM     55  C   UNL     1     -17.587   1.494   0.034  1.00  0.00     0.031 C 
ATOM     56  C   UNL     1     -19.433   2.041   5.790  1.00  0.00     0.029 A 
ATOM     57  C   UNL     1     -18.655   2.080   4.643  1.00  0.00     0.049 A 
ATOM     58  H   UNL     1     -16.662   2.726   4.407  1.00  0.00     0.167 HD
ATOM     59  C   UNL     1     -18.206   1.750   2.227  1.00  0.00     0.074 A 
ATOM     60  C   UNL     1     -18.585   1.330   0.894  1.00  0.00     0.031 C 
ATOM     61  C   UNL     1     -19.013   1.673   3.311  1.00  0.00     0.031 A 
BRANCH  48  62
ATOM     62  C   UNL     1     -16.476   3.659   8.560  1.00  0.00    -0.014 A 
ATOM     63  C   UNL     1     -16.670   4.958   9.054  1.00  0.00     0.009 A 
ATOM     64  C   UNL     1     -16.529   2.574   9.448  1.00  0.00     0.009 A 
ATOM     65  C   UNL     1     -16.909   5.167  10.412  1.00  0.00     0.001 A 
ATOM     66  C   UNL     1     -16.788   2.785  10.803  1.00  0.00     0.001 A 
ATOM     67  C   UNL     1     -16.977   4.080  11.284  1.00  0.00     0.000 A 
ENDBRANCH  48  62
BRANCH  49  68
ATOM     68  C   UNL     1     -15.052   2.278  -1.227  1.00  0.00    -0.014 A 
ATOM     69  C   UNL     1     -15.674   3.141  -2.141  1.00  0.00     0.009 A 
ATOM     70  C   UNL     1     -14.205   1.268  -1.712  1.00  0.00     0.009 A 
ATOM     71  C   UNL     1     -15.458   2.993  -3.513  1.00  0.00     0.001 A 
ATOM     72  C   UNL     1     -13.976   1.136  -3.083  1.00  0.00     0.001 A 
ATOM     73  C   UNL     1     -14.605   1.996  -3.982  1.00  0.00     0.000 A 
ENDBRANCH  49  68
BRANCH  61  74
ATOM     74  C   UNL     1     -20.398   1.131   3.120  1.00  0.00    -0.014 A 
ATOM     75  C   UNL     1     -20.620  -0.249   3.022  1.00  0.00     0.009 A 
ATOM     76  C   UNL     1     -21.498   2.002   3.182  1.00  0.00     0.009 A 
ATOM     77  C   UNL     1     -21.922  -0.750   2.988  1.00  0.00     0.001 A 
ATOM     78  C   UNL     1     -22.798   1.496   3.169  1.00  0.00     0.001 A 
ATOM     79  C   UNL     1     -23.009   0.121   3.072  1.00  0.00     0.000 A 
ENDBRANCH  61  74
ENDBRANCH  35  36
ENDBRANCH  27  30
ENDBRANCH  25  26
ENDBRANCH   1  25
TORSDOF 12
