REMARK SMILES Cc1cc(Cl)c2c(c1)C=C(C(=O)NCCCNC(=O)c1ccc(-c3c4nc(c(-c5ccccc5)c5ccc([nH]5)c(-c5ccccc5)c5nc(c(-c6ccccc6)c6ccc3[nH]6)C=C5)C=C4)cc1)[C@@H](C(F)(F)F)O2
REMARK SMILES IDX 15 1 14 2 13 3 11 4 12 5 10 7 1 8 2 9 3 10 8 11 4 12 7 13
REMARK SMILES IDX 5 14 6 15 9 16 73 17 68 18 69 19 70 20 71 21 72 22 16 23
REMARK SMILES IDX 17 24 18 25 19 27 20 28 21 29 67 30 22 31 66 32 23 33 24 34
REMARK SMILES IDX 25 35 60 36 26 37 65 38 59 39 61 40 27 41 64 42 58 43 57 44
REMARK SMILES IDX 28 46 50 47 35 48 49 49 36 50 39 51 48 52 62 53 37 54 38 55
REMARK SMILES IDX 47 57 63 58 40 59 29 60 30 61 34 62 31 63 33 64 32 65 51 66
REMARK SMILES IDX 52 67 56 68 53 69 55 70 54 71 41 72 42 73 46 74 43 75 45 76
REMARK SMILES IDX 44 77
REMARK H PARENT 13 6 17 26 61 45 39 56
REMARK Flexibility Score: inf
ROOT
ATOM      1  C   UNL     1      -1.105  -4.867   8.483  1.00  0.00     0.042 C 
ENDROOT
BRANCH   1   2
ATOM      2  C   UNL     1      -2.149  -4.402   7.480  1.00  0.00     0.118 C 
BRANCH   2   3
ATOM      3  N   UNL     1      -2.152  -2.955   7.331  1.00  0.00    -0.352 N 
ATOM      4  C   UNL     1      -1.785  -2.054   6.391  1.00  0.00     0.251 C 
ATOM      5  O   UNL     1      -1.975  -0.872   6.694  1.00  0.00    -0.270 OA
ATOM      6  H   UNL     1      -2.521  -2.512   8.129  1.00  0.00     0.163 HD
BRANCH   4   7
ATOM      7  C   UNL     1      -1.183  -2.392   5.068  1.00  0.00     0.067 C 
ATOM      8  C   UNL     1       0.991   0.305  -0.071  1.00  0.00     0.044 C 
ATOM      9  C   UNL     1       0.671  -0.813   0.878  1.00  0.00    -0.049 A 
ATOM     10  C   UNL     1       1.020  -2.127   0.540  1.00  0.00     0.028 A 
ATOM     11  C   UNL     1       0.065  -0.561   2.116  1.00  0.00     0.015 A 
ATOM     12  C   UNL     1       0.766  -3.171   1.427  1.00  0.00     0.084 A 
ATOM     13  C   UNL     1      -0.197  -1.609   3.007  1.00  0.00     0.019 A 
ATOM     14  Cl  UNL     1       1.221  -4.774   0.970  1.00  0.00    -0.080 Cl
ATOM     15  C   UNL     1       0.154  -2.915   2.658  1.00  0.00     0.146 A 
ATOM     16  C   UNL     1      -0.788  -1.349   4.315  1.00  0.00     0.025 C 
ATOM     17  O   UNL     1      -0.029  -3.963   3.517  1.00  0.00    -0.474 OA
ATOM     18  C   UNL     1      -1.029  -3.792   4.552  1.00  0.00     0.314 C 
BRANCH  18  19
ATOM     19  C   UNL     1      -2.363  -4.402   4.079  1.00  0.00     0.429 C 
ATOM     20  F   UNL     1      -2.269  -5.754   4.017  1.00  0.00    -0.167 F 
ATOM     21  F   UNL     1      -3.388  -4.130   4.922  1.00  0.00    -0.167 F 
ATOM     22  F   UNL     1      -2.735  -3.961   2.858  1.00  0.00    -0.167 F 
ENDBRANCH  18  19
ENDBRANCH   4   7
ENDBRANCH   2   3
ENDBRANCH   1   2
BRANCH   1  23
ATOM     23  C   UNL     1      -1.570  -4.676   9.920  1.00  0.00     0.118 C 
BRANCH  23  24
ATOM     24  N   UNL     1      -2.737  -5.502  10.225  1.00  0.00    -0.352 N 
ATOM     25  C   UNL     1      -2.840  -6.651  10.965  1.00  0.00     0.251 C 
ATOM     26  H   UNL     1      -3.584  -5.182   9.837  1.00  0.00     0.163 HD
ATOM     27  O   UNL     1      -3.845  -7.353  10.873  1.00  0.00    -0.269 OA
BRANCH  25  28
ATOM     28  C   UNL     1      -1.744  -7.045  11.869  1.00  0.00     0.039 A 
ATOM     29  C   UNL     1      -1.387  -8.391  11.971  1.00  0.00     0.014 A 
ATOM     30  C   UNL     1      -1.086  -6.081  12.636  1.00  0.00     0.014 A 
ATOM     31  C   UNL     1      -0.323  -8.758  12.795  1.00  0.00     0.010 A 
ATOM     32  C   UNL     1       0.036  -6.432  13.371  1.00  0.00     0.010 A 
ATOM     33  C   UNL     1       0.418  -7.776  13.473  1.00  0.00    -0.014 A 
BRANCH  33  34
ATOM     34  C   UNL     1       1.577  -8.133  14.322  1.00  0.00     0.031 A 
ATOM     35  C   UNL     1       1.539  -7.842  15.797  1.00  0.00     0.074 A 
ATOM     36  C   UNL     1       2.677  -8.668  13.758  1.00  0.00     0.049 A 
ATOM     37  N   UNL     1       2.470  -8.031  16.697  1.00  0.00    -0.248 NA
ATOM     38  C   UNL     1       0.306  -7.234  16.330  1.00  0.00     0.031 C 
ATOM     39  C   UNL     1       2.843  -8.960  12.331  1.00  0.00     0.029 A 
ATOM     40  N   UNL     1       3.865  -9.066  14.317  1.00  0.00    -0.354 N 
ATOM     41  C   UNL     1       1.939  -7.559  17.891  1.00  0.00     0.074 A 
ATOM     42  C   UNL     1       0.633  -7.016  17.595  1.00  0.00     0.031 C 
ATOM     43  C   UNL     1       4.044  -9.527  12.135  1.00  0.00     0.029 A 
ATOM     44  C   UNL     1       4.750  -9.598  13.410  1.00  0.00     0.049 A 
ATOM     45  H   UNL     1       4.065  -8.978  15.277  1.00  0.00     0.167 HD
ATOM     46  C   UNL     1       2.479  -7.603  19.129  1.00  0.00     0.031 A 
ATOM     47  C   UNL     1       5.991 -10.088  13.588  1.00  0.00     0.031 A 
ATOM     48  C   UNL     1       3.767  -8.167  19.423  1.00  0.00     0.049 A 
ATOM     49  C   UNL     1       6.576 -10.104  14.974  1.00  0.00     0.074 A 
ATOM     50  C   UNL     1       4.381  -8.307  20.654  1.00  0.00     0.029 A 
ATOM     51  N   UNL     1       4.633  -8.690  18.476  1.00  0.00    -0.354 N 
ATOM     52  N   UNL     1       6.034  -9.712  16.102  1.00  0.00    -0.248 NA
ATOM     53  C   UNL     1       7.939 -10.636  15.114  1.00  0.00     0.031 C 
ATOM     54  C   UNL     1       5.644  -8.866  20.446  1.00  0.00     0.029 A 
ATOM     55  C   UNL     1       5.789  -9.130  19.093  1.00  0.00     0.049 A 
ATOM     56  H   UNL     1       4.452  -8.740  17.510  1.00  0.00     0.167 HD
ATOM     57  C   UNL     1       6.978  -9.972  17.086  1.00  0.00     0.074 A 
ATOM     58  C   UNL     1       8.118 -10.573  16.426  1.00  0.00     0.031 C 
ATOM     59  C   UNL     1       6.909  -9.731  18.418  1.00  0.00     0.031 A 
BRANCH  46  60
ATOM     60  C   UNL     1       1.675  -7.045  20.269  1.00  0.00    -0.014 A 
ATOM     61  C   UNL     1       0.534  -7.712  20.741  1.00  0.00     0.009 A 
ATOM     62  C   UNL     1       2.109  -5.887  20.932  1.00  0.00     0.009 A 
ATOM     63  C   UNL     1      -0.166  -7.222  21.846  1.00  0.00     0.001 A 
ATOM     64  C   UNL     1       1.424  -5.415  22.053  1.00  0.00     0.001 A 
ATOM     65  C   UNL     1       0.286  -6.080  22.506  1.00  0.00     0.000 A 
ENDBRANCH  46  60
BRANCH  47  66
ATOM     66  C   UNL     1       6.756 -10.624  12.431  1.00  0.00    -0.014 A 
ATOM     67  C   UNL     1       7.024 -11.998  12.329  1.00  0.00     0.009 A 
ATOM     68  C   UNL     1       7.222  -9.768  11.420  1.00  0.00     0.009 A 
ATOM     69  C   UNL     1       7.763 -12.499  11.255  1.00  0.00     0.001 A 
ATOM     70  C   UNL     1       7.934 -10.276  10.331  1.00  0.00     0.001 A 
ATOM     71  C   UNL     1       8.213 -11.639  10.255  1.00  0.00     0.000 A 
ENDBRANCH  47  66
BRANCH  59  72
ATOM     72  C   UNL     1       8.084 -10.134  19.261  1.00  0.00    -0.014 A 
ATOM     73  C   UNL     1       9.282  -9.406  19.227  1.00  0.00     0.009 A 
ATOM     74  C   UNL     1       7.955 -11.195  20.171  1.00  0.00     0.009 A 
ATOM     75  C   UNL     1      10.336  -9.745  20.076  1.00  0.00     0.001 A 
ATOM     76  C   UNL     1       8.999 -11.512  21.041  1.00  0.00     0.001 A 
ATOM     77  C   UNL     1      10.190 -10.790  20.989  1.00  0.00     0.000 A 
ENDBRANCH  59  72
ENDBRANCH  33  34
ENDBRANCH  25  28
ENDBRANCH  23  24
ENDBRANCH   1  23
TORSDOF 11
