REMARK SMILES C=CCSc1ccccc1C(=O)NCCCNC(=O)c1ccc(-c2c3nc(c(-c4ccccc4)c4ccc([nH]4)c(-c4ccccc4)c4nc(c(-c5ccccc5)c5ccc2[nH]5)C=C4)C=C3)cc1
REMARK SMILES IDX 14 1 13 2 11 3 12 4 10 6 5 7 6 8 7 9 9 10 8 11 4 12 3 13
REMARK SMILES IDX 2 14 1 15 15 16 16 17 17 18 18 19 19 21 20 22 21 23 67 24
REMARK SMILES IDX 22 25 66 26 23 27 24 28 25 29 60 30 26 31 65 32 59 33 61 34
REMARK SMILES IDX 27 35 64 36 58 37 57 38 28 40 50 41 35 42 49 43 36 44 39 45
REMARK SMILES IDX 48 46 62 47 37 48 38 49 47 51 63 52 40 53 29 54 30 55 34 56
REMARK SMILES IDX 31 57 33 58 32 59 51 60 52 61 56 62 53 63 55 64 54 65 41 66
REMARK SMILES IDX 42 67 46 68 43 69 45 70 44 71
REMARK H PARENT 13 5 17 20 61 39 39 50
REMARK Flexibility Score: inf
ROOT
ATOM      1  C   UNL     1      -1.817   1.170  -4.056  1.00  0.00     0.118 C 
ENDROOT
BRANCH   1   2
ATOM      2  N   UNL     1      -2.485   2.456  -4.045  1.00  0.00    -0.352 N 
ATOM      3  C   UNL     1      -2.518   3.470  -3.124  1.00  0.00     0.252 C 
ATOM      4  O   UNL     1      -3.283   4.410  -3.355  1.00  0.00    -0.269 OA
ATOM      5  H   UNL     1      -3.018   2.635  -4.853  1.00  0.00     0.163 HD
BRANCH   3   6
ATOM      6  C   UNL     1      -1.591   3.587  -1.966  1.00  0.00     0.053 A 
ATOM      7  C   UNL     1      -1.448   2.695  -0.884  1.00  0.00     0.020 A 
ATOM      8  C   UNL     1      -0.623   3.074   0.194  1.00  0.00     0.016 A 
ATOM      9  C   UNL     1       0.046   4.300   0.210  1.00  0.00     0.001 A 
ATOM     10  C   UNL     1      -0.919   4.829  -1.924  1.00  0.00     0.015 A 
ATOM     11  C   UNL     1      -0.109   5.184  -0.847  1.00  0.00     0.001 A 
BRANCH   7  12
ATOM     12  S   UNL     1      -2.415   1.209  -0.675  1.00  0.00    -0.121 SA
BRANCH  12  13
ATOM     13  C   UNL     1      -1.216  -0.123  -0.311  1.00  0.00     0.101 C 
BRANCH  13  14
ATOM     14  C   UNL     1       0.191   0.103  -0.770  1.00  0.00    -0.024 C 
ATOM     15  C   UNL     1       1.258   0.008   0.036  1.00  0.00     0.005 C 
ENDBRANCH  13  14
ENDBRANCH  12  13
ENDBRANCH   7  12
ENDBRANCH   3   6
ENDBRANCH   1   2
BRANCH   1  16
ATOM     16  C   UNL     1      -2.827   0.050  -3.796  1.00  0.00     0.042 C 
BRANCH  16  17
ATOM     17  C   UNL     1      -3.709  -0.273  -4.995  1.00  0.00     0.118 C 
BRANCH  17  18
ATOM     18  N   UNL     1      -3.074  -1.223  -5.893  1.00  0.00    -0.352 N 
ATOM     19  C   UNL     1      -3.362  -2.543  -6.124  1.00  0.00     0.251 C 
ATOM     20  H   UNL     1      -2.321  -0.864  -6.415  1.00  0.00     0.163 HD
ATOM     21  O   UNL     1      -2.541  -3.236  -6.735  1.00  0.00    -0.269 OA
BRANCH  19  22
ATOM     22  C   UNL     1      -4.624  -3.163  -5.654  1.00  0.00     0.039 A 
ATOM     23  C   UNL     1      -4.600  -4.495  -5.224  1.00  0.00     0.014 A 
ATOM     24  C   UNL     1      -5.844  -2.482  -5.701  1.00  0.00     0.014 A 
ATOM     25  C   UNL     1      -5.779  -5.125  -4.809  1.00  0.00     0.010 A 
ATOM     26  C   UNL     1      -7.004  -3.082  -5.209  1.00  0.00     0.010 A 
ATOM     27  C   UNL     1      -6.990  -4.416  -4.778  1.00  0.00    -0.014 A 
BRANCH  27  28
ATOM     28  C   UNL     1      -8.256  -5.063  -4.342  1.00  0.00     0.031 A 
ATOM     29  C   UNL     1      -9.398  -5.221  -5.313  1.00  0.00     0.074 A 
ATOM     30  C   UNL     1      -8.407  -5.461  -3.064  1.00  0.00     0.049 A 
ATOM     31  N   UNL     1     -10.604  -5.685  -5.104  1.00  0.00    -0.248 NA
ATOM     32  C   UNL     1      -9.159  -4.775  -6.696  1.00  0.00     0.031 C 
ATOM     33  C   UNL     1      -7.396  -5.341  -2.011  1.00  0.00     0.029 A 
ATOM     34  N   UNL     1      -9.477  -6.043  -2.431  1.00  0.00    -0.354 N 
ATOM     35  C   UNL     1     -11.274  -5.559  -6.315  1.00  0.00     0.074 A 
ATOM     36  C   UNL     1     -10.354  -4.939  -7.244  1.00  0.00     0.031 C 
ATOM     37  C   UNL     1      -7.886  -5.855  -0.871  1.00  0.00     0.029 A 
ATOM     38  C   UNL     1      -9.255  -6.305  -1.101  1.00  0.00     0.049 A 
ATOM     39  H   UNL     1     -10.324  -6.253  -2.888  1.00  0.00     0.167 HD
ATOM     40  C   UNL     1     -12.534  -5.940  -6.635  1.00  0.00     0.031 A 
ATOM     41  C   UNL     1     -10.065  -6.840  -0.167  1.00  0.00     0.031 A 
ATOM     42  C   UNL     1     -13.443  -6.583  -5.726  1.00  0.00     0.049 A 
ATOM     43  C   UNL     1     -11.457  -7.261  -0.548  1.00  0.00     0.074 A 
ATOM     44  C   UNL     1     -14.720  -7.057  -5.974  1.00  0.00     0.029 A 
ATOM     45  N   UNL     1     -13.170  -6.846  -4.393  1.00  0.00    -0.354 N 
ATOM     46  N   UNL     1     -12.054  -7.181  -1.712  1.00  0.00    -0.248 NA
ATOM     47  C   UNL     1     -12.282  -7.855   0.514  1.00  0.00     0.031 C 
ATOM     48  C   UNL     1     -15.234  -7.575  -4.780  1.00  0.00     0.029 A 
ATOM     49  C   UNL     1     -14.259  -7.463  -3.802  1.00  0.00     0.049 A 
ATOM     50  H   UNL     1     -12.326  -6.626  -3.935  1.00  0.00     0.167 HD
ATOM     51  C   UNL     1     -13.313  -7.739  -1.530  1.00  0.00     0.074 A 
ATOM     52  C   UNL     1     -13.388  -8.165  -0.147  1.00  0.00     0.031 C 
ATOM     53  C   UNL     1     -14.316  -7.886  -2.428  1.00  0.00     0.031 A 
BRANCH  40  54
ATOM     54  C   UNL     1     -13.004  -5.666  -8.037  1.00  0.00    -0.014 A 
ATOM     55  C   UNL     1     -12.504  -6.396  -9.127  1.00  0.00     0.009 A 
ATOM     56  C   UNL     1     -13.984  -4.688  -8.266  1.00  0.00     0.009 A 
ATOM     57  C   UNL     1     -12.950  -6.127 -10.423  1.00  0.00     0.001 A 
ATOM     58  C   UNL     1     -14.447  -4.439  -9.560  1.00  0.00     0.001 A 
ATOM     59  C   UNL     1     -13.923  -5.152 -10.637  1.00  0.00     0.000 A 
ENDBRANCH  40  54
BRANCH  41  60
ATOM     60  C   UNL     1      -9.575  -7.028   1.223  1.00  0.00    -0.014 A 
ATOM     61  C   UNL     1      -9.292  -8.315   1.707  1.00  0.00     0.009 A 
ATOM     62  C   UNL     1      -9.395  -5.927   2.073  1.00  0.00     0.009 A 
ATOM     63  C   UNL     1      -8.864  -8.496   3.024  1.00  0.00     0.001 A 
ATOM     64  C   UNL     1      -8.942  -6.109   3.381  1.00  0.00     0.001 A 
ATOM     65  C   UNL     1      -8.685  -7.394   3.858  1.00  0.00     0.000 A 
ENDBRANCH  41  60
BRANCH  53  66
ATOM     66  C   UNL     1     -15.567  -8.569  -1.954  1.00  0.00    -0.014 A 
ATOM     67  C   UNL     1     -16.479  -7.915  -1.112  1.00  0.00     0.009 A 
ATOM     68  C   UNL     1     -15.854  -9.871  -2.391  1.00  0.00     0.009 A 
ATOM     69  C   UNL     1     -17.640  -8.566  -0.691  1.00  0.00     0.001 A 
ATOM     70  C   UNL     1     -17.027 -10.510  -1.989  1.00  0.00     0.001 A 
ATOM     71  C   UNL     1     -17.915  -9.860  -1.133  1.00  0.00     0.000 A 
ENDBRANCH  53  66
ENDBRANCH  27  28
ENDBRANCH  19  22
ENDBRANCH  17  18
ENDBRANCH  16  17
ENDBRANCH   1  16
TORSDOF 13
