REMARK SMILES C[C@]12C(=O)N(c3ccc(C(=O)NCCCNC(=O)c4ccc(-c5c6nc(c(-c7ccccc7)c7ccc([nH]7)c(-c7ccccc7)c7nc(c(-c8ccccc8)c8ccc5[nH]8)C=C7)C=C6)cc4)cc3)C(=O)[C@H]1[C@H]1c3ccccc3[C@@H]2c2ccccc21
REMARK SMILES IDX 14 1 13 2 12 3 10 4 11 5 9 7 6 8 7 9 68 10 8 11 67 12 5 13
REMARK SMILES IDX 1 14 2 15 3 16 71 17 79 18 4 19 69 20 72 21 78 22 80 23
REMARK SMILES IDX 70 24 73 25 85 26 77 27 81 28 74 29 84 30 76 31 82 32 75 33
REMARK SMILES IDX 83 34 15 35 16 36 17 37 18 39 19 40 20 41 66 42 21 43 65 44
REMARK SMILES IDX 22 45 23 46 24 47 59 48 25 49 64 50 58 51 60 52 26 53 63 54
REMARK SMILES IDX 57 55 56 56 27 58 49 59 34 60 48 61 35 62 38 63 47 64 61 65
REMARK SMILES IDX 36 66 37 67 46 69 62 70 39 71 28 72 29 73 33 74 30 75 32 76
REMARK SMILES IDX 31 77 50 78 51 79 55 80 52 81 54 82 53 83 40 84 41 85 45 86
REMARK SMILES IDX 42 87 44 88 43 89
REMARK H PARENT 12 6 16 38 60 57 38 68
REMARK Flexibility Score: inf
ROOT
ATOM      1  C   UNL     1       1.713  10.045   3.148  1.00  0.00     0.042 C 
ENDROOT
BRANCH   1   2
ATOM      2  C   UNL     1       0.953  10.021   1.829  1.00  0.00     0.118 C 
BRANCH   2   3
ATOM      3  N   UNL     1       1.829   9.875   0.680  1.00  0.00    -0.352 N 
ATOM      4  C   UNL     1       2.302   8.786  -0.001  1.00  0.00     0.251 C 
ATOM      5  O   UNL     1       3.182   8.980  -0.841  1.00  0.00    -0.269 OA
ATOM      6  H   UNL     1       2.147  10.733   0.317  1.00  0.00     0.163 HD
BRANCH   4   7
ATOM      7  C   UNL     1       1.832   7.398   0.234  1.00  0.00     0.039 A 
ATOM      8  C   UNL     1       1.039   4.657   0.366  1.00  0.00     0.052 A 
ATOM      9  C   UNL     1       2.363   5.034   0.075  1.00  0.00     0.027 A 
ATOM     10  C   UNL     1       0.128   5.693   0.608  1.00  0.00     0.027 A 
ATOM     11  C   UNL     1       2.754   6.375   0.008  1.00  0.00     0.016 A 
ATOM     12  C   UNL     1       0.512   7.044   0.513  1.00  0.00     0.016 A 
BRANCH   8  13
ATOM     13  N   UNL     1       0.629   3.295   0.226  1.00  0.00    -0.250 N 
ATOM     14  C   UNL     1       1.203  -0.181  -0.136  1.00  0.00     0.024 C 
ATOM     15  C   UNL     1       0.801   1.172  -0.741  1.00  0.00     0.071 C 
ATOM     16  C   UNL     1       1.516   2.266   0.001  1.00  0.00     0.241 C 
ATOM     17  C   UNL     1      -0.703   1.479  -0.505  1.00  0.00     0.107 C 
ATOM     18  C   UNL     1       1.142   1.317  -2.269  1.00  0.00     0.066 C 
ATOM     19  O   UNL     1       2.692   2.185   0.314  1.00  0.00    -0.273 OA
ATOM     20  C   UNL     1      -0.674   2.833   0.191  1.00  0.00     0.238 C 
ATOM     21  C   UNL     1      -1.456   1.556  -1.877  1.00  0.00     0.063 C 
ATOM     22  C   UNL     1       0.557   2.644  -2.788  1.00  0.00    -0.036 A 
ATOM     23  C   UNL     1       0.332   0.215  -2.941  1.00  0.00    -0.036 A 
ATOM     24  O   UNL     1      -1.695   3.368   0.607  1.00  0.00    -0.274 OA
ATOM     25  C   UNL     1      -0.848   2.755  -2.607  1.00  0.00    -0.036 A 
ATOM     26  C   UNL     1      -1.066   0.318  -2.697  1.00  0.00    -0.036 A 
ATOM     27  C   UNL     1       1.271   3.701  -3.333  1.00  0.00     0.005 A 
ATOM     28  C   UNL     1       0.862  -0.802  -3.721  1.00  0.00     0.005 A 
ATOM     29  C   UNL     1      -1.536   3.902  -2.976  1.00  0.00     0.004 A 
ATOM     30  C   UNL     1      -1.931  -0.613  -3.250  1.00  0.00     0.004 A 
ATOM     31  C   UNL     1       0.578   4.862  -3.693  1.00  0.00     0.000 A 
ATOM     32  C   UNL     1      -0.014  -1.735  -4.268  1.00  0.00     0.000 A 
ATOM     33  C   UNL     1      -0.812   4.960  -3.521  1.00  0.00     0.000 A 
ATOM     34  C   UNL     1      -1.396  -1.642  -4.034  1.00  0.00     0.000 A 
ENDBRANCH   8  13
ENDBRANCH   4   7
ENDBRANCH   2   3
ENDBRANCH   1   2
BRANCH   1  35
ATOM     35  C   UNL     1       2.637  11.249   3.300  1.00  0.00     0.118 C 
BRANCH  35  36
ATOM     36  N   UNL     1       1.918  12.520   3.322  1.00  0.00    -0.352 N 
ATOM     37  C   UNL     1       1.493  13.314   4.359  1.00  0.00     0.251 C 
ATOM     38  H   UNL     1       1.698  12.872   2.429  1.00  0.00     0.163 HD
ATOM     39  O   UNL     1       0.716  14.238   4.130  1.00  0.00    -0.269 OA
BRANCH  37  40
ATOM     40  C   UNL     1       1.929  13.059   5.750  1.00  0.00     0.039 A 
ATOM     41  C   UNL     1       3.239  12.688   6.040  1.00  0.00     0.014 A 
ATOM     42  C   UNL     1       1.015  13.234   6.797  1.00  0.00     0.014 A 
ATOM     43  C   UNL     1       3.580  12.294   7.329  1.00  0.00     0.010 A 
ATOM     44  C   UNL     1       1.389  12.940   8.113  1.00  0.00     0.010 A 
ATOM     45  C   UNL     1       2.658  12.408   8.383  1.00  0.00    -0.014 A 
BRANCH  45  46
ATOM     46  C   UNL     1       3.053  11.950   9.742  1.00  0.00     0.031 A 
ATOM     47  C   UNL     1       2.347  10.795  10.402  1.00  0.00     0.074 A 
ATOM     48  C   UNL     1       4.112  12.523  10.350  1.00  0.00     0.049 A 
ATOM     49  N   UNL     1       2.618  10.211  11.544  1.00  0.00    -0.248 NA
ATOM     50  C   UNL     1       1.190  10.218   9.699  1.00  0.00     0.031 C 
ATOM     51  C   UNL     1       4.886  13.644   9.812  1.00  0.00     0.029 A 
ATOM     52  N   UNL     1       4.749  12.214  11.526  1.00  0.00    -0.354 N 
ATOM     53  C   UNL     1       1.658   9.219  11.702  1.00  0.00     0.074 A 
ATOM     54  C   UNL     1       0.779   9.294  10.557  1.00  0.00     0.031 C 
ATOM     55  C   UNL     1       5.935  13.878  10.614  1.00  0.00     0.029 A 
ATOM     56  C   UNL     1       5.874  12.969  11.755  1.00  0.00     0.049 A 
ATOM     57  H   UNL     1       4.431  11.518  12.146  1.00  0.00     0.167 HD
ATOM     58  C   UNL     1       1.527   8.319  12.704  1.00  0.00     0.031 A 
ATOM     59  C   UNL     1       6.763  12.940  12.766  1.00  0.00     0.031 A 
ATOM     60  C   UNL     1       2.412   8.227  13.835  1.00  0.00     0.049 A 
ATOM     61  C   UNL     1       6.588  11.940  13.871  1.00  0.00     0.074 A 
ATOM     62  C   UNL     1       2.363   7.334  14.892  1.00  0.00     0.029 A 
ATOM     63  N   UNL     1       3.506   9.048  14.053  1.00  0.00    -0.354 N 
ATOM     64  N   UNL     1       5.677  11.007  13.998  1.00  0.00    -0.248 NA
ATOM     65  C   UNL     1       7.560  11.988  14.973  1.00  0.00     0.031 C 
ATOM     66  C   UNL     1       3.399   7.646  15.775  1.00  0.00     0.029 A 
ATOM     67  C   UNL     1       4.130   8.693  15.237  1.00  0.00     0.049 A 
ATOM     68  H   UNL     1       3.797   9.774  13.456  1.00  0.00     0.167 HD
ATOM     69  C   UNL     1       5.971  10.349  15.185  1.00  0.00     0.074 A 
ATOM     70  C   UNL     1       7.159  10.974  15.729  1.00  0.00     0.031 C 
ATOM     71  C   UNL     1       5.310   9.322  15.770  1.00  0.00     0.031 A 
BRANCH  58  72
ATOM     72  C   UNL     1       0.378   7.351  12.641  1.00  0.00    -0.014 A 
ATOM     73  C   UNL     1      -0.680   7.467  13.558  1.00  0.00     0.009 A 
ATOM     74  C   UNL     1       0.386   6.271  11.746  1.00  0.00     0.009 A 
ATOM     75  C   UNL     1      -1.699   6.513  13.590  1.00  0.00     0.001 A 
ATOM     76  C   UNL     1      -0.649   5.333  11.763  1.00  0.00     0.001 A 
ATOM     77  C   UNL     1      -1.684   5.449  12.691  1.00  0.00     0.000 A 
ENDBRANCH  58  72
BRANCH  59  78
ATOM     78  C   UNL     1       7.907  13.890  12.759  1.00  0.00    -0.014 A 
ATOM     79  C   UNL     1       7.690  15.267  12.931  1.00  0.00     0.009 A 
ATOM     80  C   UNL     1       9.214  13.433  12.533  1.00  0.00     0.009 A 
ATOM     81  C   UNL     1       8.751  16.169  12.848  1.00  0.00     0.001 A 
ATOM     82  C   UNL     1      10.279  14.336  12.482  1.00  0.00     0.001 A 
ATOM     83  C   UNL     1      10.046  15.703  12.629  1.00  0.00     0.000 A 
ENDBRANCH  59  78
BRANCH  71  84
ATOM     84  C   UNL     1       5.852   8.788  17.066  1.00  0.00    -0.014 A 
ATOM     85  C   UNL     1       6.431   7.510  17.104  1.00  0.00     0.009 A 
ATOM     86  C   UNL     1       5.703   9.505  18.262  1.00  0.00     0.009 A 
ATOM     87  C   UNL     1       6.841   6.955  18.316  1.00  0.00     0.001 A 
ATOM     88  C   UNL     1       6.139   8.958  19.470  1.00  0.00     0.001 A 
ATOM     89  C   UNL     1       6.699   7.681  19.497  1.00  0.00     0.000 A 
ENDBRANCH  71  84
ENDBRANCH  45  46
ENDBRANCH  37  40
ENDBRANCH  35  36
ENDBRANCH   1  35
TORSDOF 11
