REMARK SMILES [NH3+][C@H]1COC[C@@H]1C(=O)NC1(CC(=O)NCCCNC(=O)c2ccc(-c3c4nc(c(-c5ccccc5)c5ccc([nH]5)c(-c5ccccc5)c5nc(c(-c6ccccc6)c6ccc3[nH]6)C=C5)C=C4)cc2)CCC1
REMARK SMILES IDX 15 1 14 2 12 3 13 4 11 6 10 7 69 8 71 9 70 10 9 11 7 12 8 13
REMARK SMILES IDX 6 15 2 16 3 17 4 18 5 19 1 20 16 24 17 25 18 26 19 27 20 29
REMARK SMILES IDX 21 30 22 31 68 32 23 33 67 34 24 35 25 36 26 37 61 38 27 39
REMARK SMILES IDX 66 40 60 41 62 42 28 43 65 44 59 45 58 46 29 48 51 49 36 50
REMARK SMILES IDX 50 51 37 52 40 53 49 54 63 55 38 56 39 57 48 59 64 60 41 61
REMARK SMILES IDX 30 62 31 63 35 64 32 65 34 66 33 67 52 68 53 69 57 70 54 71
REMARK SMILES IDX 56 72 55 73 42 74 43 75 47 76 44 77 46 78 45 79
REMARK H PARENT 14 5 9 14 1 21 1 22 1 23 18 28 62 47 40 58
REMARK Flexibility Score: inf
ROOT
ATOM      1  C   UNL     1      -6.051  -1.028   1.194  1.00  0.00     0.117 C 
ENDROOT
BRANCH   1   2
ATOM      2  N   UNL     1      -5.381  -0.536   2.382  1.00  0.00    -0.356 N 
ATOM      3  C   UNL     1      -4.766   0.655   2.601  1.00  0.00     0.222 C 
ATOM      4  O   UNL     1      -4.062   0.769   3.607  1.00  0.00    -0.275 OA
ATOM      5  H   UNL     1      -5.371  -1.159   3.145  1.00  0.00     0.163 HD
BRANCH   3   6
ATOM      6  C   UNL     1      -4.905   1.815   1.638  1.00  0.00     0.128 C 
BRANCH   6   7
ATOM      7  C   UNL     1      -3.753   1.988   0.620  1.00  0.00     0.049 C 
ATOM      8  C   UNL     1      -3.831   3.355  -0.113  1.00  0.00     0.029 C 
ATOM      9  C   UNL     1      -4.050   1.298  -0.736  1.00  0.00     0.029 C 
ATOM     10  C   UNL     1      -4.448   2.656  -1.329  1.00  0.00     0.005 C 
BRANCH   7  11
ATOM     11  N   UNL     1      -2.448   1.727   1.284  1.00  0.00    -0.350 N 
ATOM     12  C   UNL     1      -1.141   1.666   0.889  1.00  0.00     0.232 C 
ATOM     13  O   UNL     1      -0.317   1.374   1.761  1.00  0.00    -0.274 OA
ATOM     14  H   UNL     1      -2.551   1.554   2.247  1.00  0.00     0.164 HD
BRANCH  12  15
ATOM     15  C   UNL     1      -0.703   1.943  -0.536  1.00  0.00     0.164 C 
ATOM     16  C   UNL     1       0.573   1.177  -0.868  1.00  0.00     0.221 C 
ATOM     17  C   UNL     1       1.666   2.191  -0.521  1.00  0.00     0.225 C 
ATOM     18  O   UNL     1       1.126   3.495  -0.758  1.00  0.00    -0.374 OA
ATOM     19  C   UNL     1      -0.303   3.400  -0.712  1.00  0.00     0.180 C 
BRANCH  16  20
ATOM     20  N   UNL     1       0.599   0.814  -2.300  1.00  0.00    -0.352 N 
ATOM     21  H   UNL     1       1.457   0.303  -2.505  1.00  0.00     0.344 HD
ATOM     22  H   UNL     1       0.564   1.661  -2.866  1.00  0.00     0.344 HD
ATOM     23  H   UNL     1      -0.207   0.227  -2.516  1.00  0.00     0.344 HD
ENDBRANCH  16  20
ENDBRANCH  12  15
ENDBRANCH   7  11
ENDBRANCH   6   7
ENDBRANCH   3   6
ENDBRANCH   1   2
BRANCH   1  24
ATOM     24  C   UNL     1      -5.083  -1.801   0.299  1.00  0.00     0.042 C 
BRANCH  24  25
ATOM     25  C   UNL     1      -4.783  -3.214   0.782  1.00  0.00     0.118 C 
BRANCH  25  26
ATOM     26  N   UNL     1      -5.907  -4.110   0.563  1.00  0.00    -0.352 N 
ATOM     27  C   UNL     1      -6.033  -5.207  -0.252  1.00  0.00     0.251 C 
ATOM     28  H   UNL     1      -6.712  -3.893   1.086  1.00  0.00     0.163 HD
ATOM     29  O   UNL     1      -7.156  -5.662  -0.456  1.00  0.00    -0.269 OA
BRANCH  27  30
ATOM     30  C   UNL     1      -4.859  -5.851  -0.890  1.00  0.00     0.039 A 
ATOM     31  C   UNL     1      -5.029  -6.436  -2.151  1.00  0.00     0.014 A 
ATOM     32  C   UNL     1      -3.630  -5.976  -0.238  1.00  0.00     0.014 A 
ATOM     33  C   UNL     1      -3.970  -7.113  -2.763  1.00  0.00     0.010 A 
ATOM     34  C   UNL     1      -2.550  -6.585  -0.881  1.00  0.00     0.010 A 
ATOM     35  C   UNL     1      -2.715  -7.180  -2.140  1.00  0.00    -0.014 A 
BRANCH  35  36
ATOM     36  C   UNL     1      -1.584  -7.902  -2.779  1.00  0.00     0.031 A 
ATOM     37  C   UNL     1      -1.015  -9.144  -2.143  1.00  0.00     0.074 A 
ATOM     38  C   UNL     1      -1.041  -7.425  -3.916  1.00  0.00     0.049 A 
ATOM     39  N   UNL     1      -0.020  -9.896  -2.545  1.00  0.00    -0.248 NA
ATOM     40  C   UNL     1      -1.627  -9.586  -0.880  1.00  0.00     0.031 C 
ATOM     41  C   UNL     1      -1.467  -6.211  -4.615  1.00  0.00     0.029 A 
ATOM     42  N   UNL     1      -0.010  -7.907  -4.683  1.00  0.00    -0.354 N 
ATOM     43  C   UNL     1       0.127 -10.879  -1.574  1.00  0.00     0.074 A 
ATOM     44  C   UNL     1      -0.853 -10.607  -0.545  1.00  0.00     0.031 C 
ATOM     45  C   UNL     1      -0.723  -6.060  -5.723  1.00  0.00     0.029 A 
ATOM     46  C   UNL     1       0.248  -7.147  -5.797  1.00  0.00     0.049 A 
ATOM     47  H   UNL     1       0.497  -8.720  -4.456  1.00  0.00     0.167 HD
ATOM     48  C   UNL     1       0.987 -11.926  -1.546  1.00  0.00     0.031 A 
ATOM     49  C   UNL     1       1.161  -7.308  -6.774  1.00  0.00     0.031 A 
ATOM     50  C   UNL     1       1.944 -12.220  -2.579  1.00  0.00     0.049 A 
ATOM     51  C   UNL     1       2.085  -8.491  -6.735  1.00  0.00     0.074 A 
ATOM     52  C   UNL     1       2.811 -13.295  -2.671  1.00  0.00     0.029 A 
ATOM     53  N   UNL     1       2.157 -11.436  -3.701  1.00  0.00    -0.354 N 
ATOM     54  N   UNL     1       2.163  -9.448  -5.843  1.00  0.00    -0.248 NA
ATOM     55  C   UNL     1       3.036  -8.623  -7.848  1.00  0.00     0.031 C 
ATOM     56  C   UNL     1       3.575 -13.142  -3.833  1.00  0.00     0.029 A 
ATOM     57  C   UNL     1       3.154 -11.994  -4.484  1.00  0.00     0.049 A 
ATOM     58  H   UNL     1       1.672 -10.605  -3.911  1.00  0.00     0.167 HD
ATOM     59  C   UNL     1       3.154 -10.308  -6.298  1.00  0.00     0.074 A 
ATOM     60  C   UNL     1       3.636  -9.768  -7.552  1.00  0.00     0.031 C 
ATOM     61  C   UNL     1       3.624 -11.444  -5.727  1.00  0.00     0.031 A 
BRANCH  48  62
ATOM     62  C   UNL     1       0.930 -12.835  -0.350  1.00  0.00    -0.014 A 
ATOM     63  C   UNL     1      -0.142 -13.721  -0.160  1.00  0.00     0.009 A 
ATOM     64  C   UNL     1       1.979 -12.827   0.582  1.00  0.00     0.009 A 
ATOM     65  C   UNL     1      -0.180 -14.555   0.960  1.00  0.00     0.001 A 
ATOM     66  C   UNL     1       1.951 -13.680   1.687  1.00  0.00     0.001 A 
ATOM     67  C   UNL     1       0.868 -14.536   1.880  1.00  0.00     0.000 A 
ENDBRANCH  48  62
BRANCH  49  68
ATOM     68  C   UNL     1       1.228  -6.334  -7.893  1.00  0.00    -0.014 A 
ATOM     69  C   UNL     1       0.765  -6.688  -9.169  1.00  0.00     0.009 A 
ATOM     70  C   UNL     1       1.756  -5.050  -7.691  1.00  0.00     0.009 A 
ATOM     71  C   UNL     1       0.852  -5.782 -10.228  1.00  0.00     0.001 A 
ATOM     72  C   UNL     1       1.819  -4.138  -8.747  1.00  0.00     0.001 A 
ATOM     73  C   UNL     1       1.375  -4.507 -10.016  1.00  0.00     0.000 A 
ENDBRANCH  49  68
BRANCH  61  74
ATOM     74  C   UNL     1       4.694 -12.189  -6.470  1.00  0.00    -0.014 A 
ATOM     75  C   UNL     1       6.013 -11.713  -6.514  1.00  0.00     0.009 A 
ATOM     76  C   UNL     1       4.382 -13.397  -7.113  1.00  0.00     0.009 A 
ATOM     77  C   UNL     1       6.993 -12.417  -7.218  1.00  0.00     0.001 A 
ATOM     78  C   UNL     1       5.369 -14.111  -7.794  1.00  0.00     0.001 A 
ATOM     79  C   UNL     1       6.670 -13.615  -7.854  1.00  0.00     0.000 A 
ENDBRANCH  61  74
ENDBRANCH  35  36
ENDBRANCH  27  30
ENDBRANCH  25  26
ENDBRANCH  24  25
ENDBRANCH   1  24
TORSDOF 14
