REMARK SMILES C[N@H+]1CCCN(C(=O)N[C@@H]2CCCCC[C@@H]2C(=O)NCCCNC(=O)c2ccc(-c3c4nc(c(-c5ccccc5)c5ccc([nH]5)c(-c5ccccc5)c5nc(c(-c6ccccc6)c6ccc3[nH]6)C=C5)C=C4)cc2)CC1
REMARK SMILES IDX 16 1 10 2 9 3 7 4 8 5 6 7 74 8 75 9 2 10 1 11 3 13 4 14 5 16
REMARK SMILES IDX 11 18 12 19 15 21 14 22 13 23 17 25 18 26 19 27 20 29 21 30
REMARK SMILES IDX 22 31 23 32 24 33 25 35 26 36 27 37 73 38 28 39 72 40 29 41
REMARK SMILES IDX 30 42 31 43 66 44 32 45 71 46 65 47 67 48 33 49 70 50 64 51
REMARK SMILES IDX 63 52 34 54 56 55 41 56 55 57 42 58 45 59 54 60 68 61 43 62
REMARK SMILES IDX 44 63 53 65 69 66 46 67 35 68 36 69 40 70 37 71 39 72 38 73
REMARK SMILES IDX 57 74 58 75 62 76 59 77 61 78 60 79 47 80 48 81 52 82 49 83
REMARK SMILES IDX 51 84 50 85
REMARK H PARENT 9 6 2 12 19 28 23 34 67 53 45 64
REMARK Flexibility Score: 170.00
ROOT
ATOM      1  C   UNL     1      -0.441  -4.336   2.140  1.00  0.00     0.101 C 
ENDROOT
BRANCH   1   2
ATOM      2  C   UNL     1      -0.162  -5.804   2.145  1.00  0.00     0.096 C 
BRANCH   2   3
ATOM      3  N   UNL     1       0.430  -6.251   0.828  1.00  0.00    -0.334 N 
ATOM      4  C   UNL     1       0.984  -5.783  -0.329  1.00  0.00     0.317 C 
ATOM      5  O   UNL     1       1.173  -6.683  -1.163  1.00  0.00    -0.249 OA
ATOM      6  H   UNL     1       0.409  -7.234   0.791  1.00  0.00     0.165 HD
BRANCH   4   7
ATOM      7  N   UNL     1       1.302  -4.467  -0.658  1.00  0.00    -0.319 N 
BRANCH   7   8
ATOM      8  C   UNL     1       1.787  -3.384   0.216  1.00  0.00     0.182 C 
BRANCH   8   9
ATOM      9  C   UNL     1       2.398  -2.088  -0.352  1.00  0.00     0.283 C 
BRANCH   9  10
ATOM     10  N   UNL     1       1.304  -1.266  -0.913  1.00  0.00    -0.336 N 
ATOM     11  C   UNL     1       1.478   0.158  -0.658  1.00  0.00     0.332 C 
ATOM     12  H   UNL     1       0.449  -1.517  -0.416  1.00  0.00     0.347 HD
BRANCH  10  13
ATOM     13  C   UNL     1       1.079  -1.579  -2.320  1.00  0.00     0.263 C 
BRANCH  13  14
ATOM     14  C   UNL     1       0.502  -2.984  -2.541  1.00  0.00     0.083 CG0
ATOM     15  G   UNL     1       1.386  -4.158  -2.096  1.00  0.00     0.000 G0
ENDBRANCH  13  14
ENDBRANCH  10  13
ENDBRANCH   9  10
ENDBRANCH   8   9
ENDBRANCH   7   8
BRANCH   7  16
ATOM     16  C   UNL     1       1.386  -4.158  -2.096  1.00  0.00     0.127 CG0
ATOM     17  G   UNL     1       0.502  -2.984  -2.541  1.00  0.00     0.000 G0
ENDBRANCH   7  16
ENDBRANCH   4   7
ENDBRANCH   2   3
BRANCH   2  18
ATOM     18  C   UNL     1      -1.448  -6.529   2.627  1.00  0.00     0.026 C 
BRANCH  18  19
ATOM     19  C   UNL     1      -1.892  -6.145   4.066  1.00  0.00     0.002 CG1
ATOM     20  G   UNL     1      -2.456  -4.737   4.324  1.00  0.00     0.000 G1
ENDBRANCH  18  19
ENDBRANCH   2  18
ENDBRANCH   1   2
BRANCH   1  21
ATOM     21  C   UNL     1      -0.311  -3.608   3.465  1.00  0.00     0.015 C 
BRANCH  21  22
ATOM     22  C   UNL     1      -1.478  -3.574   4.407  1.00  0.00     0.001 C 
BRANCH  22  23
ATOM     23  C   UNL     1      -2.456  -4.737   4.324  1.00  0.00     0.000 CG1
ATOM     24  G   UNL     1      -1.892  -6.145   4.066  1.00  0.00     0.000 G1
ENDBRANCH  22  23
ENDBRANCH  21  22
ENDBRANCH   1  21
BRANCH   1  25
ATOM     25  C   UNL     1      -1.465  -4.020   1.039  1.00  0.00     0.225 C 
ATOM     26  O   UNL     1      -1.904  -4.826   0.218  1.00  0.00    -0.275 OA
ATOM     27  N   UNL     1      -1.810  -2.736   0.823  1.00  0.00    -0.356 N 
ATOM     28  H   UNL     1      -1.318  -2.193   0.166  1.00  0.00     0.163 HD
BRANCH  27  29
ATOM     29  C   UNL     1      -2.904  -2.168   1.560  1.00  0.00     0.117 C 
BRANCH  29  30
ATOM     30  C   UNL     1      -2.676  -0.688   1.703  1.00  0.00     0.042 C 
BRANCH  30  31
ATOM     31  C   UNL     1      -2.760  -0.025   0.336  1.00  0.00     0.118 C 
BRANCH  31  32
ATOM     32  N   UNL     1      -4.119  -0.116  -0.194  1.00  0.00    -0.352 N 
ATOM     33  C   UNL     1      -5.158   0.757   0.015  1.00  0.00     0.251 C 
ATOM     34  H   UNL     1      -4.311  -0.893  -0.767  1.00  0.00     0.163 HD
ATOM     35  O   UNL     1      -6.321   0.395  -0.086  1.00  0.00    -0.269 OA
BRANCH  33  36
ATOM     36  C   UNL     1      -4.826   2.150   0.360  1.00  0.00     0.039 A 
ATOM     37  C   UNL     1      -5.567   2.833   1.324  1.00  0.00     0.014 A 
ATOM     38  C   UNL     1      -3.755   2.768  -0.289  1.00  0.00     0.014 A 
ATOM     39  C   UNL     1      -5.198   4.134   1.662  1.00  0.00     0.010 A 
ATOM     40  C   UNL     1      -3.309   4.000   0.144  1.00  0.00     0.010 A 
ATOM     41  C   UNL     1      -4.054   4.714   1.089  1.00  0.00    -0.014 A 
BRANCH  41  42
ATOM     42  C   UNL     1      -3.638   6.099   1.396  1.00  0.00     0.031 A 
ATOM     43  C   UNL     1      -3.587   7.111   0.282  1.00  0.00     0.074 A 
ATOM     44  C   UNL     1      -3.231   6.416   2.638  1.00  0.00     0.049 A 
ATOM     45  N   UNL     1      -3.156   8.345   0.307  1.00  0.00    -0.248 NA
ATOM     46  C   UNL     1      -4.040   6.662  -1.049  1.00  0.00     0.031 C 
ATOM     47  C   UNL     1      -3.189   5.499   3.779  1.00  0.00     0.029 A 
ATOM     48  N   UNL     1      -2.765   7.600   3.144  1.00  0.00    -0.354 N 
ATOM     49  C   UNL     1      -3.257   8.802  -1.001  1.00  0.00     0.074 A 
ATOM     50  C   UNL     1      -3.724   7.699  -1.808  1.00  0.00     0.031 C 
ATOM     51  C   UNL     1      -2.758   6.167   4.862  1.00  0.00     0.029 A 
ATOM     52  C   UNL     1      -2.453   7.541   4.479  1.00  0.00     0.049 A 
ATOM     53  H   UNL     1      -2.665   8.416   2.602  1.00  0.00     0.167 HD
ATOM     54  C   UNL     1      -3.012  10.041  -1.484  1.00  0.00     0.031 A 
ATOM     55  C   UNL     1      -1.971   8.493   5.299  1.00  0.00     0.031 A 
ATOM     56  C   UNL     1      -2.581  11.140  -0.666  1.00  0.00     0.049 A 
ATOM     57  C   UNL     1      -1.716   9.866   4.743  1.00  0.00     0.074 A 
ATOM     58  C   UNL     1      -2.370  12.456  -1.033  1.00  0.00     0.029 A 
ATOM     59  N   UNL     1      -2.303  11.046   0.689  1.00  0.00    -0.354 N 
ATOM     60  N   UNL     1      -1.885  10.305   3.518  1.00  0.00    -0.248 NA
ATOM     61  C   UNL     1      -1.217  10.878   5.683  1.00  0.00     0.031 C 
ATOM     62  C   UNL     1      -1.915  13.150   0.092  1.00  0.00     0.029 A 
ATOM     63  C   UNL     1      -1.899  12.278   1.171  1.00  0.00     0.049 A 
ATOM     64  H   UNL     1      -2.380  10.226   1.227  1.00  0.00     0.167 HD
ATOM     65  C   UNL     1      -1.543  11.650   3.548  1.00  0.00     0.074 A 
ATOM     66  C   UNL     1      -1.169  11.956   4.914  1.00  0.00     0.031 C 
ATOM     67  C   UNL     1      -1.541  12.554   2.538  1.00  0.00     0.031 A 
BRANCH  54  68
ATOM     68  C   UNL     1      -3.210  10.266  -2.957  1.00  0.00    -0.014 A 
ATOM     69  C   UNL     1      -4.490  10.234  -3.535  1.00  0.00     0.009 A 
ATOM     70  C   UNL     1      -2.103  10.534  -3.777  1.00  0.00     0.009 A 
ATOM     71  C   UNL     1      -4.652  10.426  -4.909  1.00  0.00     0.001 A 
ATOM     72  C   UNL     1      -2.272  10.758  -5.145  1.00  0.00     0.001 A 
ATOM     73  C   UNL     1      -3.544  10.693  -5.711  1.00  0.00     0.000 A 
ENDBRANCH  54  68
BRANCH  55  74
ATOM     74  C   UNL     1      -1.729   8.187   6.732  1.00  0.00    -0.014 A 
ATOM     75  C   UNL     1      -2.554   8.736   7.725  1.00  0.00     0.009 A 
ATOM     76  C   UNL     1      -0.680   7.336   7.117  1.00  0.00     0.009 A 
ATOM     77  C   UNL     1      -2.318   8.463   9.074  1.00  0.00     0.001 A 
ATOM     78  C   UNL     1      -0.465   7.041   8.465  1.00  0.00     0.001 A 
ATOM     79  C   UNL     1      -1.278   7.612   9.443  1.00  0.00     0.000 A 
ENDBRANCH  55  74
BRANCH  67  80
ATOM     80  C   UNL     1      -1.163  13.966   2.878  1.00  0.00    -0.014 A 
ATOM     81  C   UNL     1       0.167  14.319   3.147  1.00  0.00     0.009 A 
ATOM     82  C   UNL     1      -2.148  14.967   2.862  1.00  0.00     0.009 A 
ATOM     83  C   UNL     1       0.500  15.647   3.419  1.00  0.00     0.001 A 
ATOM     84  C   UNL     1      -1.807  16.297   3.105  1.00  0.00     0.001 A 
ATOM     85  C   UNL     1      -0.485  16.635   3.390  1.00  0.00     0.000 A 
ENDBRANCH  67  80
ENDBRANCH  41  42
ENDBRANCH  33  36
ENDBRANCH  31  32
ENDBRANCH  30  31
ENDBRANCH  29  30
ENDBRANCH  27  29
ENDBRANCH   1  25
TORSDOF 12
