REMARK SMILES O=C(NCCCNC(=O)[C@H]1CC=CC[C@H]1C(=O)N[C@H]1CCCOc2c1ccc1ccccc21)c1ccc(-c2c3nc(c(-c4ccccc4)c4ccc([nH]4)c(-c4ccccc4)c4nc(c(-c5ccccc5)c5ccc2[nH]5)C=C4)C=C3)cc1
REMARK SMILES IDX 7 1 8 2 9 3 6 5 5 6 4 7 3 8 1 9 2 10 34 12 35 13 81 14 36 15
REMARK SMILES IDX 80 16 37 17 38 18 39 19 74 20 40 21 79 22 73 23 75 24 41 25
REMARK SMILES IDX 78 26 72 27 71 28 42 30 64 31 49 32 63 33 50 34 53 35 62 36
REMARK SMILES IDX 76 37 51 38 52 39 61 41 77 42 54 43 43 44 44 45 48 46 45 47
REMARK SMILES IDX 47 48 46 49 65 50 66 51 70 52 67 53 69 54 68 55 55 56 56 57
REMARK SMILES IDX 60 58 57 59 59 60 58 61 10 62 11 63 15 64 12 65 14 66 13 67
REMARK SMILES IDX 16 68 17 69 18 70 19 72 20 73 21 74 25 76 24 77 26 78 33 79
REMARK SMILES IDX 27 80 28 81 32 82 29 83 31 84 30 85 23 86 22 87
REMARK H PARENT 7 4 3 11 75 29 53 40 18 71
REMARK Flexibility Score: 80.00
ROOT
ATOM      1  N   UNL     1       3.723   2.603   3.577  1.00  0.00    -0.356 N 
ATOM      2  C   UNL     1       4.569   2.814   4.682  1.00  0.00     0.224 C 
ATOM      3  O   UNL     1       4.181   2.090   5.626  1.00  0.00    -0.275 OA
ATOM      4  H   UNL     1       2.979   2.142   4.029  1.00  0.00     0.163 HD
ENDROOT
BRANCH   1   5
ATOM      5  C   UNL     1       3.029   2.610   1.741  1.00  0.00     0.117 C 
BRANCH   5   6
ATOM      6  C   UNL     1       3.386   1.808   0.389  1.00  0.00     0.042 C 
BRANCH   6   7
ATOM      7  C   UNL     1       3.273   0.315   0.173  1.00  0.00     0.118 C 
BRANCH   7   8
ATOM      8  N   UNL     1       1.948  -0.242   0.320  1.00  0.00    -0.352 N 
ATOM      9  O   UNL     1       0.157  -1.423  -0.427  1.00  0.00    -0.269 OA
ATOM     10  C   UNL     1       1.319  -1.066  -0.572  1.00  0.00     0.251 C 
ATOM     11  H   UNL     1       1.452  -0.007   1.137  1.00  0.00     0.163 HD
BRANCH  10  12
ATOM     12  C   UNL     1       2.127  -1.543  -1.700  1.00  0.00     0.039 A 
ATOM     13  C   UNL     1       1.740  -1.242  -3.003  1.00  0.00     0.014 A 
ATOM     14  C   UNL     1       3.333  -2.200  -1.417  1.00  0.00     0.014 A 
ATOM     15  C   UNL     1       2.553  -1.659  -4.049  1.00  0.00     0.010 A 
ATOM     16  C   UNL     1       4.190  -2.516  -2.450  1.00  0.00     0.010 A 
ATOM     17  C   UNL     1       3.757  -2.326  -3.769  1.00  0.00    -0.014 A 
BRANCH  17  18
ATOM     18  C   UNL     1       4.469  -3.063  -4.825  1.00  0.00     0.031 A 
ATOM     19  C   UNL     1       4.403  -4.564  -4.780  1.00  0.00     0.074 A 
ATOM     20  C   UNL     1       5.172  -2.405  -5.758  1.00  0.00     0.049 A 
ATOM     21  N   UNL     1       4.999  -5.439  -5.541  1.00  0.00    -0.248 NA
ATOM     22  C   UNL     1       3.590  -5.165  -3.703  1.00  0.00     0.031 C 
ATOM     23  C   UNL     1       5.299  -0.951  -5.852  1.00  0.00     0.029 A 
ATOM     24  N   UNL     1       5.909  -2.881  -6.808  1.00  0.00    -0.354 N 
ATOM     25  C   UNL     1       4.665  -6.678  -5.009  1.00  0.00     0.074 A 
ATOM     26  C   UNL     1       3.874  -6.450  -3.828  1.00  0.00     0.031 C 
ATOM     27  C   UNL     1       6.045  -0.650  -6.927  1.00  0.00     0.029 A 
ATOM     28  C   UNL     1       6.472  -1.890  -7.572  1.00  0.00     0.049 A 
ATOM     29  H   UNL     1       6.024  -3.840  -6.996  1.00  0.00     0.167 HD
ATOM     30  C   UNL     1       4.968  -7.901  -5.493  1.00  0.00     0.031 A 
ATOM     31  C   UNL     1       7.241  -1.985  -8.672  1.00  0.00     0.031 A 
ATOM     32  C   UNL     1       5.700  -8.092  -6.710  1.00  0.00     0.049 A 
ATOM     33  C   UNL     1       7.551  -3.354  -9.211  1.00  0.00     0.074 A 
ATOM     34  C   UNL     1       5.984  -9.275  -7.363  1.00  0.00     0.029 A 
ATOM     35  N   UNL     1       6.253  -7.064  -7.460  1.00  0.00    -0.354 N 
ATOM     36  N   UNL     1       7.173  -4.523  -8.745  1.00  0.00    -0.248 NA
ATOM     37  C   UNL     1       8.378  -3.428 -10.421  1.00  0.00     0.031 C 
ATOM     38  C   UNL     1       6.768  -8.967  -8.475  1.00  0.00     0.029 A 
ATOM     39  C   UNL     1       6.915  -7.588  -8.552  1.00  0.00     0.049 A 
ATOM     40  H   UNL     1       6.184  -6.105  -7.246  1.00  0.00     0.167 HD
ATOM     41  C   UNL     1       7.709  -5.471  -9.605  1.00  0.00     0.074 A 
ATOM     42  C   UNL     1       8.424  -4.738 -10.633  1.00  0.00     0.031 C 
ATOM     43  C   UNL     1       7.622  -6.822  -9.549  1.00  0.00     0.031 A 
BRANCH  30  44
ATOM     44  C   UNL     1       4.508  -9.107  -4.722  1.00  0.00    -0.014 A 
ATOM     45  C   UNL     1       5.460  -9.963  -4.147  1.00  0.00     0.009 A 
ATOM     46  C   UNL     1       3.147  -9.432  -4.604  1.00  0.00     0.009 A 
ATOM     47  C   UNL     1       5.061 -11.122  -3.478  1.00  0.00     0.001 A 
ATOM     48  C   UNL     1       2.749 -10.574  -3.905  1.00  0.00     0.001 A 
ATOM     49  C   UNL     1       3.706 -11.423  -3.352  1.00  0.00     0.000 A 
ENDBRANCH  30  44
BRANCH  31  50
ATOM     50  C   UNL     1       7.700  -0.736  -9.332  1.00  0.00    -0.014 A 
ATOM     51  C   UNL     1       8.640   0.100  -8.705  1.00  0.00     0.009 A 
ATOM     52  C   UNL     1       7.102  -0.304 -10.525  1.00  0.00     0.009 A 
ATOM     53  C   UNL     1       8.938   1.359  -9.235  1.00  0.00     0.001 A 
ATOM     54  C   UNL     1       7.421   0.945 -11.066  1.00  0.00     0.001 A 
ATOM     55  C   UNL     1       8.325   1.781 -10.413  1.00  0.00     0.000 A 
ENDBRANCH  31  50
BRANCH  43  56
ATOM     56  C   UNL     1       8.326  -7.618 -10.609  1.00  0.00    -0.014 A 
ATOM     57  C   UNL     1       7.576  -8.339 -11.552  1.00  0.00     0.009 A 
ATOM     58  C   UNL     1       9.716  -7.795 -10.556  1.00  0.00     0.009 A 
ATOM     59  C   UNL     1       8.202  -9.253 -12.399  1.00  0.00     0.001 A 
ATOM     60  C   UNL     1      10.342  -8.688 -11.425  1.00  0.00     0.001 A 
ATOM     61  C   UNL     1       9.584  -9.427 -12.334  1.00  0.00     0.000 A 
ENDBRANCH  43  56
ENDBRANCH  17  18
ENDBRANCH  10  12
ENDBRANCH   7   8
ENDBRANCH   6   7
ENDBRANCH   5   6
ENDBRANCH   1   5
BRANCH   2  62
ATOM     62  C   UNL     1       5.827   3.796   5.021  1.00  0.00     0.095 C 
ATOM     63  C   UNL     1       6.738   3.047   6.045  1.00  0.00     0.041 C 
ATOM     64  C   UNL     1       6.803   4.670   4.111  1.00  0.00     0.095 C 
ATOM     65  C   UNL     1       7.808   2.236   5.380  1.00  0.00    -0.030 C 
ATOM     66  C   UNL     1       8.100   3.970   3.625  1.00  0.00     0.041 C 
ATOM     67  C   UNL     1       8.419   2.658   4.269  1.00  0.00    -0.030 C 
BRANCH  64  68
ATOM     68  C   UNL     1       6.339   5.722   3.038  1.00  0.00     0.224 C 
ATOM     69  O   UNL     1       7.029   6.712   2.785  1.00  0.00    -0.275 OA
ATOM     70  N   UNL     1       5.190   5.529   2.304  1.00  0.00    -0.349 N 
ATOM     71  H   UNL     1       4.923   6.176   1.611  1.00  0.00     0.164 HD
BRANCH  70  72
ATOM     72  C   UNL     1       4.397   4.377   2.564  1.00  0.00     0.116 C 
BRANCH  72  73
ATOM     73  C   UNL     1       2.608   4.533   3.052  1.00  0.00     0.033 C 
BRANCH  73  74
ATOM     74  C   UNL     1       1.565   3.119   3.588  1.00  0.00     0.044 CG0
ATOM     75  G   UNL     1       1.940   1.306   3.401  1.00  0.00     0.000 G0
ENDBRANCH  73  74
ENDBRANCH  72  73
BRANCH  72  76
ATOM     76  C   UNL     1       5.312   2.851   2.058  1.00  0.00     0.017 A 
ATOM     77  C   UNL     1       4.988   1.288   2.431  1.00  0.00     0.132 A 
ATOM     78  C   UNL     1       6.345   3.053   1.152  1.00  0.00     0.010 A 
ATOM     79  C   UNL     1       5.883   0.249   2.099  1.00  0.00     0.024 A 
ATOM     80  C   UNL     1       7.112   1.945   0.746  1.00  0.00     0.009 A 
ATOM     81  C   UNL     1       6.935   0.608   1.218  1.00  0.00    -0.015 A 
ATOM     82  C   UNL     1       5.763  -1.090   2.535  1.00  0.00     0.012 A 
ATOM     83  C   UNL     1       7.799  -0.400   0.769  1.00  0.00     0.009 A 
ATOM     84  C   UNL     1       6.650  -2.067   2.086  1.00  0.00     0.001 A 
ATOM     85  C   UNL     1       7.659  -1.723   1.194  1.00  0.00     0.001 A 
BRANCH  77  86
ATOM     86  O   UNL     1       3.523   0.641   2.934  1.00  0.00    -0.493 OA
BRANCH  86  87
ATOM     87  C   UNL     1       1.940   1.306   3.401  1.00  0.00     0.229 CG0
ATOM     88  G   UNL     1       1.565   3.119   3.588  1.00  0.00     0.000 G0
ENDBRANCH  86  87
ENDBRANCH  77  86
ENDBRANCH  72  76
ENDBRANCH  70  72
ENDBRANCH  64  68
ENDBRANCH   2  62
TORSDOF 12
