REMARK SMILES O=C(NCCCNC(=O)[C@H]1C[C@H]1c1ccc(C2CC2)cc1)c1ccc(-c2c3nc(c(-c4ccccc4)c4ccc([nH]4)c(-c4ccccc4)c4nc(c(-c5ccccc5)c5ccc2[nH]5)C=C4)C=C3)cc1
REMARK SMILES IDX 5 1 4 2 3 3 1 4 2 5 22 7 23 8 69 9 24 10 68 11 25 12 26 13
REMARK SMILES IDX 27 14 62 15 28 16 67 17 61 18 63 19 29 20 66 21 60 22 59 23
REMARK SMILES IDX 30 25 52 26 37 27 51 28 38 29 41 30 50 31 64 32 39 33 40 34
REMARK SMILES IDX 49 36 65 37 42 38 31 39 32 40 36 41 33 42 35 43 34 44 53 45
REMARK SMILES IDX 54 46 58 47 55 48 57 49 56 50 43 51 44 52 48 53 45 54 47 55
REMARK SMILES IDX 46 56 6 57 7 58 8 59 9 61 10 62 11 63 12 64 13 65 14 66
REMARK SMILES IDX 21 67 15 68 20 69 16 70 17 71 18 72 19 73
REMARK H PARENT 3 6 63 24 41 35 7 60
REMARK Flexibility Score: inf
ROOT
ATOM      1  C   UNL     1       7.098   6.878  -2.142  1.00  0.00     0.042 C 
ENDROOT
BRANCH   1   2
ATOM      2  C   UNL     1       8.482   7.393  -1.759  1.00  0.00     0.118 C 
BRANCH   2   3
ATOM      3  N   UNL     1       8.735   8.773  -2.161  1.00  0.00    -0.352 N 
ATOM      4  O   UNL     1       9.180  10.972  -1.938  1.00  0.00    -0.269 OA
ATOM      5  C   UNL     1       9.107   9.866  -1.409  1.00  0.00     0.251 C 
ATOM      6  H   UNL     1       8.621   8.951  -3.122  1.00  0.00     0.163 HD
BRANCH   5   7
ATOM      7  C   UNL     1       9.386   9.727   0.040  1.00  0.00     0.039 A 
ATOM      8  C   UNL     1      10.099   8.636   0.530  1.00  0.00     0.014 A 
ATOM      9  C   UNL     1       8.933  10.712   0.927  1.00  0.00     0.014 A 
ATOM     10  C   UNL     1      10.188   8.428   1.901  1.00  0.00     0.010 A 
ATOM     11  C   UNL     1       9.129  10.560   2.306  1.00  0.00     0.010 A 
ATOM     12  C   UNL     1       9.726   9.396   2.809  1.00  0.00    -0.014 A 
BRANCH  12  13
ATOM     13  C   UNL     1       9.967   9.178   4.261  1.00  0.00     0.031 A 
ATOM     14  C   UNL     1       8.836   9.028   5.243  1.00  0.00     0.074 A 
ATOM     15  C   UNL     1      11.242   9.040   4.680  1.00  0.00     0.049 A 
ATOM     16  N   UNL     1       8.894   8.733   6.520  1.00  0.00    -0.248 NA
ATOM     17  C   UNL     1       7.470   9.237   4.740  1.00  0.00     0.031 C 
ATOM     18  C   UNL     1      12.428   9.180   3.828  1.00  0.00     0.029 A 
ATOM     19  N   UNL     1      11.756   8.713   5.909  1.00  0.00    -0.354 N 
ATOM     20  C   UNL     1       7.579   8.722   6.971  1.00  0.00     0.074 A 
ATOM     21  C   UNL     1       6.747   9.077   5.842  1.00  0.00     0.031 C 
ATOM     22  C   UNL     1      13.520   8.871   4.539  1.00  0.00     0.029 A 
ATOM     23  C   UNL     1      13.125   8.590   5.913  1.00  0.00     0.049 A 
ATOM     24  H   UNL     1      11.199   8.579   6.709  1.00  0.00     0.167 HD
ATOM     25  C   UNL     1       7.110   8.433   8.210  1.00  0.00     0.031 A 
ATOM     26  C   UNL     1      13.978   8.300   6.912  1.00  0.00     0.031 A 
ATOM     27  C   UNL     1       7.941   8.095   9.339  1.00  0.00     0.049 A 
ATOM     28  C   UNL     1      13.427   8.030   8.281  1.00  0.00     0.074 A 
ATOM     29  C   UNL     1       7.553   7.776  10.630  1.00  0.00     0.029 A 
ATOM     30  N   UNL     1       9.325   8.036   9.315  1.00  0.00    -0.354 N 
ATOM     31  N   UNL     1      12.178   7.985   8.676  1.00  0.00    -0.248 NA
ATOM     32  C   UNL     1      14.407   7.764   9.342  1.00  0.00     0.031 C 
ATOM     33  C   UNL     1       8.704   7.582  11.401  1.00  0.00     0.029 A 
ATOM     34  C   UNL     1       9.807   7.710  10.574  1.00  0.00     0.049 A 
ATOM     35  H   UNL     1       9.884   8.200   8.522  1.00  0.00     0.167 HD
ATOM     36  C   UNL     1      12.222   7.673  10.027  1.00  0.00     0.074 A 
ATOM     37  C   UNL     1      13.618   7.498  10.371  1.00  0.00     0.031 C 
ATOM     38  C   UNL     1      11.199   7.551  10.908  1.00  0.00     0.031 A 
BRANCH  25  39
ATOM     39  C   UNL     1       5.620   8.479   8.425  1.00  0.00    -0.014 A 
ATOM     40  C   UNL     1       4.776   7.497   7.883  1.00  0.00     0.009 A 
ATOM     41  C   UNL     1       5.061   9.470   9.249  1.00  0.00     0.009 A 
ATOM     42  C   UNL     1       3.403   7.519   8.143  1.00  0.00     0.001 A 
ATOM     43  C   UNL     1       3.693   9.474   9.530  1.00  0.00     0.001 A 
ATOM     44  C   UNL     1       2.864   8.502   8.972  1.00  0.00     0.000 A 
ENDBRANCH  25  39
BRANCH  26  45
ATOM     45  C   UNL     1      15.444   8.293   6.664  1.00  0.00    -0.014 A 
ATOM     46  C   UNL     1      16.195   7.114   6.785  1.00  0.00     0.009 A 
ATOM     47  C   UNL     1      16.107   9.486   6.329  1.00  0.00     0.009 A 
ATOM     48  C   UNL     1      17.581   7.139   6.615  1.00  0.00     0.001 A 
ATOM     49  C   UNL     1      17.485   9.500   6.119  1.00  0.00     0.001 A 
ATOM     50  C   UNL     1      18.224   8.330   6.278  1.00  0.00     0.000 A 
ENDBRANCH  26  45
BRANCH  38  51
ATOM     51  C   UNL     1      11.563   7.186  12.321  1.00  0.00    -0.014 A 
ATOM     52  C   UNL     1      12.248   8.085  13.155  1.00  0.00     0.009 A 
ATOM     53  C   UNL     1      11.220   5.921  12.823  1.00  0.00     0.009 A 
ATOM     54  C   UNL     1      12.630   7.704  14.442  1.00  0.00     0.001 A 
ATOM     55  C   UNL     1      11.571   5.556  14.123  1.00  0.00     0.001 A 
ATOM     56  C   UNL     1      12.289   6.441  14.926  1.00  0.00     0.000 A 
ENDBRANCH  38  51
ENDBRANCH  12  13
ENDBRANCH   5   7
ENDBRANCH   2   3
ENDBRANCH   1   2
BRANCH   1  57
ATOM     57  C   UNL     1       6.886   6.679  -3.638  1.00  0.00     0.117 C 
BRANCH  57  58
ATOM     58  N   UNL     1       7.824   5.729  -4.209  1.00  0.00    -0.356 N 
ATOM     59  C   UNL     1       7.637   4.418  -4.557  1.00  0.00     0.223 C 
ATOM     60  H   UNL     1       8.730   6.080  -4.369  1.00  0.00     0.163 HD
ATOM     61  O   UNL     1       8.578   3.788  -5.028  1.00  0.00    -0.275 OA
BRANCH  59  62
ATOM     62  C   UNL     1       6.294   3.821  -4.357  1.00  0.00     0.086 C 
ATOM     63  C   UNL     1       5.364   3.768  -5.546  1.00  0.00     0.023 C 
ATOM     64  C   UNL     1       5.809   2.484  -4.892  1.00  0.00     0.032 C 
BRANCH  64  65
ATOM     65  C   UNL     1       6.642   1.486  -5.662  1.00  0.00    -0.044 A 
ATOM     66  C   UNL     1       6.280   1.065  -6.949  1.00  0.00     0.004 A 
ATOM     67  C   UNL     1       7.755   0.856  -5.092  1.00  0.00     0.004 A 
ATOM     68  C   UNL     1       7.012   0.086  -7.638  1.00  0.00     0.004 A 
ATOM     69  C   UNL     1       8.491  -0.120  -5.784  1.00  0.00     0.004 A 
ATOM     70  C   UNL     1       8.144  -0.528  -7.080  1.00  0.00    -0.045 A 
BRANCH  70  71
ATOM     71  C   UNL     1       8.914  -1.557  -7.887  1.00  0.00     0.019 C 
ATOM     72  C   UNL     1      10.245  -2.123  -7.457  1.00  0.00     0.009 C 
ATOM     73  C   UNL     1       9.015  -2.980  -7.391  1.00  0.00     0.009 C 
ENDBRANCH  70  71
ENDBRANCH  64  65
ENDBRANCH  59  62
ENDBRANCH  57  58
ENDBRANCH   1  57
TORSDOF 12
