REMARK SMILES O=C(NCCCNC(=O)c1ccc(-c2c3nc(c(-c4ccccc4)c4ccc([nH]4)c(-c4ccccc4)c4nc(c(-c5ccccc5)c5ccc2[nH]5)C=C4)C=C3)cc1)c1ccc(C[N@@H+]2CCC[C@H]2c2nc(-c3ccc(-c4cncnc4)nc3)no2)cc1
REMARK SMILES IDX 1 1 2 2 3 3 58 5 59 6 86 7 60 8 85 9 61 10 62 11 63 12 64 13
REMARK SMILES IDX 67 14 65 16 66 17 68 18 69 19 84 20 70 21 83 22 71 23 72 24
REMARK SMILES IDX 82 25 73 26 81 27 74 28 75 29 76 30 80 31 77 32 79 33 78 34
REMARK SMILES IDX 4 35 5 36 6 37 7 38 8 39 9 41 10 42 11 43 57 44 12 45 56 46
REMARK SMILES IDX 13 47 14 48 15 49 50 50 16 51 55 52 49 53 51 54 17 55 54 56
REMARK SMILES IDX 48 57 47 58 18 60 40 61 25 62 39 63 26 64 29 65 38 66 52 67
REMARK SMILES IDX 27 68 28 69 37 71 53 72 30 73 19 74 20 75 24 76 21 77 23 78
REMARK SMILES IDX 22 79 41 80 42 81 46 82 43 83 45 84 44 85 31 86 32 87 36 88
REMARK SMILES IDX 33 89 35 90 34 91
REMARK H PARENT 3 4 63 15 7 40 51 59 29 70
REMARK Flexibility Score: inf
ROOT
ATOM      1  O   UNL     1       1.165  -0.122   0.241  1.00  0.00    -0.269 OA
ATOM      2  C   UNL     1       2.382  -0.027   0.289  1.00  0.00     0.251 C 
ATOM      3  N   UNL     1       3.064   0.749  -0.620  1.00  0.00    -0.352 N 
ATOM      4  H   UNL     1       2.499   1.307  -1.203  1.00  0.00     0.163 HD
ENDROOT
BRANCH   2   5
ATOM      5  C   UNL     1       3.144  -0.782   1.303  1.00  0.00     0.039 A 
ATOM      6  C   UNL     1       3.977  -0.118   2.206  1.00  0.00     0.014 A 
ATOM      7  C   UNL     1       3.035  -2.172   1.329  1.00  0.00     0.014 A 
ATOM      8  C   UNL     1       4.802  -0.858   3.053  1.00  0.00     0.010 A 
ATOM      9  C   UNL     1       3.858  -2.908   2.182  1.00  0.00     0.010 A 
ATOM     10  C   UNL     1       4.794  -2.262   3.009  1.00  0.00     0.006 A 
BRANCH  10  11
ATOM     11  C   UNL     1       5.801  -3.060   3.813  1.00  0.00     0.299 C 
BRANCH  11  12
ATOM     12  N   UNL     1       7.096  -3.346   3.173  1.00  0.00    -0.321 N 
ATOM     13  C   UNL     1       7.914  -2.178   2.852  1.00  0.00     0.263 C 
ATOM     14  C   UNL     1       7.021  -4.167   1.950  1.00  0.00     0.275 C 
ATOM     15  H   UNL     1       7.546  -3.877   3.918  1.00  0.00     0.349 HD
ATOM     16  C   UNL     1       7.690  -1.890   1.379  1.00  0.00     0.068 C 
ATOM     17  C   UNL     1       7.314  -3.230   0.770  1.00  0.00     0.081 C 
BRANCH  14  18
ATOM     18  C   UNL     1       7.991  -5.316   1.951  1.00  0.00     0.285 A 
ATOM     19  N   UNL     1       9.301  -5.359   2.107  1.00  0.00    -0.186 NA
ATOM     20  O   UNL     1       7.457  -6.522   1.595  1.00  0.00    -0.332 OA
ATOM     21  C   UNL     1       9.590  -6.668   1.793  1.00  0.00     0.204 A 
ATOM     22  N   UNL     1       8.517  -7.409   1.476  1.00  0.00    -0.057 NA
BRANCH  21  23
ATOM     23  C   UNL     1      10.937  -7.192   1.718  1.00  0.00     0.041 A 
ATOM     24  C   UNL     1      11.352  -7.936   0.611  1.00  0.00     0.016 A 
ATOM     25  C   UNL     1      11.852  -7.014   2.744  1.00  0.00     0.123 A 
ATOM     26  C   UNL     1      12.638  -8.471   0.576  1.00  0.00     0.030 A 
ATOM     27  N   UNL     1      13.104  -7.551   2.749  1.00  0.00    -0.255 NA
ATOM     28  C   UNL     1      13.485  -8.271   1.665  1.00  0.00     0.073 A 
BRANCH  28  29
ATOM     29  C   UNL     1      14.815  -8.867   1.714  1.00  0.00     0.037 A 
ATOM     30  C   UNL     1      15.770  -8.681   0.730  1.00  0.00     0.124 A 
ATOM     31  C   UNL     1      15.218  -9.711   2.732  1.00  0.00     0.124 A 
ATOM     32  N   UNL     1      16.984  -9.275   0.715  1.00  0.00    -0.244 NA
ATOM     33  N   UNL     1      16.416 -10.340   2.776  1.00  0.00    -0.244 NA
ATOM     34  C   UNL     1      17.244 -10.084   1.753  1.00  0.00     0.221 A 
ENDBRANCH  28  29
ENDBRANCH  21  23
ENDBRANCH  14  18
ENDBRANCH  11  12
ENDBRANCH  10  11
ENDBRANCH   2   5
BRANCH   3  35
ATOM     35  C   UNL     1       4.497   0.867  -0.847  1.00  0.00     0.118 C 
BRANCH  35  36
ATOM     36  C   UNL     1       4.948   0.188  -2.136  1.00  0.00     0.042 C 
BRANCH  36  37
ATOM     37  C   UNL     1       4.410   0.833  -3.410  1.00  0.00     0.118 C 
BRANCH  37  38
ATOM     38  N   UNL     1       4.883   2.199  -3.600  1.00  0.00    -0.352 N 
ATOM     39  C   UNL     1       5.698   2.747  -4.561  1.00  0.00     0.251 C 
ATOM     40  H   UNL     1       4.562   2.839  -2.924  1.00  0.00     0.163 HD
ATOM     41  O   UNL     1       6.098   3.900  -4.429  1.00  0.00    -0.269 OA
BRANCH  39  42
ATOM     42  C   UNL     1       6.131   1.956  -5.734  1.00  0.00     0.039 A 
ATOM     43  C   UNL     1       7.468   2.033  -6.139  1.00  0.00     0.014 A 
ATOM     44  C   UNL     1       5.235   1.156  -6.446  1.00  0.00     0.014 A 
ATOM     45  C   UNL     1       7.928   1.228  -7.185  1.00  0.00     0.010 A 
ATOM     46  C   UNL     1       5.706   0.306  -7.445  1.00  0.00     0.010 A 
ATOM     47  C   UNL     1       7.062   0.315  -7.806  1.00  0.00    -0.014 A 
BRANCH  47  48
ATOM     48  C   UNL     1       7.560  -0.688  -8.783  1.00  0.00     0.031 A 
ATOM     49  C   UNL     1       7.088  -0.671 -10.209  1.00  0.00     0.074 A 
ATOM     50  C   UNL     1       8.368  -1.678  -8.354  1.00  0.00     0.049 A 
ATOM     51  N   UNL     1       7.303  -1.548 -11.157  1.00  0.00    -0.248 NA
ATOM     52  C   UNL     1       6.253   0.469 -10.618  1.00  0.00     0.031 C 
ATOM     53  C   UNL     1       8.886  -1.823  -6.990  1.00  0.00     0.029 A 
ATOM     54  N   UNL     1       8.881  -2.765  -9.018  1.00  0.00    -0.354 N 
ATOM     55  C   UNL     1       6.623  -1.073 -12.271  1.00  0.00     0.074 A 
ATOM     56  C   UNL     1       5.960   0.151 -11.872  1.00  0.00     0.031 C 
ATOM     57  C   UNL     1       9.650  -2.924  -6.924  1.00  0.00     0.029 A 
ATOM     58  C   UNL     1       9.635  -3.592  -8.220  1.00  0.00     0.049 A 
ATOM     59  H   UNL     1       8.724  -2.935  -9.975  1.00  0.00     0.167 HD
ATOM     60  C   UNL     1       6.566  -1.601 -13.517  1.00  0.00     0.031 A 
ATOM     61  C   UNL     1      10.225  -4.771  -8.491  1.00  0.00     0.031 A 
ATOM     62  C   UNL     1       7.226  -2.815 -13.919  1.00  0.00     0.049 A 
ATOM     63  C   UNL     1      10.090  -5.367  -9.863  1.00  0.00     0.074 A 
ATOM     64  C   UNL     1       7.262  -3.401 -15.173  1.00  0.00     0.029 A 
ATOM     65  N   UNL     1       7.961  -3.631 -13.075  1.00  0.00    -0.354 N 
ATOM     66  N   UNL     1       9.478  -4.882 -10.916  1.00  0.00    -0.248 NA
ATOM     67  C   UNL     1      10.721  -6.677 -10.081  1.00  0.00     0.031 C 
ATOM     68  C   UNL     1       7.981  -4.597 -15.076  1.00  0.00     0.029 A 
ATOM     69  C   UNL     1       8.429  -4.732 -13.773  1.00  0.00     0.049 A 
ATOM     70  H   UNL     1       8.126  -3.455 -12.120  1.00  0.00     0.167 HD
ATOM     71  C   UNL     1       9.665  -5.818 -11.924  1.00  0.00     0.074 A 
ATOM     72  C   UNL     1      10.461  -6.890 -11.363  1.00  0.00     0.031 C 
ATOM     73  C   UNL     1       9.214  -5.792 -13.201  1.00  0.00     0.031 A 
BRANCH  60  74
ATOM     74  C   UNL     1       5.755  -0.868 -14.546  1.00  0.00    -0.014 A 
ATOM     75  C   UNL     1       6.220   0.328 -15.114  1.00  0.00     0.009 A 
ATOM     76  C   UNL     1       4.542  -1.411 -14.999  1.00  0.00     0.009 A 
ATOM     77  C   UNL     1       5.473   0.979 -16.099  1.00  0.00     0.001 A 
ATOM     78  C   UNL     1       3.810  -0.770 -16.000  1.00  0.00     0.001 A 
ATOM     79  C   UNL     1       4.273   0.427 -16.544  1.00  0.00     0.000 A 
ENDBRANCH  60  74
BRANCH  61  80
ATOM     80  C   UNL     1      10.981  -5.489  -7.432  1.00  0.00    -0.014 A 
ATOM     81  C   UNL     1      12.378  -5.589  -7.502  1.00  0.00     0.009 A 
ATOM     82  C   UNL     1      10.308  -6.099  -6.362  1.00  0.00     0.009 A 
ATOM     83  C   UNL     1      13.085  -6.308  -6.535  1.00  0.00     0.001 A 
ATOM     84  C   UNL     1      11.020  -6.795  -5.382  1.00  0.00     0.001 A 
ATOM     85  C   UNL     1      12.406  -6.907  -5.475  1.00  0.00     0.000 A 
ENDBRANCH  61  80
BRANCH  73  86
ATOM     86  C   UNL     1       9.585  -6.949 -14.082  1.00  0.00    -0.014 A 
ATOM     87  C   UNL     1       8.951  -8.194 -13.944  1.00  0.00     0.009 A 
ATOM     88  C   UNL     1      10.551  -6.781 -15.086  1.00  0.00     0.009 A 
ATOM     89  C   UNL     1       9.295  -9.255 -14.783  1.00  0.00     0.001 A 
ATOM     90  C   UNL     1      10.875  -7.838 -15.938  1.00  0.00     0.001 A 
ATOM     91  C   UNL     1      10.252  -9.075 -15.782  1.00  0.00     0.000 A 
ENDBRANCH  73  86
ENDBRANCH  47  48
ENDBRANCH  39  42
ENDBRANCH  37  38
ENDBRANCH  36  37
ENDBRANCH  35  36
ENDBRANCH   3  35
TORSDOF 15
