REMARK SMILES Cc1noc(C)c1[C@H](C)NC(=O)NC[C@@](C)(O)C(=O)NCCCNC(=O)c1ccc(-c2c3nc(c(-c4ccccc4)c4ccc([nH]4)c(-c4ccccc4)c4nc(c(-c5ccccc5)c5ccc2[nH]5)C=C4)C=C3)cc1
REMARK SMILES IDX 21 1 20 2 18 3 19 4 15 6 16 7 14 8 13 9 10 10 11 11 12 13
REMARK SMILES IDX 8 15 9 16 7 17 1 18 2 19 3 20 4 21 5 22 6 23 17 24 22 26
REMARK SMILES IDX 23 27 24 28 25 29 26 31 27 32 28 33 74 34 29 35 73 36 30 37
REMARK SMILES IDX 31 38 32 39 67 40 33 41 72 42 66 43 68 44 34 45 71 46 65 47
REMARK SMILES IDX 64 48 35 50 57 51 42 52 56 53 43 54 46 55 55 56 69 57 44 58
REMARK SMILES IDX 45 59 54 61 70 62 47 63 36 64 37 65 41 66 38 67 40 68 39 69
REMARK SMILES IDX 58 70 59 71 63 72 60 73 62 74 61 75 48 76 49 77 53 78 50 79
REMARK SMILES IDX 52 80 51 81
REMARK H PARENT 20 5 10 12 13 14 17 25 24 30 68 49 46 60
REMARK Flexibility Score: inf
ROOT
ATOM      1  C   UNL     1       3.336   7.575  -1.610  1.00  0.00     0.117 C 
ENDROOT
BRANCH   1   2
ATOM      2  N   UNL     1       2.182   7.285  -0.779  1.00  0.00    -0.353 N 
ATOM      3  C   UNL     1       1.948   6.295   0.137  1.00  0.00     0.253 C 
ATOM      4  O   UNL     1       0.903   6.418   0.777  1.00  0.00    -0.272 OA
ATOM      5  H   UNL     1       1.433   7.913  -0.894  1.00  0.00     0.163 HD
BRANCH   3   6
ATOM      6  C   UNL     1       2.990   5.169   0.407  1.00  0.00     0.157 C 
ATOM      7  C   UNL     1       4.118   5.792   1.246  1.00  0.00     0.055 C 
BRANCH   6   8
ATOM      8  C   UNL     1       2.457   3.894   1.142  1.00  0.00     0.162 C 
BRANCH   8   9
ATOM      9  N   UNL     1       1.316   4.013   2.027  1.00  0.00    -0.335 N 
ATOM     10  N   UNL     1      -0.601   3.314   0.817  1.00  0.00    -0.331 N 
ATOM     11  C   UNL     1      -0.003   3.806   1.909  1.00  0.00     0.315 C 
ATOM     12  H   UNL     1      -1.583   3.374   0.855  1.00  0.00     0.165 HD
ATOM     13  O   UNL     1      -0.712   4.074   2.882  1.00  0.00    -0.249 OA
ATOM     14  H   UNL     1       1.569   4.318   2.928  1.00  0.00     0.165 HD
BRANCH  10  15
ATOM     15  C   UNL     1      -0.114   2.710  -0.409  1.00  0.00     0.116 C 
ATOM     16  C   UNL     1       0.225   1.246  -0.135  1.00  0.00     0.036 C 
BRANCH  15  17
ATOM     17  C   UNL     1      -1.121   2.942  -1.501  1.00  0.00     0.040 A 
ATOM     18  C   UNL     1      -1.038   5.561  -1.608  1.00  0.00     0.071 C 
ATOM     19  C   UNL     1      -1.506   4.219  -2.022  1.00  0.00     0.086 A 
ATOM     20  N   UNL     1      -2.379   4.106  -3.027  1.00  0.00    -0.085 NA
ATOM     21  O   UNL     1      -2.584   2.758  -3.192  1.00  0.00    -0.361 OA
ATOM     22  C   UNL     1      -1.831   2.062  -2.299  1.00  0.00     0.139 A 
ATOM     23  C   UNL     1      -1.943   0.594  -2.419  1.00  0.00     0.091 C 
ENDBRANCH  15  17
ENDBRANCH  10  15
ENDBRANCH   8   9
ENDBRANCH   6   8
BRANCH   6  24
ATOM     24  O   UNL     1       3.545   4.709  -0.841  1.00  0.00    -0.378 OA
ATOM     25  H   UNL     1       4.193   4.008  -0.668  1.00  0.00     0.212 HD
ENDBRANCH   6  24
ENDBRANCH   3   6
ENDBRANCH   1   2
BRANCH   1  26
ATOM     26  C   UNL     1       3.046   7.466  -3.103  1.00  0.00     0.042 C 
BRANCH  26  27
ATOM     27  C   UNL     1       1.933   8.377  -3.618  1.00  0.00     0.118 C 
BRANCH  27  28
ATOM     28  N   UNL     1       2.163   9.789  -3.338  1.00  0.00    -0.352 N 
ATOM     29  C   UNL     1       2.434  10.851  -4.161  1.00  0.00     0.251 C 
ATOM     30  H   UNL     1       2.114  10.023  -2.383  1.00  0.00     0.163 HD
ATOM     31  O   UNL     1       2.750  11.931  -3.654  1.00  0.00    -0.269 OA
BRANCH  29  32
ATOM     32  C   UNL     1       2.388  10.733  -5.635  1.00  0.00     0.039 A 
ATOM     33  C   UNL     1       3.350  11.414  -6.390  1.00  0.00     0.014 A 
ATOM     34  C   UNL     1       1.387  10.011  -6.287  1.00  0.00     0.014 A 
ATOM     35  C   UNL     1       3.355  11.306  -7.784  1.00  0.00     0.010 A 
ATOM     36  C   UNL     1       1.440   9.836  -7.670  1.00  0.00     0.010 A 
ATOM     37  C   UNL     1       2.426  10.479  -8.435  1.00  0.00    -0.014 A 
BRANCH  37  38
ATOM     38  C   UNL     1       2.482  10.263  -9.905  1.00  0.00     0.031 A 
ATOM     39  C   UNL     1       1.337  10.684 -10.786  1.00  0.00     0.074 A 
ATOM     40  C   UNL     1       3.540   9.624 -10.444  1.00  0.00     0.049 A 
ATOM     41  N   UNL     1       1.182  10.515 -12.076  1.00  0.00    -0.248 NA
ATOM     42  C   UNL     1       0.209  11.364 -10.131  1.00  0.00     0.031 C 
ATOM     43  C   UNL     1       4.702   9.132  -9.701  1.00  0.00     0.029 A 
ATOM     44  N   UNL     1       3.805   9.271 -11.744  1.00  0.00    -0.354 N 
ATOM     45  C   UNL     1      -0.064  11.049 -12.381  1.00  0.00     0.074 A 
ATOM     46  C   UNL     1      -0.643  11.504 -11.136  1.00  0.00     0.031 C 
ATOM     47  C   UNL     1       5.566   8.566 -10.559  1.00  0.00     0.029 A 
ATOM     48  C   UNL     1       5.000   8.611 -11.903  1.00  0.00     0.049 A 
ATOM     49  H   UNL     1       3.197   9.471 -12.492  1.00  0.00     0.167 HD
ATOM     50  C   UNL     1      -0.667  11.165 -13.589  1.00  0.00     0.031 A 
ATOM     51  C   UNL     1       5.574   8.089 -13.004  1.00  0.00     0.031 A 
ATOM     52  C   UNL     1      -0.092  10.717 -14.830  1.00  0.00     0.049 A 
ATOM     53  C   UNL     1       4.872   8.207 -14.328  1.00  0.00     0.074 A 
ATOM     54  C   UNL     1      -0.604  10.840 -16.111  1.00  0.00     0.029 A 
ATOM     55  N   UNL     1       1.119  10.054 -14.946  1.00  0.00    -0.354 N 
ATOM     56  N   UNL     1       3.725   8.775 -14.607  1.00  0.00    -0.248 NA
ATOM     57  C   UNL     1       5.553   7.620 -15.491  1.00  0.00     0.031 C 
ATOM     58  C   UNL     1       0.272  10.202 -16.995  1.00  0.00     0.029 A 
ATOM     59  C   UNL     1       1.359   9.737 -16.273  1.00  0.00     0.049 A 
ATOM     60  H   UNL     1       1.721   9.840 -14.196  1.00  0.00     0.167 HD
ATOM     61  C   UNL     1       3.559   8.639 -15.979  1.00  0.00     0.074 A 
ATOM     62  C   UNL     1       4.732   7.951 -16.477  1.00  0.00     0.031 C 
ATOM     63  C   UNL     1       2.528   9.050 -16.757  1.00  0.00     0.031 A 
BRANCH  50  64
ATOM     64  C   UNL     1      -2.033  11.795 -13.624  1.00  0.00    -0.014 A 
ATOM     65  C   UNL     1      -2.211  13.164 -13.366  1.00  0.00     0.009 A 
ATOM     66  C   UNL     1      -3.153  11.018 -13.959  1.00  0.00     0.009 A 
ATOM     67  C   UNL     1      -3.486  13.732 -13.404  1.00  0.00     0.001 A 
ATOM     68  C   UNL     1      -4.422  11.595 -14.027  1.00  0.00     0.001 A 
ATOM     69  C   UNL     1      -4.590  12.949 -13.739  1.00  0.00     0.000 A 
ENDBRANCH  50  64
BRANCH  51  70
ATOM     70  C   UNL     1       6.894   7.410 -12.905  1.00  0.00    -0.014 A 
ATOM     71  C   UNL     1       8.039   7.994 -13.469  1.00  0.00     0.009 A 
ATOM     72  C   UNL     1       7.014   6.171 -12.257  1.00  0.00     0.009 A 
ATOM     73  C   UNL     1       9.270   7.338 -13.411  1.00  0.00     0.001 A 
ATOM     74  C   UNL     1       8.253   5.532 -12.173  1.00  0.00     0.001 A 
ATOM     75  C   UNL     1       9.377   6.111 -12.759  1.00  0.00     0.000 A 
ENDBRANCH  51  70
BRANCH  63  76
ATOM     76  C   UNL     1       2.639   8.800 -18.236  1.00  0.00    -0.014 A 
ATOM     77  C   UNL     1       2.525   7.507 -18.770  1.00  0.00     0.009 A 
ATOM     78  C   UNL     1       2.822   9.883 -19.110  1.00  0.00     0.009 A 
ATOM     79  C   UNL     1       2.627   7.301 -20.148  1.00  0.00     0.001 A 
ATOM     80  C   UNL     1       2.892   9.678 -20.489  1.00  0.00     0.001 A 
ATOM     81  C   UNL     1       2.805   8.387 -21.005  1.00  0.00     0.000 A 
ENDBRANCH  63  76
ENDBRANCH  37  38
ENDBRANCH  29  32
ENDBRANCH  27  28
ENDBRANCH  26  27
ENDBRANCH   1  26
TORSDOF 15
