REMARK SMILES CO[C@@H]1C[C@@H](C(=O)NCCCNC(=O)c2ccc(-c3c4nc(c(-c5ccccc5)c5ccc([nH]5)c(-c5ccccc5)c5nc(c(-c6ccccc6)c6ccc3[nH]6)C=C5)C=C4)cc2)N(S(=O)(=O)/C=C/c2ccccc2)C1
REMARK SMILES IDX 9 1 8 2 6 3 7 4 5 6 3 7 4 8 75 9 63 10 2 11 1 12 64 13 65 14
REMARK SMILES IDX 66 15 67 16 68 17 69 18 70 19 74 20 71 21 73 22 72 23 10 24
REMARK SMILES IDX 11 25 12 26 13 27 14 29 15 30 16 31 62 32 17 33 61 34 18 35
REMARK SMILES IDX 19 36 20 37 55 38 21 39 60 40 54 41 56 42 22 43 59 44 53 45
REMARK SMILES IDX 52 46 23 48 45 49 30 50 44 51 31 52 34 53 43 54 57 55 32 56
REMARK SMILES IDX 33 57 42 59 58 60 35 61 24 62 25 63 29 64 26 65 28 66 27 67
REMARK SMILES IDX 46 68 47 69 51 70 48 71 50 72 49 73 36 74 37 75 41 76 38 77
REMARK SMILES IDX 40 78 39 79
REMARK H PARENT 8 5 12 28 56 47 34 58
REMARK Flexibility Score: inf
ROOT
ATOM      1  C   UNL     1       4.359   4.251  -0.559  1.00  0.00     0.117 C 
ENDROOT
BRANCH   1   2
ATOM      2  N   UNL     1       3.722   3.996   0.721  1.00  0.00    -0.355 N 
ATOM      3  C   UNL     1       2.587   3.377   1.113  1.00  0.00     0.238 C 
ATOM      4  O   UNL     1       2.442   3.298   2.342  1.00  0.00    -0.273 OA
ATOM      5  H   UNL     1       4.237   4.357   1.478  1.00  0.00     0.163 HD
BRANCH   3   6
ATOM      6  C   UNL     1       1.535   2.776   0.209  1.00  0.00     0.165 C 
ATOM      7  C   UNL     1       0.737   1.278  -1.435  1.00  0.00     0.135 C 
ATOM      8  C   UNL     1       2.029   1.700  -0.750  1.00  0.00     0.064 C 
ATOM      9  C   UNL     1       0.041   2.631  -1.665  1.00  0.00     0.135 C 
ATOM     10  N   UNL     1       0.481   3.520  -0.522  1.00  0.00    -0.183 NA
BRANCH   7  11
ATOM     11  O   UNL     1      -0.109   0.469  -0.613  1.00  0.00    -0.380 OA
ATOM     12  C   UNL     1       0.463  -0.767  -0.213  1.00  0.00     0.195 C 
ENDBRANCH   7  11
BRANCH  10  13
ATOM     13  S   UNL     1       0.584   5.141  -0.954  1.00  0.00     0.237 S 
ATOM     14  O   UNL     1       1.620   5.190  -1.971  1.00  0.00    -0.207 OA
ATOM     15  O   UNL     1      -0.756   5.546  -1.317  1.00  0.00    -0.207 OA
BRANCH  13  16
ATOM     16  C   UNL     1       1.103   6.116   0.370  1.00  0.00     0.123 C 
ATOM     17  C   UNL     1       0.703   5.891   1.629  1.00  0.00     0.021 C 
BRANCH  17  18
ATOM     18  C   UNL     1       1.273   6.616   2.780  1.00  0.00    -0.025 A 
ATOM     19  C   UNL     1       1.379   5.944   4.005  1.00  0.00     0.008 A 
ATOM     20  C   UNL     1       1.729   7.941   2.705  1.00  0.00     0.008 A 
ATOM     21  C   UNL     1       1.948   6.566   5.119  1.00  0.00     0.001 A 
ATOM     22  C   UNL     1       2.303   8.563   3.819  1.00  0.00     0.001 A 
ATOM     23  C   UNL     1       2.415   7.874   5.025  1.00  0.00     0.000 A 
ENDBRANCH  17  18
ENDBRANCH  13  16
ENDBRANCH  10  13
ENDBRANCH   3   6
ENDBRANCH   1   2
BRANCH   1  24
ATOM     24  C   UNL     1       4.520   5.738  -0.874  1.00  0.00     0.042 C 
BRANCH  24  25
ATOM     25  C   UNL     1       5.135   6.587   0.232  1.00  0.00     0.118 C 
BRANCH  25  26
ATOM     26  N   UNL     1       6.579   6.658   0.123  1.00  0.00    -0.352 N 
ATOM     27  C   UNL     1       7.363   7.675  -0.366  1.00  0.00     0.251 C 
ATOM     28  H   UNL     1       7.066   5.865   0.444  1.00  0.00     0.163 HD
ATOM     29  O   UNL     1       8.545   7.457  -0.620  1.00  0.00    -0.269 OA
BRANCH  27  30
ATOM     30  C   UNL     1       6.803   9.028  -0.598  1.00  0.00     0.039 A 
ATOM     31  C   UNL     1       7.196   9.729  -1.743  1.00  0.00     0.014 A 
ATOM     32  C   UNL     1       5.964   9.645   0.336  1.00  0.00     0.014 A 
ATOM     33  C   UNL     1       6.728  11.028  -1.965  1.00  0.00     0.010 A 
ATOM     34  C   UNL     1       5.440  10.912   0.078  1.00  0.00     0.010 A 
ATOM     35  C   UNL     1       5.837  11.628  -1.062  1.00  0.00    -0.014 A 
BRANCH  35  36
ATOM     36  C   UNL     1       5.357  13.020  -1.267  1.00  0.00     0.031 A 
ATOM     37  C   UNL     1       5.753  14.106  -0.301  1.00  0.00     0.074 A 
ATOM     38  C   UNL     1       4.540  13.309  -2.297  1.00  0.00     0.049 A 
ATOM     39  N   UNL     1       5.407  15.369  -0.290  1.00  0.00    -0.248 NA
ATOM     40  C   UNL     1       6.636  13.716   0.810  1.00  0.00     0.031 C 
ATOM     41  C   UNL     1       4.054  12.351  -3.291  1.00  0.00     0.029 A 
ATOM     42  N   UNL     1       3.969  14.500  -2.676  1.00  0.00    -0.354 N 
ATOM     43  C   UNL     1       6.010  15.916   0.837  1.00  0.00     0.074 A 
ATOM     44  C   UNL     1       6.707  14.841   1.507  1.00  0.00     0.031 C 
ATOM     45  C   UNL     1       3.279  12.995  -4.179  1.00  0.00     0.029 A 
ATOM     46  C   UNL     1       3.186  14.402  -3.800  1.00  0.00     0.049 A 
ATOM     47  H   UNL     1       4.109  15.343  -2.188  1.00  0.00     0.167 HD
ATOM     48  C   UNL     1       6.001  17.201   1.268  1.00  0.00     0.031 A 
ATOM     49  C   UNL     1       2.471  15.338  -4.452  1.00  0.00     0.031 A 
ATOM     50  C   UNL     1       5.330  18.280   0.596  1.00  0.00     0.049 A 
ATOM     51  C   UNL     1       2.476  16.756  -3.954  1.00  0.00     0.074 A 
ATOM     52  C   UNL     1       5.318  19.625   0.923  1.00  0.00     0.029 A 
ATOM     53  N   UNL     1       4.553  18.137  -0.542  1.00  0.00    -0.354 N 
ATOM     54  N   UNL     1       3.100  17.267  -2.922  1.00  0.00    -0.248 NA
ATOM     55  C   UNL     1       1.682  17.728  -4.721  1.00  0.00     0.031 C 
ATOM     56  C   UNL     1       4.497  20.291   0.006  1.00  0.00     0.029 A 
ATOM     57  C   UNL     1       4.037  19.366  -0.918  1.00  0.00     0.049 A 
ATOM     58  H   UNL     1       4.391  17.288  -1.014  1.00  0.00     0.167 HD
ATOM     59  C   UNL     1       2.794  18.621  -2.926  1.00  0.00     0.074 A 
ATOM     60  C   UNL     1       1.940  18.856  -4.072  1.00  0.00     0.031 C 
ATOM     61  C   UNL     1       3.185  19.584  -2.057  1.00  0.00     0.031 A 
BRANCH  48  62
ATOM     62  C   UNL     1       6.741  17.505   2.541  1.00  0.00    -0.014 A 
ATOM     63  C   UNL     1       8.144  17.499   2.587  1.00  0.00     0.009 A 
ATOM     64  C   UNL     1       6.024  17.831   3.703  1.00  0.00     0.009 A 
ATOM     65  C   UNL     1       8.814  17.776   3.780  1.00  0.00     0.001 A 
ATOM     66  C   UNL     1       6.697  18.133   4.888  1.00  0.00     0.001 A 
ATOM     67  C   UNL     1       8.090  18.096   4.929  1.00  0.00     0.000 A 
ENDBRANCH  48  62
BRANCH  49  68
ATOM     68  C   UNL     1       1.700  14.966  -5.666  1.00  0.00    -0.014 A 
ATOM     69  C   UNL     1       2.139  15.369  -6.937  1.00  0.00     0.009 A 
ATOM     70  C   UNL     1       0.526  14.206  -5.561  1.00  0.00     0.009 A 
ATOM     71  C   UNL     1       1.405  15.034  -8.077  1.00  0.00     0.001 A 
ATOM     72  C   UNL     1      -0.193  13.852  -6.705  1.00  0.00     0.001 A 
ATOM     73  C   UNL     1       0.243  14.272  -7.961  1.00  0.00     0.000 A 
ENDBRANCH  49  68
BRANCH  61  74
ATOM     74  C   UNL     1       2.714  20.985  -2.326  1.00  0.00    -0.014 A 
ATOM     75  C   UNL     1       1.386  21.363  -2.078  1.00  0.00     0.009 A 
ATOM     76  C   UNL     1       3.620  21.946  -2.799  1.00  0.00     0.009 A 
ATOM     77  C   UNL     1       0.968  22.672  -2.326  1.00  0.00     0.001 A 
ATOM     78  C   UNL     1       3.206  23.259  -3.023  1.00  0.00     0.001 A 
ATOM     79  C   UNL     1       1.879  23.619  -2.794  1.00  0.00     0.000 A 
ENDBRANCH  61  74
ENDBRANCH  35  36
ENDBRANCH  27  30
ENDBRANCH  25  26
ENDBRANCH  24  25
ENDBRANCH   1  24
TORSDOF 14
