REMARK SMILES CC(=O)Nc1cccc(-c2cc(F)ccc2C(=O)NCCCNC(=O)c2ccc(-c3c4nc(c(-c5ccccc5)c5ccc([nH]5)c(-c5ccccc5)c5nc(c(-c6ccccc6)c6ccc3[nH]6)C=C5)C=C4)cc2)c1
REMARK SMILES IDX 21 1 20 2 19 3 17 4 18 5 16 7 10 8 11 9 12 10 15 11 13 12
REMARK SMILES IDX 14 13 9 14 5 15 6 16 74 17 7 18 8 19 4 20 1 21 2 22 3 23
REMARK SMILES IDX 22 25 23 26 24 27 25 29 26 30 27 31 73 32 28 33 72 34 29 35
REMARK SMILES IDX 30 36 31 37 66 38 32 39 71 40 65 41 67 42 33 43 70 44 64 45
REMARK SMILES IDX 63 46 34 48 56 49 41 50 55 51 42 52 45 53 54 54 68 55 43 56
REMARK SMILES IDX 44 57 53 59 69 60 46 61 35 62 36 63 40 64 37 65 39 66 38 67
REMARK SMILES IDX 57 68 58 69 62 70 59 71 61 72 60 73 47 74 48 75 52 76 49 77
REMARK SMILES IDX 51 78 50 79
REMARK H PARENT 19 6 4 24 23 28 67 47 45 58
REMARK Flexibility Score: inf
ROOT
ATOM      1  C   UNL     1       3.430  -2.822   4.393  1.00  0.00     0.042 C 
ENDROOT
BRANCH   1   2
ATOM      2  C   UNL     1       3.727  -2.255   3.028  1.00  0.00     0.118 C 
BRANCH   2   3
ATOM      3  N   UNL     1       4.771  -1.293   2.874  1.00  0.00    -0.352 N 
ATOM      4  C   UNL     1       5.485  -1.003   1.733  1.00  0.00     0.251 C 
ATOM      5  O   UNL     1       6.127   0.053   1.767  1.00  0.00    -0.269 OA
ATOM      6  H   UNL     1       5.008  -0.776   3.678  1.00  0.00     0.163 HD
BRANCH   4   7
ATOM      7  C   UNL     1       5.647  -1.893   0.512  1.00  0.00     0.047 A 
ATOM      8  C   UNL     1       4.729  -2.737  -0.186  1.00  0.00    -0.003 A 
ATOM      9  C   UNL     1       5.201  -3.426  -1.335  1.00  0.00     0.048 A 
ATOM     10  C   UNL     1       6.507  -3.301  -1.789  1.00  0.00     0.123 A 
ATOM     11  C   UNL     1       6.974  -1.795   0.003  1.00  0.00     0.017 A 
ATOM     12  F   UNL     1       6.899  -3.981  -2.873  1.00  0.00    -0.207 F 
ATOM     13  C   UNL     1       7.402  -2.489  -1.129  1.00  0.00     0.040 A 
BRANCH   8  14
ATOM     14  C   UNL     1       3.319  -3.024   0.163  1.00  0.00    -0.015 A 
ATOM     15  C   UNL     1       1.095  -2.274   0.843  1.00  0.00     0.041 A 
ATOM     16  C   UNL     1       0.789  -3.577   1.258  1.00  0.00     0.026 A 
ATOM     17  C   UNL     1       2.345  -2.015   0.251  1.00  0.00     0.034 A 
ATOM     18  C   UNL     1       1.698  -4.615   1.070  1.00  0.00     0.003 A 
ATOM     19  C   UNL     1       2.951  -4.340   0.524  1.00  0.00     0.009 A 
BRANCH  15  20
ATOM     20  N   UNL     1       0.210  -1.261   1.258  1.00  0.00    -0.326 N 
ATOM     21  C   UNL     1       0.674   0.526  -0.405  1.00  0.00     0.114 C 
ATOM     22  C   UNL     1       0.113   0.054   0.906  1.00  0.00     0.221 C 
ATOM     23  O   UNL     1      -0.473   0.841   1.651  1.00  0.00    -0.275 OA
ATOM     24  H   UNL     1      -0.458  -1.553   1.919  1.00  0.00     0.169 HD
ENDBRANCH  15  20
ENDBRANCH   8  14
ENDBRANCH   4   7
ENDBRANCH   2   3
ENDBRANCH   1   2
BRANCH   1  25
ATOM     25  C   UNL     1       2.552  -1.953   5.280  1.00  0.00     0.118 C 
BRANCH  25  26
ATOM     26  N   UNL     1       1.261  -1.587   4.689  1.00  0.00    -0.352 N 
ATOM     27  C   UNL     1      -0.018  -2.086   4.791  1.00  0.00     0.251 C 
ATOM     28  H   UNL     1       1.323  -0.813   4.084  1.00  0.00     0.163 HD
ATOM     29  O   UNL     1      -0.847  -1.734   3.954  1.00  0.00    -0.269 OA
BRANCH  27  30
ATOM     30  C   UNL     1      -0.416  -3.075   5.825  1.00  0.00     0.039 A 
ATOM     31  C   UNL     1      -1.544  -3.878   5.604  1.00  0.00     0.014 A 
ATOM     32  C   UNL     1       0.280  -3.224   7.017  1.00  0.00     0.014 A 
ATOM     33  C   UNL     1      -1.888  -4.879   6.520  1.00  0.00     0.010 A 
ATOM     34  C   UNL     1       0.053  -4.325   7.830  1.00  0.00     0.010 A 
ATOM     35  C   UNL     1      -1.051  -5.154   7.611  1.00  0.00    -0.014 A 
BRANCH  35  36
ATOM     36  C   UNL     1      -1.316  -6.264   8.560  1.00  0.00     0.031 A 
ATOM     37  C   UNL     1      -1.432  -5.983  10.039  1.00  0.00     0.074 A 
ATOM     38  C   UNL     1      -1.361  -7.533   8.108  1.00  0.00     0.049 A 
ATOM     39  N   UNL     1      -1.554  -6.825  11.035  1.00  0.00    -0.248 NA
ATOM     40  C   UNL     1      -1.350  -4.574  10.461  1.00  0.00     0.031 C 
ATOM     41  C   UNL     1      -1.195  -7.947   6.712  1.00  0.00     0.029 A 
ATOM     42  N   UNL     1      -1.555  -8.713   8.779  1.00  0.00    -0.354 N 
ATOM     43  C   UNL     1      -1.525  -6.050  12.189  1.00  0.00     0.074 A 
ATOM     44  C   UNL     1      -1.296  -4.684  11.778  1.00  0.00     0.031 C 
ATOM     45  C   UNL     1      -1.344  -9.278   6.625  1.00  0.00     0.029 A 
ATOM     46  C   UNL     1      -1.563  -9.817   7.961  1.00  0.00     0.049 A 
ATOM     47  H   UNL     1      -1.677  -8.764   9.755  1.00  0.00     0.167 HD
ATOM     48  C   UNL     1      -1.710  -6.429  13.475  1.00  0.00     0.031 A 
ATOM     49  C   UNL     1      -1.729 -11.120   8.256  1.00  0.00     0.031 A 
ATOM     50  C   UNL     1      -1.972  -7.784  13.879  1.00  0.00     0.049 A 
ATOM     51  C   UNL     1      -1.958 -11.515   9.688  1.00  0.00     0.074 A 
ATOM     52  C   UNL     1      -2.240  -8.272  15.145  1.00  0.00     0.029 A 
ATOM     53  N   UNL     1      -2.007  -8.867  13.014  1.00  0.00    -0.354 N 
ATOM     54  N   UNL     1      -1.996 -10.760  10.760  1.00  0.00    -0.248 NA
ATOM     55  C   UNL     1      -2.187 -12.943   9.945  1.00  0.00     0.031 C 
ATOM     56  C   UNL     1      -2.386  -9.661  15.053  1.00  0.00     0.029 A 
ATOM     57  C   UNL     1      -2.276 -10.027  13.721  1.00  0.00     0.049 A 
ATOM     58  H   UNL     1      -1.862  -8.819  12.041  1.00  0.00     0.167 HD
ATOM     59  C   UNL     1      -2.283 -11.616  11.815  1.00  0.00     0.074 A 
ATOM     60  C   UNL     1      -2.434 -12.941  11.247  1.00  0.00     0.031 C 
ATOM     61  C   UNL     1      -2.412 -11.335  13.135  1.00  0.00     0.031 A 
BRANCH  48  62
ATOM     62  C   UNL     1      -1.638  -5.358  14.531  1.00  0.00    -0.014 A 
ATOM     63  C   UNL     1      -2.603  -4.339  14.607  1.00  0.00     0.009 A 
ATOM     64  C   UNL     1      -0.598  -5.371  15.474  1.00  0.00     0.009 A 
ATOM     65  C   UNL     1      -2.501  -3.332  15.570  1.00  0.00     0.001 A 
ATOM     66  C   UNL     1      -0.519  -4.384  16.459  1.00  0.00     0.001 A 
ATOM     67  C   UNL     1      -1.462  -3.359  16.498  1.00  0.00     0.000 A 
ENDBRANCH  48  62
BRANCH  49  68
ATOM     68  C   UNL     1      -1.720 -12.139   7.173  1.00  0.00    -0.014 A 
ATOM     69  C   UNL     1      -2.900 -12.812   6.819  1.00  0.00     0.009 A 
ATOM     70  C   UNL     1      -0.534 -12.449   6.489  1.00  0.00     0.009 A 
ATOM     71  C   UNL     1      -2.886 -13.796   5.828  1.00  0.00     0.001 A 
ATOM     72  C   UNL     1      -0.530 -13.410   5.476  1.00  0.00     0.001 A 
ATOM     73  C   UNL     1      -1.702 -14.091   5.154  1.00  0.00     0.000 A 
ENDBRANCH  49  68
BRANCH  61  74
ATOM     74  C   UNL     1      -2.772 -12.480  14.041  1.00  0.00    -0.014 A 
ATOM     75  C   UNL     1      -1.868 -13.521  14.305  1.00  0.00     0.009 A 
ATOM     76  C   UNL     1      -4.039 -12.511  14.645  1.00  0.00     0.009 A 
ATOM     77  C   UNL     1      -2.246 -14.596  15.111  1.00  0.00     0.001 A 
ATOM     78  C   UNL     1      -4.400 -13.567  15.481  1.00  0.00     0.001 A 
ATOM     79  C   UNL     1      -3.509 -14.617  15.700  1.00  0.00     0.000 A 
ENDBRANCH  61  74
ENDBRANCH  35  36
ENDBRANCH  27  30
ENDBRANCH  25  26
ENDBRANCH   1  25
TORSDOF 12
