REMARK SMILES Cc1cccc(S(=O)(=O)Nc2cc(C(=O)NCCCNC(=O)c3ccc(-c4c5nc(c(-c6ccccc6)c6ccc([nH]6)c(-c6ccccc6)c6nc(c(-c7ccccc7)c7ccc4[nH]7)C=C6)C=C5)cc3)ccc2N2CCC[C@H](C[NH+]3CCCC3)C2)c1
REMARK SMILES IDX 17 1 16 2 14 3 15 4 13 6 11 7 12 8 73 9 72 10 71 11 10 12
REMARK SMILES IDX 7 14 8 15 9 16 6 17 1 18 2 19 3 20 86 21 4 22 5 23 74 24
REMARK SMILES IDX 75 25 85 26 76 27 78 28 77 29 79 30 80 31 81 32 84 33 82 35
REMARK SMILES IDX 83 36 18 37 19 38 20 39 21 40 22 42 23 43 24 44 70 45 25 46
REMARK SMILES IDX 69 47 26 48 27 49 28 50 63 51 29 52 68 53 62 54 64 55 30 56
REMARK SMILES IDX 67 57 61 58 60 59 31 61 53 62 38 63 52 64 39 65 42 66 51 67
REMARK SMILES IDX 65 68 40 69 41 70 50 72 66 73 43 74 32 75 33 76 37 77 34 78
REMARK SMILES IDX 36 79 35 80 54 81 55 82 59 83 56 84 58 85 57 86 44 87 45 88
REMARK SMILES IDX 49 89 46 90 48 91 47 92
REMARK H PARENT 16 5 10 13 80 34 20 41 64 60 42 71
REMARK Flexibility Score: inf
ROOT
ATOM      1  C   UNL     1       0.799   0.749  -2.912  1.00  0.00     0.118 C 
ENDROOT
BRANCH   1   2
ATOM      2  N   UNL     1       2.196   1.150  -3.026  1.00  0.00    -0.352 N 
ATOM      3  C   UNL     1       2.957   2.058  -2.321  1.00  0.00     0.251 C 
ATOM      4  O   UNL     1       4.169   2.083  -2.538  1.00  0.00    -0.269 OA
ATOM      5  H   UNL     1       2.688   0.684  -3.740  1.00  0.00     0.163 HD
BRANCH   3   6
ATOM      6  C   UNL     1       2.403   2.981  -1.286  1.00  0.00     0.042 A 
ATOM      7  C   UNL     1       0.570   4.073  -0.133  1.00  0.00     0.073 A 
ATOM      8  C   UNL     1       1.063   3.335  -1.202  1.00  0.00     0.042 A 
ATOM      9  C   UNL     1       1.435   4.658   0.804  1.00  0.00     0.061 A 
ATOM     10  C   UNL     1       2.802   4.380   0.671  1.00  0.00     0.029 A 
ATOM     11  C   UNL     1       3.278   3.529  -0.338  1.00  0.00     0.016 A 
BRANCH   7  12
ATOM     12  N   UNL     1      -0.837   4.233  -0.009  1.00  0.00    -0.277 N 
ATOM     13  H   UNL     1      -1.215   5.139  -0.077  1.00  0.00     0.180 HD
BRANCH  12  14
ATOM     14  S   UNL     1      -1.889   2.938   0.251  1.00  0.00     0.261 S 
ATOM     15  O   UNL     1      -2.658   2.836  -0.988  1.00  0.00    -0.201 OA
ATOM     16  O   UNL     1      -2.549   3.220   1.496  1.00  0.00    -0.201 OA
BRANCH  14  17
ATOM     17  C   UNL     1      -1.098   1.344   0.445  1.00  0.00     0.088 A 
ATOM     18  C   UNL     1       2.299  -0.287   0.971  1.00  0.00     0.044 C 
ATOM     19  C   UNL     1       0.821  -0.112   0.760  1.00  0.00    -0.050 A 
ATOM     20  C   UNL     1       0.061  -1.208   0.331  1.00  0.00     0.003 A 
ATOM     21  C   UNL     1       0.211   1.151   0.892  1.00  0.00     0.025 A 
ATOM     22  C   UNL     1      -1.278  -1.043  -0.009  1.00  0.00     0.002 A 
ATOM     23  C   UNL     1      -1.846   0.231   0.021  1.00  0.00     0.022 A 
ENDBRANCH  14  17
ENDBRANCH  12  14
ENDBRANCH   7  12
BRANCH   9  24
ATOM     24  N   UNL     1       1.006   5.500   1.815  1.00  0.00    -0.369 N 
ATOM     25  C   UNL     1       1.263   6.930   1.659  1.00  0.00     0.116 C 
ATOM     26  C   UNL     1       0.033   5.090   2.825  1.00  0.00     0.126 C 
ATOM     27  C   UNL     1       1.675   7.519   3.005  1.00  0.00     0.022 C 
ATOM     28  C   UNL     1       0.469   5.611   4.206  1.00  0.00     0.064 C 
ATOM     29  C   UNL     1       0.684   7.134   4.105  1.00  0.00     0.013 C 
BRANCH  28  30
ATOM     30  C   UNL     1       1.687   4.783   4.693  1.00  0.00     0.267 C 
BRANCH  30  31
ATOM     31  N   UNL     1       2.112   4.859   6.092  1.00  0.00    -0.335 N 
ATOM     32  C   UNL     1       1.076   4.577   7.081  1.00  0.00     0.262 C 
ATOM     33  C   UNL     1       2.796   6.085   6.491  1.00  0.00     0.262 C 
ATOM     34  H   UNL     1       2.792   4.098   6.098  1.00  0.00     0.348 HD
ATOM     35  C   UNL     1       0.653   5.932   7.609  1.00  0.00     0.067 C 
ATOM     36  C   UNL     1       1.923   6.760   7.543  1.00  0.00     0.067 C 
ENDBRANCH  30  31
ENDBRANCH  28  30
ENDBRANCH   9  24
ENDBRANCH   3   6
ENDBRANCH   1   2
BRANCH   1  37
ATOM     37  C   UNL     1      -0.142   1.633  -3.730  1.00  0.00     0.042 C 
BRANCH  37  38
ATOM     38  C   UNL     1      -0.502   1.055  -5.077  1.00  0.00     0.118 C 
BRANCH  38  39
ATOM     39  N   UNL     1      -1.890   0.612  -5.197  1.00  0.00    -0.352 N 
ATOM     40  C   UNL     1      -2.467  -0.028  -6.284  1.00  0.00     0.251 C 
ATOM     41  H   UNL     1      -2.477   0.785  -4.426  1.00  0.00     0.163 HD
ATOM     42  O   UNL     1      -3.632  -0.402  -6.270  1.00  0.00    -0.269 OA
BRANCH  40  43
ATOM     43  C   UNL     1      -1.576  -0.370  -7.415  1.00  0.00     0.039 A 
ATOM     44  C   UNL     1      -1.337  -1.727  -7.634  1.00  0.00     0.014 A 
ATOM     45  C   UNL     1      -0.709   0.604  -7.906  1.00  0.00     0.014 A 
ATOM     46  C   UNL     1      -0.082  -2.118  -8.083  1.00  0.00     0.010 A 
ATOM     47  C   UNL     1       0.575   0.215  -8.233  1.00  0.00     0.010 A 
ATOM     48  C   UNL     1       0.906  -1.145  -8.247  1.00  0.00    -0.014 A 
BRANCH  48  49
ATOM     49  C   UNL     1       2.318  -1.481  -8.384  1.00  0.00     0.031 A 
ATOM     50  C   UNL     1       2.918  -1.457  -9.730  1.00  0.00     0.074 A 
ATOM     51  C   UNL     1       3.068  -1.848  -7.320  1.00  0.00     0.049 A 
ATOM     52  N   UNL     1       3.853  -2.251 -10.130  1.00  0.00    -0.248 NA
ATOM     53  C   UNL     1       2.437  -0.552 -10.767  1.00  0.00     0.031 C 
ATOM     54  C   UNL     1       4.510  -2.089  -7.302  1.00  0.00     0.029 A 
ATOM     55  N   UNL     1       2.635  -2.319  -6.080  1.00  0.00    -0.354 N 
ATOM     56  C   UNL     1       4.302  -1.764 -11.337  1.00  0.00     0.074 A 
ATOM     57  C   UNL     1       3.328  -0.776 -11.735  1.00  0.00     0.031 C 
ATOM     58  C   UNL     1       4.789  -2.936  -6.297  1.00  0.00     0.029 A 
ATOM     59  C   UNL     1       3.523  -3.346  -5.713  1.00  0.00     0.049 A 
ATOM     60  H   UNL     1       1.861  -1.996  -5.564  1.00  0.00     0.167 HD
ATOM     61  C   UNL     1       5.533  -2.126 -11.798  1.00  0.00     0.031 A 
ATOM     62  C   UNL     1       3.133  -4.633  -5.480  1.00  0.00     0.031 A 
ATOM     63  C   UNL     1       6.161  -3.130 -10.941  1.00  0.00     0.049 A 
ATOM     64  C   UNL     1       3.804  -5.628  -6.406  1.00  0.00     0.074 A 
ATOM     65  C   UNL     1       7.118  -3.049  -9.943  1.00  0.00     0.029 A 
ATOM     66  N   UNL     1       5.581  -4.389 -10.828  1.00  0.00    -0.354 N 
ATOM     67  N   UNL     1       4.468  -5.288  -7.476  1.00  0.00    -0.248 NA
ATOM     68  C   UNL     1       3.714  -7.079  -6.247  1.00  0.00     0.031 C 
ATOM     69  C   UNL     1       7.039  -4.232  -9.163  1.00  0.00     0.029 A 
ATOM     70  C   UNL     1       6.059  -5.043  -9.708  1.00  0.00     0.049 A 
ATOM     71  H   UNL     1       4.923  -4.762 -11.458  1.00  0.00     0.167 HD
ATOM     72  C   UNL     1       4.862  -6.413  -8.149  1.00  0.00     0.074 A 
ATOM     73  C   UNL     1       4.381  -7.512  -7.332  1.00  0.00     0.031 C 
ATOM     74  C   UNL     1       5.534  -6.350  -9.335  1.00  0.00     0.031 A 
BRANCH  61  75
ATOM     75  C   UNL     1       6.274  -1.304 -12.828  1.00  0.00    -0.014 A 
ATOM     76  C   UNL     1       7.676  -1.216 -12.771  1.00  0.00     0.009 A 
ATOM     77  C   UNL     1       5.652  -0.533 -13.825  1.00  0.00     0.009 A 
ATOM     78  C   UNL     1       8.399  -0.327 -13.580  1.00  0.00     0.001 A 
ATOM     79  C   UNL     1       6.359   0.394 -14.604  1.00  0.00     0.001 A 
ATOM     80  C   UNL     1       7.735   0.506 -14.471  1.00  0.00     0.000 A 
ENDBRANCH  61  75
BRANCH  62  81
ATOM     81  C   UNL     1       1.733  -4.749  -4.984  1.00  0.00    -0.014 A 
ATOM     82  C   UNL     1       1.435  -4.174  -3.731  1.00  0.00     0.009 A 
ATOM     83  C   UNL     1       0.681  -5.009  -5.872  1.00  0.00     0.009 A 
ATOM     84  C   UNL     1       0.145  -3.720  -3.444  1.00  0.00     0.001 A 
ATOM     85  C   UNL     1      -0.614  -4.573  -5.567  1.00  0.00     0.001 A 
ATOM     86  C   UNL     1      -0.870  -3.885  -4.380  1.00  0.00     0.000 A 
ENDBRANCH  62  81
BRANCH  74  87
ATOM     87  C   UNL     1       5.826  -7.529 -10.224  1.00  0.00    -0.014 A 
ATOM     88  C   UNL     1       5.011  -8.666 -10.306  1.00  0.00     0.009 A 
ATOM     89  C   UNL     1       6.909  -7.451 -11.126  1.00  0.00     0.009 A 
ATOM     90  C   UNL     1       5.300  -9.703 -11.203  1.00  0.00     0.001 A 
ATOM     91  C   UNL     1       7.176  -8.463 -12.050  1.00  0.00     0.001 A 
ATOM     92  C   UNL     1       6.378  -9.599 -12.078  1.00  0.00     0.000 A 
ENDBRANCH  74  87
ENDBRANCH  48  49
ENDBRANCH  40  43
ENDBRANCH  38  39
ENDBRANCH  37  38
ENDBRANCH   1  37
TORSDOF 16
