REMARK SMILES Cc1ccc(-c2cc(Cl)cc3c2O[C@@H](C(F)(F)F)C(C(=O)NCCCNC(=O)c2ccc(-c4c5nc(c(-c6ccccc6)c6ccc([nH]6)c(-c6ccccc6)c6nc(c(-c7ccccc7)c7ccc4[nH]7)C=C6)C=C5)cc2)=C3)cc1
REMARK SMILES IDX 24 1 23 2 22 3 20 4 21 5 19 7 6 8 7 9 12 10 8 11 11 12 13 13
REMARK SMILES IDX 9 14 10 15 77 16 14 17 5 18 1 19 2 20 3 21 79 22 4 23 78 24
REMARK SMILES IDX 15 25 16 26 17 27 18 28 25 29 26 30 27 31 28 33 29 34 30 35
REMARK SMILES IDX 76 36 31 37 75 38 32 39 33 40 34 41 69 42 35 43 74 44 68 45
REMARK SMILES IDX 70 46 36 47 73 48 67 49 66 50 37 52 59 53 44 54 58 55 45 56
REMARK SMILES IDX 48 57 57 58 71 59 46 60 47 61 56 63 72 64 49 65 38 66 39 67
REMARK SMILES IDX 43 68 40 69 42 70 41 71 60 72 61 73 65 74 62 75 64 76 63 77
REMARK SMILES IDX 50 78 51 79 55 80 52 81 54 82 53 83
REMARK H PARENT 22 6 26 32 70 51 48 62
REMARK Flexibility Score: inf
ROOT
ATOM      1  C   UNL     1      -4.154  -3.607   5.425  1.00  0.00     0.042 C 
ENDROOT
BRANCH   1   2
ATOM      2  C   UNL     1      -4.072  -2.158   5.903  1.00  0.00     0.118 C 
BRANCH   2   3
ATOM      3  N   UNL     1      -3.626  -1.230   4.870  1.00  0.00    -0.352 N 
ATOM      4  C   UNL     1      -4.254  -0.186   4.253  1.00  0.00     0.251 C 
ATOM      5  O   UNL     1      -3.562   0.815   4.044  1.00  0.00    -0.270 OA
ATOM      6  H   UNL     1      -2.704  -1.385   4.560  1.00  0.00     0.163 HD
BRANCH   4   7
ATOM      7  C   UNL     1      -5.686  -0.257   3.705  1.00  0.00     0.067 C 
ATOM      8  C   UNL     1      -3.893  -1.091   0.171  1.00  0.00     0.026 A 
ATOM      9  C   UNL     1      -4.339  -0.489  -1.021  1.00  0.00     0.033 A 
ATOM     10  C   UNL     1      -4.716  -0.902   1.281  1.00  0.00     0.135 A 
ATOM     11  C   UNL     1      -5.307   0.520  -0.982  1.00  0.00     0.042 A 
ATOM     12  C   UNL     1      -5.470   0.295   1.400  1.00  0.00     0.019 A 
ATOM     13  O   UNL     1      -4.899  -1.944   2.213  1.00  0.00    -0.475 OA
ATOM     14  Cl  UNL     1      -5.774   1.297  -2.445  1.00  0.00    -0.084 Cl
ATOM     15  C   UNL     1      -5.798   0.987   0.240  1.00  0.00     0.032 A 
ATOM     16  C   UNL     1      -5.891   0.722   2.780  1.00  0.00     0.025 C 
ATOM     17  C   UNL     1      -6.041  -1.585   3.050  1.00  0.00     0.314 C 
BRANCH   8  18
ATOM     18  C   UNL     1      -2.416  -1.049   0.353  1.00  0.00    -0.015 A 
ATOM     19  C   UNL     1       1.877  -0.439   0.226  1.00  0.00     0.044 C 
ATOM     20  C   UNL     1       0.396  -0.659   0.327  1.00  0.00    -0.051 A 
ATOM     21  C   UNL     1      -0.163  -1.942   0.198  1.00  0.00     0.004 A 
ATOM     22  C   UNL     1      -0.453   0.423   0.539  1.00  0.00     0.004 A 
ATOM     23  C   UNL     1      -1.558  -2.138   0.204  1.00  0.00     0.009 A 
ATOM     24  C   UNL     1      -1.831   0.225   0.561  1.00  0.00     0.009 A 
ENDBRANCH   8  18
BRANCH  17  25
ATOM     25  C   UNL     1      -6.783  -2.620   3.901  1.00  0.00     0.429 C 
ATOM     26  F   UNL     1      -8.107  -2.625   3.574  1.00  0.00    -0.167 F 
ATOM     27  F   UNL     1      -6.344  -3.879   3.711  1.00  0.00    -0.167 F 
ATOM     28  F   UNL     1      -6.753  -2.349   5.223  1.00  0.00    -0.167 F 
ENDBRANCH  17  25
ENDBRANCH   4   7
ENDBRANCH   2   3
ENDBRANCH   1   2
BRANCH   1  29
ATOM     29  C   UNL     1      -3.080  -4.537   5.974  1.00  0.00     0.118 C 
BRANCH  29  30
ATOM     30  N   UNL     1      -3.357  -5.042   7.319  1.00  0.00    -0.352 N 
ATOM     31  C   UNL     1      -2.547  -5.818   8.139  1.00  0.00     0.251 C 
ATOM     32  H   UNL     1      -4.235  -4.800   7.692  1.00  0.00     0.163 HD
ATOM     33  O   UNL     1      -2.890  -6.116   9.263  1.00  0.00    -0.269 OA
BRANCH  31  34
ATOM     34  C   UNL     1      -1.198  -6.180   7.642  1.00  0.00     0.039 A 
ATOM     35  C   UNL     1      -0.092  -5.776   8.395  1.00  0.00     0.014 A 
ATOM     36  C   UNL     1      -1.043  -6.668   6.348  1.00  0.00     0.014 A 
ATOM     37  C   UNL     1       1.131  -5.605   7.754  1.00  0.00     0.010 A 
ATOM     38  C   UNL     1       0.145  -6.417   5.689  1.00  0.00     0.010 A 
ATOM     39  C   UNL     1       1.199  -5.800   6.372  1.00  0.00    -0.014 A 
BRANCH  39  40
ATOM     40  C   UNL     1       2.213  -5.154   5.543  1.00  0.00     0.031 A 
ATOM     41  C   UNL     1       3.259  -5.930   4.842  1.00  0.00     0.074 A 
ATOM     42  C   UNL     1       2.137  -3.817   5.343  1.00  0.00     0.049 A 
ATOM     43  N   UNL     1       4.416  -5.452   4.514  1.00  0.00    -0.248 NA
ATOM     44  C   UNL     1       3.084  -7.329   4.465  1.00  0.00     0.031 C 
ATOM     45  C   UNL     1       2.866  -3.029   4.349  1.00  0.00     0.029 A 
ATOM     46  N   UNL     1       1.464  -2.838   6.059  1.00  0.00    -0.354 N 
ATOM     47  C   UNL     1       4.982  -6.338   3.628  1.00  0.00     0.074 A 
ATOM     48  C   UNL     1       4.161  -7.527   3.699  1.00  0.00     0.031 C 
ATOM     49  C   UNL     1       2.840  -1.737   4.720  1.00  0.00     0.029 A 
ATOM     50  C   UNL     1       2.242  -1.681   6.042  1.00  0.00     0.049 A 
ATOM     51  H   UNL     1       0.590  -2.941   6.501  1.00  0.00     0.167 HD
ATOM     52  C   UNL     1       5.984  -5.936   2.795  1.00  0.00     0.031 A 
ATOM     53  C   UNL     1       2.849  -1.146   7.144  1.00  0.00     0.031 A 
ATOM     54  C   UNL     1       6.363  -4.542   3.006  1.00  0.00     0.049 A 
ATOM     55  C   UNL     1       4.366  -1.080   7.031  1.00  0.00     0.074 A 
ATOM     56  C   UNL     1       6.054  -3.371   2.331  1.00  0.00     0.029 A 
ATOM     57  N   UNL     1       6.928  -4.158   4.217  1.00  0.00    -0.354 N 
ATOM     58  N   UNL     1       5.056  -1.709   6.120  1.00  0.00    -0.248 NA
ATOM     59  C   UNL     1       5.228  -0.365   7.975  1.00  0.00     0.031 C 
ATOM     60  C   UNL     1       6.357  -2.278   3.184  1.00  0.00     0.029 A 
ATOM     61  C   UNL     1       6.874  -2.784   4.363  1.00  0.00     0.049 A 
ATOM     62  H   UNL     1       7.313  -4.777   4.878  1.00  0.00     0.167 HD
ATOM     63  C   UNL     1       6.394  -1.539   6.351  1.00  0.00     0.074 A 
ATOM     64  C   UNL     1       6.454  -0.668   7.509  1.00  0.00     0.031 C 
ATOM     65  C   UNL     1       7.343  -2.154   5.588  1.00  0.00     0.031 A 
BRANCH  52  66
ATOM     66  C   UNL     1       6.355  -6.740   1.574  1.00  0.00    -0.014 A 
ATOM     67  C   UNL     1       6.657  -6.087   0.365  1.00  0.00     0.009 A 
ATOM     68  C   UNL     1       6.358  -8.144   1.541  1.00  0.00     0.009 A 
ATOM     69  C   UNL     1       6.831  -6.791  -0.833  1.00  0.00     0.001 A 
ATOM     70  C   UNL     1       6.486  -8.854   0.339  1.00  0.00     0.001 A 
ATOM     71  C   UNL     1       6.708  -8.174  -0.852  1.00  0.00     0.000 A 
ENDBRANCH  52  66
BRANCH  53  72
ATOM     72  C   UNL     1       2.127  -1.369   8.424  1.00  0.00    -0.014 A 
ATOM     73  C   UNL     1       0.891  -0.723   8.619  1.00  0.00     0.009 A 
ATOM     74  C   UNL     1       2.470  -2.430   9.274  1.00  0.00     0.009 A 
ATOM     75  C   UNL     1      -0.024  -1.198   9.562  1.00  0.00     0.001 A 
ATOM     76  C   UNL     1       1.553  -2.897  10.225  1.00  0.00     0.001 A 
ATOM     77  C   UNL     1       0.296  -2.303  10.345  1.00  0.00     0.000 A 
ENDBRANCH  53  72
BRANCH  65  78
ATOM     78  C   UNL     1       8.816  -2.172   5.891  1.00  0.00    -0.014 A 
ATOM     79  C   UNL     1       9.344  -2.140   7.188  1.00  0.00     0.009 A 
ATOM     80  C   UNL     1       9.726  -2.367   4.830  1.00  0.00     0.009 A 
ATOM     81  C   UNL     1      10.723  -2.247   7.411  1.00  0.00     0.001 A 
ATOM     82  C   UNL     1      11.097  -2.513   5.052  1.00  0.00     0.001 A 
ATOM     83  C   UNL     1      11.598  -2.441   6.345  1.00  0.00     0.000 A 
ENDBRANCH  65  78
ENDBRANCH  39  40
ENDBRANCH  31  34
ENDBRANCH  29  30
ENDBRANCH   1  29
TORSDOF 12
