REMARK SMILES O=C(NCCCNC(=O)c1ccc2c(c1)[C@@H](C1CCOCC1)C(=O)N2)c1ccc(-c2c3nc(c(-c4ccccc4)c4ccc([nH]4)c(-c4ccccc4)c4nc(c(-c5ccccc5)c5ccc2[nH]5)C=C4)C=C3)cc1
REMARK SMILES IDX 4 1 3 2 1 3 2 4 26 6 27 7 73 8 28 9 72 10 29 11 30 12 31 13
REMARK SMILES IDX 66 14 32 15 71 16 65 17 67 18 33 19 70 20 64 21 63 22 34 24
REMARK SMILES IDX 56 25 41 26 55 27 42 28 45 29 54 30 68 31 43 32 44 33 53 35
REMARK SMILES IDX 69 36 46 37 35 38 36 39 40 40 37 41 39 42 38 43 57 44 58 45
REMARK SMILES IDX 62 46 59 47 61 48 60 49 47 50 48 51 52 52 49 53 51 54 50 55
REMARK SMILES IDX 5 56 6 57 7 58 8 59 9 61 10 62 11 63 15 64 12 65 14 66 13 67
REMARK SMILES IDX 16 68 25 69 23 70 24 72 17 73 18 74 22 75 19 76 21 77 20 78
REMARK H PARENT 3 5 67 23 45 34 7 60 25 71
REMARK Flexibility Score: inf
ROOT
ATOM      1  C   UNL     1       4.513   1.173  -0.976  1.00  0.00     0.118 C 
ENDROOT
BRANCH   1   2
ATOM      2  N   UNL     1       3.084   1.032  -0.713  1.00  0.00    -0.352 N 
ATOM      3  O   UNL     1       1.176   0.058  -0.006  1.00  0.00    -0.269 OA
ATOM      4  C   UNL     1       2.402   0.096   0.030  1.00  0.00     0.251 C 
ATOM      5  H   UNL     1       2.516   1.716  -1.136  1.00  0.00     0.163 HD
BRANCH   4   6
ATOM      6  C   UNL     1       3.149  -0.880   0.851  1.00  0.00     0.039 A 
ATOM      7  C   UNL     1       4.279  -0.477   1.556  1.00  0.00     0.014 A 
ATOM      8  C   UNL     1       2.727  -2.212   0.913  1.00  0.00     0.014 A 
ATOM      9  C   UNL     1       5.108  -1.429   2.124  1.00  0.00     0.010 A 
ATOM     10  C   UNL     1       3.487  -3.150   1.622  1.00  0.00     0.010 A 
ATOM     11  C   UNL     1       4.706  -2.772   2.203  1.00  0.00    -0.014 A 
BRANCH  11  12
ATOM     12  C   UNL     1       5.555  -3.706   2.987  1.00  0.00     0.031 A 
ATOM     13  C   UNL     1       6.208  -4.906   2.362  1.00  0.00     0.074 A 
ATOM     14  C   UNL     1       5.798  -3.397   4.278  1.00  0.00     0.049 A 
ATOM     15  N   UNL     1       7.053  -5.750   2.902  1.00  0.00    -0.248 NA
ATOM     16  C   UNL     1       5.875  -5.208   0.961  1.00  0.00     0.031 C 
ATOM     17  C   UNL     1       5.206  -2.263   4.998  1.00  0.00     0.029 A 
ATOM     18  N   UNL     1       6.635  -3.969   5.199  1.00  0.00    -0.354 N 
ATOM     19  C   UNL     1       7.345  -6.684   1.916  1.00  0.00     0.074 A 
ATOM     20  C   UNL     1       6.562  -6.324   0.753  1.00  0.00     0.031 C 
ATOM     21  C   UNL     1       5.761  -2.174   6.213  1.00  0.00     0.029 A 
ATOM     22  C   UNL     1       6.674  -3.294   6.395  1.00  0.00     0.049 A 
ATOM     23  H   UNL     1       7.158  -4.784   5.021  1.00  0.00     0.167 HD
ATOM     24  C   UNL     1       8.194  -7.739   1.974  1.00  0.00     0.031 A 
ATOM     25  C   UNL     1       7.349  -3.553   7.528  1.00  0.00     0.031 A 
ATOM     26  C   UNL     1       8.962  -8.100   3.140  1.00  0.00     0.049 A 
ATOM     27  C   UNL     1       8.249  -4.751   7.570  1.00  0.00     0.074 A 
ATOM     28  C   UNL     1       9.853  -9.149   3.295  1.00  0.00     0.029 A 
ATOM     29  N   UNL     1       8.928  -7.426   4.352  1.00  0.00    -0.354 N 
ATOM     30  N   UNL     1       8.531  -5.605   6.617  1.00  0.00    -0.248 NA
ATOM     31  C   UNL     1       8.924  -5.018   8.845  1.00  0.00     0.031 C 
ATOM     32  C   UNL     1      10.314  -9.142   4.616  1.00  0.00     0.029 A 
ATOM     33  C   UNL     1       9.764  -8.049   5.265  1.00  0.00     0.049 A 
ATOM     34  H   UNL     1       8.389  -6.623   4.536  1.00  0.00     0.167 HD
ATOM     35  C   UNL     1       9.425  -6.507   7.175  1.00  0.00     0.074 A 
ATOM     36  C   UNL     1       9.670  -6.067   8.534  1.00  0.00     0.031 C 
ATOM     37  C   UNL     1       9.986  -7.607   6.617  1.00  0.00     0.031 A 
BRANCH  24  38
ATOM     38  C   UNL     1       8.332  -8.597   0.745  1.00  0.00    -0.014 A 
ATOM     39  C   UNL     1       8.996  -8.129  -0.400  1.00  0.00     0.009 A 
ATOM     40  C   UNL     1       7.855  -9.918   0.757  1.00  0.00     0.009 A 
ATOM     41  C   UNL     1       9.159  -8.957  -1.514  1.00  0.00     0.001 A 
ATOM     42  C   UNL     1       8.044 -10.753  -0.347  1.00  0.00     0.001 A 
ATOM     43  C   UNL     1       8.690 -10.270  -1.483  1.00  0.00     0.000 A 
ENDBRANCH  24  38
BRANCH  25  44
ATOM     44  C   UNL     1       7.158  -2.690   8.723  1.00  0.00    -0.014 A 
ATOM     45  C   UNL     1       8.213  -1.924   9.241  1.00  0.00     0.009 A 
ATOM     46  C   UNL     1       5.909  -2.643   9.364  1.00  0.00     0.009 A 
ATOM     47  C   UNL     1       8.029  -1.161  10.396  1.00  0.00     0.001 A 
ATOM     48  C   UNL     1       5.717  -1.847  10.493  1.00  0.00     0.001 A 
ATOM     49  C   UNL     1       6.781  -1.118  11.017  1.00  0.00     0.000 A 
ENDBRANCH  25  44
BRANCH  37  50
ATOM     50  C   UNL     1      10.937  -8.388   7.481  1.00  0.00    -0.014 A 
ATOM     51  C   UNL     1      10.484  -9.115   8.594  1.00  0.00     0.009 A 
ATOM     52  C   UNL     1      12.308  -8.389   7.181  1.00  0.00     0.009 A 
ATOM     53  C   UNL     1      11.392  -9.780   9.420  1.00  0.00     0.001 A 
ATOM     54  C   UNL     1      13.209  -9.085   7.987  1.00  0.00     0.001 A 
ATOM     55  C   UNL     1      12.752  -9.767   9.114  1.00  0.00     0.000 A 
ENDBRANCH  37  50
ENDBRANCH  11  12
ENDBRANCH   4   6
ENDBRANCH   1   2
BRANCH   1  56
ATOM     56  C   UNL     1       4.881   0.904  -2.424  1.00  0.00     0.042 C 
BRANCH  56  57
ATOM     57  C   UNL     1       4.319   1.936  -3.386  1.00  0.00     0.118 C 
BRANCH  57  58
ATOM     58  N   UNL     1       4.865   3.265  -3.144  1.00  0.00    -0.352 N 
ATOM     59  C   UNL     1       5.790   3.977  -3.865  1.00  0.00     0.251 C 
ATOM     60  H   UNL     1       4.518   3.720  -2.343  1.00  0.00     0.163 HD
ATOM     61  O   UNL     1       6.300   4.987  -3.391  1.00  0.00    -0.269 OA
BRANCH  59  62
ATOM     62  C   UNL     1       6.190   3.510  -5.208  1.00  0.00     0.040 A 
ATOM     63  C   UNL     1       5.207   3.148  -6.155  1.00  0.00     0.016 A 
ATOM     64  C   UNL     1       7.555   3.436  -5.514  1.00  0.00     0.020 A 
ATOM     65  C   UNL     1       5.573   2.600  -7.382  1.00  0.00     0.027 A 
ATOM     66  C   UNL     1       7.907   2.908  -6.744  1.00  0.00    -0.011 A 
ATOM     67  C   UNL     1       6.921   2.488  -7.639  1.00  0.00     0.045 A 
ATOM     68  C   UNL     1       9.270   2.667  -7.353  1.00  0.00     0.114 C 
ATOM     69  N   UNL     1       7.505   1.963  -8.775  1.00  0.00    -0.325 N 
ATOM     70  C   UNL     1       8.888   2.028  -8.712  1.00  0.00     0.232 C 
ATOM     71  H   UNL     1       7.002   1.590  -9.534  1.00  0.00     0.169 HD
ATOM     72  O   UNL     1       9.641   1.663  -9.603  1.00  0.00    -0.274 OA
BRANCH  68  73
ATOM     73  C   UNL     1      10.215   1.819  -6.477  1.00  0.00     0.010 C 
ATOM     74  C   UNL     1      11.591   1.619  -7.135  1.00  0.00     0.033 C 
ATOM     75  C   UNL     1       9.633   0.454  -6.068  1.00  0.00     0.033 C 
ATOM     76  C   UNL     1      12.491   0.734  -6.282  1.00  0.00     0.160 C 
ATOM     77  C   UNL     1      10.650  -0.349  -5.266  1.00  0.00     0.160 C 
ATOM     78  O   UNL     1      11.858  -0.513  -6.002  1.00  0.00    -0.381 OA
ENDBRANCH  68  73
ENDBRANCH  59  62
ENDBRANCH  57  58
ENDBRANCH  56  57
ENDBRANCH   1  56
TORSDOF 11
