REMARK SMILES O=C(C[C@@H]1CN(C(=O)C[NH2+]CC2CC2)CCO1)NCCCNC(=O)c1ccc(-c2c3nc(c(-c4ccccc4)c4ccc([nH]4)c(-c4ccccc4)c4nc(c(-c5ccccc5)c5ccc2[nH]5)C=C4)C=C3)cc1
REMARK SMILES IDX 1 1 2 2 18 3 3 5 4 6 5 7 17 8 6 9 16 10 15 11 7 12 8 13 9 14
REMARK SMILES IDX 10 15 11 18 12 19 13 20 14 21 19 22 20 23 21 24 22 25 23 26
REMARK SMILES IDX 24 28 25 29 26 30 72 31 27 32 71 33 28 34 29 35 30 36 65 37
REMARK SMILES IDX 31 38 70 39 64 40 66 41 32 42 69 43 63 44 62 45 33 47 55 48
REMARK SMILES IDX 40 49 54 50 41 51 44 52 53 53 67 54 42 55 43 56 52 58 68 59
REMARK SMILES IDX 45 60 34 61 35 62 39 63 36 64 38 65 37 66 56 67 57 68 61 69
REMARK SMILES IDX 58 70 60 71 59 72 46 73 47 74 51 75 48 76 50 77 49 78
REMARK H PARENT 18 4 10 16 10 17 22 27 66 46 44 57
REMARK Flexibility Score: inf
ROOT
ATOM      1  O   UNL     1       0.945   0.385   0.151  1.00  0.00    -0.275 OA
ATOM      2  C   UNL     1       2.099   0.006  -0.009  1.00  0.00     0.222 C 
ATOM      3  N   UNL     1       2.620  -1.128   0.587  1.00  0.00    -0.356 N 
ATOM      4  H   UNL     1       3.525  -1.428   0.343  1.00  0.00     0.163 HD
ENDROOT
BRANCH   2   5
ATOM      5  C   UNL     1       3.104   0.773  -0.842  1.00  0.00     0.133 C 
BRANCH   5   6
ATOM      6  C   UNL     1       3.841   1.864  -0.055  1.00  0.00     0.147 C 
ATOM      7  C   UNL     1       4.134   1.506   1.417  1.00  0.00     0.152 C 
ATOM      8  O   UNL     1       3.096   3.096  -0.138  1.00  0.00    -0.374 OA
ATOM      9  N   UNL     1       4.800   2.619   2.100  1.00  0.00    -0.333 N 
ATOM     10  C   UNL     1       3.823   4.180   0.466  1.00  0.00     0.182 C 
ATOM     11  C   UNL     1       4.116   3.902   1.942  1.00  0.00     0.148 C 
BRANCH   9  12
ATOM     12  C   UNL     1       5.854   2.506   2.994  1.00  0.00     0.277 C 
ATOM     13  O   UNL     1       6.273   3.471   3.638  1.00  0.00    -0.268 OA
BRANCH  12  14
ATOM     14  C   UNL     1       6.526   1.135   3.155  1.00  0.00     0.362 C 
BRANCH  14  15
ATOM     15  N   UNL     1       5.654   0.246   3.929  1.00  0.00    -0.338 N 
ATOM     16  H   UNL     1       4.720   0.271   3.520  1.00  0.00     0.346 HD
ATOM     17  H   UNL     1       5.659   0.580   4.893  1.00  0.00     0.346 HD
BRANCH  15  18
ATOM     18  C   UNL     1       6.113  -1.134   3.948  1.00  0.00     0.264 C 
BRANCH  18  19
ATOM     19  C   UNL     1       7.349  -1.349   4.756  1.00  0.00     0.044 C 
ATOM     20  C   UNL     1       8.229  -2.535   4.439  1.00  0.00     0.010 C 
ATOM     21  C   UNL     1       8.736  -1.142   4.199  1.00  0.00     0.010 C 
ENDBRANCH  18  19
ENDBRANCH  15  18
ENDBRANCH  14  15
ENDBRANCH  12  14
ENDBRANCH   9  12
ENDBRANCH   5   6
ENDBRANCH   2   5
BRANCH   3  22
ATOM     22  C   UNL     1       1.861  -1.886   1.564  1.00  0.00     0.117 C 
BRANCH  22  23
ATOM     23  C   UNL     1       2.069  -3.393   1.453  1.00  0.00     0.042 C 
BRANCH  23  24
ATOM     24  C   UNL     1       3.473  -3.889   1.790  1.00  0.00     0.118 C 
BRANCH  24  25
ATOM     25  N   UNL     1       3.858  -3.664   3.175  1.00  0.00    -0.352 N 
ATOM     26  C   UNL     1       4.617  -4.433   4.026  1.00  0.00     0.251 C 
ATOM     27  H   UNL     1       3.520  -2.826   3.566  1.00  0.00     0.163 HD
ATOM     28  O   UNL     1       4.774  -4.071   5.189  1.00  0.00    -0.269 OA
BRANCH  26  29
ATOM     29  C   UNL     1       5.194  -5.723   3.590  1.00  0.00     0.039 A 
ATOM     30  C   UNL     1       5.125  -6.795   4.487  1.00  0.00     0.014 A 
ATOM     31  C   UNL     1       5.758  -5.909   2.325  1.00  0.00     0.014 A 
ATOM     32  C   UNL     1       5.493  -8.075   4.073  1.00  0.00     0.010 A 
ATOM     33  C   UNL     1       6.069  -7.196   1.890  1.00  0.00     0.010 A 
ATOM     34  C   UNL     1       5.896  -8.293   2.748  1.00  0.00    -0.014 A 
BRANCH  34  35
ATOM     35  C   UNL     1       6.006  -9.672   2.216  1.00  0.00     0.031 A 
ATOM     36  C   UNL     1       7.327 -10.246   1.808  1.00  0.00     0.074 A 
ATOM     37  C   UNL     1       4.873 -10.381   2.040  1.00  0.00     0.049 A 
ATOM     38  N   UNL     1       7.587 -11.419   1.290  1.00  0.00    -0.248 NA
ATOM     39  C   UNL     1       8.508  -9.389   1.990  1.00  0.00     0.031 C 
ATOM     40  C   UNL     1       3.522  -9.911   2.361  1.00  0.00     0.029 A 
ATOM     41  N   UNL     1       4.674 -11.643   1.543  1.00  0.00    -0.354 N 
ATOM     42  C   UNL     1       8.958 -11.442   1.077  1.00  0.00     0.074 A 
ATOM     43  C   UNL     1       9.471 -10.152   1.490  1.00  0.00     0.031 C 
ATOM     44  C   UNL     1       2.639 -10.881   2.077  1.00  0.00     0.029 A 
ATOM     45  C   UNL     1       3.354 -12.022   1.519  1.00  0.00     0.049 A 
ATOM     46  H   UNL     1       5.408 -12.223   1.234  1.00  0.00     0.167 HD
ATOM     47  C   UNL     1       9.719 -12.451   0.592  1.00  0.00     0.031 A 
ATOM     48  C   UNL     1       2.779 -13.160   1.089  1.00  0.00     0.031 A 
ATOM     49  C   UNL     1       9.206 -13.730   0.177  1.00  0.00     0.049 A 
ATOM     50  C   UNL     1       3.645 -14.252   0.534  1.00  0.00     0.074 A 
ATOM     51  C   UNL     1       9.906 -14.834  -0.280  1.00  0.00     0.029 A 
ATOM     52  N   UNL     1       7.863 -14.073   0.160  1.00  0.00    -0.354 N 
ATOM     53  N   UNL     1       4.948 -14.281   0.401  1.00  0.00    -0.248 NA
ATOM     54  C   UNL     1       2.960 -15.467   0.073  1.00  0.00     0.031 C 
ATOM     55  C   UNL     1       8.981 -15.830  -0.616  1.00  0.00     0.029 A 
ATOM     56  C   UNL     1       7.710 -15.361  -0.326  1.00  0.00     0.049 A 
ATOM     57  H   UNL     1       7.126 -13.488   0.451  1.00  0.00     0.167 HD
ATOM     58  C   UNL     1       5.242 -15.523  -0.145  1.00  0.00     0.074 A 
ATOM     59  C   UNL     1       3.983 -16.223  -0.300  1.00  0.00     0.031 C 
ATOM     60  C   UNL     1       6.449 -16.036  -0.487  1.00  0.00     0.031 A 
BRANCH  47  61
ATOM     61  C   UNL     1      11.195 -12.202   0.473  1.00  0.00    -0.014 A 
ATOM     62  C   UNL     1      12.016 -12.155   1.611  1.00  0.00     0.009 A 
ATOM     63  C   UNL     1      11.778 -12.043  -0.793  1.00  0.00     0.009 A 
ATOM     64  C   UNL     1      13.386 -11.921   1.485  1.00  0.00     0.001 A 
ATOM     65  C   UNL     1      13.153 -11.831  -0.918  1.00  0.00     0.001 A 
ATOM     66  C   UNL     1      13.954 -11.762   0.221  1.00  0.00     0.000 A 
ENDBRANCH  47  61
BRANCH  48  67
ATOM     67  C   UNL     1       1.306 -13.323   1.171  1.00  0.00    -0.014 A 
ATOM     68  C   UNL     1       0.739 -14.182   2.124  1.00  0.00     0.009 A 
ATOM     69  C   UNL     1       0.460 -12.614   0.304  1.00  0.00     0.009 A 
ATOM     70  C   UNL     1      -0.647 -14.344   2.193  1.00  0.00     0.001 A 
ATOM     71  C   UNL     1      -0.926 -12.760   0.392  1.00  0.00     0.001 A 
ATOM     72  C   UNL     1      -1.478 -13.630   1.331  1.00  0.00     0.000 A 
ENDBRANCH  48  67
BRANCH  60  73
ATOM     73  C   UNL     1       6.457 -17.425  -1.054  1.00  0.00    -0.014 A 
ATOM     74  C   UNL     1       6.034 -17.671  -2.369  1.00  0.00     0.009 A 
ATOM     75  C   UNL     1       6.918 -18.495  -0.273  1.00  0.00     0.009 A 
ATOM     76  C   UNL     1       6.046 -18.970  -2.882  1.00  0.00     0.001 A 
ATOM     77  C   UNL     1       6.951 -19.788  -0.796  1.00  0.00     0.001 A 
ATOM     78  C   UNL     1       6.508 -20.026  -2.096  1.00  0.00     0.000 A 
ENDBRANCH  60  73
ENDBRANCH  34  35
ENDBRANCH  26  29
ENDBRANCH  24  25
ENDBRANCH  23  24
ENDBRANCH  22  23
ENDBRANCH   3  22
TORSDOF 16
