REMARK SMILES CC[C@H](C(=O)NCCCNC(=O)c1ccc(-c2c3nc(c(-c4ccccc4)c4ccc([nH]4)c(-c4ccccc4)c4nc(c(-c5ccccc5)c5ccc2[nH]5)C=C4)C=C3)cc1)[N@@H+](C)[C@H]1CC[C@@H]([NH2+]C)CC1
REMARK SMILES IDX 7 1 6 2 4 3 5 4 3 6 2 7 1 8 61 9 62 10 63 12 70 13 64 14
REMARK SMILES IDX 69 15 65 16 66 17 67 18 68 19 8 22 9 23 10 24 11 25 12 27
REMARK SMILES IDX 13 28 14 29 60 30 15 31 59 32 16 33 17 34 18 35 53 36 19 37
REMARK SMILES IDX 58 38 52 39 54 40 20 41 57 42 51 43 50 44 21 46 43 47 28 48
REMARK SMILES IDX 42 49 29 50 32 51 41 52 55 53 30 54 31 55 40 57 56 58 33 59
REMARK SMILES IDX 22 60 23 61 27 62 24 63 26 64 25 65 44 66 45 67 49 68 46 69
REMARK SMILES IDX 48 70 47 71 34 72 35 73 39 74 36 75 38 76 37 77
REMARK H PARENT 6 5 61 11 67 20 67 21 10 26 54 45 32 56
REMARK Flexibility Score: inf
ROOT
ATOM      1  C   UNL     1       2.416   0.493   0.075  1.00  0.00     0.118 C 
ENDROOT
BRANCH   1   2
ATOM      2  N   UNL     1       1.459  -0.547  -0.256  1.00  0.00    -0.351 N 
ATOM      3  C   UNL     1       0.715  -1.334   0.585  1.00  0.00     0.278 C 
ATOM      4  O   UNL     1      -0.073  -2.119   0.056  1.00  0.00    -0.268 OA
ATOM      5  H   UNL     1       1.326  -0.710  -1.218  1.00  0.00     0.163 HD
BRANCH   3   6
ATOM      6  C   UNL     1       0.914  -1.175   2.117  1.00  0.00     0.273 C 
BRANCH   6   7
ATOM      7  C   UNL     1       0.516   0.231   2.624  1.00  0.00     0.072 C 
ATOM      8  C   UNL     1      -0.661   0.883   1.901  1.00  0.00     0.011 C 
ENDBRANCH   6   7
BRANCH   6   9
ATOM      9  N   UNL     1       0.374  -2.345   2.867  1.00  0.00    -0.325 N 
ATOM     10  C   UNL     1       1.132  -2.594   4.090  1.00  0.00     0.333 C 
ATOM     11  H   UNL     1       0.538  -3.137   2.245  1.00  0.00     0.348 HD
BRANCH   9  12
ATOM     12  C   UNL     1      -1.095  -2.464   2.994  1.00  0.00     0.184 C 
ATOM     13  C   UNL     1      -1.492  -3.935   3.295  1.00  0.00     0.071 C 
ATOM     14  C   UNL     1      -1.769  -1.532   4.022  1.00  0.00     0.071 C 
ATOM     15  C   UNL     1      -3.008  -4.129   3.419  1.00  0.00     0.071 C 
ATOM     16  C   UNL     1      -3.285  -1.730   4.042  1.00  0.00     0.071 C 
ATOM     17  C   UNL     1      -3.671  -3.163   4.416  1.00  0.00     0.182 C 
BRANCH  17  18
ATOM     18  N   UNL     1      -3.289  -3.369   5.819  1.00  0.00    -0.346 N 
ATOM     19  C   UNL     1      -3.856  -4.566   6.412  1.00  0.00     0.331 C 
ATOM     20  H   UNL     1      -3.603  -2.563   6.359  1.00  0.00     0.346 HD
ATOM     21  H   UNL     1      -2.275  -3.480   5.838  1.00  0.00     0.346 HD
ENDBRANCH  17  18
ENDBRANCH   9  12
ENDBRANCH   6   9
ENDBRANCH   3   6
ENDBRANCH   1   2
BRANCH   1  22
ATOM     22  C   UNL     1       3.633   0.480  -0.828  1.00  0.00     0.042 C 
BRANCH  22  23
ATOM     23  C   UNL     1       3.316   0.755  -2.287  1.00  0.00     0.118 C 
BRANCH  23  24
ATOM     24  N   UNL     1       2.854   2.116  -2.529  1.00  0.00    -0.352 N 
ATOM     25  C   UNL     1       3.423   3.108  -3.292  1.00  0.00     0.251 C 
ATOM     26  H   UNL     1       2.012   2.360  -2.081  1.00  0.00     0.163 HD
ATOM     27  O   UNL     1       2.973   4.249  -3.267  1.00  0.00    -0.269 OA
BRANCH  25  28
ATOM     28  C   UNL     1       4.612   2.799  -4.112  1.00  0.00     0.039 A 
ATOM     29  C   UNL     1       5.718   3.650  -4.056  1.00  0.00     0.014 A 
ATOM     30  C   UNL     1       4.656   1.635  -4.883  1.00  0.00     0.014 A 
ATOM     31  C   UNL     1       6.904   3.277  -4.690  1.00  0.00     0.010 A 
ATOM     32  C   UNL     1       5.865   1.216  -5.422  1.00  0.00     0.010 A 
ATOM     33  C   UNL     1       7.003   2.030  -5.328  1.00  0.00    -0.014 A 
BRANCH  33  34
ATOM     34  C   UNL     1       8.285   1.543  -5.893  1.00  0.00     0.031 A 
ATOM     35  C   UNL     1       8.396   1.248  -7.362  1.00  0.00     0.074 A 
ATOM     36  C   UNL     1       9.321   1.282  -5.072  1.00  0.00     0.049 A 
ATOM     37  N   UNL     1       9.402   0.743  -8.030  1.00  0.00    -0.248 NA
ATOM     38  C   UNL     1       7.209   1.531  -8.184  1.00  0.00     0.031 C 
ATOM     39  C   UNL     1       9.331   1.488  -3.622  1.00  0.00     0.029 A 
ATOM     40  N   UNL     1      10.569   0.782  -5.344  1.00  0.00    -0.354 N 
ATOM     41  C   UNL     1       8.961   0.629  -9.341  1.00  0.00     0.074 A 
ATOM     42  C   UNL     1       7.581   1.060  -9.364  1.00  0.00     0.031 C 
ATOM     43  C   UNL     1      10.540   1.159  -3.140  1.00  0.00     0.029 A 
ATOM     44  C   UNL     1      11.372   0.673  -4.235  1.00  0.00     0.049 A 
ATOM     45  H   UNL     1      10.862   0.525  -6.249  1.00  0.00     0.167 HD
ATOM     46  C   UNL     1       9.648   0.223 -10.436  1.00  0.00     0.031 A 
ATOM     47  C   UNL     1      12.637   0.229  -4.113  1.00  0.00     0.031 A 
ATOM     48  C   UNL     1      11.021  -0.203 -10.415  1.00  0.00     0.049 A 
ATOM     49  C   UNL     1      13.366  -0.257  -5.332  1.00  0.00     0.074 A 
ATOM     50  C   UNL     1      11.826  -0.575 -11.476  1.00  0.00     0.029 A 
ATOM     51  N   UNL     1      11.790  -0.322  -9.267  1.00  0.00    -0.354 N 
ATOM     52  N   UNL     1      12.958  -0.296  -6.578  1.00  0.00    -0.248 NA
ATOM     53  C   UNL     1      14.731  -0.761  -5.127  1.00  0.00     0.031 C 
ATOM     54  C   UNL     1      13.066  -0.972 -10.965  1.00  0.00     0.029 A 
ATOM     55  C   UNL     1      13.051  -0.793  -9.590  1.00  0.00     0.049 A 
ATOM     56  H   UNL     1      11.485  -0.102  -8.357  1.00  0.00     0.167 HD
ATOM     57  C   UNL     1      14.024  -0.803  -7.309  1.00  0.00     0.074 A 
ATOM     58  C   UNL     1      15.099  -1.047  -6.368  1.00  0.00     0.031 C 
ATOM     59  C   UNL     1      14.106  -1.041  -8.641  1.00  0.00     0.031 A 
BRANCH  46  60
ATOM     60  C   UNL     1       8.902   0.210 -11.742  1.00  0.00    -0.014 A 
ATOM     61  C   UNL     1       8.494   1.404 -12.360  1.00  0.00     0.009 A 
ATOM     62  C   UNL     1       8.596  -1.011 -12.360  1.00  0.00     0.009 A 
ATOM     63  C   UNL     1       7.747   1.372 -13.539  1.00  0.00     0.001 A 
ATOM     64  C   UNL     1       7.878  -1.039 -13.557  1.00  0.00     0.001 A 
ATOM     65  C   UNL     1       7.441   0.151 -14.137  1.00  0.00     0.000 A 
ENDBRANCH  46  60
BRANCH  47  66
ATOM     66  C   UNL     1      13.306   0.258  -2.787  1.00  0.00    -0.014 A 
ATOM     67  C   UNL     1      14.314   1.199  -2.529  1.00  0.00     0.009 A 
ATOM     68  C   UNL     1      12.933  -0.635  -1.770  1.00  0.00     0.009 A 
ATOM     69  C   UNL     1      14.946   1.236  -1.284  1.00  0.00     0.001 A 
ATOM     70  C   UNL     1      13.550  -0.579  -0.518  1.00  0.00     0.001 A 
ATOM     71  C   UNL     1      14.560   0.352  -0.278  1.00  0.00     0.000 A 
ENDBRANCH  47  66
BRANCH  59  72
ATOM     72  C   UNL     1      15.411  -1.571  -9.164  1.00  0.00    -0.014 A 
ATOM     73  C   UNL     1      15.804  -2.897  -8.931  1.00  0.00     0.009 A 
ATOM     74  C   UNL     1      16.238  -0.741  -9.937  1.00  0.00     0.009 A 
ATOM     75  C   UNL     1      17.014  -3.373  -9.439  1.00  0.00     0.001 A 
ATOM     76  C   UNL     1      17.433  -1.227 -10.467  1.00  0.00     0.001 A 
ATOM     77  C   UNL     1      17.824  -2.541 -10.211  1.00  0.00     0.000 A 
ENDBRANCH  59  72
ENDBRANCH  33  34
ENDBRANCH  25  28
ENDBRANCH  23  24
ENDBRANCH  22  23
ENDBRANCH   1  22
TORSDOF 14
