REMARK SMILES O=C(NCCCNC(=O)[C@H]1CCCN(C(=O)C2CCN(S(=O)(=O)c3ccccc3)CC2)C1)c1ccc(-c2c3nc(c(-c4ccccc4)c4ccc([nH]4)c(-c4ccccc4)c4nc(c(-c5ccccc5)c5ccc2[nH]5)C=C4)C=C3)cc1
REMARK SMILES IDX 6 1 5 2 4 3 3 4 1 5 2 6 33 8 34 9 80 10 35 11 79 12 36 13
REMARK SMILES IDX 37 14 38 15 73 16 39 17 78 18 72 19 74 20 40 21 77 22 71 23
REMARK SMILES IDX 70 24 41 26 63 27 48 28 62 29 49 30 52 31 61 32 75 33 50 34
REMARK SMILES IDX 51 35 60 37 76 38 53 39 42 40 43 41 47 42 44 43 46 44 45 45
REMARK SMILES IDX 64 46 65 47 69 48 66 49 68 50 67 51 54 52 55 53 59 54 56 55
REMARK SMILES IDX 58 56 57 57 7 58 8 59 9 61 10 62 11 63 32 64 12 65 14 66
REMARK SMILES IDX 13 67 15 68 16 69 17 70 18 71 31 72 19 73 30 74 20 75 21 76
REMARK SMILES IDX 22 77 23 78 24 79 25 80 29 81 26 82 28 83 27 84
REMARK H PARENT 3 7 74 25 52 36 7 60
REMARK Flexibility Score: inf
ROOT
ATOM      1  C   UNL     1       5.767   2.151  -2.914  1.00  0.00     0.117 C 
ENDROOT
BRANCH   1   2
ATOM      2  C   UNL     1       5.105   1.749  -1.608  1.00  0.00     0.042 C 
BRANCH   2   3
ATOM      3  C   UNL     1       3.955   0.776  -1.800  1.00  0.00     0.118 C 
BRANCH   3   4
ATOM      4  N   UNL     1       4.386  -0.509  -2.336  1.00  0.00    -0.352 N 
ATOM      5  O   UNL     1       4.670  -2.748  -2.355  1.00  0.00    -0.269 OA
ATOM      6  C   UNL     1       4.101  -1.772  -1.879  1.00  0.00     0.251 C 
ATOM      7  H   UNL     1       4.960  -0.466  -3.135  1.00  0.00     0.163 HD
BRANCH   6   8
ATOM      8  C   UNL     1       3.119  -1.939  -0.788  1.00  0.00     0.039 A 
ATOM      9  C   UNL     1       1.919  -1.227  -0.810  1.00  0.00     0.014 A 
ATOM     10  C   UNL     1       3.412  -2.803   0.270  1.00  0.00     0.014 A 
ATOM     11  C   UNL     1       1.081  -1.262   0.294  1.00  0.00     0.010 A 
ATOM     12  C   UNL     1       2.518  -2.913   1.338  1.00  0.00     0.010 A 
ATOM     13  C   UNL     1       1.360  -2.123   1.368  1.00  0.00    -0.014 A 
BRANCH  13  14
ATOM     14  C   UNL     1       0.368  -2.230   2.463  1.00  0.00     0.031 A 
ATOM     15  C   UNL     1       0.687  -1.776   3.857  1.00  0.00     0.074 A 
ATOM     16  C   UNL     1      -0.859  -2.695   2.159  1.00  0.00     0.049 A 
ATOM     17  N   UNL     1      -0.093  -1.756   4.909  1.00  0.00    -0.248 NA
ATOM     18  C   UNL     1       2.051  -1.288   4.113  1.00  0.00     0.031 C 
ATOM     19  C   UNL     1      -1.275  -3.169   0.835  1.00  0.00     0.029 A 
ATOM     20  N   UNL     1      -1.990  -2.809   2.922  1.00  0.00    -0.354 N 
ATOM     21  C   UNL     1       0.688  -1.279   5.953  1.00  0.00     0.074 A 
ATOM     22  C   UNL     1       2.008  -1.032   5.414  1.00  0.00     0.031 C 
ATOM     23  C   UNL     1      -2.585  -3.449   0.860  1.00  0.00     0.029 A 
ATOM     24  C   UNL     1      -3.083  -3.240   2.213  1.00  0.00     0.049 A 
ATOM     25  H   UNL     1      -2.016  -2.601   3.884  1.00  0.00     0.167 HD
ATOM     26  C   UNL     1       0.332  -1.069   7.243  1.00  0.00     0.031 A 
ATOM     27  C   UNL     1      -4.350  -3.454   2.608  1.00  0.00     0.031 A 
ATOM     28  C   UNL     1      -0.986  -1.307   7.771  1.00  0.00     0.049 A 
ATOM     29  C   UNL     1      -4.712  -3.212   4.041  1.00  0.00     0.074 A 
ATOM     30  C   UNL     1      -1.446  -1.113   9.062  1.00  0.00     0.029 A 
ATOM     31  N   UNL     1      -2.056  -1.788   7.033  1.00  0.00    -0.354 N 
ATOM     32  N   UNL     1      -3.959  -2.759   5.014  1.00  0.00    -0.248 NA
ATOM     33  C   UNL     1      -6.093  -3.519   4.432  1.00  0.00     0.031 C 
ATOM     34  C   UNL     1      -2.788  -1.509   9.112  1.00  0.00     0.029 A 
ATOM     35  C   UNL     1      -3.171  -1.913   7.844  1.00  0.00     0.049 A 
ATOM     36  H   UNL     1      -2.027  -2.009   6.074  1.00  0.00     0.167 HD
ATOM     37  C   UNL     1      -4.773  -2.732   6.135  1.00  0.00     0.074 A 
ATOM     38  C   UNL     1      -6.085  -3.181   5.713  1.00  0.00     0.031 C 
ATOM     39  C   UNL     1      -4.460  -2.378   7.405  1.00  0.00     0.031 A 
BRANCH  26  40
ATOM     40  C   UNL     1       1.394  -0.578   8.185  1.00  0.00    -0.014 A 
ATOM     41  C   UNL     1       1.812   0.761   8.176  1.00  0.00     0.009 A 
ATOM     42  C   UNL     1       1.942  -1.456   9.133  1.00  0.00     0.009 A 
ATOM     43  C   UNL     1       2.774   1.206   9.086  1.00  0.00     0.001 A 
ATOM     44  C   UNL     1       2.890  -1.004  10.054  1.00  0.00     0.001 A 
ATOM     45  C   UNL     1       3.308   0.325  10.026  1.00  0.00     0.000 A 
ENDBRANCH  26  40
BRANCH  27  46
ATOM     46  C   UNL     1      -5.355  -3.937   1.630  1.00  0.00    -0.014 A 
ATOM     47  C   UNL     1      -6.372  -3.087   1.172  1.00  0.00     0.009 A 
ATOM     48  C   UNL     1      -5.281  -5.246   1.127  1.00  0.00     0.009 A 
ATOM     49  C   UNL     1      -7.305  -3.544   0.239  1.00  0.00     0.001 A 
ATOM     50  C   UNL     1      -6.199  -5.691   0.175  1.00  0.00     0.001 A 
ATOM     51  C   UNL     1      -7.214  -4.842  -0.263  1.00  0.00     0.000 A 
ENDBRANCH  27  46
BRANCH  39  52
ATOM     52  C   UNL     1      -5.564  -2.468   8.415  1.00  0.00    -0.014 A 
ATOM     53  C   UNL     1      -5.974  -3.711   8.919  1.00  0.00     0.009 A 
ATOM     54  C   UNL     1      -6.194  -1.300   8.868  1.00  0.00     0.009 A 
ATOM     55  C   UNL     1      -7.023  -3.786   9.837  1.00  0.00     0.001 A 
ATOM     56  C   UNL     1      -7.228  -1.377   9.802  1.00  0.00     0.001 A 
ATOM     57  C   UNL     1      -7.647  -2.619  10.278  1.00  0.00     0.000 A 
ENDBRANCH  39  52
ENDBRANCH  13  14
ENDBRANCH   6   8
ENDBRANCH   3   4
ENDBRANCH   2   3
ENDBRANCH   1   2
BRANCH   1  58
ATOM     58  N   UNL     1       4.841   2.861  -3.783  1.00  0.00    -0.356 N 
ATOM     59  C   UNL     1       4.747   4.205  -4.023  1.00  0.00     0.224 C 
ATOM     60  H   UNL     1       4.193   2.298  -4.265  1.00  0.00     0.163 HD
ATOM     61  O   UNL     1       3.804   4.628  -4.687  1.00  0.00    -0.275 OA
BRANCH  59  62
ATOM     62  C   UNL     1       5.868   5.089  -3.523  1.00  0.00     0.098 C 
ATOM     63  C   UNL     1       7.095   4.821  -4.407  1.00  0.00     0.017 C 
ATOM     64  C   UNL     1       5.505   6.581  -3.557  1.00  0.00     0.133 C 
ATOM     65  C   UNL     1       8.245   5.702  -3.971  1.00  0.00     0.022 C 
ATOM     66  N   UNL     1       6.673   7.408  -3.175  1.00  0.00    -0.342 N 
ATOM     67  C   UNL     1       7.831   7.172  -4.024  1.00  0.00     0.119 C 
BRANCH  66  68
ATOM     68  C   UNL     1       6.557   8.320  -2.143  1.00  0.00     0.225 C 
ATOM     69  O   UNL     1       5.480   8.412  -1.533  1.00  0.00    -0.275 OA
BRANCH  68  70
ATOM     70  C   UNL     1       7.719   9.205  -1.612  1.00  0.00     0.081 C 
ATOM     71  C   UNL     1       8.525  10.070  -2.564  1.00  0.00     0.030 C 
ATOM     72  C   UNL     1       8.613   8.527  -0.591  1.00  0.00     0.030 C 
ATOM     73  C   UNL     1       9.983   9.695  -2.854  1.00  0.00     0.103 C 
ATOM     74  C   UNL     1       9.728   7.742  -1.240  1.00  0.00     0.103 C 
ATOM     75  N   UNL     1      10.602   8.534  -2.117  1.00  0.00    -0.198 NA
BRANCH  75  76
ATOM     76  S   UNL     1      11.695   7.691  -3.174  1.00  0.00     0.243 S 
ATOM     77  O   UNL     1      10.900   7.135  -4.258  1.00  0.00    -0.207 OA
ATOM     78  O   UNL     1      12.747   8.629  -3.476  1.00  0.00    -0.207 OA
BRANCH  76  79
ATOM     79  C   UNL     1      12.432   6.278  -2.373  1.00  0.00     0.082 A 
ATOM     80  C   UNL     1      13.803   6.063  -2.569  1.00  0.00     0.022 A 
ATOM     81  C   UNL     1      11.659   5.263  -1.800  1.00  0.00     0.022 A 
ATOM     82  C   UNL     1      14.389   4.857  -2.174  1.00  0.00     0.001 A 
ATOM     83  C   UNL     1      12.255   4.077  -1.366  1.00  0.00     0.001 A 
ATOM     84  C   UNL     1      13.618   3.870  -1.562  1.00  0.00     0.000 A 
ENDBRANCH  76  79
ENDBRANCH  75  76
ENDBRANCH  68  70
ENDBRANCH  66  68
ENDBRANCH  59  62
ENDBRANCH   1  58
TORSDOF 14
