REMARK SMILES CCc1c(C)nn(CC(=O)N[C@H](C(=O)NCCCNC(=O)c2ccc(-c3c4nc(c(-c5ccccc5)c5ccc([nH]5)c(-c5ccccc5)c5nc(c(-c6ccccc6)c6ccc3[nH]6)C=C5)C=C4)cc2)c2c(C)n[nH]c2C)c1C
REMARK SMILES IDX 16 1 15 2 13 3 14 4 12 6 11 7 9 8 10 9 8 11 7 12 3 13 4 14
REMARK SMILES IDX 77 15 5 16 6 17 78 18 2 19 1 20 70 21 71 22 75 23 72 24
REMARK SMILES IDX 73 25 74 26 76 27 17 29 18 30 19 31 20 32 21 34 22 35 23 36
REMARK SMILES IDX 69 37 24 38 68 39 25 40 26 41 27 42 62 43 28 44 67 45 61 46
REMARK SMILES IDX 63 47 29 48 66 49 60 50 59 51 30 53 52 54 37 55 51 56 38 57
REMARK SMILES IDX 41 58 50 59 64 60 39 61 40 62 49 64 65 65 42 66 31 67 32 68
REMARK SMILES IDX 36 69 33 70 35 71 34 72 53 73 54 74 58 75 55 76 57 77 56 78
REMARK SMILES IDX 43 79 44 80 48 81 45 82 47 83 46 84
REMARK H PARENT 15 5 11 10 74 28 19 33 63 52 41 63
REMARK Flexibility Score: inf
ROOT
ATOM      1  C   UNL     1      -0.620  -3.329  -6.812  1.00  0.00     0.117 C 
ENDROOT
BRANCH   1   2
ATOM      2  N   UNL     1      -0.717  -1.910  -7.058  1.00  0.00    -0.354 N 
ATOM      3  C   UNL     1      -1.164  -0.869  -6.309  1.00  0.00     0.247 C 
ATOM      4  O   UNL     1      -1.123   0.216  -6.915  1.00  0.00    -0.272 OA
ATOM      5  H   UNL     1      -0.394  -1.642  -7.949  1.00  0.00     0.163 HD
BRANCH   3   6
ATOM      6  C   UNL     1      -1.529  -0.909  -4.783  1.00  0.00     0.206 C 
BRANCH   6   7
ATOM      7  N   UNL     1      -2.347   0.285  -4.512  1.00  0.00    -0.339 N 
ATOM      8  C   UNL     1      -2.114   1.613  -4.397  1.00  0.00     0.242 C 
ATOM      9  O   UNL     1      -3.129   2.314  -4.273  1.00  0.00    -0.273 OA
ATOM     10  H   UNL     1      -3.297   0.063  -4.382  1.00  0.00     0.164 HD
BRANCH   8  11
ATOM     11  C   UNL     1      -0.768   2.261  -4.553  1.00  0.00     0.244 C 
BRANCH  11  12
ATOM     12  N   UNL     1       0.237   1.807  -3.615  1.00  0.00    -0.260 N 
ATOM     13  C   UNL     1       2.159   1.284  -2.663  1.00  0.00    -0.004 A 
ATOM     14  C   UNL     1       1.149   1.616  -1.710  1.00  0.00     0.063 A 
ATOM     15  C   UNL     1       1.526   1.417  -3.893  1.00  0.00     0.039 A 
ATOM     16  C   UNL     1       1.225   1.684  -0.228  1.00  0.00     0.069 C 
ATOM     17  N   UNL     1      -0.010   1.915  -2.301  1.00  0.00    -0.177 NA
ATOM     18  C   UNL     1       2.028   1.266  -5.283  1.00  0.00     0.066 C 
BRANCH  13  19
ATOM     19  C   UNL     1       3.569   0.876  -2.367  1.00  0.00     0.036 C 
ATOM     20  C   UNL     1       4.636   1.603  -3.171  1.00  0.00     0.009 C 
ENDBRANCH  13  19
ENDBRANCH  11  12
ENDBRANCH   8  11
ENDBRANCH   6   7
BRANCH   6  21
ATOM     21  C   UNL     1      -2.329  -2.124  -4.307  1.00  0.00     0.027 A 
ATOM     22  C   UNL     1      -1.809  -3.316  -3.678  1.00  0.00     0.065 A 
ATOM     23  C   UNL     1      -3.713  -2.338  -4.255  1.00  0.00     0.038 A 
ATOM     24  C   UNL     1      -0.410  -3.706  -3.339  1.00  0.00     0.069 C 
ATOM     25  N   UNL     1      -2.764  -4.216  -3.430  1.00  0.00    -0.180 NA
ATOM     26  N   UNL     1      -3.894  -3.599  -3.761  1.00  0.00    -0.282 N 
ATOM     27  C   UNL     1      -4.912  -1.507  -4.546  1.00  0.00     0.066 C 
ATOM     28  H   UNL     1      -4.781  -4.013  -3.660  1.00  0.00     0.190 HD
ENDBRANCH   6  21
ENDBRANCH   3   6
ENDBRANCH   1   2
BRANCH   1  29
ATOM     29  C   UNL     1      -1.763  -4.099  -7.457  1.00  0.00     0.042 C 
BRANCH  29  30
ATOM     30  C   UNL     1      -1.428  -4.535  -8.877  1.00  0.00     0.118 C 
BRANCH  30  31
ATOM     31  N   UNL     1      -0.377  -5.550  -8.914  1.00  0.00    -0.352 N 
ATOM     32  C   UNL     1      -0.378  -6.802  -9.478  1.00  0.00     0.251 C 
ATOM     33  H   UNL     1       0.462  -5.297  -8.464  1.00  0.00     0.163 HD
ATOM     34  O   UNL     1       0.544  -7.581  -9.249  1.00  0.00    -0.269 OA
BRANCH  32  35
ATOM     35  C   UNL     1      -1.501  -7.216 -10.339  1.00  0.00     0.039 A 
ATOM     36  C   UNL     1      -2.033  -8.501 -10.199  1.00  0.00     0.014 A 
ATOM     37  C   UNL     1      -2.043  -6.325 -11.266  1.00  0.00     0.014 A 
ATOM     38  C   UNL     1      -3.163  -8.860 -10.935  1.00  0.00     0.010 A 
ATOM     39  C   UNL     1      -3.227  -6.644 -11.912  1.00  0.00     0.010 A 
ATOM     40  C   UNL     1      -3.796  -7.917 -11.761  1.00  0.00    -0.014 A 
BRANCH  40  41
ATOM     41  C   UNL     1      -5.047  -8.231 -12.494  1.00  0.00     0.031 A 
ATOM     42  C   UNL     1      -5.071  -8.147 -13.995  1.00  0.00     0.074 A 
ATOM     43  C   UNL     1      -6.175  -8.500 -11.809  1.00  0.00     0.049 A 
ATOM     44  N   UNL     1      -6.084  -8.267 -14.814  1.00  0.00    -0.248 NA
ATOM     45  C   UNL     1      -3.792  -7.848 -14.664  1.00  0.00     0.031 C 
ATOM     46  C   UNL     1      -6.291  -8.567 -10.350  1.00  0.00     0.029 A 
ATOM     47  N   UNL     1      -7.447  -8.757 -12.253  1.00  0.00    -0.354 N 
ATOM     48  C   UNL     1      -5.570  -8.032 -16.083  1.00  0.00     0.074 A 
ATOM     49  C   UNL     1      -4.173  -7.699 -15.922  1.00  0.00     0.031 C 
ATOM     50  C   UNL     1      -7.554  -8.884 -10.022  1.00  0.00     0.029 A 
ATOM     51  C   UNL     1      -8.347  -8.991 -11.241  1.00  0.00     0.049 A 
ATOM     52  H   UNL     1      -7.692  -8.774 -13.206  1.00  0.00     0.167 HD
ATOM     53  C   UNL     1      -6.198  -8.111 -17.280  1.00  0.00     0.031 A 
ATOM     54  C   UNL     1      -9.666  -9.255 -11.292  1.00  0.00     0.031 A 
ATOM     55  C   UNL     1      -7.583  -8.462 -17.437  1.00  0.00     0.049 A 
ATOM     56  C   UNL     1     -10.344  -9.326 -12.632  1.00  0.00     0.074 A 
ATOM     57  C   UNL     1      -8.304  -8.626 -18.606  1.00  0.00     0.029 A 
ATOM     58  N   UNL     1      -8.456  -8.705 -16.388  1.00  0.00    -0.354 N 
ATOM     59  N   UNL     1      -9.831  -9.162 -13.828  1.00  0.00    -0.248 NA
ATOM     60  C   UNL     1     -11.782  -9.628 -12.629  1.00  0.00     0.031 C 
ATOM     61  C   UNL     1      -9.628  -8.918 -18.262  1.00  0.00     0.029 A 
ATOM     62  C   UNL     1      -9.715  -8.997 -16.881  1.00  0.00     0.049 A 
ATOM     63  H   UNL     1      -8.216  -8.674 -15.434  1.00  0.00     0.167 HD
ATOM     64  C   UNL     1     -10.874  -9.374 -14.720  1.00  0.00     0.074 A 
ATOM     65  C   UNL     1     -12.044  -9.692 -13.927  1.00  0.00     0.031 C 
ATOM     66  C   UNL     1     -10.865  -9.315 -16.074  1.00  0.00     0.031 A 
BRANCH  53  67
ATOM     67  C   UNL     1      -5.383  -7.810 -18.508  1.00  0.00    -0.014 A 
ATOM     68  C   UNL     1      -4.345  -8.661 -18.922  1.00  0.00     0.009 A 
ATOM     69  C   UNL     1      -5.666  -6.667 -19.273  1.00  0.00     0.009 A 
ATOM     70  C   UNL     1      -3.578  -8.350 -20.047  1.00  0.00     0.001 A 
ATOM     71  C   UNL     1      -4.921  -6.377 -20.417  1.00  0.00     0.001 A 
ATOM     72  C   UNL     1      -3.870  -7.211 -20.796  1.00  0.00     0.000 A 
ENDBRANCH  53  67
BRANCH  54  73
ATOM     73  C   UNL     1     -10.430  -9.496 -10.039  1.00  0.00    -0.014 A 
ATOM     74  C   UNL     1     -10.916 -10.778  -9.741  1.00  0.00     0.009 A 
ATOM     75  C   UNL     1     -10.683  -8.449  -9.139  1.00  0.00     0.009 A 
ATOM     76  C   UNL     1     -11.664 -11.002  -8.583  1.00  0.00     0.001 A 
ATOM     77  C   UNL     1     -11.405  -8.682  -7.966  1.00  0.00     0.001 A 
ATOM     78  C   UNL     1     -11.904  -9.955  -7.694  1.00  0.00     0.000 A 
ENDBRANCH  54  73
BRANCH  66  79
ATOM     79  C   UNL     1     -12.147  -9.645 -16.785  1.00  0.00    -0.014 A 
ATOM     80  C   UNL     1     -13.243  -8.769 -16.762  1.00  0.00     0.009 A 
ATOM     81  C   UNL     1     -12.238 -10.833 -17.528  1.00  0.00     0.009 A 
ATOM     82  C   UNL     1     -14.418  -9.094 -17.443  1.00  0.00     0.001 A 
ATOM     83  C   UNL     1     -13.402 -11.139 -18.233  1.00  0.00     0.001 A 
ATOM     84  C   UNL     1     -14.494 -10.275 -18.182  1.00  0.00     0.000 A 
ENDBRANCH  66  79
ENDBRANCH  40  41
ENDBRANCH  32  35
ENDBRANCH  30  31
ENDBRANCH  29  30
ENDBRANCH   1  29
TORSDOF 15
