REMARK SMILES Cc1ccc(NC(=O)c2ccccc2NC(=O)[C@H]2CCCC[C@H]2C(=O)NCCCNC(=O)c2ccc(-c3c4nc(c(-c5ccccc5)c5ccc([nH]5)c(-c5ccccc5)c5nc(c(-c6ccccc6)c6ccc3[nH]6)C=C5)C=C4)cc2)cc1
REMARK SMILES IDX 27 1 26 2 24 3 25 4 23 6 18 7 19 8 20 9 22 10 21 11 16 12
REMARK SMILES IDX 15 13 17 15 14 16 9 17 10 18 11 19 13 20 12 21 7 22 6 23
REMARK SMILES IDX 8 25 5 26 1 27 2 28 3 29 82 30 4 31 81 32 28 33 29 34 30 35
REMARK SMILES IDX 31 36 32 38 33 39 34 40 80 41 35 42 79 43 36 44 37 45 38 46
REMARK SMILES IDX 73 47 39 48 78 49 72 50 74 51 40 52 77 53 71 54 70 55 41 57
REMARK SMILES IDX 63 58 48 59 62 60 49 61 52 62 61 63 75 64 50 65 51 66 60 68
REMARK SMILES IDX 76 69 53 70 42 71 43 72 47 73 44 74 46 75 45 76 64 77 65 78
REMARK SMILES IDX 69 79 66 80 68 81 67 82 54 83 55 84 59 85 56 86 58 87 57 88
REMARK H PARENT 26 5 15 14 6 24 30 37 74 56 52 67
REMARK Flexibility Score: inf
ROOT
ATOM      1  C   UNL     1       0.660  -1.200   7.242  1.00  0.00     0.117 C 
ENDROOT
BRANCH   1   2
ATOM      2  N   UNL     1      -0.526  -0.539   6.710  1.00  0.00    -0.356 N 
ATOM      3  C   UNL     1      -1.456  -0.850   5.777  1.00  0.00     0.223 C 
ATOM      4  O   UNL     1      -2.271   0.045   5.515  1.00  0.00    -0.275 OA
ATOM      5  H   UNL     1      -0.689   0.338   7.127  1.00  0.00     0.163 HD
BRANCH   3   6
ATOM      6  C   UNL     1      -1.554  -2.162   4.992  1.00  0.00     0.091 C 
ATOM      7  C   UNL     1      -0.849  -2.085   3.618  1.00  0.00     0.091 C 
ATOM      8  C   UNL     1      -1.070  -3.370   2.794  1.00  0.00     0.014 C 
ATOM      9  C   UNL     1      -0.879  -4.665   3.593  1.00  0.00     0.001 C 
ATOM     10  C   UNL     1      -1.368  -3.471   5.755  1.00  0.00     0.014 C 
ATOM     11  C   UNL     1      -1.706  -4.673   4.875  1.00  0.00     0.001 C 
BRANCH   7  12
ATOM     12  C   UNL     1       0.636  -1.862   3.761  1.00  0.00     0.228 C 
ATOM     13  N   UNL     1       1.322  -0.813   3.237  1.00  0.00    -0.325 N 
ATOM     14  H   UNL     1       2.198  -0.712   3.674  1.00  0.00     0.169 HD
ATOM     15  O   UNL     1       1.295  -2.665   4.434  1.00  0.00    -0.274 OA
BRANCH  13  16
ATOM     16  C   UNL     1       1.135   0.173   2.248  1.00  0.00     0.054 A 
ATOM     17  C   UNL     1       2.111   1.189   2.059  1.00  0.00     0.063 A 
ATOM     18  C   UNL     1       1.869   2.223   1.127  1.00  0.00     0.016 A 
ATOM     19  C   UNL     1       0.717   2.243   0.351  1.00  0.00     0.001 A 
ATOM     20  C   UNL     1       0.025   0.174   1.394  1.00  0.00     0.027 A 
ATOM     21  C   UNL     1      -0.195   1.206   0.472  1.00  0.00     0.002 A 
BRANCH  17  22
ATOM     22  C   UNL     1       3.365   1.408   2.838  1.00  0.00     0.257 C 
ATOM     23  N   UNL     1       4.274   0.452   3.215  1.00  0.00    -0.322 N 
ATOM     24  H   UNL     1       5.005   0.827   3.757  1.00  0.00     0.170 HD
ATOM     25  O   UNL     1       3.607   2.560   3.219  1.00  0.00    -0.269 OA
BRANCH  23  26
ATOM     26  C   UNL     1       4.416  -0.922   3.019  1.00  0.00     0.041 A 
ATOM     27  C   UNL     1       3.989  -5.177   3.260  1.00  0.00     0.044 C 
ATOM     28  C   UNL     1       4.265  -3.710   3.121  1.00  0.00    -0.051 A 
ATOM     29  C   UNL     1       3.824  -3.013   1.987  1.00  0.00     0.005 A 
ATOM     30  C   UNL     1       4.899  -3.009   4.148  1.00  0.00     0.005 A 
ATOM     31  C   UNL     1       3.905  -1.619   1.931  1.00  0.00     0.026 A 
ATOM     32  C   UNL     1       5.000  -1.622   4.082  1.00  0.00     0.026 A 
ENDBRANCH  23  26
ENDBRANCH  17  22
ENDBRANCH  13  16
ENDBRANCH   7  12
ENDBRANCH   3   6
ENDBRANCH   1   2
BRANCH   1  33
ATOM     33  C   UNL     1       1.930  -0.748   6.527  1.00  0.00     0.042 C 
BRANCH  33  34
ATOM     34  C   UNL     1       2.896   0.072   7.364  1.00  0.00     0.118 C 
BRANCH  34  35
ATOM     35  N   UNL     1       4.184  -0.606   7.563  1.00  0.00    -0.352 N 
ATOM     36  C   UNL     1       5.430  -0.044   7.817  1.00  0.00     0.251 C 
ATOM     37  H   UNL     1       4.161  -1.589   7.509  1.00  0.00     0.163 HD
ATOM     38  O   UNL     1       6.402  -0.710   8.074  1.00  0.00    -0.269 OA
BRANCH  36  39
ATOM     39  C   UNL     1       5.491   1.434   7.811  1.00  0.00     0.039 A 
ATOM     40  C   UNL     1       5.424   2.074   9.047  1.00  0.00     0.014 A 
ATOM     41  C   UNL     1       5.151   2.086   6.630  1.00  0.00     0.014 A 
ATOM     42  C   UNL     1       4.731   3.274   9.129  1.00  0.00     0.010 A 
ATOM     43  C   UNL     1       4.398   3.241   6.720  1.00  0.00     0.010 A 
ATOM     44  C   UNL     1       4.105   3.771   7.981  1.00  0.00    -0.014 A 
BRANCH  44  45
ATOM     45  C   UNL     1       3.010   4.731   8.058  1.00  0.00     0.031 A 
ATOM     46  C   UNL     1       3.266   6.147   7.752  1.00  0.00     0.074 A 
ATOM     47  C   UNL     1       1.776   4.364   8.474  1.00  0.00     0.049 A 
ATOM     48  N   UNL     1       2.753   7.131   8.412  1.00  0.00    -0.248 NA
ATOM     49  C   UNL     1       4.186   6.555   6.699  1.00  0.00     0.031 C 
ATOM     50  C   UNL     1       0.575   5.197   8.487  1.00  0.00     0.029 A 
ATOM     51  N   UNL     1       1.405   3.228   9.197  1.00  0.00    -0.354 N 
ATOM     52  C   UNL     1       3.031   8.274   7.700  1.00  0.00     0.074 A 
ATOM     53  C   UNL     1       4.007   7.878   6.708  1.00  0.00     0.031 C 
ATOM     54  C   UNL     1      -0.264   4.724   9.422  1.00  0.00     0.029 A 
ATOM     55  C   UNL     1       0.408   3.630  10.102  1.00  0.00     0.049 A 
ATOM     56  H   UNL     1       1.771   2.321   9.092  1.00  0.00     0.167 HD
ATOM     57  C   UNL     1       2.295   9.403   7.899  1.00  0.00     0.031 A 
ATOM     58  C   UNL     1       0.483   3.450  11.451  1.00  0.00     0.031 A 
ATOM     59  C   UNL     1       1.254   9.215   8.906  1.00  0.00     0.049 A 
ATOM     60  C   UNL     1       0.389   4.743  12.230  1.00  0.00     0.074 A 
ATOM     61  C   UNL     1      -0.103   8.952   8.803  1.00  0.00     0.029 A 
ATOM     62  N   UNL     1       1.599   8.993  10.232  1.00  0.00    -0.354 N 
ATOM     63  N   UNL     1       0.472   5.923  11.684  1.00  0.00    -0.248 NA
ATOM     64  C   UNL     1       0.289   4.813  13.687  1.00  0.00     0.031 C 
ATOM     65  C   UNL     1      -0.565   8.519  10.070  1.00  0.00     0.029 A 
ATOM     66  C   UNL     1       0.506   8.537  10.945  1.00  0.00     0.049 A 
ATOM     67  H   UNL     1       2.496   9.139  10.611  1.00  0.00     0.167 HD
ATOM     68  C   UNL     1       0.479   6.883  12.660  1.00  0.00     0.074 A 
ATOM     69  C   UNL     1       0.340   6.141  13.899  1.00  0.00     0.031 C 
ATOM     70  C   UNL     1       0.628   8.206  12.358  1.00  0.00     0.031 A 
BRANCH  57  71
ATOM     71  C   UNL     1       2.313  10.559   6.929  1.00  0.00    -0.014 A 
ATOM     72  C   UNL     1       1.149  11.323   6.731  1.00  0.00     0.009 A 
ATOM     73  C   UNL     1       3.424  10.913   6.145  1.00  0.00     0.009 A 
ATOM     74  C   UNL     1       1.061  12.295   5.727  1.00  0.00     0.001 A 
ATOM     75  C   UNL     1       3.331  11.849   5.106  1.00  0.00     0.001 A 
ATOM     76  C   UNL     1       2.142  12.531   4.888  1.00  0.00     0.000 A 
ENDBRANCH  57  71
BRANCH  58  77
ATOM     77  C   UNL     1       1.306   2.283  11.861  1.00  0.00    -0.014 A 
ATOM     78  C   UNL     1       0.811   0.994  11.582  1.00  0.00     0.009 A 
ATOM     79  C   UNL     1       2.672   2.438  12.133  1.00  0.00     0.009 A 
ATOM     80  C   UNL     1       1.683  -0.089  11.449  1.00  0.00     0.001 A 
ATOM     81  C   UNL     1       3.538   1.347  12.006  1.00  0.00     0.001 A 
ATOM     82  C   UNL     1       3.051   0.097  11.624  1.00  0.00     0.000 A 
ENDBRANCH  58  77
BRANCH  70  83
ATOM     83  C   UNL     1       0.830   9.329  13.342  1.00  0.00    -0.014 A 
ATOM     84  C   UNL     1       1.365   9.172  14.627  1.00  0.00     0.009 A 
ATOM     85  C   UNL     1       0.580  10.655  12.918  1.00  0.00     0.009 A 
ATOM     86  C   UNL     1       1.593  10.277  15.461  1.00  0.00     0.001 A 
ATOM     87  C   UNL     1       0.847  11.761  13.729  1.00  0.00     0.001 A 
ATOM     88  C   UNL     1       1.342  11.570  15.009  1.00  0.00     0.000 A 
ENDBRANCH  70  83
ENDBRANCH  44  45
ENDBRANCH  36  39
ENDBRANCH  34  35
ENDBRANCH  33  34
ENDBRANCH   1  33
TORSDOF 14
