REMARK SMILES O=C(NCCCNC(=O)c1cc(-c2ccc(Cl)cc2)nc2c3c(C4CC4)cc(C(F)(F)F)nc3nn12)c1ccc(-c2c3nc(c(-c4ccccc4)c4ccc([nH]4)c(-c4ccccc4)c4nc(c(-c5ccccc5)c5ccc2[nH]5)C=C4)C=C3)cc1
REMARK SMILES IDX 4 1 3 2 1 3 2 4 37 6 38 7 84 8 39 9 83 10 40 11 41 12 42 13
REMARK SMILES IDX 77 14 43 15 82 16 76 17 78 18 44 19 81 20 75 21 74 22 45 24
REMARK SMILES IDX 67 25 52 26 66 27 53 28 56 29 65 30 79 31 54 32 55 33 64 35
REMARK SMILES IDX 80 36 57 37 46 38 47 39 51 40 48 41 50 42 49 43 68 44 69 45
REMARK SMILES IDX 73 46 70 47 72 48 71 49 58 50 59 51 63 52 60 53 62 54 61 55
REMARK SMILES IDX 5 56 6 57 7 58 8 59 9 61 10 62 11 63 36 64 12 65 21 66 35 67
REMARK SMILES IDX 20 68 22 69 34 70 23 71 33 72 27 73 28 74 13 75 14 76 19 77
REMARK SMILES IDX 15 78 18 79 16 80 17 81 24 82 25 83 26 84 29 85 30 86 31 87
REMARK SMILES IDX 32 88
REMARK H PARENT 3 5 78 23 56 34 7 60
REMARK Flexibility Score: inf
ROOT
ATOM      1  C   UNL     1       4.539  -1.492   0.868  1.00  0.00     0.118 C 
ENDROOT
BRANCH   1   2
ATOM      2  N   UNL     1       3.230  -1.050   0.403  1.00  0.00    -0.352 N 
ATOM      3  O   UNL     1       1.745   0.404  -0.498  1.00  0.00    -0.269 OA
ATOM      4  C   UNL     1       2.902   0.114  -0.247  1.00  0.00     0.251 C 
ATOM      5  H   UNL     1       2.483  -1.667   0.577  1.00  0.00     0.163 HD
BRANCH   4   6
ATOM      6  C   UNL     1       3.992   1.045  -0.594  1.00  0.00     0.039 A 
ATOM      7  C   UNL     1       5.017   0.632  -1.450  1.00  0.00     0.014 A 
ATOM      8  C   UNL     1       4.014   2.307   0.004  1.00  0.00     0.014 A 
ATOM      9  C   UNL     1       6.133   1.441  -1.615  1.00  0.00     0.010 A 
ATOM     10  C   UNL     1       5.118   3.130  -0.191  1.00  0.00     0.010 A 
ATOM     11  C   UNL     1       6.191   2.686  -0.976  1.00  0.00    -0.014 A 
BRANCH  11  12
ATOM     12  C   UNL     1       7.377   3.516  -1.213  1.00  0.00     0.031 A 
ATOM     13  C   UNL     1       7.112   4.850  -1.814  1.00  0.00     0.074 A 
ATOM     14  C   UNL     1       8.514   3.357  -0.509  1.00  0.00     0.049 A 
ATOM     15  N   UNL     1       6.796   5.888  -1.096  1.00  0.00    -0.248 NA
ATOM     16  C   UNL     1       6.941   5.037  -3.253  1.00  0.00     0.031 C 
ATOM     17  C   UNL     1       8.585   2.785   0.842  1.00  0.00     0.029 A 
ATOM     18  N   UNL     1       9.768   3.866  -0.729  1.00  0.00    -0.354 N 
ATOM     19  C   UNL     1       6.300   6.837  -1.968  1.00  0.00     0.074 A 
ATOM     20  C   UNL     1       6.444   6.282  -3.297  1.00  0.00     0.031 C 
ATOM     21  C   UNL     1       9.753   3.160   1.404  1.00  0.00     0.029 A 
ATOM     22  C   UNL     1      10.572   3.829   0.403  1.00  0.00     0.049 A 
ATOM     23  H   UNL     1      10.067   4.220  -1.597  1.00  0.00     0.167 HD
ATOM     24  C   UNL     1       5.749   8.008  -1.559  1.00  0.00     0.031 A 
ATOM     25  C   UNL     1      11.602   4.676   0.659  1.00  0.00     0.031 A 
ATOM     26  C   UNL     1       5.709   8.232  -0.147  1.00  0.00     0.049 A 
ATOM     27  C   UNL     1      10.866   5.979   0.871  1.00  0.00     0.074 A 
ATOM     28  C   UNL     1       4.802   8.050   0.875  1.00  0.00     0.029 A 
ATOM     29  N   UNL     1       6.850   8.678   0.474  1.00  0.00    -0.354 N 
ATOM     30  N   UNL     1      10.247   6.360   1.955  1.00  0.00    -0.248 NA
ATOM     31  C   UNL     1      10.550   6.772  -0.321  1.00  0.00     0.031 C 
ATOM     32  C   UNL     1       5.580   7.972   2.072  1.00  0.00     0.029 A 
ATOM     33  C   UNL     1       6.919   8.052   1.693  1.00  0.00     0.049 A 
ATOM     34  H   UNL     1       7.497   9.325   0.113  1.00  0.00     0.167 HD
ATOM     35  C   UNL     1       9.248   7.237   1.523  1.00  0.00     0.074 A 
ATOM     36  C   UNL     1       9.513   7.471   0.118  1.00  0.00     0.031 C 
ATOM     37  C   UNL     1       8.156   7.571   2.271  1.00  0.00     0.031 A 
BRANCH  24  38
ATOM     38  C   UNL     1       5.267   9.036  -2.497  1.00  0.00    -0.014 A 
ATOM     39  C   UNL     1       6.114  10.104  -2.821  1.00  0.00     0.009 A 
ATOM     40  C   UNL     1       3.946   9.038  -2.959  1.00  0.00     0.009 A 
ATOM     41  C   UNL     1       5.641  11.176  -3.576  1.00  0.00     0.001 A 
ATOM     42  C   UNL     1       3.476  10.111  -3.721  1.00  0.00     0.001 A 
ATOM     43  C   UNL     1       4.320  11.181  -4.020  1.00  0.00     0.000 A 
ENDBRANCH  24  38
BRANCH  25  44
ATOM     44  C   UNL     1      12.756   4.568  -0.297  1.00  0.00    -0.014 A 
ATOM     45  C   UNL     1      13.207   3.283  -0.671  1.00  0.00     0.009 A 
ATOM     46  C   UNL     1      13.439   5.666  -0.840  1.00  0.00     0.009 A 
ATOM     47  C   UNL     1      14.210   3.106  -1.628  1.00  0.00     0.001 A 
ATOM     48  C   UNL     1      14.428   5.492  -1.817  1.00  0.00     0.001 A 
ATOM     49  C   UNL     1      14.802   4.213  -2.222  1.00  0.00     0.000 A 
ENDBRANCH  25  44
BRANCH  37  50
ATOM     50  C   UNL     1       8.177   7.160   3.707  1.00  0.00    -0.014 A 
ATOM     51  C   UNL     1       8.966   7.865   4.625  1.00  0.00     0.009 A 
ATOM     52  C   UNL     1       7.351   6.125   4.174  1.00  0.00     0.009 A 
ATOM     53  C   UNL     1       8.907   7.562   5.987  1.00  0.00     0.001 A 
ATOM     54  C   UNL     1       7.283   5.832   5.538  1.00  0.00     0.001 A 
ATOM     55  C   UNL     1       8.057   6.555   6.443  1.00  0.00     0.000 A 
ENDBRANCH  37  50
ENDBRANCH  11  12
ENDBRANCH   4   6
ENDBRANCH   1   2
BRANCH   1  56
ATOM     56  C   UNL     1       4.903  -0.931   2.239  1.00  0.00     0.042 C 
BRANCH  56  57
ATOM     57  C   UNL     1       4.307  -1.744   3.383  1.00  0.00     0.118 C 
BRANCH  57  58
ATOM     58  N   UNL     1       4.834  -3.106   3.395  1.00  0.00    -0.351 N 
ATOM     59  C   UNL     1       5.695  -3.720   4.250  1.00  0.00     0.270 C 
ATOM     60  H   UNL     1       4.511  -3.675   2.659  1.00  0.00     0.163 HD
ATOM     61  O   UNL     1       6.170  -4.813   3.946  1.00  0.00    -0.268 OA
BRANCH  59  62
ATOM     62  C   UNL     1       6.104  -3.046   5.494  1.00  0.00     0.134 A 
ATOM     63  C   UNL     1       7.424  -2.948   5.708  1.00  0.00     0.063 A 
ATOM     64  N   UNL     1       5.195  -2.556   6.426  1.00  0.00    -0.207 N 
ATOM     65  C   UNL     1       7.815  -2.296   6.992  1.00  0.00     0.075 A 
ATOM     66  C   UNL     1       5.648  -1.861   7.563  1.00  0.00     0.166 A 
ATOM     67  N   UNL     1       3.843  -2.624   6.369  1.00  0.00    -0.145 NA
ATOM     68  N   UNL     1       6.989  -1.787   7.862  1.00  0.00    -0.228 NA
ATOM     69  C   UNL     1       4.507  -1.310   8.117  1.00  0.00     0.069 A 
ATOM     70  C   UNL     1       3.430  -1.812   7.329  1.00  0.00     0.184 A 
ATOM     71  C   UNL     1       4.401  -0.416   9.193  1.00  0.00    -0.028 A 
ATOM     72  N   UNL     1       2.142  -1.463   7.535  1.00  0.00    -0.222 NA
ATOM     73  C   UNL     1       3.045  -0.059   9.366  1.00  0.00     0.038 A 
ATOM     74  C   UNL     1       1.983  -0.572   8.562  1.00  0.00     0.147 A 
BRANCH  65  75
ATOM     75  C   UNL     1       9.274  -2.298   7.252  1.00  0.00     0.000 A 
ATOM     76  C   UNL     1       9.756  -2.945   8.393  1.00  0.00     0.012 A 
ATOM     77  C   UNL     1      10.161  -1.725   6.331  1.00  0.00     0.012 A 
ATOM     78  C   UNL     1      11.135  -3.050   8.597  1.00  0.00     0.021 A 
ATOM     79  C   UNL     1      11.538  -1.824   6.544  1.00  0.00     0.021 A 
ATOM     80  C   UNL     1      12.019  -2.494   7.670  1.00  0.00     0.041 A 
ATOM     81  Cl  UNL     1      13.715  -2.645   7.911  1.00  0.00    -0.084 Cl
ENDBRANCH  65  75
BRANCH  71  82
ATOM     82  C   UNL     1       5.576   0.065   9.982  1.00  0.00     0.020 C 
ATOM     83  C   UNL     1       5.439   1.022  11.143  1.00  0.00     0.009 C 
ATOM     84  C   UNL     1       5.739  -0.423  11.403  1.00  0.00     0.009 C 
ENDBRANCH  71  82
BRANCH  74  85
ATOM     85  C   UNL     1       0.562  -0.079   8.823  1.00  0.00     0.433 C 
ATOM     86  F   UNL     1       0.081   0.697   7.811  1.00  0.00    -0.165 F 
ATOM     87  F   UNL     1      -0.337  -1.090   8.987  1.00  0.00    -0.165 F 
ATOM     88  F   UNL     1       0.454   0.688   9.949  1.00  0.00    -0.165 F 
ENDBRANCH  74  85
ENDBRANCH  59  62
ENDBRANCH  57  58
ENDBRANCH  56  57
ENDBRANCH   1  56
TORSDOF 13
