REMARK SMILES CC(C)C[C@H](CNC(=O)Nc1ccccc1Br)C(=O)NCCCNC(=O)c1ccc(-c2c3nc(c(-c4ccccc4)c4ccc([nH]4)c(-c4ccccc4)c4nc(c(-c5ccccc5)c5ccc2[nH]5)C=C4)C=C3)cc1
REMARK SMILES IDX 21 1 20 2 18 3 19 4 5 6 4 7 2 8 1 9 3 10 6 11 7 12 8 13 9 15
REMARK SMILES IDX 10 16 11 18 12 19 16 20 13 21 15 22 17 23 14 24 22 25 23 26
REMARK SMILES IDX 24 27 25 28 26 30 27 31 28 32 74 33 29 34 73 35 30 36 31 37
REMARK SMILES IDX 32 38 67 39 33 40 72 41 66 42 68 43 34 44 71 45 65 46 64 47
REMARK SMILES IDX 35 49 57 50 42 51 56 52 43 53 46 54 55 55 69 56 44 57 45 58
REMARK SMILES IDX 54 60 70 61 47 62 36 63 37 64 41 65 38 66 40 67 39 68 58 69
REMARK SMILES IDX 59 70 63 71 60 72 62 73 61 74 48 75 49 76 53 77 50 78 52 79
REMARK SMILES IDX 51 80
REMARK H PARENT 20 5 7 14 10 17 24 29 68 48 46 59
REMARK Flexibility Score: inf
ROOT
ATOM      1  C   UNL     1      -3.183  -3.142  -2.190  1.00  0.00     0.117 C 
ENDROOT
BRANCH   1   2
ATOM      2  N   UNL     1      -3.748  -1.833  -1.930  1.00  0.00    -0.356 N 
ATOM      3  C   UNL     1      -3.144  -0.635  -1.730  1.00  0.00     0.224 C 
ATOM      4  O   UNL     1      -3.865   0.328  -1.457  1.00  0.00    -0.275 OA
ATOM      5  H   UNL     1      -4.732  -1.810  -1.892  1.00  0.00     0.163 HD
BRANCH   3   6
ATOM      6  C   UNL     1      -1.634  -0.472  -1.821  1.00  0.00     0.098 C 
BRANCH   6   7
ATOM      7  C   UNL     1      -1.039  -0.768  -3.206  1.00  0.00     0.018 C 
BRANCH   7   8
ATOM      8  C   UNL     1      -1.780  -0.062  -4.364  1.00  0.00    -0.017 C 
ATOM      9  C   UNL     1      -1.658   1.460  -4.285  1.00  0.00     0.007 C 
ATOM     10  C   UNL     1      -1.249  -0.562  -5.707  1.00  0.00     0.007 C 
ENDBRANCH   7   8
ENDBRANCH   6   7
BRANCH   6  11
ATOM     11  C   UNL     1      -0.974  -1.127  -0.599  1.00  0.00     0.131 C 
BRANCH  11  12
ATOM     12  N   UNL     1       0.069  -2.115  -0.834  1.00  0.00    -0.337 N 
ATOM     13  C   UNL     1       1.287  -2.303  -0.278  1.00  0.00     0.319 C 
ATOM     14  H   UNL     1      -0.155  -2.771  -1.532  1.00  0.00     0.165 HD
ATOM     15  O   UNL     1       2.018  -3.161  -0.778  1.00  0.00    -0.249 OA
ATOM     16  N   UNL     1       1.773  -1.523   0.716  1.00  0.00    -0.307 N 
ATOM     17  H   UNL     1       2.748  -1.573   0.841  1.00  0.00     0.171 HD
BRANCH  16  18
ATOM     18  C   UNL     1       1.111  -0.655   1.595  1.00  0.00     0.057 A 
ATOM     19  C   UNL     1       1.524   0.682   1.568  1.00  0.00     0.027 A 
ATOM     20  C   UNL     1       0.021  -1.029   2.400  1.00  0.00     0.041 A 
ATOM     21  C   UNL     1       0.771   1.659   2.222  1.00  0.00     0.002 A 
ATOM     22  C   UNL     1      -0.717  -0.048   3.068  1.00  0.00     0.018 A 
ATOM     23  Br  UNL     1      -0.473  -2.844   2.672  1.00  0.00    -0.049 Br
ATOM     24  C   UNL     1      -0.360   1.296   2.953  1.00  0.00     0.001 A 
ENDBRANCH  16  18
ENDBRANCH  11  12
ENDBRANCH   6  11
ENDBRANCH   3   6
ENDBRANCH   1   2
BRANCH   1  25
ATOM     25  C   UNL     1      -3.478  -4.129  -1.072  1.00  0.00     0.042 C 
BRANCH  25  26
ATOM     26  C   UNL     1      -4.960  -4.399  -0.860  1.00  0.00     0.118 C 
BRANCH  26  27
ATOM     27  N   UNL     1      -5.604  -4.934  -2.050  1.00  0.00    -0.352 N 
ATOM     28  C   UNL     1      -6.247  -6.128  -2.252  1.00  0.00     0.251 C 
ATOM     29  H   UNL     1      -5.574  -4.343  -2.837  1.00  0.00     0.163 HD
ATOM     30  O   UNL     1      -6.538  -6.470  -3.394  1.00  0.00    -0.269 OA
BRANCH  28  31
ATOM     31  C   UNL     1      -6.590  -7.006  -1.113  1.00  0.00     0.039 A 
ATOM     32  C   UNL     1      -6.509  -8.390  -1.287  1.00  0.00     0.014 A 
ATOM     33  C   UNL     1      -7.051  -6.482   0.098  1.00  0.00     0.014 A 
ATOM     34  C   UNL     1      -6.862  -9.243  -0.240  1.00  0.00     0.010 A 
ATOM     35  C   UNL     1      -7.314  -7.329   1.170  1.00  0.00     0.010 A 
ATOM     36  C   UNL     1      -7.254  -8.718   1.002  1.00  0.00    -0.014 A 
BRANCH  36  37
ATOM     37  C   UNL     1      -7.663  -9.612   2.111  1.00  0.00     0.031 A 
ATOM     38  C   UNL     1      -9.083  -9.591   2.611  1.00  0.00     0.074 A 
ATOM     39  C   UNL     1      -6.754 -10.419   2.690  1.00  0.00     0.049 A 
ATOM     40  N   UNL     1      -9.633 -10.296   3.567  1.00  0.00    -0.248 NA
ATOM     41  C   UNL     1     -10.000  -8.633   1.971  1.00  0.00     0.031 C 
ATOM     42  C   UNL     1      -5.336 -10.496   2.332  1.00  0.00     0.029 A 
ATOM     43  N   UNL     1      -6.893 -11.336   3.701  1.00  0.00    -0.354 N 
ATOM     44  C   UNL     1     -10.946  -9.850   3.657  1.00  0.00     0.074 A 
ATOM     45  C   UNL     1     -11.097  -8.780   2.697  1.00  0.00     0.031 C 
ATOM     46  C   UNL     1      -4.745 -11.438   3.085  1.00  0.00     0.029 A 
ATOM     47  C   UNL     1      -5.733 -12.010   3.993  1.00  0.00     0.049 A 
ATOM     48  H   UNL     1      -7.743 -11.494   4.172  1.00  0.00     0.167 HD
ATOM     49  C   UNL     1     -11.946 -10.306   4.447  1.00  0.00     0.031 A 
ATOM     50  C   UNL     1      -5.498 -12.991   4.884  1.00  0.00     0.031 A 
ATOM     51  C   UNL     1     -11.805 -11.388   5.383  1.00  0.00     0.049 A 
ATOM     52  C   UNL     1      -6.634 -13.509   5.721  1.00  0.00     0.074 A 
ATOM     53  C   UNL     1     -12.769 -11.960   6.194  1.00  0.00     0.029 A 
ATOM     54  N   UNL     1     -10.621 -12.068   5.624  1.00  0.00    -0.354 N 
ATOM     55  N   UNL     1      -7.886 -13.121   5.747  1.00  0.00    -0.248 NA
ATOM     56  C   UNL     1      -6.326 -14.619   6.633  1.00  0.00     0.031 C 
ATOM     57  C   UNL     1     -12.159 -12.968   6.950  1.00  0.00     0.029 A 
ATOM     58  C   UNL     1     -10.828 -13.052   6.575  1.00  0.00     0.049 A 
ATOM     59  H   UNL     1      -9.761 -11.879   5.183  1.00  0.00     0.167 HD
ATOM     60  C   UNL     1      -8.522 -13.959   6.653  1.00  0.00     0.074 A 
ATOM     61  C   UNL     1      -7.520 -14.885   7.142  1.00  0.00     0.031 C 
ATOM     62  C   UNL     1      -9.820 -13.965   7.044  1.00  0.00     0.031 A 
BRANCH  49  63
ATOM     63  C   UNL     1     -13.282  -9.628   4.325  1.00  0.00    -0.014 A 
ATOM     64  C   UNL     1     -14.079  -9.794   3.180  1.00  0.00     0.009 A 
ATOM     65  C   UNL     1     -13.758  -8.824   5.372  1.00  0.00     0.009 A 
ATOM     66  C   UNL     1     -15.305  -9.135   3.069  1.00  0.00     0.001 A 
ATOM     67  C   UNL     1     -14.998  -8.190   5.271  1.00  0.00     0.001 A 
ATOM     68  C   UNL     1     -15.765  -8.337   4.116  1.00  0.00     0.000 A 
ENDBRANCH  49  63
BRANCH  50  69
ATOM     69  C   UNL     1      -4.142 -13.586   4.993  1.00  0.00    -0.014 A 
ATOM     70  C   UNL     1      -3.893 -14.877   4.501  1.00  0.00     0.009 A 
ATOM     71  C   UNL     1      -3.093 -12.871   5.589  1.00  0.00     0.009 A 
ATOM     72  C   UNL     1      -2.626 -15.450   4.630  1.00  0.00     0.001 A 
ATOM     73  C   UNL     1      -1.821 -13.438   5.694  1.00  0.00     0.001 A 
ATOM     74  C   UNL     1      -1.591 -14.730   5.223  1.00  0.00     0.000 A 
ENDBRANCH  50  69
BRANCH  62  75
ATOM     75  C   UNL     1     -10.234 -15.034   8.014  1.00  0.00    -0.014 A 
ATOM     76  C   UNL     1      -9.847 -14.987   9.362  1.00  0.00     0.009 A 
ATOM     77  C   UNL     1     -11.041 -16.093   7.572  1.00  0.00     0.009 A 
ATOM     78  C   UNL     1     -10.227 -16.004  10.239  1.00  0.00     0.001 A 
ATOM     79  C   UNL     1     -11.442 -17.094   8.457  1.00  0.00     0.001 A 
ATOM     80  C   UNL     1     -11.026 -17.054   9.787  1.00  0.00     0.000 A 
ENDBRANCH  62  75
ENDBRANCH  36  37
ENDBRANCH  28  31
ENDBRANCH  26  27
ENDBRANCH  25  26
ENDBRANCH   1  25
TORSDOF 15
