REMARK SMILES Cc1cccc(NC(=O)C[C@@H]2CCCCO2)c1C(=O)NCCCNC(=O)c1ccc(-c2c3nc(c(-c4ccccc4)c4ccc([nH]4)c(-c4ccccc4)c4nc(c(-c5ccccc5)c5ccc2[nH]5)C=C4)C=C3)cc1
REMARK SMILES IDX 21 1 20 2 18 3 19 4 17 6 1 7 2 8 3 9 4 10 6 11 5 12 7 13
REMARK SMILES IDX 8 14 9 16 10 17 11 18 12 19 16 20 13 21 15 22 14 23 22 24
REMARK SMILES IDX 23 25 24 26 25 27 26 29 27 30 28 31 74 32 29 33 73 34 30 35
REMARK SMILES IDX 31 36 32 37 67 38 33 39 72 40 66 41 68 42 34 43 71 44 65 45
REMARK SMILES IDX 64 46 35 48 57 49 42 50 56 51 43 52 46 53 55 54 69 55 44 56
REMARK SMILES IDX 45 57 54 59 70 60 47 61 36 62 37 63 41 64 38 65 40 66 39 67
REMARK SMILES IDX 58 68 59 69 63 70 60 71 62 72 61 73 48 74 49 75 53 76 50 77
REMARK SMILES IDX 52 78 51 79
REMARK H PARENT 20 5 7 15 24 28 68 47 46 58
REMARK Flexibility Score: inf
ROOT
ATOM      1  C   UNL     1       3.553   1.382   0.368  1.00  0.00     0.118 C 
ENDROOT
BRANCH   1   2
ATOM      2  N   UNL     1       2.489   2.208  -0.186  1.00  0.00    -0.352 N 
ATOM      3  C   UNL     1       1.119   2.071  -0.218  1.00  0.00     0.253 C 
ATOM      4  O   UNL     1       0.483   2.986  -0.743  1.00  0.00    -0.269 OA
ATOM      5  H   UNL     1       2.814   3.027  -0.625  1.00  0.00     0.163 HD
BRANCH   3   6
ATOM      6  C   UNL     1       0.387   0.954   0.466  1.00  0.00     0.066 A 
ATOM      7  C   UNL     1       1.604  -0.981  -0.680  1.00  0.00     0.045 C 
ATOM      8  C   UNL     1       0.791  -0.396   0.437  1.00  0.00    -0.036 A 
ATOM      9  C   UNL     1       0.223  -1.317   1.336  1.00  0.00     0.004 A 
ATOM     10  C   UNL     1      -0.827  -0.941   2.161  1.00  0.00     0.002 A 
ATOM     11  C   UNL     1      -0.865   1.224   1.070  1.00  0.00     0.054 A 
ATOM     12  C   UNL     1      -1.397   0.317   1.995  1.00  0.00     0.027 A 
BRANCH  11  13
ATOM     13  N   UNL     1      -1.639   2.319   0.615  1.00  0.00    -0.325 N 
ATOM     14  C   UNL     1      -2.946   2.351   0.181  1.00  0.00     0.227 C 
ATOM     15  H   UNL     1      -1.174   3.187   0.607  1.00  0.00     0.169 HD
ATOM     16  O   UNL     1      -3.411   3.421  -0.224  1.00  0.00    -0.275 OA
BRANCH  14  17
ATOM     17  C   UNL     1      -3.812   1.101   0.149  1.00  0.00     0.132 C 
BRANCH  17  18
ATOM     18  C   UNL     1      -4.133   0.570  -1.262  1.00  0.00     0.127 C 
ATOM     19  C   UNL     1      -4.896  -0.766  -1.196  1.00  0.00     0.033 C 
ATOM     20  O   UNL     1      -3.006   0.406  -2.128  1.00  0.00    -0.378 OA
ATOM     21  C   UNL     1      -3.995  -1.917  -0.744  1.00  0.00     0.005 C 
ATOM     22  C   UNL     1      -2.097  -0.622  -1.767  1.00  0.00     0.160 C 
ATOM     23  C   UNL     1      -2.744  -1.987  -1.607  1.00  0.00     0.029 C 
ENDBRANCH  17  18
ENDBRANCH  14  17
ENDBRANCH  11  13
ENDBRANCH   3   6
ENDBRANCH   1   2
BRANCH   1  24
ATOM     24  C   UNL     1       4.289   0.621  -0.739  1.00  0.00     0.042 C 
BRANCH  24  25
ATOM     25  C   UNL     1       5.576   1.268  -1.218  1.00  0.00     0.118 C 
BRANCH  25  26
ATOM     26  N   UNL     1       6.758   0.423  -1.020  1.00  0.00    -0.352 N 
ATOM     27  C   UNL     1       8.064   0.679  -1.412  1.00  0.00     0.251 C 
ATOM     28  H   UNL     1       6.606  -0.430  -0.554  1.00  0.00     0.163 HD
ATOM     29  O   UNL     1       8.982  -0.058  -1.103  1.00  0.00    -0.269 OA
BRANCH  27  30
ATOM     30  C   UNL     1       8.314   1.964  -2.102  1.00  0.00     0.039 A 
ATOM     31  C   UNL     1       9.014   2.929  -1.378  1.00  0.00     0.014 A 
ATOM     32  C   UNL     1       7.510   2.308  -3.185  1.00  0.00     0.014 A 
ATOM     33  C   UNL     1       8.669   4.263  -1.546  1.00  0.00     0.010 A 
ATOM     34  C   UNL     1       7.099   3.623  -3.288  1.00  0.00     0.010 A 
ATOM     35  C   UNL     1       7.616   4.581  -2.408  1.00  0.00    -0.014 A 
BRANCH  35  36
ATOM     36  C   UNL     1       6.968   5.885  -2.382  1.00  0.00     0.031 A 
ATOM     37  C   UNL     1       7.374   6.895  -3.371  1.00  0.00     0.074 A 
ATOM     38  C   UNL     1       6.087   6.238  -1.418  1.00  0.00     0.049 A 
ATOM     39  N   UNL     1       7.519   8.150  -3.103  1.00  0.00    -0.248 NA
ATOM     40  C   UNL     1       7.711   6.540  -4.742  1.00  0.00     0.031 C 
ATOM     41  C   UNL     1       5.335   7.489  -1.341  1.00  0.00     0.029 A 
ATOM     42  N   UNL     1       5.882   5.647  -0.172  1.00  0.00    -0.354 N 
ATOM     43  C   UNL     1       7.647   8.796  -4.308  1.00  0.00     0.074 A 
ATOM     44  C   UNL     1       7.875   7.750  -5.280  1.00  0.00     0.031 C 
ATOM     45  C   UNL     1       5.050   7.736  -0.053  1.00  0.00     0.029 A 
ATOM     46  C   UNL     1       5.683   6.698   0.741  1.00  0.00     0.049 A 
ATOM     47  H   UNL     1       5.878   4.683   0.029  1.00  0.00     0.167 HD
ATOM     48  C   UNL     1       7.380  10.129  -4.399  1.00  0.00     0.031 A 
ATOM     49  C   UNL     1       6.446   6.890   1.855  1.00  0.00     0.031 A 
ATOM     50  C   UNL     1       7.005  10.715  -3.111  1.00  0.00     0.049 A 
ATOM     51  C   UNL     1       7.139   8.238   1.895  1.00  0.00     0.074 A 
ATOM     52  C   UNL     1       5.794  11.099  -2.556  1.00  0.00     0.029 A 
ATOM     53  N   UNL     1       7.920  10.714  -2.067  1.00  0.00    -0.354 N 
ATOM     54  N   UNL     1       7.069   9.136   0.954  1.00  0.00    -0.248 NA
ATOM     55  C   UNL     1       8.074   8.620   2.950  1.00  0.00     0.031 C 
ATOM     56  C   UNL     1       5.992  11.337  -1.169  1.00  0.00     0.029 A 
ATOM     57  C   UNL     1       7.323  11.107  -0.881  1.00  0.00     0.049 A 
ATOM     58  H   UNL     1       8.868  10.467  -2.158  1.00  0.00     0.167 HD
ATOM     59  C   UNL     1       7.952  10.158   1.214  1.00  0.00     0.074 A 
ATOM     60  C   UNL     1       8.556   9.783   2.480  1.00  0.00     0.031 C 
ATOM     61  C   UNL     1       8.131  11.191   0.333  1.00  0.00     0.031 A 
BRANCH  48  62
ATOM     62  C   UNL     1       7.157  10.807  -5.730  1.00  0.00    -0.014 A 
ATOM     63  C   UNL     1       6.248  11.874  -5.830  1.00  0.00     0.009 A 
ATOM     64  C   UNL     1       7.768  10.404  -6.930  1.00  0.00     0.009 A 
ATOM     65  C   UNL     1       5.876  12.418  -7.066  1.00  0.00     0.001 A 
ATOM     66  C   UNL     1       7.364  10.905  -8.175  1.00  0.00     0.001 A 
ATOM     67  C   UNL     1       6.404  11.905  -8.243  1.00  0.00     0.000 A 
ENDBRANCH  48  62
BRANCH  49  68
ATOM     68  C   UNL     1       7.008   5.630   2.410  1.00  0.00    -0.014 A 
ATOM     69  C   UNL     1       6.106   4.704   2.972  1.00  0.00     0.009 A 
ATOM     70  C   UNL     1       8.276   5.182   2.016  1.00  0.00     0.009 A 
ATOM     71  C   UNL     1       6.409   3.341   2.996  1.00  0.00     0.001 A 
ATOM     72  C   UNL     1       8.577   3.817   2.055  1.00  0.00     0.001 A 
ATOM     73  C   UNL     1       7.629   2.894   2.498  1.00  0.00     0.000 A 
ENDBRANCH  49  68
BRANCH  61  74
ATOM     74  C   UNL     1       9.077  12.374   0.471  1.00  0.00    -0.014 A 
ATOM     75  C   UNL     1       9.748  12.750   1.640  1.00  0.00     0.009 A 
ATOM     76  C   UNL     1       9.279  13.223  -0.647  1.00  0.00     0.009 A 
ATOM     77  C   UNL     1      10.627  13.846   1.670  1.00  0.00     0.001 A 
ATOM     78  C   UNL     1      10.142  14.322  -0.623  1.00  0.00     0.001 A 
ATOM     79  C   UNL     1      10.832  14.626   0.537  1.00  0.00     0.000 A 
ENDBRANCH  61  74
ENDBRANCH  35  36
ENDBRANCH  27  30
ENDBRANCH  25  26
ENDBRANCH  24  25
ENDBRANCH   1  24
TORSDOF 13
