REMARK SMILES O=C(CCC(=O)Nc1ncc([N+](=O)[O-])s1)NCCCNC(=O)c1ccc(-c2c3nc(c(-c4ccccc4)c4ccc([nH]4)c(-c4ccccc4)c4nc(c(-c5ccccc5)c5ccc2[nH]5)C=C4)C=C3)cc1
REMARK SMILES IDX 17 1 16 2 1 3 2 4 3 6 4 7 5 8 6 9 7 10 8 12 9 13 15 14 10 15
REMARK SMILES IDX 11 16 12 17 13 18 14 19 18 20 19 21 20 22 21 23 22 25 23 26
REMARK SMILES IDX 24 27 70 28 25 29 69 30 26 31 27 32 28 33 63 34 29 35 68 36
REMARK SMILES IDX 62 37 64 38 30 39 67 40 61 41 60 42 31 44 53 45 38 46 52 47
REMARK SMILES IDX 39 48 42 49 51 50 65 51 40 52 41 53 50 55 66 56 43 57 32 58
REMARK SMILES IDX 33 59 37 60 34 61 36 62 35 63 54 64 55 65 59 66 56 67 58 68
REMARK SMILES IDX 57 69 44 70 45 71 49 72 46 73 48 74 47 75
REMARK H PARENT 16 5 7 11 20 24 64 43 42 54
REMARK Flexibility Score: inf
ROOT
ATOM      1  C   UNL     1       2.254  -2.134   1.190  1.00  0.00     0.117 C 
ENDROOT
BRANCH   1   2
ATOM      2  N   UNL     1       3.071  -1.291   0.343  1.00  0.00    -0.356 N 
ATOM      3  O   UNL     1       1.331  -0.372  -0.846  1.00  0.00    -0.275 OA
ATOM      4  C   UNL     1       2.522  -0.406  -0.561  1.00  0.00     0.220 C 
ATOM      5  H   UNL     1       4.051  -1.353   0.414  1.00  0.00     0.163 HD
BRANCH   4   6
ATOM      6  C   UNL     1       3.530   0.558  -1.151  1.00  0.00     0.110 C 
BRANCH   6   7
ATOM      7  C   UNL     1       3.802   1.752  -0.238  1.00  0.00     0.110 C 
BRANCH   7   8
ATOM      8  C   UNL     1       4.531   1.354   1.032  1.00  0.00     0.226 C 
ATOM      9  O   UNL     1       5.727   1.044   0.974  1.00  0.00    -0.275 OA
ATOM     10  N   UNL     1       3.915   1.246   2.240  1.00  0.00    -0.302 N 
ATOM     11  H   UNL     1       4.498   1.148   3.027  1.00  0.00     0.172 HD
BRANCH  10  12
ATOM     12  C   UNL     1       2.572   1.261   2.471  1.00  0.00     0.195 A 
ATOM     13  N   UNL     1       1.600   1.516   1.637  1.00  0.00    -0.221 NA
ATOM     14  S   UNL     1       2.113   0.718   4.027  1.00  0.00    -0.024 S 
ATOM     15  C   UNL     1       0.399   1.111   2.192  1.00  0.00     0.212 A 
ATOM     16  C   UNL     1       0.506   0.614   3.469  1.00  0.00     0.345 A 
BRANCH  16  17
ATOM     17  N   UNL     1      -0.532   0.026   4.252  1.00  0.00     0.076 N 
ATOM     18  O   UNL     1      -0.276  -0.278   5.423  1.00  0.00    -0.257 OA
ATOM     19  O   UNL     1      -1.615  -0.154   3.681  1.00  0.00    -0.257 OA
ENDBRANCH  16  17
ENDBRANCH  10  12
ENDBRANCH   7   8
ENDBRANCH   6   7
ENDBRANCH   4   6
ENDBRANCH   1   2
BRANCH   1  20
ATOM     20  C   UNL     1       2.685  -3.589   1.198  1.00  0.00     0.042 C 
BRANCH  20  21
ATOM     21  C   UNL     1       4.143  -3.826   1.572  1.00  0.00     0.118 C 
BRANCH  21  22
ATOM     22  N   UNL     1       4.512  -3.351   2.901  1.00  0.00    -0.352 N 
ATOM     23  C   UNL     1       5.201  -4.000   3.904  1.00  0.00     0.251 C 
ATOM     24  H   UNL     1       4.228  -2.433   3.112  1.00  0.00     0.163 HD
ATOM     25  O   UNL     1       5.373  -3.452   4.984  1.00  0.00    -0.269 OA
BRANCH  23  26
ATOM     26  C   UNL     1       5.676  -5.384   3.684  1.00  0.00     0.039 A 
ATOM     27  C   UNL     1       5.372  -6.360   4.637  1.00  0.00     0.014 A 
ATOM     28  C   UNL     1       6.341  -5.734   2.508  1.00  0.00     0.014 A 
ATOM     29  C   UNL     1       5.620  -7.705   4.351  1.00  0.00     0.010 A 
ATOM     30  C   UNL     1       6.506  -7.077   2.187  1.00  0.00     0.010 A 
ATOM     31  C   UNL     1       6.122  -8.078   3.094  1.00  0.00    -0.014 A 
BRANCH  31  32
ATOM     32  C   UNL     1       6.199  -9.502   2.674  1.00  0.00     0.031 A 
ATOM     33  C   UNL     1       7.518 -10.114   2.298  1.00  0.00     0.074 A 
ATOM     34  C   UNL     1       5.063 -10.213   2.522  1.00  0.00     0.049 A 
ATOM     35  N   UNL     1       7.763 -11.290   1.777  1.00  0.00    -0.248 NA
ATOM     36  C   UNL     1       8.716  -9.284   2.502  1.00  0.00     0.031 C 
ATOM     37  C   UNL     1       3.708  -9.727   2.799  1.00  0.00     0.029 A 
ATOM     38  N   UNL     1       4.867 -11.498   2.078  1.00  0.00    -0.354 N 
ATOM     39  C   UNL     1       9.135 -11.328   1.562  1.00  0.00     0.074 A 
ATOM     40  C   UNL     1       9.663 -10.045   1.974  1.00  0.00     0.031 C 
ATOM     41  C   UNL     1       2.827 -10.708   2.544  1.00  0.00     0.029 A 
ATOM     42  C   UNL     1       3.546 -11.874   2.044  1.00  0.00     0.049 A 
ATOM     43  H   UNL     1       5.604 -12.094   1.810  1.00  0.00     0.167 HD
ATOM     44  C   UNL     1       9.890 -12.342   1.078  1.00  0.00     0.031 A 
ATOM     45  C   UNL     1       2.972 -13.023   1.641  1.00  0.00     0.031 A 
ATOM     46  C   UNL     1       9.377 -13.629   0.696  1.00  0.00     0.049 A 
ATOM     47  C   UNL     1       3.833 -14.137   1.120  1.00  0.00     0.074 A 
ATOM     48  C   UNL     1      10.077 -14.744   0.267  1.00  0.00     0.029 A 
ATOM     49  N   UNL     1       8.035 -13.976   0.699  1.00  0.00    -0.354 N 
ATOM     50  N   UNL     1       5.135 -14.175   0.976  1.00  0.00    -0.248 NA
ATOM     51  C   UNL     1       3.143 -15.367   0.705  1.00  0.00     0.031 C 
ATOM     52  C   UNL     1       9.154 -15.755  -0.024  1.00  0.00     0.029 A 
ATOM     53  C   UNL     1       7.884 -15.280   0.261  1.00  0.00     0.049 A 
ATOM     54  H   UNL     1       7.299 -13.382   0.972  1.00  0.00     0.167 HD
ATOM     55  C   UNL     1       5.422 -15.435   0.471  1.00  0.00     0.074 A 
ATOM     56  C   UNL     1       4.161 -16.138   0.348  1.00  0.00     0.031 C 
ATOM     57  C   UNL     1       6.624 -15.963   0.138  1.00  0.00     0.031 A 
BRANCH  44  58
ATOM     58  C   UNL     1      11.364 -12.092   0.935  1.00  0.00    -0.014 A 
ATOM     59  C   UNL     1      12.200 -12.020   2.060  1.00  0.00     0.009 A 
ATOM     60  C   UNL     1      11.927 -11.952  -0.343  1.00  0.00     0.009 A 
ATOM     61  C   UNL     1      13.566 -11.776   1.910  1.00  0.00     0.001 A 
ATOM     62  C   UNL     1      13.298 -11.732  -0.490  1.00  0.00     0.001 A 
ATOM     63  C   UNL     1      14.114 -11.636   0.636  1.00  0.00     0.000 A 
ENDBRANCH  44  58
BRANCH  45  64
ATOM     64  C   UNL     1       1.498 -13.186   1.723  1.00  0.00    -0.014 A 
ATOM     65  C   UNL     1       0.933 -14.004   2.713  1.00  0.00     0.009 A 
ATOM     66  C   UNL     1       0.653 -12.533   0.814  1.00  0.00     0.009 A 
ATOM     67  C   UNL     1      -0.451 -14.181   2.778  1.00  0.00     0.001 A 
ATOM     68  C   UNL     1      -0.732 -12.694   0.896  1.00  0.00     0.001 A 
ATOM     69  C   UNL     1      -1.282 -13.523   1.872  1.00  0.00     0.000 A 
ENDBRANCH  45  64
BRANCH  57  70
ATOM     70  C   UNL     1       6.632 -17.374  -0.372  1.00  0.00    -0.014 A 
ATOM     71  C   UNL     1       6.215 -17.672  -1.678  1.00  0.00     0.009 A 
ATOM     72  C   UNL     1       7.096 -18.410   0.452  1.00  0.00     0.009 A 
ATOM     73  C   UNL     1       6.237 -18.990  -2.140  1.00  0.00     0.001 A 
ATOM     74  C   UNL     1       7.138 -19.723  -0.021  1.00  0.00     0.001 A 
ATOM     75  C   UNL     1       6.702 -20.012  -1.313  1.00  0.00     0.000 A 
ENDBRANCH  57  70
ENDBRANCH  31  32
ENDBRANCH  23  26
ENDBRANCH  21  22
ENDBRANCH  20  21
ENDBRANCH   1  20
TORSDOF 14
