REMARK SMILES Cc1cc(C(=O)N[C@@H]2C(=O)N3C(C(=O)NCCCNC(=O)c4ccc(-c5c6nc(c(-c7ccccc7)c7ccc([nH]7)c(-c7ccccc7)c7nc(c(-c8ccccc8)c8ccc5[nH]8)C=C7)C=C6)cc4)=C(CSc4nnc(C)s4)CS[C@H]23)n(C)n1
REMARK SMILES IDX 16 1 15 2 13 3 14 4 12 6 8 7 9 8 81 9 10 10 11 11 80 12
REMARK SMILES IDX 79 13 70 14 7 15 5 16 6 17 4 19 1 20 2 21 3 22 84 23 82 24
REMARK SMILES IDX 83 25 71 26 72 27 73 28 74 29 78 30 75 31 76 32 77 33 17 34
REMARK SMILES IDX 18 35 19 36 20 37 21 39 22 40 23 41 69 42 24 43 68 44 25 45
REMARK SMILES IDX 26 46 27 47 62 48 28 49 67 50 61 51 63 52 29 53 66 54 60 55
REMARK SMILES IDX 59 56 30 58 52 59 37 60 51 61 38 62 41 63 50 64 64 65 39 66
REMARK SMILES IDX 40 67 49 69 65 70 42 71 31 72 32 73 36 74 33 75 35 76 34 77
REMARK SMILES IDX 53 78 54 79 58 80 55 81 57 82 56 83 43 84 44 85 48 86 45 87
REMARK SMILES IDX 47 88 46 89
REMARK H PARENT 15 5 7 18 19 38 63 57 41 68
REMARK Flexibility Score: inf
ROOT
ATOM      1  C   UNL     1      -4.134  -0.683  -4.613  1.00  0.00     0.118 C 
ENDROOT
BRANCH   1   2
ATOM      2  N   UNL     1      -3.389  -0.430  -3.393  1.00  0.00    -0.351 N 
ATOM      3  C   UNL     1      -2.704  -1.166  -2.478  1.00  0.00     0.268 C 
ATOM      4  O   UNL     1      -2.047  -0.465  -1.698  1.00  0.00    -0.268 OA
ATOM      5  H   UNL     1      -3.377   0.529  -3.168  1.00  0.00     0.163 HD
BRANCH   3   6
ATOM      6  C   UNL     1      -2.534  -2.696  -2.465  1.00  0.00     0.111 C 
ATOM      7  C   UNL     1      -0.121  -4.053  -0.402  1.00  0.00     0.206 C 
ATOM      8  C   UNL     1      -1.097  -2.840  -0.413  1.00  0.00     0.253 C 
ATOM      9  C   UNL     1      -0.918  -4.465  -1.671  1.00  0.00     0.181 C 
ATOM     10  O   UNL     1      -1.495  -2.071   0.438  1.00  0.00    -0.272 OA
ATOM     11  N   UNL     1      -1.433  -3.107  -1.718  1.00  0.00    -0.290 N 
ATOM     12  S   UNL     1      -2.302  -5.624  -1.428  1.00  0.00    -0.129 SA
ATOM     13  C   UNL     1      -2.989  -5.128  -3.006  1.00  0.00     0.106 C 
ATOM     14  C   UNL     1      -3.384  -3.664  -2.931  1.00  0.00    -0.020 C 
BRANCH   7  15
ATOM     15  N   UNL     1      -0.113  -4.935   0.798  1.00  0.00    -0.336 N 
ATOM     16  C   UNL     1       0.217  -6.274   0.912  1.00  0.00     0.270 C 
ATOM     17  O   UNL     1       0.170  -6.779   2.032  1.00  0.00    -0.268 OA
ATOM     18  H   UNL     1      -0.384  -4.499   1.638  1.00  0.00     0.164 HD
BRANCH  16  19
ATOM     19  C   UNL     1       0.521  -7.026  -0.286  1.00  0.00     0.126 A 
ATOM     20  C   UNL     1       0.659  -7.420  -3.901  1.00  0.00     0.069 C 
ATOM     21  C   UNL     1       0.688  -7.574  -2.426  1.00  0.00     0.060 A 
ATOM     22  C   UNL     1       1.152  -6.652  -1.463  1.00  0.00     0.059 A 
ATOM     23  N   UNL     1       0.132  -8.636  -1.844  1.00  0.00    -0.178 NA
ATOM     24  N   UNL     1       0.139  -8.329  -0.526  1.00  0.00    -0.263 N 
ATOM     25  C   UNL     1      -0.318  -9.341   0.397  1.00  0.00     0.174 C 
ENDBRANCH  16  19
ENDBRANCH   7  15
BRANCH  14  26
ATOM     26  C   UNL     1      -4.880  -3.526  -3.110  1.00  0.00     0.111 C 
BRANCH  26  27
ATOM     27  S   UNL     1      -5.531  -2.618  -1.703  1.00  0.00    -0.089 SA
BRANCH  27  28
ATOM     28  C   UNL     1      -6.908  -3.501  -1.175  1.00  0.00     0.174 A 
ATOM     29  N   UNL     1      -6.880  -4.771  -0.844  1.00  0.00    -0.132 NA
ATOM     30  S   UNL     1      -8.270  -2.647  -0.590  1.00  0.00    -0.091 S 
ATOM     31  N   UNL     1      -7.759  -5.015   0.201  1.00  0.00    -0.143 NA
ATOM     32  C   UNL     1      -8.389  -3.913   0.561  1.00  0.00     0.115 A 
ATOM     33  C   UNL     1      -9.017  -3.654   1.875  1.00  0.00     0.081 C 
ENDBRANCH  27  28
ENDBRANCH  26  27
ENDBRANCH  14  26
ENDBRANCH   3   6
ENDBRANCH   1   2
BRANCH   1  34
ATOM     34  C   UNL     1      -5.641  -0.547  -4.384  1.00  0.00     0.042 C 
BRANCH  34  35
ATOM     35  C   UNL     1      -6.230   0.837  -4.580  1.00  0.00     0.118 C 
BRANCH  35  36
ATOM     36  N   UNL     1      -6.517   1.113  -5.973  1.00  0.00    -0.352 N 
ATOM     37  C   UNL     1      -7.713   1.182  -6.646  1.00  0.00     0.251 C 
ATOM     38  H   UNL     1      -5.723   1.277  -6.531  1.00  0.00     0.163 HD
ATOM     39  O   UNL     1      -7.694   1.190  -7.875  1.00  0.00    -0.269 OA
BRANCH  37  40
ATOM     40  C   UNL     1      -9.021   1.230  -5.938  1.00  0.00     0.039 A 
ATOM     41  C   UNL     1     -10.135   0.652  -6.560  1.00  0.00     0.014 A 
ATOM     42  C   UNL     1      -9.193   1.889  -4.719  1.00  0.00     0.014 A 
ATOM     43  C   UNL     1     -11.392   0.703  -5.947  1.00  0.00     0.010 A 
ATOM     44  C   UNL     1     -10.421   1.846  -4.058  1.00  0.00     0.010 A 
ATOM     45  C   UNL     1     -11.543   1.277  -4.675  1.00  0.00    -0.014 A 
BRANCH  45  46
ATOM     46  C   UNL     1     -12.869   1.334  -4.002  1.00  0.00     0.031 A 
ATOM     47  C   UNL     1     -13.495   2.664  -3.669  1.00  0.00     0.074 A 
ATOM     48  C   UNL     1     -13.500   0.193  -3.659  1.00  0.00     0.049 A 
ATOM     49  N   UNL     1     -14.620   2.917  -3.046  1.00  0.00    -0.248 NA
ATOM     50  C   UNL     1     -12.749   3.870  -4.065  1.00  0.00     0.031 C 
ATOM     51  C   UNL     1     -12.995  -1.161  -3.898  1.00  0.00     0.029 A 
ATOM     52  N   UNL     1     -14.709  -0.009  -3.040  1.00  0.00    -0.354 N 
ATOM     53  C   UNL     1     -14.704   4.302  -2.963  1.00  0.00     0.074 A 
ATOM     54  C   UNL     1     -13.492   4.835  -3.543  1.00  0.00     0.031 C 
ATOM     55  C   UNL     1     -13.906  -2.051  -3.473  1.00  0.00     0.029 A 
ATOM     56  C   UNL     1     -15.036  -1.335  -2.889  1.00  0.00     0.049 A 
ATOM     57  H   UNL     1     -15.286   0.727  -2.732  1.00  0.00     0.167 HD
ATOM     58  C   UNL     1     -15.709   5.067  -2.475  1.00  0.00     0.031 A 
ATOM     59  C   UNL     1     -16.123  -1.912  -2.344  1.00  0.00     0.031 A 
ATOM     60  C   UNL     1     -16.923   4.543  -1.910  1.00  0.00     0.049 A 
ATOM     61  C   UNL     1     -17.216  -1.043  -1.786  1.00  0.00     0.074 A 
ATOM     62  C   UNL     1     -18.016   5.236  -1.419  1.00  0.00     0.029 A 
ATOM     63  N   UNL     1     -17.206   3.194  -1.765  1.00  0.00    -0.354 N 
ATOM     64  N   UNL     1     -17.293   0.265  -1.750  1.00  0.00    -0.248 NA
ATOM     65  C   UNL     1     -18.376  -1.733  -1.204  1.00  0.00     0.031 C 
ATOM     66  C   UNL     1     -18.940   4.305  -0.933  1.00  0.00     0.029 A 
ATOM     67  C   UNL     1     -18.449   3.033  -1.178  1.00  0.00     0.049 A 
ATOM     68  H   UNL     1     -16.611   2.459  -2.040  1.00  0.00     0.167 HD
ATOM     69  C   UNL     1     -18.520   0.555  -1.168  1.00  0.00     0.074 A 
ATOM     70  C   UNL     1     -19.159  -0.713  -0.882  1.00  0.00     0.031 C 
ATOM     71  C   UNL     1     -19.070   1.764  -0.896  1.00  0.00     0.031 A 
BRANCH  58  72
ATOM     72  C   UNL     1     -15.536   6.561  -2.534  1.00  0.00    -0.014 A 
ATOM     73  C   UNL     1     -15.558   7.247  -3.760  1.00  0.00     0.009 A 
ATOM     74  C   UNL     1     -15.384   7.299  -1.350  1.00  0.00     0.009 A 
ATOM     75  C   UNL     1     -15.393   8.633  -3.801  1.00  0.00     0.001 A 
ATOM     76  C   UNL     1     -15.252   8.689  -1.391  1.00  0.00     0.001 A 
ATOM     77  C   UNL     1     -15.246   9.353  -2.617  1.00  0.00     0.000 A 
ENDBRANCH  58  72
BRANCH  59  78
ATOM     78  C   UNL     1     -16.246  -3.394  -2.324  1.00  0.00    -0.014 A 
ATOM     79  C   UNL     1     -17.184  -4.040  -3.144  1.00  0.00     0.009 A 
ATOM     80  C   UNL     1     -15.424  -4.171  -1.493  1.00  0.00     0.009 A 
ATOM     81  C   UNL     1     -17.310  -5.431  -3.117  1.00  0.00     0.001 A 
ATOM     82  C   UNL     1     -15.532  -5.564  -1.490  1.00  0.00     0.001 A 
ATOM     83  C   UNL     1     -16.480  -6.192  -2.295  1.00  0.00     0.000 A 
ENDBRANCH  59  78
BRANCH  71  84
ATOM     84  C   UNL     1     -20.445   1.776  -0.290  1.00  0.00    -0.014 A 
ATOM     85  C   UNL     1     -20.660   1.388   1.042  1.00  0.00     0.009 A 
ATOM     86  C   UNL     1     -21.534   2.228  -1.052  1.00  0.00     0.009 A 
ATOM     87  C   UNL     1     -21.945   1.420   1.586  1.00  0.00     0.001 A 
ATOM     88  C   UNL     1     -22.812   2.288  -0.495  1.00  0.00     0.001 A 
ATOM     89  C   UNL     1     -23.018   1.875   0.820  1.00  0.00     0.000 A 
ENDBRANCH  71  84
ENDBRANCH  45  46
ENDBRANCH  37  40
ENDBRANCH  35  36
ENDBRANCH  34  35
ENDBRANCH   1  34
TORSDOF 15
