REMARK SMILES C#CCN(CC(=O)NCCCNC(=O)c1ccc(-c2c3nc(c(-c4ccccc4)c4ccc([nH]4)c(-c4ccccc4)c4nc(c(-c5ccccc5)c5ccc2[nH]5)C=C4)C=C3)cc1)C(=O)NCCc1ccco1
REMARK SMILES IDX 6 1 7 2 8 3 5 5 4 6 3 7 2 8 1 9 63 10 64 11 65 12 66 14
REMARK SMILES IDX 67 15 68 16 69 17 72 18 70 19 71 20 9 21 10 22 11 23 12 24
REMARK SMILES IDX 13 25 14 27 15 28 16 29 62 30 17 31 61 32 18 33 19 34 20 35
REMARK SMILES IDX 55 36 21 37 60 38 54 39 56 40 22 41 59 42 53 43 52 44 23 46
REMARK SMILES IDX 45 47 30 48 44 49 31 50 34 51 43 52 57 53 32 54 33 55 42 57
REMARK SMILES IDX 58 58 35 59 24 60 25 61 29 62 26 63 28 64 27 65 46 66 47 67
REMARK SMILES IDX 51 68 48 69 50 70 49 71 36 72 37 73 41 74 38 75 40 76 39 77
REMARK H PARENT 8 4 65 13 12 26 56 45 34 56
REMARK Flexibility Score: inf
ROOT
ATOM      1  C   UNL     1      -4.713   0.829   1.962  1.00  0.00     0.239 C 
ATOM      2  O   UNL     1      -5.257   1.256   2.985  1.00  0.00    -0.273 OA
ATOM      3  N   UNL     1      -5.522   0.267   1.020  1.00  0.00    -0.354 N 
ATOM      4  H   UNL     1      -6.417   0.009   1.340  1.00  0.00     0.163 HD
ENDROOT
BRANCH   1   5
ATOM      5  C   UNL     1      -3.212   1.061   1.720  1.00  0.00     0.222 C 
BRANCH   5   6
ATOM      6  N   UNL     1      -2.472  -0.115   1.273  1.00  0.00    -0.304 N 
BRANCH   6   7
ATOM      7  C   UNL     1      -1.893  -0.036  -0.063  1.00  0.00     0.211 C 
BRANCH   7   8
ATOM      8  C   UNL     1      -0.373  -0.036  -0.063  1.00  0.00    -0.085 C 
ATOM      9  C   UNL     1       0.931  -0.036  -0.063  1.00  0.00     0.006 C 
ENDBRANCH   7   8
ENDBRANCH   6   7
BRANCH   6  10
ATOM     10  C   UNL     1      -2.259  -1.277   1.959  1.00  0.00     0.318 C 
ATOM     11  O   UNL     1      -1.758  -2.262   1.405  1.00  0.00    -0.249 OA
ATOM     12  N   UNL     1      -2.581  -1.465   3.247  1.00  0.00    -0.337 N 
ATOM     13  H   UNL     1      -2.381  -2.388   3.524  1.00  0.00     0.165 HD
BRANCH  12  14
ATOM     14  C   UNL     1      -3.141  -0.704   4.357  1.00  0.00     0.125 C 
BRANCH  14  15
ATOM     15  C   UNL     1      -4.538  -1.201   4.743  1.00  0.00     0.096 C 
BRANCH  15  16
ATOM     16  C   UNL     1      -4.473  -2.315   5.727  1.00  0.00     0.105 A 
ATOM     17  C   UNL     1      -4.320  -2.345   7.098  1.00  0.00     0.045 A 
ATOM     18  O   UNL     1      -4.587  -3.582   5.240  1.00  0.00    -0.469 OA
ATOM     19  C   UNL     1      -4.341  -3.709   7.470  1.00  0.00     0.042 A 
ATOM     20  C   UNL     1      -4.510  -4.421   6.306  1.00  0.00     0.195 A 
ENDBRANCH  15  16
ENDBRANCH  14  15
ENDBRANCH  12  14
ENDBRANCH   6  10
ENDBRANCH   5   6
ENDBRANCH   1   5
BRANCH   3  21
ATOM     21  C   UNL     1      -5.267  -0.009  -0.379  1.00  0.00     0.117 C 
BRANCH  21  22
ATOM     22  C   UNL     1      -5.091  -1.492  -0.688  1.00  0.00     0.042 C 
BRANCH  22  23
ATOM     23  C   UNL     1      -6.335  -2.345  -0.458  1.00  0.00     0.118 C 
BRANCH  23  24
ATOM     24  N   UNL     1      -7.475  -1.911  -1.257  1.00  0.00    -0.352 N 
ATOM     25  C   UNL     1      -8.140  -2.520  -2.286  1.00  0.00     0.251 C 
ATOM     26  H   UNL     1      -7.827  -1.024  -1.014  1.00  0.00     0.163 HD
ATOM     27  O   UNL     1      -8.951  -1.861  -2.946  1.00  0.00    -0.269 OA
BRANCH  25  28
ATOM     28  C   UNL     1      -7.906  -3.937  -2.636  1.00  0.00     0.039 A 
ATOM     29  C   UNL     1      -7.894  -4.301  -3.987  1.00  0.00     0.014 A 
ATOM     30  C   UNL     1      -7.759  -4.919  -1.653  1.00  0.00     0.014 A 
ATOM     31  C   UNL     1      -7.664  -5.630  -4.353  1.00  0.00     0.010 A 
ATOM     32  C   UNL     1      -7.462  -6.232  -2.019  1.00  0.00     0.010 A 
ATOM     33  C   UNL     1      -7.407  -6.599  -3.371  1.00  0.00    -0.014 A 
BRANCH  33  34
ATOM     34  C   UNL     1      -7.044  -7.991  -3.740  1.00  0.00     0.031 A 
ATOM     35  C   UNL     1      -7.939  -9.141  -3.372  1.00  0.00     0.074 A 
ATOM     36  C   UNL     1      -5.861  -8.226  -4.340  1.00  0.00     0.049 A 
ATOM     37  N   UNL     1      -7.744 -10.425  -3.540  1.00  0.00    -0.248 NA
ATOM     38  C   UNL     1      -9.210  -8.807  -2.711  1.00  0.00     0.031 C 
ATOM     39  C   UNL     1      -4.883  -7.203  -4.716  1.00  0.00     0.029 A 
ATOM     40  N   UNL     1      -5.274  -9.405  -4.727  1.00  0.00    -0.354 N 
ATOM     41  C   UNL     1      -8.853 -11.052  -2.988  1.00  0.00     0.074 A 
ATOM     42  C   UNL     1      -9.702 -10.011  -2.449  1.00  0.00     0.031 C 
ATOM     43  C   UNL     1      -3.827  -7.796  -5.294  1.00  0.00     0.029 A 
ATOM     44  C   UNL     1      -4.032  -9.240  -5.291  1.00  0.00     0.049 A 
ATOM     45  H   UNL     1      -5.701 -10.284  -4.612  1.00  0.00     0.167 HD
ATOM     46  C   UNL     1      -9.146 -12.374  -2.944  1.00  0.00     0.031 A 
ATOM     47  C   UNL     1      -3.148 -10.149  -5.743  1.00  0.00     0.031 A 
ATOM     48  C   UNL     1      -8.307 -13.411  -3.486  1.00  0.00     0.049 A 
ATOM     49  C   UNL     1      -3.489 -11.610  -5.668  1.00  0.00     0.074 A 
ATOM     50  C   UNL     1      -8.550 -14.773  -3.547  1.00  0.00     0.029 A 
ATOM     51  N   UNL     1      -7.060 -13.202  -4.053  1.00  0.00    -0.354 N 
ATOM     52  N   UNL     1      -4.574 -12.181  -5.204  1.00  0.00    -0.248 NA
ATOM     53  C   UNL     1      -2.484 -12.549  -6.184  1.00  0.00     0.031 C 
ATOM     54  C   UNL     1      -7.428 -15.393  -4.107  1.00  0.00     0.029 A 
ATOM     55  C   UNL     1      -6.509 -14.412  -4.441  1.00  0.00     0.049 A 
ATOM     56  H   UNL     1      -6.630 -12.323  -4.164  1.00  0.00     0.167 HD
ATOM     57  C   UNL     1      -4.391 -13.544  -5.389  1.00  0.00     0.074 A 
ATOM     58  C   UNL     1      -3.099 -13.713  -6.024  1.00  0.00     0.031 C 
ATOM     59  C   UNL     1      -5.219 -14.566  -5.061  1.00  0.00     0.031 A 
BRANCH  46  60
ATOM     60  C   UNL     1     -10.429 -12.777  -2.272  1.00  0.00    -0.014 A 
ATOM     61  C   UNL     1     -11.674 -12.518  -2.865  1.00  0.00     0.009 A 
ATOM     62  C   UNL     1     -10.390 -13.458  -1.045  1.00  0.00     0.009 A 
ATOM     63  C   UNL     1     -12.856 -12.900  -2.227  1.00  0.00     0.001 A 
ATOM     64  C   UNL     1     -11.572 -13.864  -0.422  1.00  0.00     0.001 A 
ATOM     65  C   UNL     1     -12.804 -13.576  -1.008  1.00  0.00     0.000 A 
ENDBRANCH  46  60
BRANCH  47  66
ATOM     66  C   UNL     1      -1.852  -9.700  -6.313  1.00  0.00    -0.014 A 
ATOM     67  C   UNL     1      -1.617  -9.784  -7.693  1.00  0.00     0.009 A 
ATOM     68  C   UNL     1      -0.848  -9.180  -5.481  1.00  0.00     0.009 A 
ATOM     69  C   UNL     1      -0.393  -9.375  -8.227  1.00  0.00     0.001 A 
ATOM     70  C   UNL     1       0.364  -8.747  -6.022  1.00  0.00     0.001 A 
ATOM     71  C   UNL     1       0.594  -8.852  -7.393  1.00  0.00     0.000 A 
ENDBRANCH  47  66
BRANCH  59  72
ATOM     72  C   UNL     1      -4.759 -15.954  -5.403  1.00  0.00    -0.014 A 
ATOM     73  C   UNL     1      -3.741 -16.582  -4.669  1.00  0.00     0.009 A 
ATOM     74  C   UNL     1      -5.375 -16.654  -6.452  1.00  0.00     0.009 A 
ATOM     75  C   UNL     1      -3.327 -17.874  -5.002  1.00  0.00     0.001 A 
ATOM     76  C   UNL     1      -4.976 -17.954  -6.765  1.00  0.00     0.001 A 
ATOM     77  C   UNL     1      -3.947 -18.559  -6.045  1.00  0.00     0.000 A 
ENDBRANCH  59  72
ENDBRANCH  33  34
ENDBRANCH  25  28
ENDBRANCH  23  24
ENDBRANCH  22  23
ENDBRANCH  21  22
ENDBRANCH   3  21
TORSDOF 17
