REMARK SMILES Cc1ccc(S(=O)(=O)n2cc(C(=O)C(=O)NCC(=O)NCC(=O)NCCCNC(=O)c3ccc(-c4c5nc(c(-c6ccccc6)c6ccc([nH]6)c(-c6ccccc6)c6nc(c(-c7ccccc7)c7ccc4[nH]7)C=C6)C=C5)cc3)c3ccccc32)cc1
REMARK SMILES IDX 22 1 23 2 24 3 21 5 20 6 18 7 19 8 17 10 16 11 14 12 15 13
REMARK SMILES IDX 12 15 13 16 11 17 9 18 10 19 84 20 79 21 83 22 80 23 82 24
REMARK SMILES IDX 81 25 6 26 7 27 8 28 5 29 1 30 2 31 3 32 86 33 4 34 85 35
REMARK SMILES IDX 25 36 26 37 27 38 28 39 29 40 30 42 31 43 32 44 78 45 33 46
REMARK SMILES IDX 77 47 34 48 35 49 36 50 71 51 37 52 76 53 70 54 72 55 38 56
REMARK SMILES IDX 75 57 69 58 68 59 39 61 61 62 46 63 60 64 47 65 50 66 59 67
REMARK SMILES IDX 73 68 48 69 49 70 58 72 74 73 51 74 40 75 41 76 45 77 42 78
REMARK SMILES IDX 44 79 43 80 62 81 63 82 67 83 64 84 66 85 65 86 52 87 53 88
REMARK SMILES IDX 57 89 54 90 56 91 55 92
REMARK H PARENT 24 4 20 9 16 14 28 41 72 60 50 71
REMARK Flexibility Score: inf
ROOT
ATOM      1  C   UNL     1     -10.133   3.469   1.077  1.00  0.00     0.239 C 
ATOM      2  O   UNL     1     -10.644   2.881   0.121  1.00  0.00    -0.273 OA
ATOM      3  N   UNL     1     -10.147   2.848   2.298  1.00  0.00    -0.355 N 
ATOM      4  H   UNL     1     -10.745   2.071   2.389  1.00  0.00     0.163 HD
ENDROOT
BRANCH   1   5
ATOM      5  C   UNL     1      -9.384   4.806   0.886  1.00  0.00     0.216 C 
BRANCH   5   6
ATOM      6  N   UNL     1      -9.823   5.835   1.816  1.00  0.00    -0.346 N 
ATOM      7  C   UNL     1      -9.153   6.630   2.692  1.00  0.00     0.239 C 
ATOM      8  O   UNL     1      -9.835   7.359   3.419  1.00  0.00    -0.273 OA
ATOM      9  H   UNL     1     -10.796   5.986   1.810  1.00  0.00     0.164 HD
BRANCH   7  10
ATOM     10  C   UNL     1      -7.619   6.662   2.789  1.00  0.00     0.216 C 
BRANCH  10  11
ATOM     11  N   UNL     1      -6.985   5.466   3.343  1.00  0.00    -0.340 N 
ATOM     12  C   UNL     1      -6.168   4.511   2.764  1.00  0.00     0.292 C 
ATOM     13  O   UNL     1      -5.853   3.524   3.421  1.00  0.00    -0.265 OA
ATOM     14  H   UNL     1      -7.173   5.313   4.297  1.00  0.00     0.164 HD
BRANCH  12  15
ATOM     15  C   UNL     1      -5.689   4.667   1.309  1.00  0.00     0.252 C 
ATOM     16  O   UNL     1      -5.881   5.754   0.772  1.00  0.00    -0.283 OA
BRANCH  15  17
ATOM     17  C   UNL     1      -5.031   3.596   0.552  1.00  0.00     0.054 A 
ATOM     18  N   UNL     1      -4.147   1.661  -0.131  1.00  0.00    -0.240 N 
ATOM     19  C   UNL     1      -4.831   2.270   0.897  1.00  0.00     0.117 A 
ATOM     20  C   UNL     1      -3.890   2.547  -1.156  1.00  0.00     0.065 A 
ATOM     21  C   UNL     1      -4.438   3.768  -0.750  1.00  0.00     0.012 A 
ATOM     22  C   UNL     1      -3.206   2.417  -2.380  1.00  0.00     0.028 A 
ATOM     23  C   UNL     1      -4.304   4.885  -1.605  1.00  0.00     0.011 A 
ATOM     24  C   UNL     1      -3.067   3.551  -3.186  1.00  0.00     0.002 A 
ATOM     25  C   UNL     1      -3.612   4.769  -2.809  1.00  0.00     0.001 A 
BRANCH  18  26
ATOM     26  S   UNL     1      -3.589   0.049  -0.085  1.00  0.00     0.268 S 
ATOM     27  O   UNL     1      -3.940  -0.512  -1.369  1.00  0.00    -0.201 OA
ATOM     28  O   UNL     1      -4.094  -0.504   1.164  1.00  0.00    -0.201 OA
BRANCH  26  29
ATOM     29  C   UNL     1      -1.818   0.085   0.030  1.00  0.00     0.088 A 
ATOM     30  C   UNL     1       2.484  -0.050   0.019  1.00  0.00     0.044 C 
ATOM     31  C   UNL     1       0.984   0.001   0.041  1.00  0.00    -0.051 A 
ATOM     32  C   UNL     1       0.243  -1.184  -0.033  1.00  0.00     0.005 A 
ATOM     33  C   UNL     1       0.309   1.224   0.138  1.00  0.00     0.005 A 
ATOM     34  C   UNL     1      -1.153  -1.145  -0.045  1.00  0.00     0.022 A 
ATOM     35  C   UNL     1      -1.088   1.269   0.145  1.00  0.00     0.022 A 
ENDBRANCH  26  29
ENDBRANCH  18  26
ENDBRANCH  15  17
ENDBRANCH  12  15
ENDBRANCH  10  11
ENDBRANCH   7  10
ENDBRANCH   5   6
ENDBRANCH   1   5
BRANCH   3  36
ATOM     36  C   UNL     1      -9.380   3.208   3.468  1.00  0.00     0.117 C 
BRANCH  36  37
ATOM     37  C   UNL     1     -10.143   4.079   4.451  1.00  0.00     0.042 C 
BRANCH  37  38
ATOM     38  C   UNL     1     -10.809   3.256   5.526  1.00  0.00     0.118 C 
BRANCH  38  39
ATOM     39  N   UNL     1      -9.929   2.894   6.631  1.00  0.00    -0.352 N 
ATOM     40  C   UNL     1     -10.223   2.300   7.846  1.00  0.00     0.251 C 
ATOM     41  H   UNL     1      -8.978   3.105   6.491  1.00  0.00     0.163 HD
ATOM     42  O   UNL     1      -9.336   2.203   8.690  1.00  0.00    -0.269 OA
BRANCH  40  43
ATOM     43  C   UNL     1     -11.519   1.593   8.054  1.00  0.00     0.039 A 
ATOM     44  C   UNL     1     -11.429   0.363   8.723  1.00  0.00     0.014 A 
ATOM     45  C   UNL     1     -12.577   1.829   7.195  1.00  0.00     0.014 A 
ATOM     46  C   UNL     1     -12.135  -0.720   8.227  1.00  0.00     0.010 A 
ATOM     47  C   UNL     1     -13.092   0.745   6.546  1.00  0.00     0.010 A 
ATOM     48  C   UNL     1     -12.825  -0.529   7.041  1.00  0.00    -0.014 A 
BRANCH  48  49
ATOM     49  C   UNL     1     -13.441  -1.568   6.258  1.00  0.00     0.031 A 
ATOM     50  C   UNL     1     -14.880  -1.754   6.481  1.00  0.00     0.074 A 
ATOM     51  C   UNL     1     -12.727  -2.087   5.235  1.00  0.00     0.049 A 
ATOM     52  N   UNL     1     -15.536  -2.784   6.102  1.00  0.00    -0.248 NA
ATOM     53  C   UNL     1     -15.713  -0.782   7.200  1.00  0.00     0.031 C 
ATOM     54  C   UNL     1     -13.184  -2.845   4.078  1.00  0.00     0.029 A 
ATOM     55  N   UNL     1     -11.337  -2.183   5.169  1.00  0.00    -0.354 N 
ATOM     56  C   UNL     1     -16.871  -2.466   6.200  1.00  0.00     0.074 A 
ATOM     57  C   UNL     1     -16.939  -1.262   6.984  1.00  0.00     0.031 C 
ATOM     58  C   UNL     1     -12.154  -3.567   3.597  1.00  0.00     0.029 A 
ATOM     59  C   UNL     1     -11.043  -3.397   4.521  1.00  0.00     0.049 A 
ATOM     60  H   UNL     1     -10.687  -1.527   5.510  1.00  0.00     0.167 HD
ATOM     61  C   UNL     1     -17.747  -3.178   5.447  1.00  0.00     0.031 A 
ATOM     62  C   UNL     1     -10.468  -4.410   5.241  1.00  0.00     0.031 A 
ATOM     63  C   UNL     1     -17.042  -4.232   4.729  1.00  0.00     0.049 A 
ATOM     64  C   UNL     1     -11.426  -5.570   5.432  1.00  0.00     0.074 A 
ATOM     65  C   UNL     1     -16.512  -4.299   3.451  1.00  0.00     0.029 A 
ATOM     66  N   UNL     1     -16.407  -5.214   5.475  1.00  0.00    -0.354 N 
ATOM     67  N   UNL     1     -12.729  -5.459   5.396  1.00  0.00    -0.248 NA
ATOM     68  C   UNL     1     -10.993  -6.954   5.601  1.00  0.00     0.031 C 
ATOM     69  C   UNL     1     -15.491  -5.290   3.460  1.00  0.00     0.029 A 
ATOM     70  C   UNL     1     -15.421  -5.830   4.733  1.00  0.00     0.049 A 
ATOM     71  H   UNL     1     -16.630  -5.441   6.407  1.00  0.00     0.167 HD
ATOM     72  C   UNL     1     -13.300  -6.705   5.448  1.00  0.00     0.074 A 
ATOM     73  C   UNL     1     -12.171  -7.605   5.602  1.00  0.00     0.031 C 
ATOM     74  C   UNL     1     -14.647  -6.911   5.328  1.00  0.00     0.031 A 
BRANCH  61  75
ATOM     75  C   UNL     1     -19.156  -2.761   5.155  1.00  0.00    -0.014 A 
ATOM     76  C   UNL     1     -19.732  -3.159   3.935  1.00  0.00     0.009 A 
ATOM     77  C   UNL     1     -19.961  -1.990   6.009  1.00  0.00     0.009 A 
ATOM     78  C   UNL     1     -21.029  -2.787   3.569  1.00  0.00     0.001 A 
ATOM     79  C   UNL     1     -21.255  -1.596   5.638  1.00  0.00     0.001 A 
ATOM     80  C   UNL     1     -21.790  -1.997   4.419  1.00  0.00     0.000 A 
ENDBRANCH  61  75
BRANCH  62  81
ATOM     81  C   UNL     1      -9.474  -3.878   6.233  1.00  0.00    -0.014 A 
ATOM     82  C   UNL     1      -8.350  -3.204   5.699  1.00  0.00     0.009 A 
ATOM     83  C   UNL     1      -9.858  -3.579   7.548  1.00  0.00     0.009 A 
ATOM     84  C   UNL     1      -7.779  -2.115   6.368  1.00  0.00     0.001 A 
ATOM     85  C   UNL     1      -9.251  -2.511   8.229  1.00  0.00     0.001 A 
ATOM     86  C   UNL     1      -8.264  -1.739   7.614  1.00  0.00     0.000 A 
ENDBRANCH  62  81
BRANCH  74  87
ATOM     87  C   UNL     1     -15.406  -8.165   5.710  1.00  0.00    -0.014 A 
ATOM     88  C   UNL     1     -14.876  -9.213   6.467  1.00  0.00     0.009 A 
ATOM     89  C   UNL     1     -16.794  -8.239   5.429  1.00  0.00     0.009 A 
ATOM     90  C   UNL     1     -15.674 -10.286   6.888  1.00  0.00     0.001 A 
ATOM     91  C   UNL     1     -17.608  -9.265   5.908  1.00  0.00     0.001 A 
ATOM     92  C   UNL     1     -17.041 -10.302   6.627  1.00  0.00     0.000 A 
ENDBRANCH  74  87
ENDBRANCH  48  49
ENDBRANCH  40  43
ENDBRANCH  38  39
ENDBRANCH  37  38
ENDBRANCH  36  37
ENDBRANCH   3  36
TORSDOF 17
