REMARK SMILES O=C(C[NH+]1CCN(c2ncc(C(F)(F)F)cc2Cl)CC1)NCCCNC(=O)c1ccc(-c2c3nc(c(-c4ccccc4)c4ccc([nH]4)c(-c4ccccc4)c4nc(c(-c5ccccc5)c5ccc2[nH]5)C=C4)C=C3)cc1
REMARK SMILES IDX 22 1 21 2 1 3 2 4 3 6 4 7 5 8 20 9 6 11 19 12 7 13 8 14 9 15
REMARK SMILES IDX 17 16 10 17 16 18 18 19 11 20 12 21 13 22 14 23 15 24 23 25
REMARK SMILES IDX 24 26 25 27 26 28 27 30 28 31 29 32 75 33 30 34 74 35 31 36
REMARK SMILES IDX 32 37 33 38 68 39 34 40 73 41 67 42 69 43 35 44 72 45 66 46
REMARK SMILES IDX 65 47 36 49 58 50 43 51 57 52 44 53 47 54 56 55 70 56 45 57
REMARK SMILES IDX 46 58 55 60 71 61 48 62 37 63 38 64 42 65 39 66 41 67 40 68
REMARK SMILES IDX 59 69 60 70 64 71 61 72 63 73 62 74 49 75 50 76 54 77 51 78
REMARK SMILES IDX 53 79 52 80
REMARK H PARENT 21 5 4 10 25 29 69 48 47 59
REMARK Flexibility Score: inf
ROOT
ATOM      1  C   UNL     1       1.716  -0.958  -2.219  1.00  0.00     0.118 C 
ENDROOT
BRANCH   1   2
ATOM      2  N   UNL     1       2.342  -0.112  -1.222  1.00  0.00    -0.351 N 
ATOM      3  O   UNL     1       0.747  -0.485   0.390  1.00  0.00    -0.269 OA
ATOM      4  C   UNL     1       1.825  -0.005   0.056  1.00  0.00     0.275 C 
ATOM      5  H   UNL     1       3.151   0.396  -1.460  1.00  0.00     0.163 HD
BRANCH   4   6
ATOM      6  C   UNL     1       2.749   0.724   1.030  1.00  0.00     0.363 C 
BRANCH   6   7
ATOM      7  N   UNL     1       3.632  -0.160   1.804  1.00  0.00    -0.324 N 
ATOM      8  C   UNL     1       2.949  -0.936   2.863  1.00  0.00     0.284 C 
ATOM      9  C   UNL     1       4.556  -1.000   1.021  1.00  0.00     0.284 C 
ATOM     10  H   UNL     1       4.231   0.518   2.275  1.00  0.00     0.348 HD
ATOM     11  C   UNL     1       2.475  -2.371   2.513  1.00  0.00     0.179 C 
ATOM     12  C   UNL     1       4.053  -2.414   0.642  1.00  0.00     0.179 C 
ATOM     13  N   UNL     1       3.559  -3.099   1.838  1.00  0.00    -0.344 N 
BRANCH  13  14
ATOM     14  C   UNL     1       3.449  -4.484   1.760  1.00  0.00     0.147 A 
ATOM     15  N   UNL     1       2.205  -5.025   1.810  1.00  0.00    -0.237 NA
ATOM     16  C   UNL     1       4.579  -5.317   1.651  1.00  0.00     0.084 A 
ATOM     17  C   UNL     1       2.071  -6.370   1.717  1.00  0.00     0.126 A 
ATOM     18  C   UNL     1       4.412  -6.700   1.550  1.00  0.00     0.039 A 
ATOM     19  Cl  UNL     1       6.204  -4.723   1.723  1.00  0.00    -0.080 Cl
ATOM     20  C   UNL     1       3.131  -7.249   1.579  1.00  0.00     0.075 A 
BRANCH  20  21
ATOM     21  C   UNL     1       2.882  -8.721   1.483  1.00  0.00     0.417 C 
ATOM     22  F   UNL     1       2.240  -9.213   2.578  1.00  0.00    -0.166 F 
ATOM     23  F   UNL     1       2.107  -9.050   0.414  1.00  0.00    -0.166 F 
ATOM     24  F   UNL     1       4.022  -9.455   1.358  1.00  0.00    -0.166 F 
ENDBRANCH  20  21
ENDBRANCH  13  14
ENDBRANCH   6   7
ENDBRANCH   4   6
ENDBRANCH   1   2
BRANCH   1  25
ATOM     25  C   UNL     1       2.171  -0.651  -3.638  1.00  0.00     0.042 C 
BRANCH  25  26
ATOM     26  C   UNL     1       3.666  -0.816  -3.891  1.00  0.00     0.118 C 
BRANCH  26  27
ATOM     27  N   UNL     1       4.128  -2.196  -3.900  1.00  0.00    -0.352 N 
ATOM     28  C   UNL     1       4.889  -2.847  -4.847  1.00  0.00     0.251 C 
ATOM     29  H   UNL     1       3.860  -2.739  -3.123  1.00  0.00     0.163 HD
ATOM     30  O   UNL     1       5.139  -4.043  -4.729  1.00  0.00    -0.269 OA
BRANCH  28  31
ATOM     31  C   UNL     1       5.358  -2.109  -6.041  1.00  0.00     0.039 A 
ATOM     32  C   UNL     1       5.082  -2.631  -7.308  1.00  0.00     0.014 A 
ATOM     33  C   UNL     1       6.001  -0.876  -5.913  1.00  0.00     0.014 A 
ATOM     34  C   UNL     1       5.348  -1.863  -8.446  1.00  0.00     0.010 A 
ATOM     35  C   UNL     1       6.197  -0.084  -7.042  1.00  0.00     0.010 A 
ATOM     36  C   UNL     1       5.851  -0.559  -8.318  1.00  0.00    -0.014 A 
BRANCH  36  37
ATOM     37  C   UNL     1       5.982   0.351  -9.486  1.00  0.00     0.031 A 
ATOM     38  C   UNL     1       7.331   0.885  -9.880  1.00  0.00     0.074 A 
ATOM     39  C   UNL     1       4.878   0.786 -10.126  1.00  0.00     0.049 A 
ATOM     40  N   UNL     1       7.629   1.810 -10.758  1.00  0.00    -0.248 NA
ATOM     41  C   UNL     1       8.494   0.327  -9.173  1.00  0.00     0.031 C 
ATOM     42  C   UNL     1       3.504   0.375  -9.830  1.00  0.00     0.029 A 
ATOM     43  N   UNL     1       4.737   1.693 -11.148  1.00  0.00    -0.354 N 
ATOM     44  C   UNL     1       9.007   1.966 -10.686  1.00  0.00     0.074 A 
ATOM     45  C   UNL     1       9.482   1.065  -9.657  1.00  0.00     0.031 C 
ATOM     46  C   UNL     1       2.664   1.015 -10.660  1.00  0.00     0.029 A 
ATOM     47  C   UNL     1       3.431   1.916 -11.512  1.00  0.00     0.049 A 
ATOM     48  H   UNL     1       5.501   2.142 -11.579  1.00  0.00     0.167 HD
ATOM     49  C   UNL     1       9.808   2.778 -11.416  1.00  0.00     0.031 A 
ATOM     50  C   UNL     1       2.905   2.764 -12.417  1.00  0.00     0.031 A 
ATOM     51  C   UNL     1       9.345   3.657 -12.456  1.00  0.00     0.049 A 
ATOM     52  C   UNL     1       3.813   3.659 -13.210  1.00  0.00     0.074 A 
ATOM     53  C   UNL     1      10.091   4.476 -13.287  1.00  0.00     0.029 A 
ATOM     54  N   UNL     1       8.017   3.829 -12.810  1.00  0.00    -0.354 N 
ATOM     55  N   UNL     1       5.119   3.764 -13.159  1.00  0.00    -0.248 NA
ATOM     56  C   UNL     1       3.175   4.551 -14.190  1.00  0.00     0.031 C 
ATOM     57  C   UNL     1       9.209   5.172 -14.120  1.00  0.00     0.029 A 
ATOM     58  C   UNL     1       7.920   4.752 -13.837  1.00  0.00     0.049 A 
ATOM     59  H   UNL     1       7.255   3.365 -12.393  1.00  0.00     0.167 HD
ATOM     60  C   UNL     1       5.460   4.707 -14.119  1.00  0.00     0.074 A 
ATOM     61  C   UNL     1       4.227   5.142 -14.741  1.00  0.00     0.031 C 
ATOM     62  C   UNL     1       6.689   5.167 -14.457  1.00  0.00     0.031 A 
BRANCH  49  63
ATOM     63  C   UNL     1      11.278   2.757 -11.107  1.00  0.00    -0.014 A 
ATOM     64  C   UNL     1      12.078   1.659 -11.458  1.00  0.00     0.009 A 
ATOM     65  C   UNL     1      11.876   3.865 -10.486  1.00  0.00     0.009 A 
ATOM     66  C   UNL     1      13.442   1.656 -11.160  1.00  0.00     0.001 A 
ATOM     67  C   UNL     1      13.245   3.870 -10.215  1.00  0.00     0.001 A 
ATOM     68  C   UNL     1      14.025   2.762 -10.543  1.00  0.00     0.000 A 
ENDBRANCH  49  63
BRANCH  50  69
ATOM     69  C   UNL     1       1.434   2.805 -12.629  1.00  0.00    -0.014 A 
ATOM     70  C   UNL     1       0.873   2.272 -13.799  1.00  0.00     0.009 A 
ATOM     71  C   UNL     1       0.587   3.382 -11.670  1.00  0.00     0.009 A 
ATOM     72  C   UNL     1      -0.505   2.335 -14.015  1.00  0.00     0.001 A 
ATOM     73  C   UNL     1      -0.793   3.421 -11.878  1.00  0.00     0.001 A 
ATOM     74  C   UNL     1      -1.337   2.905 -13.053  1.00  0.00     0.000 A 
ENDBRANCH  50  69
BRANCH  62  75
ATOM     75  C   UNL     1       6.772   6.156 -15.582  1.00  0.00    -0.014 A 
ATOM     76  C   UNL     1       6.407   7.498 -15.402  1.00  0.00     0.009 A 
ATOM     77  C   UNL     1       7.281   5.747 -16.825  1.00  0.00     0.009 A 
ATOM     78  C   UNL     1       6.531   8.408 -16.454  1.00  0.00     0.001 A 
ATOM     79  C   UNL     1       7.425   6.663 -17.867  1.00  0.00     0.001 A 
ATOM     80  C   UNL     1       7.045   7.992 -17.683  1.00  0.00     0.000 A 
ENDBRANCH  62  75
ENDBRANCH  36  37
ENDBRANCH  28  31
ENDBRANCH  26  27
ENDBRANCH  25  26
ENDBRANCH   1  25
TORSDOF 13
