REMARK SMILES O=C(Cc1ccccc1Nc1c(F)cccc1C(F)(F)F)NCCCNC(=O)c1ccc(-c2c3nc(c(-c4ccccc4)c4ccc([nH]4)c(-c4ccccc4)c4nc(c(-c5ccccc5)c5ccc2[nH]5)C=C4)C=C3)cc1
REMARK SMILES IDX 23 1 22 2 1 3 2 4 3 6 4 7 5 8 9 9 6 10 8 11 7 12 10 13 11 15
REMARK SMILES IDX 12 16 17 17 13 18 14 19 16 20 15 21 18 22 19 23 20 24 21 25
REMARK SMILES IDX 24 26 25 27 26 28 27 29 28 31 29 32 30 33 76 34 31 35 75 36
REMARK SMILES IDX 32 37 33 38 34 39 69 40 35 41 74 42 68 43 70 44 36 45 73 46
REMARK SMILES IDX 67 47 66 48 37 50 59 51 44 52 58 53 45 54 48 55 57 56 71 57
REMARK SMILES IDX 46 58 47 59 56 61 72 62 49 63 38 64 39 65 43 66 40 67 42 68
REMARK SMILES IDX 41 69 60 70 61 71 65 72 62 73 64 74 63 75 50 76 51 77 55 78
REMARK SMILES IDX 52 79 54 80 53 81
REMARK H PARENT 22 5 10 14 26 30 70 49 48 60
REMARK Flexibility Score: inf
ROOT
ATOM      1  C   UNL     1       2.066  -1.926  -1.438  1.00  0.00     0.117 C 
ENDROOT
BRANCH   1   2
ATOM      2  N   UNL     1       2.756  -0.836  -0.777  1.00  0.00    -0.356 N 
ATOM      3  O   UNL     1       0.868   0.177   0.057  1.00  0.00    -0.275 OA
ATOM      4  C   UNL     1       2.091   0.097  -0.005  1.00  0.00     0.224 C 
ATOM      5  H   UNL     1       3.732  -0.757  -0.883  1.00  0.00     0.163 HD
BRANCH   4   6
ATOM      6  C   UNL     1       3.010   1.006   0.791  1.00  0.00     0.137 C 
BRANCH   6   7
ATOM      7  C   UNL     1       3.643   0.391   2.032  1.00  0.00    -0.015 A 
ATOM      8  C   UNL     1       3.556  -0.994   2.290  1.00  0.00     0.006 A 
ATOM      9  C   UNL     1       4.374   1.202   2.933  1.00  0.00     0.042 A 
ATOM     10  C   UNL     1       4.184  -1.571   3.392  1.00  0.00     0.000 A 
ATOM     11  C   UNL     1       4.967   0.601   4.057  1.00  0.00     0.026 A 
ATOM     12  C   UNL     1       4.885  -0.772   4.280  1.00  0.00     0.002 A 
BRANCH   9  13
ATOM     13  N   UNL     1       4.544   2.583   2.679  1.00  0.00    -0.352 N 
ATOM     14  H   UNL     1       3.936   2.956   2.000  1.00  0.00     0.167 HD
BRANCH  13  15
ATOM     15  C   UNL     1       5.448   3.513   3.241  1.00  0.00     0.087 A 
ATOM     16  C   UNL     1       4.899   4.697   3.778  1.00  0.00     0.147 A 
ATOM     17  C   UNL     1       6.832   3.306   3.375  1.00  0.00     0.082 A 
ATOM     18  F   UNL     1       3.585   4.931   3.630  1.00  0.00    -0.205 F 
ATOM     19  C   UNL     1       5.663   5.629   4.472  1.00  0.00     0.041 A 
ATOM     20  C   UNL     1       7.596   4.248   4.107  1.00  0.00     0.015 A 
ATOM     21  C   UNL     1       7.018   5.394   4.654  1.00  0.00     0.004 A 
BRANCH  17  22
ATOM     22  C   UNL     1       7.577   2.149   2.750  1.00  0.00     0.418 C 
ATOM     23  F   UNL     1       8.825   2.523   2.327  1.00  0.00    -0.166 F 
ATOM     24  F   UNL     1       7.801   1.131   3.628  1.00  0.00    -0.166 F 
ATOM     25  F   UNL     1       6.995   1.599   1.650  1.00  0.00    -0.166 F 
ENDBRANCH  17  22
ENDBRANCH  13  15
ENDBRANCH   9  13
ENDBRANCH   6   7
ENDBRANCH   4   6
ENDBRANCH   1   2
BRANCH   1  26
ATOM     26  C   UNL     1       2.384  -2.012  -2.922  1.00  0.00     0.042 C 
BRANCH  26  27
ATOM     27  C   UNL     1       3.860  -2.212  -3.243  1.00  0.00     0.118 C 
BRANCH  27  28
ATOM     28  N   UNL     1       4.390  -3.490  -2.785  1.00  0.00    -0.352 N 
ATOM     29  C   UNL     1       5.083  -4.449  -3.486  1.00  0.00     0.251 C 
ATOM     30  H   UNL     1       4.228  -3.696  -1.837  1.00  0.00     0.163 HD
ATOM     31  O   UNL     1       5.354  -5.523  -2.957  1.00  0.00    -0.269 OA
BRANCH  29  32
ATOM     32  C   UNL     1       5.470  -4.203  -4.892  1.00  0.00     0.039 A 
ATOM     33  C   UNL     1       5.216  -5.194  -5.845  1.00  0.00     0.014 A 
ATOM     34  C   UNL     1       6.056  -2.995  -5.275  1.00  0.00     0.014 A 
ATOM     35  C   UNL     1       5.464  -4.936  -7.195  1.00  0.00     0.010 A 
ATOM     36  C   UNL     1       6.233  -2.712  -6.626  1.00  0.00     0.010 A 
ATOM     37  C   UNL     1       5.929  -3.675  -7.601  1.00  0.00    -0.014 A 
BRANCH  37  38
ATOM     38  C   UNL     1       6.084  -3.326  -9.037  1.00  0.00     0.031 A 
ATOM     39  C   UNL     1       7.440  -2.984  -9.588  1.00  0.00     0.074 A 
ATOM     40  C   UNL     1       4.994  -3.224  -9.822  1.00  0.00     0.049 A 
ATOM     41  N   UNL     1       7.760  -2.535 -10.775  1.00  0.00    -0.248 NA
ATOM     42  C   UNL     1       8.584  -3.144  -8.676  1.00  0.00     0.031 C 
ATOM     43  C   UNL     1       3.617  -3.499  -9.406  1.00  0.00     0.029 A 
ATOM     44  N   UNL     1       4.873  -2.843 -11.136  1.00  0.00    -0.354 N 
ATOM     45  C   UNL     1       9.134  -2.337 -10.746  1.00  0.00     0.074 A 
ATOM     46  C   UNL     1       9.582  -2.675  -9.412  1.00  0.00     0.031 C 
ATOM     47  C   UNL     1       2.794  -3.294 -10.447  1.00  0.00     0.029 A 
ATOM     48  C   UNL     1       3.575  -2.828 -11.588  1.00  0.00     0.049 A 
ATOM     49  H   UNL     1       5.643  -2.603 -11.701  1.00  0.00     0.167 HD
ATOM     50  C   UNL     1       9.953  -1.924 -11.742  1.00  0.00     0.031 A 
ATOM     51  C   UNL     1       3.067  -2.463 -12.781  1.00  0.00     0.031 A 
ATOM     52  C   UNL     1       9.512  -1.600 -13.072  1.00  0.00     0.049 A 
ATOM     53  C   UNL     1       3.994  -1.982 -13.862  1.00  0.00     0.074 A 
ATOM     54  C   UNL     1      10.275  -1.226 -14.165  1.00  0.00     0.029 A 
ATOM     55  N   UNL     1       8.191  -1.608 -13.490  1.00  0.00    -0.354 N 
ATOM     56  N   UNL     1       5.298  -1.855 -13.835  1.00  0.00    -0.248 NA
ATOM     57  C   UNL     1       3.377  -1.599 -15.141  1.00  0.00     0.031 C 
ATOM     58  C   UNL     1       9.411  -0.961 -15.231  1.00  0.00     0.029 A 
ATOM     59  C   UNL     1       8.114  -1.223 -14.817  1.00  0.00     0.049 A 
ATOM     60  H   UNL     1       7.421  -1.852 -12.927  1.00  0.00     0.167 HD
ATOM     61  C   UNL     1       5.661  -1.408 -15.099  1.00  0.00     0.074 A 
ATOM     62  C   UNL     1       4.441  -1.295 -15.872  1.00  0.00     0.031 C 
ATOM     63  C   UNL     1       6.896  -1.122 -15.577  1.00  0.00     0.031 A 
BRANCH  50  64
ATOM     64  C   UNL     1      11.416  -1.789 -11.425  1.00  0.00    -0.014 A 
ATOM     65  C   UNL     1      12.221  -2.919 -11.210  1.00  0.00     0.009 A 
ATOM     66  C   UNL     1      12.005  -0.516 -11.378  1.00  0.00     0.009 A 
ATOM     67  C   UNL     1      13.579  -2.774 -10.918  1.00  0.00     0.001 A 
ATOM     68  C   UNL     1      13.369  -0.376 -11.115  1.00  0.00     0.001 A 
ATOM     69  C   UNL     1      14.152  -1.504 -10.876  1.00  0.00     0.000 A 
ENDBRANCH  50  64
BRANCH  51  70
ATOM     70  C   UNL     1       1.602  -2.540 -13.020  1.00  0.00    -0.014 A 
ATOM     71  C   UNL     1       1.074  -3.512 -13.883  1.00  0.00     0.009 A 
ATOM     72  C   UNL     1       0.725  -1.640 -12.394  1.00  0.00     0.009 A 
ATOM     73  C   UNL     1      -0.299  -3.566 -14.133  1.00  0.00     0.001 A 
ATOM     74  C   UNL     1      -0.650  -1.715 -12.623  1.00  0.00     0.001 A 
ATOM     75  C   UNL     1      -1.160  -2.671 -13.500  1.00  0.00     0.000 A 
ENDBRANCH  51  70
BRANCH  63  76
ATOM     76  C   UNL     1       7.002  -0.700 -17.014  1.00  0.00    -0.014 A 
ATOM     77  C   UNL     1       6.601   0.578 -17.432  1.00  0.00     0.009 A 
ATOM     78  C   UNL     1       7.571  -1.577 -17.952  1.00  0.00     0.009 A 
ATOM     79  C   UNL     1       6.747   0.961 -18.767  1.00  0.00     0.001 A 
ATOM     80  C   UNL     1       7.740  -1.181 -19.279  1.00  0.00     0.001 A 
ATOM     81  C   UNL     1       7.323   0.084 -19.687  1.00  0.00     0.000 A 
ENDBRANCH  63  76
ENDBRANCH  37  38
ENDBRANCH  29  32
ENDBRANCH  27  28
ENDBRANCH  26  27
ENDBRANCH   1  26
TORSDOF 14
