REMARK SMILES O=C(NCCCNC(=O)c1c(F)cccc1NS(=O)(=O)C(F)(F)F)c1ccc(-c2c3nc(c(-c4ccccc4)c4ccc([nH]4)c(-c4ccccc4)c4nc(c(-c5ccccc5)c5ccc2[nH]5)C=C4)C=C3)cc1
REMARK SMILES IDX 5 1 4 2 3 3 1 4 2 5 25 7 26 8 72 9 27 10 71 11 28 12 29 13
REMARK SMILES IDX 30 14 65 15 31 16 70 17 64 18 66 19 32 20 69 21 63 22 62 23
REMARK SMILES IDX 33 25 55 26 40 27 54 28 41 29 44 30 53 31 67 32 42 33 43 34
REMARK SMILES IDX 52 36 68 37 45 38 34 39 35 40 39 41 36 42 38 43 37 44 56 45
REMARK SMILES IDX 57 46 61 47 58 48 60 49 59 50 46 51 47 52 51 53 48 54 50 55
REMARK SMILES IDX 49 56 6 57 7 58 8 59 9 61 10 62 11 63 16 64 12 65 13 66
REMARK SMILES IDX 15 67 14 68 17 69 18 71 19 72 20 73 21 74 22 75 23 76 24 77
REMARK H PARENT 3 6 66 24 44 35 7 60 17 70
REMARK Flexibility Score: inf
ROOT
ATOM      1  C   UNL     1       5.045  -0.490   2.403  1.00  0.00     0.042 C 
ENDROOT
BRANCH   1   2
ATOM      2  C   UNL     1       4.633  -0.938   1.006  1.00  0.00     0.118 C 
BRANCH   2   3
ATOM      3  N   UNL     1       3.191  -0.914   0.810  1.00  0.00    -0.352 N 
ATOM      4  O   UNL     1       1.190  -0.127   0.146  1.00  0.00    -0.269 OA
ATOM      5  C   UNL     1       2.415  -0.101   0.025  1.00  0.00     0.251 C 
ATOM      6  H   UNL     1       2.692  -1.590   1.324  1.00  0.00     0.163 HD
BRANCH   5   7
ATOM      7  C   UNL     1       3.032   0.825  -0.948  1.00  0.00     0.039 A 
ATOM      8  C   UNL     1       4.095   0.422  -1.760  1.00  0.00     0.014 A 
ATOM      9  C   UNL     1       2.503   2.112  -1.080  1.00  0.00     0.014 A 
ATOM     10  C   UNL     1       4.720   1.343  -2.597  1.00  0.00     0.010 A 
ATOM     11  C   UNL     1       3.075   3.009  -1.984  1.00  0.00     0.010 A 
ATOM     12  C   UNL     1       4.207   2.640  -2.729  1.00  0.00    -0.014 A 
BRANCH  12  13
ATOM     13  C   UNL     1       4.816   3.596  -3.686  1.00  0.00     0.031 A 
ATOM     14  C   UNL     1       5.442   4.872  -3.203  1.00  0.00     0.074 A 
ATOM     15  C   UNL     1       4.763   3.328  -5.004  1.00  0.00     0.049 A 
ATOM     16  N   UNL     1       5.931   5.867  -3.899  1.00  0.00    -0.248 NA
ATOM     17  C   UNL     1       5.520   5.060  -1.746  1.00  0.00     0.031 C 
ATOM     18  C   UNL     1       4.186   2.119  -5.596  1.00  0.00     0.029 A 
ATOM     19  N   UNL     1       5.184   4.061  -6.083  1.00  0.00    -0.354 N 
ATOM     20  C   UNL     1       6.346   6.811  -2.969  1.00  0.00     0.074 A 
ATOM     21  C   UNL     1       6.030   6.280  -1.660  1.00  0.00     0.031 C 
ATOM     22  C   UNL     1       4.296   2.191  -6.930  1.00  0.00     0.029 A 
ATOM     23  C   UNL     1       4.885   3.476  -7.289  1.00  0.00     0.049 A 
ATOM     24  H   UNL     1       5.655   4.922  -6.002  1.00  0.00     0.167 HD
ATOM     25  C   UNL     1       6.934   8.013  -3.188  1.00  0.00     0.031 A 
ATOM     26  C   UNL     1       5.027   3.934  -8.546  1.00  0.00     0.031 A 
ATOM     27  C   UNL     1       7.228   8.541  -4.496  1.00  0.00     0.049 A 
ATOM     28  C   UNL     1       5.625   5.292  -8.768  1.00  0.00     0.074 A 
ATOM     29  C   UNL     1       7.855   9.730  -4.824  1.00  0.00     0.029 A 
ATOM     30  N   UNL     1       6.899   7.919  -5.692  1.00  0.00    -0.354 N 
ATOM     31  N   UNL     1       6.050   6.159  -7.881  1.00  0.00    -0.248 NA
ATOM     32  C   UNL     1       5.770   5.733 -10.162  1.00  0.00     0.031 C 
ATOM     33  C   UNL     1       7.842   9.861  -6.216  1.00  0.00     0.029 A 
ATOM     34  C   UNL     1       7.278   8.717  -6.759  1.00  0.00     0.049 A 
ATOM     35  H   UNL     1       6.461   7.041  -5.770  1.00  0.00     0.167 HD
ATOM     36  C   UNL     1       6.540   7.235  -8.607  1.00  0.00     0.074 A 
ATOM     37  C   UNL     1       6.361   6.911 -10.008  1.00  0.00     0.031 C 
ATOM     38  C   UNL     1       7.096   8.383  -8.150  1.00  0.00     0.031 A 
BRANCH  25  39
ATOM     39  C   UNL     1       7.244   8.861  -1.983  1.00  0.00    -0.014 A 
ATOM     40  C   UNL     1       8.227   8.489  -1.052  1.00  0.00     0.009 A 
ATOM     41  C   UNL     1       6.541  10.060  -1.781  1.00  0.00     0.009 A 
ATOM     42  C   UNL     1       8.460   9.271   0.083  1.00  0.00     0.001 A 
ATOM     43  C   UNL     1       6.800  10.857  -0.665  1.00  0.00     0.001 A 
ATOM     44  C   UNL     1       7.747  10.455   0.274  1.00  0.00     0.000 A 
ENDBRANCH  25  39
BRANCH  26  45
ATOM     45  C   UNL     1       4.561   3.094  -9.678  1.00  0.00    -0.014 A 
ATOM     46  C   UNL     1       5.481   2.464 -10.528  1.00  0.00     0.009 A 
ATOM     47  C   UNL     1       3.188   2.867  -9.874  1.00  0.00     0.009 A 
ATOM     48  C   UNL     1       5.035   1.631 -11.557  1.00  0.00     0.001 A 
ATOM     49  C   UNL     1       2.747   2.010 -10.883  1.00  0.00     0.001 A 
ATOM     50  C   UNL     1       3.670   1.397 -11.727  1.00  0.00     0.000 A 
ENDBRANCH  26  45
BRANCH  38  51
ATOM     51  C   UNL     1       7.605   9.364  -9.169  1.00  0.00    -0.014 A 
ATOM     52  C   UNL     1       6.731  10.151  -9.933  1.00  0.00     0.009 A 
ATOM     53  C   UNL     1       8.989   9.559  -9.303  1.00  0.00     0.009 A 
ATOM     54  C   UNL     1       7.235  11.104 -10.822  1.00  0.00     0.001 A 
ATOM     55  C   UNL     1       9.489  10.531 -10.169  1.00  0.00     0.001 A 
ATOM     56  C   UNL     1       8.612  11.300 -10.932  1.00  0.00     0.000 A 
ENDBRANCH  38  51
ENDBRANCH  12  13
ENDBRANCH   5   7
ENDBRANCH   2   3
ENDBRANCH   1   2
BRANCH   1  57
ATOM     57  C   UNL     1       4.587  -1.424   3.517  1.00  0.00     0.118 C 
BRANCH  57  58
ATOM     58  N   UNL     1       5.205  -2.739   3.414  1.00  0.00    -0.352 N 
ATOM     59  C   UNL     1       5.995  -3.403   4.317  1.00  0.00     0.256 C 
ATOM     60  H   UNL     1       5.029  -3.221   2.575  1.00  0.00     0.163 HD
ATOM     61  O   UNL     1       6.631  -4.390   3.956  1.00  0.00    -0.269 OA
BRANCH  59  62
ATOM     62  C   UNL     1       6.174  -2.902   5.689  1.00  0.00     0.099 A 
ATOM     63  C   UNL     1       5.044  -2.570   6.446  1.00  0.00     0.138 A 
ATOM     64  C   UNL     1       7.467  -2.748   6.232  1.00  0.00     0.065 A 
ATOM     65  F   UNL     1       3.808  -2.760   5.962  1.00  0.00    -0.206 F 
ATOM     66  C   UNL     1       5.170  -1.978   7.695  1.00  0.00     0.040 A 
ATOM     67  C   UNL     1       7.573  -2.114   7.475  1.00  0.00     0.028 A 
ATOM     68  C   UNL     1       6.439  -1.737   8.204  1.00  0.00     0.005 A 
BRANCH  64  69
ATOM     69  N   UNL     1       8.649  -2.981   5.425  1.00  0.00    -0.275 N 
ATOM     70  H   UNL     1       8.719  -2.547   4.544  1.00  0.00     0.180 HD
BRANCH  69  71
ATOM     71  S   UNL     1       9.924  -3.985   5.959  1.00  0.00     0.333 S 
ATOM     72  O   UNL     1       9.333  -5.282   6.234  1.00  0.00    -0.197 OA
ATOM     73  O   UNL     1      10.905  -3.874   4.890  1.00  0.00    -0.197 OA
BRANCH  71  74
ATOM     74  C   UNL     1      10.649  -3.265   7.518  1.00  0.00     0.516 C 
ATOM     75  F   UNL     1      10.750  -1.905   7.466  1.00  0.00    -0.155 F 
ATOM     76  F   UNL     1       9.893  -3.558   8.616  1.00  0.00    -0.155 F 
ATOM     77  F   UNL     1      11.900  -3.740   7.777  1.00  0.00    -0.155 F 
ENDBRANCH  71  74
ENDBRANCH  69  71
ENDBRANCH  64  69
ENDBRANCH  59  62
ENDBRANCH  57  58
ENDBRANCH   1  57
TORSDOF 13
