REMARK SMILES O=C(NC1(C(=O)NCCCNC(=O)c2ccc(-c3c4nc(c(-c5ccccc5)c5ccc([nH]5)c(-c5ccccc5)c5nc(c(-c6ccccc6)c6ccc3[nH]6)C=C5)C=C4)cc2)CC[NH2+]CC1)OCC1c2ccccc2-c2ccccc21
REMARK SMILES IDX 8 1 7 2 5 3 6 4 4 6 62 7 66 8 63 9 65 10 64 11 3 14 1 15
REMARK SMILES IDX 2 16 67 18 68 19 69 20 70 21 81 22 71 23 75 24 76 25 80 26
REMARK SMILES IDX 72 27 74 28 77 29 79 30 73 31 78 32 9 33 10 34 11 35 12 36
REMARK SMILES IDX 13 38 14 39 15 40 61 41 16 42 60 43 17 44 18 45 19 46 54 47
REMARK SMILES IDX 20 48 59 49 53 50 55 51 21 52 58 53 52 54 51 55 22 57 44 58
REMARK SMILES IDX 29 59 43 60 30 61 33 62 42 63 56 64 31 65 32 66 41 68 57 69
REMARK SMILES IDX 34 70 23 71 24 72 28 73 25 74 27 75 26 76 45 77 46 78 50 79
REMARK SMILES IDX 47 80 49 81 48 82 35 83 36 84 40 85 37 86 39 87 38 88
REMARK H PARENT 7 5 64 12 64 13 3 17 11 37 55 56 33 67
REMARK Flexibility Score: inf
ROOT
ATOM      1  C   UNL     1       7.559   1.866   2.046  1.00  0.00     0.117 C 
ENDROOT
BRANCH   1   2
ATOM      2  N   UNL     1       6.298   2.530   1.768  1.00  0.00    -0.354 N 
ATOM      3  C   UNL     1       5.017   2.083   1.654  1.00  0.00     0.246 C 
ATOM      4  O   UNL     1       4.161   2.979   1.590  1.00  0.00    -0.272 OA
ATOM      5  H   UNL     1       6.388   3.501   1.634  1.00  0.00     0.163 HD
BRANCH   3   6
ATOM      6  C   UNL     1       4.598   0.572   1.698  1.00  0.00     0.132 C 
ATOM      7  C   UNL     1       5.505  -0.366   0.868  1.00  0.00     0.100 C 
ATOM      8  C   UNL     1       4.606   0.043   3.142  1.00  0.00     0.100 C 
ATOM      9  C   UNL     1       5.003  -1.800   0.914  1.00  0.00     0.263 C 
ATOM     10  C   UNL     1       4.262  -1.455   3.195  1.00  0.00     0.263 C 
ATOM     11  N   UNL     1       5.079  -2.272   2.295  1.00  0.00    -0.346 N 
ATOM     12  H   UNL     1       6.051  -2.233   2.603  1.00  0.00     0.346 HD
ATOM     13  H   UNL     1       4.724  -3.227   2.323  1.00  0.00     0.346 HD
BRANCH   6  14
ATOM     14  N   UNL     1       3.185   0.532   1.208  1.00  0.00    -0.307 N 
ATOM     15  O   UNL     1       1.669   0.425  -0.481  1.00  0.00    -0.225 OA
ATOM     16  C   UNL     1       2.800   0.656  -0.093  1.00  0.00     0.408 C 
ATOM     17  H   UNL     1       2.477   0.407   1.879  1.00  0.00     0.168 HD
BRANCH  16  18
ATOM     18  O   UNL     1       3.856   0.956  -0.868  1.00  0.00    -0.449 OA
BRANCH  18  19
ATOM     19  C   UNL     1       3.799   0.574  -2.236  1.00  0.00     0.248 C 
BRANCH  19  20
ATOM     20  C   UNL     1       4.941   1.242  -3.002  1.00  0.00     0.088 C 
ATOM     21  C   UNL     1       6.373   0.716  -2.871  1.00  0.00    -0.029 A 
ATOM     22  C   UNL     1       5.157   2.732  -2.744  1.00  0.00    -0.029 A 
ATOM     23  C   UNL     1       6.856  -0.569  -2.673  1.00  0.00     0.005 A 
ATOM     24  C   UNL     1       7.271   1.802  -3.009  1.00  0.00    -0.014 A 
ATOM     25  C   UNL     1       6.525   3.042  -2.909  1.00  0.00    -0.014 A 
ATOM     26  C   UNL     1       4.258   3.700  -2.325  1.00  0.00     0.005 A 
ATOM     27  C   UNL     1       8.244  -0.761  -2.632  1.00  0.00     0.000 A 
ATOM     28  C   UNL     1       8.640   1.597  -3.054  1.00  0.00     0.009 A 
ATOM     29  C   UNL     1       6.981   4.343  -2.775  1.00  0.00     0.009 A 
ATOM     30  C   UNL     1       4.729   5.000  -2.128  1.00  0.00     0.000 A 
ATOM     31  C   UNL     1       9.129   0.308  -2.848  1.00  0.00     0.001 A 
ATOM     32  C   UNL     1       6.070   5.327  -2.386  1.00  0.00     0.001 A 
ENDBRANCH  19  20
ENDBRANCH  18  19
ENDBRANCH  16  18
ENDBRANCH   6  14
ENDBRANCH   3   6
ENDBRANCH   1   2
BRANCH   1  33
ATOM     33  C   UNL     1       8.405   1.650   0.792  1.00  0.00     0.042 C 
BRANCH  33  34
ATOM     34  C   UNL     1       9.106   2.914   0.289  1.00  0.00     0.118 C 
BRANCH  34  35
ATOM     35  N   UNL     1      10.278   3.253   1.083  1.00  0.00    -0.352 N 
ATOM     36  C   UNL     1      11.614   3.281   0.761  1.00  0.00     0.251 C 
ATOM     37  H   UNL     1      10.079   3.508   2.013  1.00  0.00     0.163 HD
ATOM     38  O   UNL     1      12.432   3.400   1.672  1.00  0.00    -0.269 OA
BRANCH  36  39
ATOM     39  C   UNL     1      12.112   3.168  -0.636  1.00  0.00     0.039 A 
ATOM     40  C   UNL     1      13.318   2.487  -0.850  1.00  0.00     0.014 A 
ATOM     41  C   UNL     1      11.497   3.805  -1.717  1.00  0.00     0.014 A 
ATOM     42  C   UNL     1      13.880   2.416  -2.131  1.00  0.00     0.010 A 
ATOM     43  C   UNL     1      12.029   3.682  -3.010  1.00  0.00     0.010 A 
ATOM     44  C   UNL     1      13.232   2.993  -3.234  1.00  0.00    -0.014 A 
BRANCH  44  45
ATOM     45  C   UNL     1      13.817   2.887  -4.604  1.00  0.00     0.031 A 
ATOM     46  C   UNL     1      14.294   4.111  -5.345  1.00  0.00     0.074 A 
ATOM     47  C   UNL     1      13.923   1.682  -5.202  1.00  0.00     0.049 A 
ATOM     48  N   UNL     1      14.828   4.199  -6.540  1.00  0.00    -0.248 NA
ATOM     49  C   UNL     1      14.144   5.404  -4.661  1.00  0.00     0.031 C 
ATOM     50  C   UNL     1      13.502   0.407  -4.619  1.00  0.00     0.029 A 
ATOM     51  N   UNL     1      14.426   1.333  -6.433  1.00  0.00    -0.354 N 
ATOM     52  C   UNL     1      15.071   5.551  -6.752  1.00  0.00     0.074 A 
ATOM     53  C   UNL     1      14.584   6.250  -5.582  1.00  0.00     0.031 C 
ATOM     54  C   UNL     1      13.794  -0.585  -5.476  1.00  0.00     0.029 A 
ATOM     55  C   UNL     1      14.383  -0.017  -6.686  1.00  0.00     0.049 A 
ATOM     56  H   UNL     1      14.784   1.989  -7.074  1.00  0.00     0.167 HD
ATOM     57  C   UNL     1      15.662   6.159  -7.811  1.00  0.00     0.031 A 
ATOM     58  C   UNL     1      14.766  -0.726  -7.766  1.00  0.00     0.031 A 
ATOM     59  C   UNL     1      16.152   5.480  -8.983  1.00  0.00     0.049 A 
ATOM     60  C   UNL     1      15.368  -0.022  -8.951  1.00  0.00     0.074 A 
ATOM     61  C   UNL     1      16.794   6.020 -10.085  1.00  0.00     0.029 A 
ATOM     62  N   UNL     1      16.052   4.117  -9.210  1.00  0.00    -0.354 N 
ATOM     63  N   UNL     1      15.631   1.252  -9.111  1.00  0.00    -0.248 NA
ATOM     64  C   UNL     1      15.735  -0.860 -10.103  1.00  0.00     0.031 C 
ATOM     65  C   UNL     1      17.033   4.993 -11.004  1.00  0.00     0.029 A 
ATOM     66  C   UNL     1      16.596   3.803 -10.446  1.00  0.00     0.049 A 
ATOM     67  H   UNL     1      15.653   3.468  -8.586  1.00  0.00     0.167 HD
ATOM     68  C   UNL     1      16.219   1.362 -10.365  1.00  0.00     0.074 A 
ATOM     69  C   UNL     1      16.288   0.027 -10.918  1.00  0.00     0.031 C 
ATOM     70  C   UNL     1      16.663   2.475 -10.998  1.00  0.00     0.031 A 
BRANCH  57  71
ATOM     71  C   UNL     1      15.807   7.656  -7.756  1.00  0.00    -0.014 A 
ATOM     72  C   UNL     1      16.723   8.266  -6.883  1.00  0.00     0.009 A 
ATOM     73  C   UNL     1      15.060   8.464  -8.628  1.00  0.00     0.009 A 
ATOM     74  C   UNL     1      16.861   9.655  -6.860  1.00  0.00     0.001 A 
ATOM     75  C   UNL     1      15.223   9.851  -8.624  1.00  0.00     0.001 A 
ATOM     76  C   UNL     1      16.115  10.446  -7.734  1.00  0.00     0.000 A 
ENDBRANCH  57  71
BRANCH  58  77
ATOM     77  C   UNL     1      14.600  -2.204  -7.781  1.00  0.00    -0.014 A 
ATOM     78  C   UNL     1      15.722  -3.047  -7.730  1.00  0.00     0.009 A 
ATOM     79  C   UNL     1      13.323  -2.778  -7.865  1.00  0.00     0.009 A 
ATOM     80  C   UNL     1      15.567  -4.434  -7.786  1.00  0.00     0.001 A 
ATOM     81  C   UNL     1      13.170  -4.166  -7.890  1.00  0.00     0.001 A 
ATOM     82  C   UNL     1      14.292  -4.992  -7.861  1.00  0.00     0.000 A 
ENDBRANCH  58  77
BRANCH  70  83
ATOM     83  C   UNL     1      17.302   2.298 -12.348  1.00  0.00    -0.014 A 
ATOM     84  C   UNL     1      16.541   1.966 -13.481  1.00  0.00     0.009 A 
ATOM     85  C   UNL     1      18.683   2.505 -12.497  1.00  0.00     0.009 A 
ATOM     86  C   UNL     1      17.157   1.812 -14.726  1.00  0.00     0.001 A 
ATOM     87  C   UNL     1      19.290   2.379 -13.747  1.00  0.00     0.001 A 
ATOM     88  C   UNL     1      18.529   2.023 -14.859  1.00  0.00     0.000 A 
ENDBRANCH  70  83
ENDBRANCH  44  45
ENDBRANCH  36  39
ENDBRANCH  34  35
ENDBRANCH  33  34
ENDBRANCH   1  33
TORSDOF 14
