REMARK SMILES O=C(NCCCNC(=O)c1csc(-c2ccnc(N3CCOCC3)c2)n1)c1ccc(-c2c3nc(c(-c4ccccc4)c4ccc([nH]4)c(-c4ccccc4)c4nc(c(-c5ccccc5)c5ccc2[nH]5)C=C4)C=C3)cc1
REMARK SMILES IDX 5 1 4 2 3 3 1 4 2 5 27 7 28 8 74 9 29 10 73 11 30 12 31 13
REMARK SMILES IDX 32 14 67 15 33 16 72 17 66 18 68 19 34 20 71 21 65 22 64 23
REMARK SMILES IDX 35 25 57 26 42 27 56 28 43 29 46 30 55 31 69 32 44 33 45 34
REMARK SMILES IDX 54 36 70 37 47 38 36 39 37 40 41 41 38 42 40 43 39 44 58 45
REMARK SMILES IDX 59 46 63 47 60 48 62 49 61 50 48 51 49 52 53 53 50 54 52 55
REMARK SMILES IDX 51 56 6 57 7 58 8 59 9 61 10 62 11 63 26 64 12 65 13 66
REMARK SMILES IDX 14 67 15 68 25 69 16 70 18 71 17 72 19 73 20 74 24 75 21 76
REMARK SMILES IDX 23 77 22 78
REMARK H PARENT 3 6 68 24 46 35 7 60
REMARK Flexibility Score: inf
ROOT
ATOM      1  C   UNL     1       4.680  -2.692  -0.618  1.00  0.00     0.042 C 
ENDROOT
BRANCH   1   2
ATOM      2  C   UNL     1       4.446  -1.215  -0.911  1.00  0.00     0.118 C 
BRANCH   2   3
ATOM      3  N   UNL     1       3.035  -0.848  -0.886  1.00  0.00    -0.352 N 
ATOM      4  O   UNL     1       1.119   0.045  -0.121  1.00  0.00    -0.269 OA
ATOM      5  C   UNL     1       2.345   0.010  -0.065  1.00  0.00     0.251 C 
ATOM      6  H   UNL     1       2.485  -1.288  -1.574  1.00  0.00     0.163 HD
BRANCH   5   7
ATOM      7  C   UNL     1       3.058   0.869   0.906  1.00  0.00     0.039 A 
ATOM      8  C   UNL     1       4.247   1.514   0.568  1.00  0.00     0.014 A 
ATOM      9  C   UNL     1       2.507   1.054   2.179  1.00  0.00     0.014 A 
ATOM     10  C   UNL     1       4.973   2.187   1.545  1.00  0.00     0.010 A 
ATOM     11  C   UNL     1       3.191   1.814   3.134  1.00  0.00     0.010 A 
ATOM     12  C   UNL     1       4.455   2.345   2.841  1.00  0.00    -0.014 A 
BRANCH  12  13
ATOM     13  C   UNL     1       5.253   3.081   3.856  1.00  0.00     0.031 A 
ATOM     14  C   UNL     1       5.773   2.388   5.088  1.00  0.00     0.074 A 
ATOM     15  C   UNL     1       5.560   4.375   3.636  1.00  0.00     0.049 A 
ATOM     16  N   UNL     1       6.556   2.860   6.028  1.00  0.00    -0.248 NA
ATOM     17  C   UNL     1       5.360   0.993   5.300  1.00  0.00     0.031 C 
ATOM     18  C   UNL     1       5.111   5.165   2.487  1.00  0.00     0.029 A 
ATOM     19  N   UNL     1       6.348   5.242   4.349  1.00  0.00    -0.354 N 
ATOM     20  C   UNL     1       6.706   1.832   6.951  1.00  0.00     0.074 A 
ATOM     21  C   UNL     1       5.915   0.718   6.472  1.00  0.00     0.031 C 
ATOM     22  C   UNL     1       5.683   6.377   2.538  1.00  0.00     0.029 A 
ATOM     23  C   UNL     1       6.493   6.469   3.748  1.00  0.00     0.049 A 
ATOM     24  H   UNL     1       6.769   5.008   5.207  1.00  0.00     0.167 HD
ATOM     25  C   UNL     1       7.439   1.812   8.090  1.00  0.00     0.031 A 
ATOM     26  C   UNL     1       7.200   7.550   4.123  1.00  0.00     0.031 A 
ATOM     27  C   UNL     1       8.239   2.911   8.564  1.00  0.00     0.049 A 
ATOM     28  C   UNL     1       8.000   7.501   5.391  1.00  0.00     0.074 A 
ATOM     29  C   UNL     1       9.048   2.968   9.686  1.00  0.00     0.029 A 
ATOM     30  N   UNL     1       8.329   4.147   7.944  1.00  0.00    -0.354 N 
ATOM     31  N   UNL     1       8.164   6.505   6.226  1.00  0.00    -0.248 NA
ATOM     32  C   UNL     1       8.718   8.728   5.763  1.00  0.00     0.031 C 
ATOM     33  C   UNL     1       9.593   4.254   9.769  1.00  0.00     0.029 A 
ATOM     34  C   UNL     1       9.163   4.980   8.671  1.00  0.00     0.049 A 
ATOM     35  H   UNL     1       7.868   4.396   7.110  1.00  0.00     0.167 HD
ATOM     36  C   UNL     1       9.020   6.976   7.211  1.00  0.00     0.074 A 
ATOM     37  C   UNL     1       9.356   8.341   6.859  1.00  0.00     0.031 C 
ATOM     38  C   UNL     1       9.487   6.335   8.310  1.00  0.00     0.031 A 
BRANCH  25  39
ATOM     39  C   UNL     1       7.393   0.561   8.923  1.00  0.00    -0.014 A 
ATOM     40  C   UNL     1       8.046  -0.613   8.518  1.00  0.00     0.009 A 
ATOM     41  C   UNL     1       6.719   0.572  10.155  1.00  0.00     0.009 A 
ATOM     42  C   UNL     1       7.998  -1.760   9.314  1.00  0.00     0.001 A 
ATOM     43  C   UNL     1       6.694  -0.568  10.960  1.00  0.00     0.001 A 
ATOM     44  C   UNL     1       7.326  -1.736  10.536  1.00  0.00     0.000 A 
ENDBRANCH  25  39
BRANCH  26  45
ATOM     45  C   UNL     1       7.191   8.770   3.276  1.00  0.00    -0.014 A 
ATOM     46  C   UNL     1       8.334   9.146   2.556  1.00  0.00     0.009 A 
ATOM     47  C   UNL     1       6.035   9.560   3.179  1.00  0.00     0.009 A 
ATOM     48  C   UNL     1       8.327  10.301   1.772  1.00  0.00     0.001 A 
ATOM     49  C   UNL     1       6.022  10.699   2.373  1.00  0.00     0.001 A 
ATOM     50  C   UNL     1       7.170  11.073   1.677  1.00  0.00     0.000 A 
ENDBRANCH  26  45
BRANCH  38  51
ATOM     51  C   UNL     1      10.438   7.096   9.189  1.00  0.00    -0.014 A 
ATOM     52  C   UNL     1       9.992   8.140  10.014  1.00  0.00     0.009 A 
ATOM     53  C   UNL     1      11.797   6.748   9.203  1.00  0.00     0.009 A 
ATOM     54  C   UNL     1      10.898   8.847  10.807  1.00  0.00     0.001 A 
ATOM     55  C   UNL     1      12.696   7.440  10.017  1.00  0.00     0.001 A 
ATOM     56  C   UNL     1      12.247   8.495  10.810  1.00  0.00     0.000 A 
ENDBRANCH  38  51
ENDBRANCH  12  13
ENDBRANCH   5   7
ENDBRANCH   2   3
ENDBRANCH   1   2
BRANCH   1  57
ATOM     57  C   UNL     1       4.109  -3.630  -1.677  1.00  0.00     0.118 C 
BRANCH  57  58
ATOM     58  N   UNL     1       4.766  -3.449  -2.964  1.00  0.00    -0.351 N 
ATOM     59  C   UNL     1       5.761  -4.185  -3.558  1.00  0.00     0.270 C 
ATOM     60  H   UNL     1       4.447  -2.680  -3.490  1.00  0.00     0.163 HD
ATOM     61  O   UNL     1       6.343  -3.699  -4.532  1.00  0.00    -0.267 OA
BRANCH  59  62
ATOM     62  C   UNL     1       6.122  -5.497  -3.022  1.00  0.00     0.139 A 
ATOM     63  C   UNL     1       7.372  -6.070  -3.191  1.00  0.00     0.101 A 
ATOM     64  N   UNL     1       5.217  -6.309  -2.344  1.00  0.00    -0.231 NA
ATOM     65  S   UNL     1       7.446  -7.588  -2.402  1.00  0.00    -0.122 S 
ATOM     66  C   UNL     1       5.806  -7.404  -1.923  1.00  0.00     0.124 A 
BRANCH  66  67
ATOM     67  C   UNL     1       5.163  -8.408  -1.087  1.00  0.00     0.016 A 
ATOM     68  C   UNL     1       4.095  -9.159  -1.562  1.00  0.00     0.031 A 
ATOM     69  C   UNL     1       5.599  -8.607   0.222  1.00  0.00     0.058 A 
ATOM     70  C   UNL     1       3.569 -10.123  -0.724  1.00  0.00     0.114 A 
ATOM     71  C   UNL     1       5.019  -9.596   1.006  1.00  0.00     0.129 A 
ATOM     72  N   UNL     1       4.029 -10.373   0.523  1.00  0.00    -0.239 NA
BRANCH  71  73
ATOM     73  N   UNL     1       5.514  -9.833   2.259  1.00  0.00    -0.352 N 
ATOM     74  C   UNL     1       5.628  -8.785   3.269  1.00  0.00     0.146 C 
ATOM     75  C   UNL     1       5.663 -11.196   2.754  1.00  0.00     0.146 C 
ATOM     76  C   UNL     1       6.969  -8.956   3.998  1.00  0.00     0.181 C 
ATOM     77  C   UNL     1       7.017 -11.273   3.487  1.00  0.00     0.181 C 
ATOM     78  O   UNL     1       7.117 -10.285   4.533  1.00  0.00    -0.378 OA
ENDBRANCH  71  73
ENDBRANCH  66  67
ENDBRANCH  59  62
ENDBRANCH  57  58
ENDBRANCH   1  57
TORSDOF 12
