REMARK SMILES Cc1cc(C(=O)N[C@H]2C=C[C@H](C(=O)NCCCNC(=O)c3ccc(-c4c5nc(c(-c6ccccc6)c6ccc([nH]6)c(-c6ccccc6)c6nc(c(-c7ccccc7)c7ccc4[nH]7)C=C6)C=C5)cc3)C2)ccc1F
REMARK SMILES IDX 16 1 15 2 14 3 12 4 13 5 11 7 8 8 9 9 69 10 10 11 7 12 5 13
REMARK SMILES IDX 6 14 4 16 1 17 2 18 3 19 72 20 71 21 73 22 70 23 17 24 18 25
REMARK SMILES IDX 19 26 20 28 21 29 22 30 68 31 23 32 67 33 24 34 25 35 26 36
REMARK SMILES IDX 61 37 27 38 66 39 60 40 62 41 28 42 65 43 59 44 58 45 29 47
REMARK SMILES IDX 51 48 36 49 50 50 37 51 40 52 49 53 63 54 38 55 39 56 48 58
REMARK SMILES IDX 64 59 41 60 30 61 31 62 35 63 32 64 34 65 33 66 52 67 53 68
REMARK SMILES IDX 57 69 54 70 56 71 55 72 42 73 43 74 47 75 44 76 46 77 45 78
REMARK H PARENT 14 6 7 15 18 27 62 46 40 57
REMARK Flexibility Score: inf
ROOT
ATOM      1  C   UNL     1       0.410   8.185   1.433  1.00  0.00     0.042 C 
ENDROOT
BRANCH   1   2
ATOM      2  C   UNL     1      -0.099   7.090   0.504  1.00  0.00     0.117 C 
BRANCH   2   3
ATOM      3  N   UNL     1       0.429   5.793   0.877  1.00  0.00    -0.356 N 
ATOM      4  C   UNL     1      -0.071   4.751   1.580  1.00  0.00     0.227 C 
ATOM      5  O   UNL     1       0.743   3.852   1.829  1.00  0.00    -0.274 OA
ATOM      6  H   UNL     1       1.344   5.637   0.550  1.00  0.00     0.163 HD
BRANCH   4   7
ATOM      7  C   UNL     1      -1.534   4.623   2.063  1.00  0.00     0.103 C 
ATOM      8  C   UNL     1      -2.535   3.376   0.272  1.00  0.00     0.106 C 
ATOM      9  C   UNL     1      -3.205   4.705   0.404  1.00  0.00    -0.006 C 
ATOM     10  C   UNL     1      -2.004   3.199   1.696  1.00  0.00     0.047 C 
ATOM     11  C   UNL     1      -2.630   5.405   1.393  1.00  0.00    -0.016 C 
BRANCH   8  12
ATOM     12  N   UNL     1      -3.443   2.356  -0.170  1.00  0.00    -0.346 N 
ATOM     13  C   UNL     1      -3.203   1.041  -0.495  1.00  0.00     0.251 C 
ATOM     14  O   UNL     1      -4.156   0.349  -0.854  1.00  0.00    -0.269 OA
ATOM     15  H   UNL     1      -4.381   2.642  -0.253  1.00  0.00     0.164 HD
BRANCH  13  16
ATOM     16  C   UNL     1      -1.861   0.402  -0.357  1.00  0.00     0.040 A 
ATOM     17  C   UNL     1       1.874   1.165  -0.484  1.00  0.00     0.047 C 
ATOM     18  C   UNL     1       0.581   0.420  -0.346  1.00  0.00    -0.015 A 
ATOM     19  C   UNL     1      -0.645   1.048  -0.615  1.00  0.00     0.020 A 
ATOM     20  C   UNL     1       0.575  -0.911   0.068  1.00  0.00     0.126 A 
ATOM     21  C   UNL     1      -0.618  -1.602   0.244  1.00  0.00     0.040 A 
ATOM     22  F   UNL     1       1.734  -1.543   0.299  1.00  0.00    -0.207 F 
ATOM     23  C   UNL     1      -1.834  -0.943   0.045  1.00  0.00     0.017 A 
ENDBRANCH  13  16
ENDBRANCH   8  12
ENDBRANCH   4   7
ENDBRANCH   2   3
ENDBRANCH   1   2
BRANCH   1  24
ATOM     24  C   UNL     1       1.919   8.405   1.347  1.00  0.00     0.118 C 
BRANCH  24  25
ATOM     25  N   UNL     1       2.335   8.902   0.042  1.00  0.00    -0.352 N 
ATOM     26  C   UNL     1       2.869  10.112  -0.323  1.00  0.00     0.251 C 
ATOM     27  H   UNL     1       2.214   8.265  -0.699  1.00  0.00     0.163 HD
ATOM     28  O   UNL     1       2.943  10.403  -1.513  1.00  0.00    -0.269 OA
BRANCH  26  29
ATOM     29  C   UNL     1       3.350  11.070   0.696  1.00  0.00     0.039 A 
ATOM     30  C   UNL     1       3.128  12.436   0.495  1.00  0.00     0.014 A 
ATOM     31  C   UNL     1       4.073  10.640   1.811  1.00  0.00     0.014 A 
ATOM     32  C   UNL     1       3.593  13.363   1.431  1.00  0.00     0.010 A 
ATOM     33  C   UNL     1       4.464  11.556   2.783  1.00  0.00     0.010 A 
ATOM     34  C   UNL     1       4.248  12.928   2.593  1.00  0.00    -0.014 A 
BRANCH  34  35
ATOM     35  C   UNL     1       4.757  13.892   3.599  1.00  0.00     0.031 A 
ATOM     36  C   UNL     1       6.235  14.002   3.856  1.00  0.00     0.074 A 
ATOM     37  C   UNL     1       3.892  14.622   4.330  1.00  0.00     0.049 A 
ATOM     38  N   UNL     1       6.871  14.728   4.741  1.00  0.00    -0.248 NA
ATOM     39  C   UNL     1       7.114  13.157   3.030  1.00  0.00     0.031 C 
ATOM     40  C   UNL     1       2.433  14.577   4.213  1.00  0.00     0.029 A 
ATOM     41  N   UNL     1       4.120  15.539   5.324  1.00  0.00    -0.354 N 
ATOM     42  C   UNL     1       8.214  14.403   4.600  1.00  0.00     0.074 A 
ATOM     43  C   UNL     1       8.298  13.383   3.578  1.00  0.00     0.031 C 
ATOM     44  C   UNL     1       1.898  15.447   5.085  1.00  0.00     0.029 A 
ATOM     45  C   UNL     1       2.971  16.085   5.841  1.00  0.00     0.049 A 
ATOM     46  H   UNL     1       5.021  15.782   5.637  1.00  0.00     0.167 HD
ATOM     47  C   UNL     1       9.286  14.918   5.248  1.00  0.00     0.031 A 
ATOM     48  C   UNL     1       2.801  17.000   6.813  1.00  0.00     0.031 A 
ATOM     49  C   UNL     1       9.209  15.952   6.244  1.00  0.00     0.049 A 
ATOM     50  C   UNL     1       4.006  17.588   7.491  1.00  0.00     0.074 A 
ATOM     51  C   UNL     1      10.241  16.584   6.916  1.00  0.00     0.029 A 
ATOM     52  N   UNL     1       8.028  16.510   6.707  1.00  0.00    -0.354 N 
ATOM     53  N   UNL     1       5.274  17.312   7.306  1.00  0.00    -0.248 NA
ATOM     54  C   UNL     1       3.754  18.629   8.498  1.00  0.00     0.031 C 
ATOM     55  C   UNL     1       9.681  17.504   7.810  1.00  0.00     0.029 A 
ATOM     56  C   UNL     1       8.304  17.474   7.661  1.00  0.00     0.049 A 
ATOM     57  H   UNL     1       7.126  16.258   6.402  1.00  0.00     0.167 HD
ATOM     58  C   UNL     1       5.973  18.164   8.151  1.00  0.00     0.074 A 
ATOM     59  C   UNL     1       4.988  18.972   8.841  1.00  0.00     0.031 C 
ATOM     60  C   UNL     1       7.311  18.270   8.336  1.00  0.00     0.031 A 
BRANCH  47  61
ATOM     61  C   UNL     1      10.634  14.353   4.895  1.00  0.00    -0.014 A 
ATOM     62  C   UNL     1      11.226  14.604   3.646  1.00  0.00     0.009 A 
ATOM     63  C   UNL     1      11.322  13.556   5.823  1.00  0.00     0.009 A 
ATOM     64  C   UNL     1      12.454  14.027   3.316  1.00  0.00     0.001 A 
ATOM     65  C   UNL     1      12.564  13.005   5.501  1.00  0.00     0.001 A 
ATOM     66  C   UNL     1      13.123  13.230   4.244  1.00  0.00     0.000 A 
ENDBRANCH  47  61
BRANCH  48  67
ATOM     67  C   UNL     1       1.431  17.445   7.172  1.00  0.00    -0.014 A 
ATOM     68  C   UNL     1       0.968  18.705   6.766  1.00  0.00     0.009 A 
ATOM     69  C   UNL     1       0.575  16.607   7.903  1.00  0.00     0.009 A 
ATOM     70  C   UNL     1      -0.321  19.126   7.099  1.00  0.00     0.001 A 
ATOM     71  C   UNL     1      -0.722  17.021   8.215  1.00  0.00     0.001 A 
ATOM     72  C   UNL     1      -1.166  18.282   7.819  1.00  0.00     0.000 A 
ENDBRANCH  48  67
BRANCH  60  73
ATOM     73  C   UNL     1       7.788  19.324   9.293  1.00  0.00    -0.014 A 
ATOM     74  C   UNL     1       7.649  19.167  10.681  1.00  0.00     0.009 A 
ATOM     75  C   UNL     1       8.416  20.477   8.796  1.00  0.00     0.009 A 
ATOM     76  C   UNL     1       8.100  20.162  11.550  1.00  0.00     0.001 A 
ATOM     77  C   UNL     1       8.888  21.458   9.669  1.00  0.00     0.001 A 
ATOM     78  C   UNL     1       8.722  21.304  11.044  1.00  0.00     0.000 A 
ENDBRANCH  60  73
ENDBRANCH  34  35
ENDBRANCH  26  29
ENDBRANCH  24  25
ENDBRANCH   1  24
TORSDOF 12
