REMARK SMILES O=C(NCCCNC(=O)[C@@H]1C=C[C@H](NC(=O)c2ccc(Br)cc2)C1)c1ccc(-c2c3nc(c(-c4ccccc4)c4ccc([nH]4)c(-c4ccccc4)c4nc(c(-c5ccccc5)c5ccc2[nH]5)C=C4)C=C3)cc1
REMARK SMILES IDX 5 1 4 2 3 3 1 4 2 5 25 7 26 8 72 9 27 10 71 11 28 12 29 13
REMARK SMILES IDX 30 14 65 15 31 16 70 17 64 18 66 19 32 20 69 21 63 22 62 23
REMARK SMILES IDX 33 25 55 26 40 27 54 28 41 29 44 30 53 31 67 32 42 33 43 34
REMARK SMILES IDX 52 36 68 37 45 38 34 39 35 40 39 41 36 42 38 43 37 44 56 45
REMARK SMILES IDX 57 46 61 47 58 48 60 49 59 50 46 51 47 52 51 53 48 54 50 55
REMARK SMILES IDX 49 56 6 57 7 58 8 59 9 61 10 62 11 63 24 64 12 65 13 66
REMARK SMILES IDX 14 67 15 68 16 70 17 71 18 72 23 73 19 74 22 75 20 76 21 77
REMARK H PARENT 3 6 66 24 44 35 7 60 14 69
REMARK Flexibility Score: inf
ROOT
ATOM      1  C   UNL     1       4.260   2.130   1.806  1.00  0.00     0.042 C 
ENDROOT
BRANCH   1   2
ATOM      2  C   UNL     1       3.996   1.838   0.334  1.00  0.00     0.118 C 
BRANCH   2   3
ATOM      3  N   UNL     1       4.614   0.588  -0.096  1.00  0.00    -0.352 N 
ATOM      4  O   UNL     1       4.722  -1.613  -0.559  1.00  0.00    -0.269 OA
ATOM      5  C   UNL     1       4.035  -0.593  -0.472  1.00  0.00     0.251 C 
ATOM      6  H   UNL     1       5.598   0.596  -0.119  1.00  0.00     0.163 HD
BRANCH   5   7
ATOM      7  C   UNL     1       2.594  -0.648  -0.783  1.00  0.00     0.039 A 
ATOM      8  C   UNL     1       1.995   0.373  -1.524  1.00  0.00     0.014 A 
ATOM      9  C   UNL     1       1.848  -1.763  -0.390  1.00  0.00     0.014 A 
ATOM     10  C   UNL     1       0.631   0.338  -1.776  1.00  0.00     0.010 A 
ATOM     11  C   UNL     1       0.495  -1.843  -0.726  1.00  0.00     0.010 A 
ATOM     12  C   UNL     1      -0.122  -0.790  -1.419  1.00  0.00    -0.014 A 
BRANCH  12  13
ATOM     13  C   UNL     1      -1.513  -0.910  -1.914  1.00  0.00     0.031 A 
ATOM     14  C   UNL     1      -2.680  -0.936  -0.974  1.00  0.00     0.074 A 
ATOM     15  C   UNL     1      -1.700  -1.006  -3.246  1.00  0.00     0.049 A 
ATOM     16  N   UNL     1      -3.952  -1.058  -1.255  1.00  0.00    -0.248 NA
ATOM     17  C   UNL     1      -2.391  -0.816   0.464  1.00  0.00     0.031 C 
ATOM     18  C   UNL     1      -0.630  -1.004  -4.251  1.00  0.00     0.029 A 
ATOM     19  N   UNL     1      -2.847  -1.119  -3.987  1.00  0.00    -0.354 N 
ATOM     20  C   UNL     1      -4.614  -1.053  -0.035  1.00  0.00     0.074 A 
ATOM     21  C   UNL     1      -3.604  -0.926   0.994  1.00  0.00     0.031 C 
ATOM     22  C   UNL     1      -1.173  -1.080  -5.473  1.00  0.00     0.029 A 
ATOM     23  C   UNL     1      -2.616  -1.214  -5.338  1.00  0.00     0.049 A 
ATOM     24  H   UNL     1      -3.748  -1.131  -3.590  1.00  0.00     0.167 HD
ATOM     25  C   UNL     1      -5.944  -1.151   0.197  1.00  0.00     0.031 A 
ATOM     26  C   UNL     1      -3.467  -1.428  -6.358  1.00  0.00     0.031 A 
ATOM     27  C   UNL     1      -6.939  -1.273  -0.838  1.00  0.00     0.049 A 
ATOM     28  C   UNL     1      -4.928  -1.583  -6.056  1.00  0.00     0.074 A 
ATOM     29  C   UNL     1      -8.316  -1.309  -0.704  1.00  0.00     0.029 A 
ATOM     30  N   UNL     1      -6.665  -1.397  -2.190  1.00  0.00    -0.354 N 
ATOM     31  N   UNL     1      -5.545  -1.494  -4.903  1.00  0.00    -0.248 NA
ATOM     32  C   UNL     1      -5.810  -1.875  -7.193  1.00  0.00     0.031 C 
ATOM     33  C   UNL     1      -8.872  -1.530  -1.967  1.00  0.00     0.029 A 
ATOM     34  C   UNL     1      -7.845  -1.566  -2.896  1.00  0.00     0.049 A 
ATOM     35  H   UNL     1      -5.765  -1.370  -2.590  1.00  0.00     0.167 HD
ATOM     36  C   UNL     1      -6.887  -1.711  -5.177  1.00  0.00     0.074 A 
ATOM     37  C   UNL     1      -6.999  -1.900  -6.609  1.00  0.00     0.031 C 
ATOM     38  C   UNL     1      -7.934  -1.760  -4.319  1.00  0.00     0.031 A 
BRANCH  25  39
ATOM     39  C   UNL     1      -6.420  -1.165   1.623  1.00  0.00    -0.014 A 
ATOM     40  C   UNL     1      -6.436   0.000   2.403  1.00  0.00     0.009 A 
ATOM     41  C   UNL     1      -6.962  -2.347   2.155  1.00  0.00     0.009 A 
ATOM     42  C   UNL     1      -6.975  -0.021   3.692  1.00  0.00     0.001 A 
ATOM     43  C   UNL     1      -7.521  -2.360   3.434  1.00  0.00     0.001 A 
ATOM     44  C   UNL     1      -7.525  -1.198   4.202  1.00  0.00     0.000 A 
ENDBRANCH  25  39
BRANCH  26  45
ATOM     45  C   UNL     1      -2.951  -1.577  -7.744  1.00  0.00    -0.014 A 
ATOM     46  C   UNL     1      -3.275  -0.643  -8.738  1.00  0.00     0.009 A 
ATOM     47  C   UNL     1      -2.146  -2.678  -8.083  1.00  0.00     0.009 A 
ATOM     48  C   UNL     1      -2.833  -0.828 -10.050  1.00  0.00     0.001 A 
ATOM     49  C   UNL     1      -1.675  -2.840  -9.386  1.00  0.00     0.001 A 
ATOM     50  C   UNL     1      -2.031  -1.923 -10.372  1.00  0.00     0.000 A 
ENDBRANCH  26  45
BRANCH  38  51
ATOM     51  C   UNL     1      -9.289  -2.020  -4.911  1.00  0.00    -0.014 A 
ATOM     52  C   UNL     1      -9.632  -3.290  -5.400  1.00  0.00     0.009 A 
ATOM     53  C   UNL     1     -10.245  -0.994  -4.945  1.00  0.00     0.009 A 
ATOM     54  C   UNL     1     -10.899  -3.519  -5.938  1.00  0.00     0.001 A 
ATOM     55  C   UNL     1     -11.521  -1.235  -5.455  1.00  0.00     0.001 A 
ATOM     56  C   UNL     1     -11.844  -2.494  -5.958  1.00  0.00     0.000 A 
ENDBRANCH  38  51
ENDBRANCH  12  13
ENDBRANCH   5   7
ENDBRANCH   2   3
ENDBRANCH   1   2
BRANCH   1  57
ATOM     57  C   UNL     1       5.740   2.288   2.123  1.00  0.00     0.117 C 
BRANCH  57  58
ATOM     58  N   UNL     1       6.304   3.466   1.493  1.00  0.00    -0.356 N 
ATOM     59  C   UNL     1       6.637   4.673   2.034  1.00  0.00     0.227 C 
ATOM     60  H   UNL     1       6.473   3.382   0.527  1.00  0.00     0.163 HD
ATOM     61  O   UNL     1       7.123   5.522   1.286  1.00  0.00    -0.274 OA
BRANCH  59  62
ATOM     62  C   UNL     1       6.372   4.928   3.516  1.00  0.00     0.103 C 
ATOM     63  C   UNL     1       5.296   5.949   3.663  1.00  0.00    -0.016 C 
ATOM     64  C   UNL     1       7.577   5.570   4.221  1.00  0.00     0.047 C 
ATOM     65  C   UNL     1       5.773   7.095   4.152  1.00  0.00    -0.006 C 
ATOM     66  C   UNL     1       7.240   7.060   4.429  1.00  0.00     0.106 C 
BRANCH  66  67
ATOM     67  N   UNL     1       8.037   7.897   3.546  1.00  0.00    -0.346 N 
ATOM     68  C   UNL     1       7.958   9.217   3.197  1.00  0.00     0.251 C 
ATOM     69  H   UNL     1       8.780   7.418   3.112  1.00  0.00     0.164 HD
ATOM     70  O   UNL     1       8.888   9.766   2.613  1.00  0.00    -0.269 OA
BRANCH  68  71
ATOM     71  C   UNL     1       6.712   9.964   3.415  1.00  0.00     0.039 A 
ATOM     72  C   UNL     1       6.247  10.267   4.697  1.00  0.00     0.015 A 
ATOM     73  C   UNL     1       5.970  10.310   2.280  1.00  0.00     0.015 A 
ATOM     74  C   UNL     1       4.983  10.845   4.842  1.00  0.00     0.016 A 
ATOM     75  C   UNL     1       4.716  10.899   2.428  1.00  0.00     0.016 A 
ATOM     76  C   UNL     1       4.220  11.143   3.709  1.00  0.00     0.018 A 
ATOM     77  Br  UNL     1       2.480  11.853   3.912  1.00  0.00    -0.051 Br
ENDBRANCH  68  71
ENDBRANCH  66  67
ENDBRANCH  59  62
ENDBRANCH  57  58
ENDBRANCH   1  57
TORSDOF 12
