REMARK SMILES Cc1cc(C)c2c(C(=O)NCCCNC(=O)c3ccc(-c4c5nc(c(-c6ccccc6)c6ccc([nH]6)c(-c6ccccc6)c6nc(c(-c7ccccc7)c7ccc4[nH]7)C=C6)C=C5)cc3)cc(-c3ccco3)nc2c1
REMARK SMILES IDX 12 1 11 2 10 3 8 4 9 5 7 7 1 8 2 9 3 10 74 11 4 12 73 13
REMARK SMILES IDX 5 14 6 15 72 16 66 17 65 18 67 19 68 20 71 21 69 22 70 23
REMARK SMILES IDX 13 24 14 25 15 26 16 28 17 29 18 30 64 31 19 32 63 33 20 34
REMARK SMILES IDX 21 35 22 36 57 37 23 38 62 39 56 40 58 41 24 42 61 43 55 44
REMARK SMILES IDX 54 45 25 47 47 48 32 49 46 50 33 51 36 52 45 53 59 54 34 55
REMARK SMILES IDX 35 56 44 58 60 59 37 60 26 61 27 62 31 63 28 64 30 65 29 66
REMARK SMILES IDX 48 67 49 68 53 69 50 70 52 71 51 72 38 73 39 74 43 75 40 76
REMARK SMILES IDX 42 77 41 78
REMARK H PARENT 10 6 14 27 58 46 36 57
REMARK Flexibility Score: inf
ROOT
ATOM      1  C   UNL     1       0.140   6.013  -1.317  1.00  0.00     0.042 C 
ENDROOT
BRANCH   1   2
ATOM      2  C   UNL     1       0.384   5.317   0.016  1.00  0.00     0.118 C 
BRANCH   2   3
ATOM      3  N   UNL     1       0.395   6.214   1.164  1.00  0.00    -0.352 N 
ATOM      4  C   UNL     1       0.256   5.965   2.509  1.00  0.00     0.252 C 
ATOM      5  O   UNL     1       0.375   6.910   3.288  1.00  0.00    -0.269 OA
ATOM      6  H   UNL     1       0.525   7.163   0.938  1.00  0.00     0.163 HD
BRANCH   4   7
ATOM      7  C   UNL     1      -0.145   4.638   3.037  1.00  0.00     0.051 A 
ATOM      8  C   UNL     1       0.856  -0.310   0.438  1.00  0.00     0.044 C 
ATOM      9  C   UNL     1       0.771   0.919   1.290  1.00  0.00    -0.049 A 
ATOM     10  C   UNL     1       1.741   1.913   1.205  1.00  0.00     0.007 A 
ATOM     11  C   UNL     1      -0.295   1.106   2.174  1.00  0.00     0.032 A 
ATOM     12  C   UNL     1       1.576   3.127   1.888  1.00  0.00    -0.041 A 
ATOM     13  C   UNL     1      -0.489   2.296   2.860  1.00  0.00     0.072 A 
ATOM     14  C   UNL     1       2.788   4.024   1.987  1.00  0.00     0.045 C 
ATOM     15  C   UNL     1       0.352   3.389   2.582  1.00  0.00     0.016 A 
ATOM     16  N   UNL     1      -1.490   2.343   3.754  1.00  0.00    -0.244 NA
ATOM     17  C   UNL     1      -1.750   3.511   4.375  1.00  0.00     0.107 A 
ATOM     18  C   UNL     1      -1.172   4.694   3.984  1.00  0.00     0.046 A 
BRANCH  17  19
ATOM     19  C   UNL     1      -2.650   3.448   5.513  1.00  0.00     0.152 A 
ATOM     20  C   UNL     1      -3.781   4.138   5.901  1.00  0.00     0.052 A 
ATOM     21  O   UNL     1      -2.273   2.590   6.509  1.00  0.00    -0.463 OA
ATOM     22  C   UNL     1      -4.111   3.674   7.200  1.00  0.00     0.043 A 
ATOM     23  C   UNL     1      -3.158   2.739   7.527  1.00  0.00     0.196 A 
ENDBRANCH  17  19
ENDBRANCH   4   7
ENDBRANCH   2   3
ENDBRANCH   1   2
BRANCH   1  24
ATOM     24  C   UNL     1       1.126   7.137  -1.627  1.00  0.00     0.118 C 
BRANCH  24  25
ATOM     25  N   UNL     1       2.502   6.694  -1.816  1.00  0.00    -0.352 N 
ATOM     26  C   UNL     1       3.202   6.352  -2.951  1.00  0.00     0.251 C 
ATOM     27  H   UNL     1       3.023   6.627  -0.984  1.00  0.00     0.163 HD
ATOM     28  O   UNL     1       4.334   5.896  -2.856  1.00  0.00    -0.269 OA
BRANCH  26  29
ATOM     29  C   UNL     1       2.576   6.481  -4.285  1.00  0.00     0.039 A 
ATOM     30  C   UNL     1       2.723   5.438  -5.205  1.00  0.00     0.014 A 
ATOM     31  C   UNL     1       1.853   7.619  -4.637  1.00  0.00     0.014 A 
ATOM     32  C   UNL     1       2.054   5.492  -6.430  1.00  0.00     0.010 A 
ATOM     33  C   UNL     1       1.103   7.627  -5.807  1.00  0.00     0.010 A 
ATOM     34  C   UNL     1       1.195   6.564  -6.716  1.00  0.00    -0.014 A 
BRANCH  34  35
ATOM     35  C   UNL     1       0.396   6.621  -7.964  1.00  0.00     0.031 A 
ATOM     36  C   UNL     1       0.611   7.748  -8.936  1.00  0.00     0.074 A 
ATOM     37  C   UNL     1      -0.575   5.714  -8.187  1.00  0.00     0.049 A 
ATOM     38  N   UNL     1      -0.077   8.058 -10.004  1.00  0.00    -0.248 NA
ATOM     39  C   UNL     1       1.728   8.666  -8.652  1.00  0.00     0.031 C 
ATOM     40  C   UNL     1      -0.905   4.587  -7.311  1.00  0.00     0.029 A 
ATOM     41  N   UNL     1      -1.470   5.601  -9.222  1.00  0.00    -0.354 N 
ATOM     42  C   UNL     1       0.505   9.218 -10.499  1.00  0.00     0.074 A 
ATOM     43  C   UNL     1       1.569   9.584  -9.592  1.00  0.00     0.031 C 
ATOM     44  C   UNL     1      -1.899   3.875  -7.866  1.00  0.00     0.029 A 
ATOM     45  C   UNL     1      -2.308   4.519  -9.111  1.00  0.00     0.049 A 
ATOM     46  H   UNL     1      -1.507   6.236  -9.973  1.00  0.00     0.167 HD
ATOM     47  C   UNL     1       0.199   9.903 -11.624  1.00  0.00     0.031 A 
ATOM     48  C   UNL     1      -3.295   4.091  -9.920  1.00  0.00     0.031 A 
ATOM     49  C   UNL     1      -0.828   9.518 -12.550  1.00  0.00     0.049 A 
ATOM     50  C   UNL     1      -3.618   4.866 -11.164  1.00  0.00     0.074 A 
ATOM     51  C   UNL     1      -1.182  10.125 -13.742  1.00  0.00     0.029 A 
ATOM     52  N   UNL     1      -1.650   8.413 -12.398  1.00  0.00    -0.354 N 
ATOM     53  N   UNL     1      -3.055   5.959 -11.620  1.00  0.00    -0.248 NA
ATOM     54  C   UNL     1      -4.709   4.353 -12.006  1.00  0.00     0.031 C 
ATOM     55  C   UNL     1      -2.236   9.399 -14.301  1.00  0.00     0.029 A 
ATOM     56  C   UNL     1      -2.512   8.321 -13.474  1.00  0.00     0.049 A 
ATOM     57  H   UNL     1      -1.623   7.788 -11.637  1.00  0.00     0.167 HD
ATOM     58  C   UNL     1      -3.709   6.254 -12.808  1.00  0.00     0.074 A 
ATOM     59  C   UNL     1      -4.708   5.224 -13.007  1.00  0.00     0.031 C 
ATOM     60  C   UNL     1      -3.496   7.287 -13.657  1.00  0.00     0.031 A 
BRANCH  47  61
ATOM     61  C   UNL     1       1.007  11.129 -11.929  1.00  0.00    -0.014 A 
ATOM     62  C   UNL     1       2.328  11.020 -12.392  1.00  0.00     0.009 A 
ATOM     63  C   UNL     1       0.430  12.402 -11.804  1.00  0.00     0.009 A 
ATOM     64  C   UNL     1       3.064  12.164 -12.700  1.00  0.00     0.001 A 
ATOM     65  C   UNL     1       1.162  13.543 -12.136  1.00  0.00     0.001 A 
ATOM     66  C   UNL     1       2.479  13.424 -12.578  1.00  0.00     0.000 A 
ENDBRANCH  47  61
BRANCH  48  67
ATOM     67  C   UNL     1      -4.017   2.837  -9.591  1.00  0.00    -0.014 A 
ATOM     68  C   UNL     1      -3.710   1.653 -10.279  1.00  0.00     0.009 A 
ATOM     69  C   UNL     1      -4.973   2.800  -8.564  1.00  0.00     0.009 A 
ATOM     70  C   UNL     1      -4.349   0.456  -9.948  1.00  0.00     0.001 A 
ATOM     71  C   UNL     1      -5.598   1.598  -8.224  1.00  0.00     0.001 A 
ATOM     72  C   UNL     1      -5.287   0.428  -8.917  1.00  0.00     0.000 A 
ENDBRANCH  48  67
BRANCH  60  73
ATOM     73  C   UNL     1      -4.337   7.362 -14.896  1.00  0.00    -0.014 A 
ATOM     74  C   UNL     1      -5.643   7.869 -14.846  1.00  0.00     0.009 A 
ATOM     75  C   UNL     1      -3.769   7.045 -16.140  1.00  0.00     0.009 A 
ATOM     76  C   UNL     1      -6.368   8.055 -16.024  1.00  0.00     0.001 A 
ATOM     77  C   UNL     1      -4.491   7.250 -17.316  1.00  0.00     0.001 A 
ATOM     78  C   UNL     1      -5.789   7.755 -17.257  1.00  0.00     0.000 A 
ENDBRANCH  60  73
ENDBRANCH  34  35
ENDBRANCH  26  29
ENDBRANCH  24  25
ENDBRANCH   1  24
TORSDOF 11
