REMARK SMILES C[C@@H]1CN(C(=O)Nc2ccc(O)c(C(=O)NCCCNC(=O)c3ccc(-c4c5nc(c(-c6ccccc6)c6ccc([nH]6)c(-c6ccccc6)c6nc(c(-c7ccccc7)c7ccc4[nH]7)C=C6)C=C5)cc3)c2)C[C@H]1C
REMARK SMILES IDX 18 1 17 2 16 3 14 4 15 5 13 7 8 8 9 9 71 10 10 11 11 12 7 13
REMARK SMILES IDX 1 14 2 15 3 16 73 17 4 18 72 19 74 20 5 21 6 22 12 24 19 26
REMARK SMILES IDX 20 27 21 28 22 30 23 31 24 32 70 33 25 34 69 35 26 36 27 37
REMARK SMILES IDX 28 38 63 39 29 40 68 41 62 42 64 43 30 44 67 45 61 46 60 47
REMARK SMILES IDX 31 49 53 50 38 51 52 52 39 53 42 54 51 55 65 56 40 57 41 58
REMARK SMILES IDX 50 60 66 61 43 62 32 63 33 64 37 65 34 66 36 67 35 68 54 69
REMARK SMILES IDX 55 70 59 71 56 72 58 73 57 74 44 75 45 76 49 77 46 78 48 79
REMARK SMILES IDX 47 80
REMARK H PARENT 16 6 7 23 12 25 20 29 64 48 42 59
REMARK Flexibility Score: inf
ROOT
ATOM      1  C   UNL     1      -0.614   0.357  -7.651  1.00  0.00     0.042 C 
ENDROOT
BRANCH   1   2
ATOM      2  C   UNL     1       0.621   0.523  -6.766  1.00  0.00     0.118 C 
BRANCH   2   3
ATOM      3  N   UNL     1       1.168   1.860  -6.875  1.00  0.00    -0.352 N 
ATOM      4  C   UNL     1       1.032   2.983  -6.103  1.00  0.00     0.255 C 
ATOM      5  O   UNL     1       1.658   3.980  -6.477  1.00  0.00    -0.269 OA
ATOM      6  H   UNL     1       1.751   1.987  -7.658  1.00  0.00     0.163 HD
BRANCH   4   7
ATOM      7  C   UNL     1       0.272   3.077  -4.822  1.00  0.00     0.083 A 
ATOM      8  C   UNL     1       0.285   4.115  -2.610  1.00  0.00     0.043 A 
ATOM      9  C   UNL     1      -0.985   3.609  -2.354  1.00  0.00     0.030 A 
ATOM     10  C   UNL     1       0.871   3.917  -3.860  1.00  0.00     0.044 A 
ATOM     11  C   UNL     1      -1.598   2.783  -3.289  1.00  0.00     0.049 A 
ATOM     12  C   UNL     1      -0.961   2.494  -4.502  1.00  0.00     0.128 A 
BRANCH   8  13
ATOM     13  N   UNL     1       0.998   4.835  -1.648  1.00  0.00    -0.308 N 
ATOM     14  C   UNL     1       1.405  -0.175   0.457  1.00  0.00     0.010 C 
ATOM     15  C   UNL     1       0.816   1.176   0.820  1.00  0.00     0.010 C 
ATOM     16  C   UNL     1       0.911   2.173  -0.331  1.00  0.00     0.125 C 
ATOM     17  C   UNL     1       1.535   1.926   1.943  1.00  0.00     0.010 C 
ATOM     18  N   UNL     1       0.858   3.490   0.299  1.00  0.00    -0.324 N 
ATOM     19  C   UNL     1       1.026   3.358   1.741  1.00  0.00     0.125 C 
ATOM     20  C   UNL     1       1.245   1.379   3.329  1.00  0.00     0.010 C 
ATOM     21  C   UNL     1       0.999   4.727  -0.289  1.00  0.00     0.321 C 
ATOM     22  O   UNL     1       1.260   5.735   0.371  1.00  0.00    -0.248 OA
ATOM     23  H   UNL     1       1.595   5.530  -2.008  1.00  0.00     0.171 HD
ENDBRANCH   8  13
BRANCH  12  24
ATOM     24  O   UNL     1      -1.621   1.655  -5.344  1.00  0.00    -0.507 OA
ATOM     25  H   UNL     1      -2.444   1.288  -5.088  1.00  0.00     0.293 HD
ENDBRANCH  12  24
ENDBRANCH   4   7
ENDBRANCH   2   3
ENDBRANCH   1   2
BRANCH   1  26
ATOM     26  C   UNL     1      -0.315   0.254  -9.140  1.00  0.00     0.118 C 
BRANCH  26  27
ATOM     27  N   UNL     1       0.194  -1.055  -9.512  1.00  0.00    -0.352 N 
ATOM     28  C   UNL     1      -0.353  -2.018 -10.325  1.00  0.00     0.251 C 
ATOM     29  H   UNL     1       1.067  -1.288  -9.121  1.00  0.00     0.163 HD
ATOM     30  O   UNL     1       0.138  -3.143 -10.338  1.00  0.00    -0.269 OA
BRANCH  28  31
ATOM     31  C   UNL     1      -1.534  -1.727 -11.175  1.00  0.00     0.039 A 
ATOM     32  C   UNL     1      -2.506  -2.721 -11.331  1.00  0.00     0.014 A 
ATOM     33  C   UNL     1      -1.667  -0.518 -11.863  1.00  0.00     0.014 A 
ATOM     34  C   UNL     1      -3.629  -2.485 -12.130  1.00  0.00     0.010 A 
ATOM     35  C   UNL     1      -2.823  -0.255 -12.598  1.00  0.00     0.010 A 
ATOM     36  C   UNL     1      -3.810  -1.239 -12.749  1.00  0.00    -0.014 A 
BRANCH  36  37
ATOM     37  C   UNL     1      -5.015  -0.952 -13.568  1.00  0.00     0.031 A 
ATOM     38  C   UNL     1      -4.884  -0.689 -15.044  1.00  0.00     0.074 A 
ATOM     39  C   UNL     1      -6.222  -0.867 -12.975  1.00  0.00     0.049 A 
ATOM     40  N   UNL     1      -5.808  -0.351 -15.909  1.00  0.00    -0.248 NA
ATOM     41  C   UNL     1      -3.534  -0.797 -15.619  1.00  0.00     0.031 C 
ATOM     42  C   UNL     1      -6.483  -1.067 -11.549  1.00  0.00     0.029 A 
ATOM     43  N   UNL     1      -7.457  -0.578 -13.502  1.00  0.00    -0.354 N 
ATOM     44  C   UNL     1      -5.148  -0.185 -17.120  1.00  0.00     0.074 A 
ATOM     45  C   UNL     1      -3.743  -0.420 -16.872  1.00  0.00     0.031 C 
ATOM     46  C   UNL     1      -7.797  -0.917 -11.317  1.00  0.00     0.029 A 
ATOM     47  C   UNL     1      -8.465  -0.572 -12.568  1.00  0.00     0.049 A 
ATOM     48  H   UNL     1      -7.606  -0.394 -14.457  1.00  0.00     0.167 HD
ATOM     49  C   UNL     1      -5.666   0.120 -18.334  1.00  0.00     0.031 A 
ATOM     50  C   UNL     1      -9.778  -0.309 -12.702  1.00  0.00     0.031 A 
ATOM     51  C   UNL     1      -7.065   0.337 -18.588  1.00  0.00     0.049 A 
ATOM     52  C   UNL     1     -10.328   0.035 -14.057  1.00  0.00     0.074 A 
ATOM     53  C   UNL     1      -7.694   0.594 -19.794  1.00  0.00     0.029 A 
ATOM     54  N   UNL     1      -8.053   0.325 -17.616  1.00  0.00    -0.354 N 
ATOM     55  N   UNL     1      -9.699   0.129 -15.203  1.00  0.00    -0.248 NA
ATOM     56  C   UNL     1     -11.771   0.300 -14.138  1.00  0.00     0.031 C 
ATOM     57  C   UNL     1      -9.058   0.780 -19.546  1.00  0.00     0.029 A 
ATOM     58  C   UNL     1      -9.284   0.590 -18.192  1.00  0.00     0.049 A 
ATOM     59  H   UNL     1      -7.902   0.153 -16.659  1.00  0.00     0.167 HD
ATOM     60  C   UNL     1     -10.671   0.439 -16.144  1.00  0.00     0.074 A 
ATOM     61  C   UNL     1     -11.934   0.503 -15.438  1.00  0.00     0.031 C 
ATOM     62  C   UNL     1     -10.531   0.652 -17.475  1.00  0.00     0.031 A 
BRANCH  49  63
ATOM     63  C   UNL     1      -4.706   0.243 -19.484  1.00  0.00    -0.014 A 
ATOM     64  C   UNL     1      -4.077  -0.887 -20.031  1.00  0.00     0.009 A 
ATOM     65  C   UNL     1      -4.452   1.502 -20.051  1.00  0.00     0.009 A 
ATOM     66  C   UNL     1      -3.184  -0.753 -21.097  1.00  0.00     0.001 A 
ATOM     67  C   UNL     1      -3.581   1.629 -21.134  1.00  0.00     0.001 A 
ATOM     68  C   UNL     1      -2.941   0.503 -21.650  1.00  0.00     0.000 A 
ENDBRANCH  49  63
BRANCH  50  69
ATOM     69  C   UNL     1     -10.672  -0.373 -11.517  1.00  0.00    -0.014 A 
ATOM     70  C   UNL     1     -11.592  -1.423 -11.377  1.00  0.00     0.009 A 
ATOM     71  C   UNL     1     -10.612   0.615 -10.521  1.00  0.00     0.009 A 
ATOM     72  C   UNL     1     -12.449  -1.471 -10.275  1.00  0.00     0.001 A 
ATOM     73  C   UNL     1     -11.452   0.549  -9.408  1.00  0.00     0.001 A 
ATOM     74  C   UNL     1     -12.375  -0.488  -9.290  1.00  0.00     0.000 A 
ENDBRANCH  50  69
BRANCH  62  75
ATOM     75  C   UNL     1     -11.778   0.943 -18.258  1.00  0.00    -0.014 A 
ATOM     76  C   UNL     1     -12.419   2.188 -18.169  1.00  0.00     0.009 A 
ATOM     77  C   UNL     1     -12.296  -0.031 -19.127  1.00  0.00     0.009 A 
ATOM     78  C   UNL     1     -13.572   2.442 -18.914  1.00  0.00     0.001 A 
ATOM     79  C   UNL     1     -13.434   0.235 -19.889  1.00  0.00     0.001 A 
ATOM     80  C   UNL     1     -14.075   1.468 -19.776  1.00  0.00     0.000 A 
ENDBRANCH  62  75
ENDBRANCH  36  37
ENDBRANCH  28  31
ENDBRANCH  26  27
ENDBRANCH   1  26
TORSDOF 12
