REMARK SMILES O=Cc1ccc(-c2cnccc2C(=O)NCCCNC(=O)c2ccc(-c3c4nc(c(-c5ccccc5)c5ccc([nH]5)c(-c5ccccc5)c5nc(c(-c6ccccc6)c6ccc3[nH]6)C=C5)C=C4)cc2)s1
REMARK SMILES IDX 17 1 16 2 15 3 13 4 14 5 12 7 7 8 8 9 9 10 11 11 10 12 6 13
REMARK SMILES IDX 3 14 4 15 70 16 5 17 2 18 1 19 18 20 19 21 20 22 21 24 22 25
REMARK SMILES IDX 23 26 69 27 24 28 68 29 25 30 26 31 27 32 62 33 28 34 67 35
REMARK SMILES IDX 61 36 63 37 29 38 66 39 60 40 59 41 30 43 52 44 37 45 51 46
REMARK SMILES IDX 38 47 41 48 50 49 64 50 39 51 40 52 49 54 65 55 42 56 31 57
REMARK SMILES IDX 32 58 36 59 33 60 35 61 34 62 53 63 54 64 58 65 55 66 57 67
REMARK SMILES IDX 56 68 43 69 44 70 48 71 45 72 47 73 46 74
REMARK H PARENT 15 6 19 23 63 42 41 53
REMARK Flexibility Score: inf
ROOT
ATOM      1  C   UNL     1       5.684   1.519  -1.191  1.00  0.00     0.042 C 
ENDROOT
BRANCH   1   2
ATOM      2  C   UNL     1       5.326   0.678  -2.400  1.00  0.00     0.118 C 
BRANCH   2   3
ATOM      3  N   UNL     1       5.875   1.080  -3.669  1.00  0.00    -0.352 N 
ATOM      4  C   UNL     1       6.070   0.332  -4.805  1.00  0.00     0.252 C 
ATOM      5  O   UNL     1       6.404   0.937  -5.826  1.00  0.00    -0.269 OA
ATOM      6  H   UNL     1       6.148   2.024  -3.732  1.00  0.00     0.163 HD
BRANCH   4   7
ATOM      7  C   UNL     1       6.030  -1.160  -4.858  1.00  0.00     0.051 A 
ATOM      8  C   UNL     1       5.029  -2.033  -4.391  1.00  0.00     0.023 A 
ATOM      9  C   UNL     1       5.238  -3.397  -4.630  1.00  0.00     0.121 A 
ATOM     10  N   UNL     1       6.309  -3.934  -5.262  1.00  0.00    -0.264 NA
ATOM     11  C   UNL     1       7.141  -1.705  -5.535  1.00  0.00     0.034 A 
ATOM     12  C   UNL     1       7.236  -3.072  -5.708  1.00  0.00     0.112 A 
BRANCH   8  13
ATOM     13  C   UNL     1       3.805  -1.647  -3.681  1.00  0.00     0.037 A 
ATOM     14  C   UNL     1       2.257  -1.172  -1.810  1.00  0.00     0.067 A 
ATOM     15  C   UNL     1       1.864  -0.554  -2.980  1.00  0.00     0.024 A 
ATOM     16  S   UNL     1       3.549  -2.252  -2.081  1.00  0.00    -0.132 S 
ATOM     17  C   UNL     1       2.755  -0.836  -4.067  1.00  0.00     0.021 A 
BRANCH  14  18
ATOM     18  C   UNL     1       1.742  -1.003  -0.470  1.00  0.00     0.270 C 
ATOM     19  O   UNL     1       0.819  -0.255  -0.158  1.00  0.00    -0.297 OA
ENDBRANCH  14  18
ENDBRANCH   8  13
ENDBRANCH   4   7
ENDBRANCH   2   3
ENDBRANCH   1   2
BRANCH   1  20
ATOM     20  C   UNL     1       5.187   2.958  -1.240  1.00  0.00     0.118 C 
BRANCH  20  21
ATOM     21  N   UNL     1       3.737   3.110  -1.329  1.00  0.00    -0.352 N 
ATOM     22  C   UNL     1       2.748   3.381  -0.412  1.00  0.00     0.251 C 
ATOM     23  H   UNL     1       3.393   2.994  -2.244  1.00  0.00     0.163 HD
ATOM     24  O   UNL     1       1.584   3.442  -0.809  1.00  0.00    -0.269 OA
BRANCH  22  25
ATOM     25  C   UNL     1       3.025   3.557   1.033  1.00  0.00     0.039 A 
ATOM     26  C   UNL     1       2.088   3.098   1.968  1.00  0.00     0.014 A 
ATOM     27  C   UNL     1       4.171   4.197   1.493  1.00  0.00     0.014 A 
ATOM     28  C   UNL     1       2.352   3.194   3.341  1.00  0.00     0.010 A 
ATOM     29  C   UNL     1       4.497   4.168   2.845  1.00  0.00     0.010 A 
ATOM     30  C   UNL     1       3.591   3.675   3.793  1.00  0.00    -0.014 A 
BRANCH  30  31
ATOM     31  C   UNL     1       3.973   3.696   5.233  1.00  0.00     0.031 A 
ATOM     32  C   UNL     1       4.419   4.985   5.880  1.00  0.00     0.074 A 
ATOM     33  C   UNL     1       4.036   2.545   5.933  1.00  0.00     0.049 A 
ATOM     34  N   UNL     1       4.962   5.178   7.057  1.00  0.00    -0.248 NA
ATOM     35  C   UNL     1       4.281   6.213   5.079  1.00  0.00     0.031 C 
ATOM     36  C   UNL     1       3.686   1.216   5.427  1.00  0.00     0.029 A 
ATOM     37  N   UNL     1       4.437   2.308   7.226  1.00  0.00    -0.354 N 
ATOM     38  C   UNL     1       5.273   6.532   7.111  1.00  0.00     0.074 A 
ATOM     39  C   UNL     1       4.910   7.101   5.833  1.00  0.00     0.031 C 
ATOM     40  C   UNL     1       3.851   0.312   6.405  1.00  0.00     0.029 A 
ATOM     41  C   UNL     1       4.369   0.985   7.591  1.00  0.00     0.049 A 
ATOM     42  H   UNL     1       4.743   3.019   7.834  1.00  0.00     0.167 HD
ATOM     43  C   UNL     1       5.791   7.248   8.138  1.00  0.00     0.031 A 
ATOM     44  C   UNL     1       4.694   0.376   8.747  1.00  0.00     0.031 A 
ATOM     45  C   UNL     1       6.102   6.699   9.430  1.00  0.00     0.049 A 
ATOM     46  C   UNL     1       5.234   1.195   9.885  1.00  0.00     0.074 A 
ATOM     47  C   UNL     1       6.556   7.357  10.561  1.00  0.00     0.029 A 
ATOM     48  N   UNL     1       5.974   5.362   9.768  1.00  0.00    -0.354 N 
ATOM     49  N   UNL     1       5.477   2.482   9.934  1.00  0.00    -0.248 NA
ATOM     50  C   UNL     1       5.536   0.476  11.131  1.00  0.00     0.031 C 
ATOM     51  C   UNL     1       6.737   6.409  11.573  1.00  0.00     0.029 A 
ATOM     52  C   UNL     1       6.351   5.171  11.086  1.00  0.00     0.049 A 
ATOM     53  H   UNL     1       5.662   4.652   9.161  1.00  0.00     0.167 HD
ATOM     54  C   UNL     1       5.933   2.732  11.222  1.00  0.00     0.074 A 
ATOM     55  C   UNL     1       5.919   1.466  11.926  1.00  0.00     0.031 C 
ATOM     56  C   UNL     1       6.327   3.906  11.772  1.00  0.00     0.031 A 
BRANCH  43  57
ATOM     57  C   UNL     1       6.044   8.713   7.903  1.00  0.00    -0.014 A 
ATOM     58  C   UNL     1       4.984   9.621   7.749  1.00  0.00     0.009 A 
ATOM     59  C   UNL     1       7.361   9.197   7.858  1.00  0.00     0.009 A 
ATOM     60  C   UNL     1       5.236  10.973   7.507  1.00  0.00     0.001 A 
ATOM     61  C   UNL     1       7.611  10.555   7.649  1.00  0.00     0.001 A 
ATOM     62  C   UNL     1       6.549  11.439   7.461  1.00  0.00     0.000 A 
ENDBRANCH  43  57
BRANCH  44  63
ATOM     63  C   UNL     1       4.489  -1.088   8.901  1.00  0.00    -0.014 A 
ATOM     64  C   UNL     1       3.454  -1.574   9.714  1.00  0.00     0.009 A 
ATOM     65  C   UNL     1       5.321  -2.005   8.240  1.00  0.00     0.009 A 
ATOM     66  C   UNL     1       3.271  -2.948   9.884  1.00  0.00     0.001 A 
ATOM     67  C   UNL     1       5.118  -3.379   8.390  1.00  0.00     0.001 A 
ATOM     68  C   UNL     1       4.100  -3.849   9.218  1.00  0.00     0.000 A 
ENDBRANCH  44  63
BRANCH  56  69
ATOM     69  C   UNL     1       6.738   3.883  13.216  1.00  0.00    -0.014 A 
ATOM     70  C   UNL     1       7.962   3.326  13.617  1.00  0.00     0.009 A 
ATOM     71  C   UNL     1       5.905   4.467  14.183  1.00  0.00     0.009 A 
ATOM     72  C   UNL     1       8.329   3.327  14.964  1.00  0.00     0.001 A 
ATOM     73  C   UNL     1       6.287   4.491  15.525  1.00  0.00     0.001 A 
ATOM     74  C   UNL     1       7.494   3.913  15.915  1.00  0.00     0.000 A 
ENDBRANCH  56  69
ENDBRANCH  30  31
ENDBRANCH  22  25
ENDBRANCH  20  21
ENDBRANCH   1  20
TORSDOF 12
