REMARK SMILES Cc1ccccc1C(=O)Nc1ccc(OCC(=O)NCCCNC(=O)c2ccc(-c3c4nc(c(-c5ccccc5)c5ccc([nH]5)c(-c5ccccc5)c5nc(c(-c6ccccc6)c6ccc3[nH]6)C=C5)C=C4)cc2)c(-c2nc3ccccc3s2)c1
REMARK SMILES IDX 20 1 19 2 17 3 18 4 16 6 15 7 14 8 11 9 12 10 84 11 13 12
REMARK SMILES IDX 74 13 10 14 8 15 9 16 7 18 1 19 2 20 3 21 4 22 6 23 5 24
REMARK SMILES IDX 75 25 76 26 83 27 77 28 82 29 78 30 81 31 79 32 80 33 21 34
REMARK SMILES IDX 22 35 23 36 24 37 25 39 26 40 27 41 73 42 28 43 72 44 29 45
REMARK SMILES IDX 30 46 31 47 66 48 32 49 71 50 65 51 67 52 33 53 70 54 64 55
REMARK SMILES IDX 63 56 34 58 56 59 41 60 55 61 42 62 45 63 54 64 68 65 43 66
REMARK SMILES IDX 44 67 53 69 69 70 46 71 35 72 36 73 40 74 37 75 39 76 38 77
REMARK SMILES IDX 57 78 58 79 62 80 59 81 61 82 60 83 47 84 48 85 52 86 49 87
REMARK SMILES IDX 51 88 50 89
REMARK H PARENT 19 5 10 17 23 38 67 57 45 68
REMARK Flexibility Score: inf
ROOT
ATOM      1  C   UNL     1       5.084  -4.835   1.919  1.00  0.00     0.117 C 
ENDROOT
BRANCH   1   2
ATOM      2  N   UNL     1       4.031  -4.547   0.967  1.00  0.00    -0.353 N 
ATOM      3  C   UNL     1       4.089  -3.728  -0.130  1.00  0.00     0.257 C 
ATOM      4  O   UNL     1       3.023  -3.462  -0.679  1.00  0.00    -0.271 OA
ATOM      5  H   UNL     1       3.168  -4.993   1.128  1.00  0.00     0.163 HD
BRANCH   3   6
ATOM      6  C   UNL     1       5.481  -3.225  -0.612  1.00  0.00     0.329 C 
BRANCH   6   7
ATOM      7  O   UNL     1       5.658  -2.169  -1.552  1.00  0.00    -0.483 OA
BRANCH   7   8
ATOM      8  C   UNL     1       4.908  -1.058  -1.276  1.00  0.00     0.130 A 
ATOM      9  C   UNL     1       3.380   1.140  -0.499  1.00  0.00     0.042 A 
ATOM     10  C   UNL     1       4.629   0.927   0.083  1.00  0.00     0.030 A 
ATOM     11  C   UNL     1       2.972   0.340  -1.570  1.00  0.00     0.041 A 
ATOM     12  C   UNL     1       5.376  -0.192  -0.279  1.00  0.00     0.049 A 
ATOM     13  C   UNL     1       3.747  -0.756  -2.014  1.00  0.00     0.055 A 
BRANCH   9  14
ATOM     14  N   UNL     1       2.573   2.135   0.066  1.00  0.00    -0.322 N 
ATOM     15  C   UNL     1       1.207   2.192   0.249  1.00  0.00     0.255 C 
ATOM     16  O   UNL     1       0.707   3.264   0.595  1.00  0.00    -0.269 OA
ATOM     17  H   UNL     1       3.062   2.927   0.386  1.00  0.00     0.170 HD
BRANCH  15  18
ATOM     18  C   UNL     1       0.317   0.997   0.143  1.00  0.00     0.043 A 
ATOM     19  C   UNL     1       1.788  -0.611   1.528  1.00  0.00     0.045 C 
ATOM     20  C   UNL     1       0.583  -0.273   0.700  1.00  0.00    -0.038 A 
ATOM     21  C   UNL     1      -0.351  -1.308   0.501  1.00  0.00     0.004 A 
ATOM     22  C   UNL     1      -1.573  -1.069  -0.125  1.00  0.00     0.000 A 
ATOM     23  C   UNL     1      -0.935   1.230  -0.456  1.00  0.00     0.014 A 
ATOM     24  C   UNL     1      -1.877   0.208  -0.579  1.00  0.00     0.001 A 
ENDBRANCH  15  18
ENDBRANCH   9  14
BRANCH  13  25
ATOM     25  C   UNL     1       3.224  -1.538  -3.162  1.00  0.00     0.128 A 
ATOM     26  N   UNL     1       2.172  -1.168  -3.873  1.00  0.00    -0.236 NA
ATOM     27  S   UNL     1       3.908  -3.031  -3.693  1.00  0.00    -0.114 S 
ATOM     28  C   UNL     1       1.714  -2.229  -4.636  1.00  0.00     0.082 A 
ATOM     29  C   UNL     1       2.487  -3.385  -4.570  1.00  0.00     0.055 A 
ATOM     30  C   UNL     1       0.540  -2.248  -5.411  1.00  0.00     0.030 A 
ATOM     31  C   UNL     1       2.093  -4.590  -5.166  1.00  0.00     0.021 A 
ATOM     32  C   UNL     1       0.136  -3.442  -6.020  1.00  0.00     0.002 A 
ATOM     33  C   UNL     1       0.891  -4.603  -5.876  1.00  0.00     0.002 A 
ENDBRANCH  13  25
ENDBRANCH   7   8
ENDBRANCH   6   7
ENDBRANCH   3   6
ENDBRANCH   1   2
BRANCH   1  34
ATOM     34  C   UNL     1       5.227  -3.694   2.921  1.00  0.00     0.042 C 
BRANCH  34  35
ATOM     35  C   UNL     1       4.127  -3.700   3.975  1.00  0.00     0.118 C 
BRANCH  35  36
ATOM     36  N   UNL     1       4.425  -4.546   5.122  1.00  0.00    -0.352 N 
ATOM     37  C   UNL     1       3.644  -4.882   6.214  1.00  0.00     0.251 C 
ATOM     38  H   UNL     1       5.327  -4.941   5.121  1.00  0.00     0.163 HD
ATOM     39  O   UNL     1       4.113  -5.585   7.092  1.00  0.00    -0.269 OA
BRANCH  37  40
ATOM     40  C   UNL     1       2.204  -4.514   6.244  1.00  0.00     0.039 A 
ATOM     41  C   UNL     1       1.301  -5.478   6.712  1.00  0.00     0.014 A 
ATOM     42  C   UNL     1       1.730  -3.347   5.653  1.00  0.00     0.014 A 
ATOM     43  C   UNL     1      -0.041  -5.389   6.354  1.00  0.00     0.010 A 
ATOM     44  C   UNL     1       0.424  -3.303   5.212  1.00  0.00     0.010 A 
ATOM     45  C   UNL     1      -0.440  -4.360   5.504  1.00  0.00    -0.014 A 
BRANCH  45  46
ATOM     46  C   UNL     1      -1.697  -4.371   4.773  1.00  0.00     0.031 A 
ATOM     47  C   UNL     1      -2.819  -3.519   5.204  1.00  0.00     0.074 A 
ATOM     48  C   UNL     1      -1.823  -5.147   3.676  1.00  0.00     0.049 A 
ATOM     49  N   UNL     1      -4.059  -3.794   4.978  1.00  0.00    -0.248 NA
ATOM     50  C   UNL     1      -2.628  -2.301   5.983  1.00  0.00     0.031 C 
ATOM     51  C   UNL     1      -2.885  -5.114   2.676  1.00  0.00     0.029 A 
ATOM     52  N   UNL     1      -1.093  -6.271   3.335  1.00  0.00    -0.354 N 
ATOM     53  C   UNL     1      -4.790  -2.676   5.302  1.00  0.00     0.074 A 
ATOM     54  C   UNL     1      -3.871  -1.813   6.008  1.00  0.00     0.031 C 
ATOM     55  C   UNL     1      -2.881  -6.276   1.999  1.00  0.00     0.029 A 
ATOM     56  C   UNL     1      -1.917  -7.155   2.642  1.00  0.00     0.049 A 
ATOM     57  H   UNL     1      -0.144  -6.422   3.548  1.00  0.00     0.167 HD
ATOM     58  C   UNL     1      -6.051  -2.530   4.806  1.00  0.00     0.031 A 
ATOM     59  C   UNL     1      -2.211  -8.394   3.138  1.00  0.00     0.031 A 
ATOM     60  C   UNL     1      -6.458  -3.684   4.007  1.00  0.00     0.049 A 
ATOM     61  C   UNL     1      -3.685  -8.593   3.432  1.00  0.00     0.074 A 
ATOM     62  C   UNL     1      -6.484  -3.912   2.640  1.00  0.00     0.029 A 
ATOM     63  N   UNL     1      -6.618  -4.921   4.618  1.00  0.00    -0.354 N 
ATOM     64  N   UNL     1      -4.539  -7.617   3.572  1.00  0.00    -0.248 NA
ATOM     65  C   UNL     1      -4.303  -9.902   3.629  1.00  0.00     0.031 C 
ATOM     66  C   UNL     1      -6.603  -5.310   2.432  1.00  0.00     0.029 A 
ATOM     67  C   UNL     1      -6.679  -5.923   3.669  1.00  0.00     0.049 A 
ATOM     68  H   UNL     1      -6.680  -5.063   5.590  1.00  0.00     0.167 HD
ATOM     69  C   UNL     1      -5.778  -8.125   3.863  1.00  0.00     0.074 A 
ATOM     70  C   UNL     1      -5.581  -9.563   3.880  1.00  0.00     0.031 C 
ATOM     71  C   UNL     1      -6.855  -7.312   4.073  1.00  0.00     0.031 A 
BRANCH  58  72
ATOM     72  C   UNL     1      -6.783  -1.210   4.791  1.00  0.00    -0.014 A 
ATOM     73  C   UNL     1      -7.706  -0.941   3.763  1.00  0.00     0.009 A 
ATOM     74  C   UNL     1      -6.575  -0.176   5.718  1.00  0.00     0.009 A 
ATOM     75  C   UNL     1      -8.300   0.319   3.608  1.00  0.00     0.001 A 
ATOM     76  C   UNL     1      -7.131   1.100   5.546  1.00  0.00     0.001 A 
ATOM     77  C   UNL     1      -7.985   1.351   4.482  1.00  0.00     0.000 A 
ENDBRANCH  58  72
BRANCH  59  78
ATOM     78  C   UNL     1      -1.108  -9.003   3.933  1.00  0.00    -0.014 A 
ATOM     79  C   UNL     1       0.066  -9.391   3.257  1.00  0.00     0.009 A 
ATOM     80  C   UNL     1      -1.062  -8.862   5.327  1.00  0.00     0.009 A 
ATOM     81  C   UNL     1       1.278  -9.521   3.943  1.00  0.00     0.001 A 
ATOM     82  C   UNL     1       0.153  -9.001   6.011  1.00  0.00     0.001 A 
ATOM     83  C   UNL     1       1.326  -9.295   5.316  1.00  0.00     0.000 A 
ENDBRANCH  59  78
BRANCH  71  84
ATOM     84  C   UNL     1      -8.206  -7.725   4.609  1.00  0.00    -0.014 A 
ATOM     85  C   UNL     1      -8.450  -8.897   5.335  1.00  0.00     0.009 A 
ATOM     86  C   UNL     1      -9.286  -6.818   4.497  1.00  0.00     0.009 A 
ATOM     87  C   UNL     1      -9.713  -9.165   5.885  1.00  0.00     0.001 A 
ATOM     88  C   UNL     1     -10.531  -7.058   5.083  1.00  0.00     0.001 A 
ATOM     89  C   UNL     1     -10.748  -8.242   5.770  1.00  0.00     0.000 A 
ENDBRANCH  71  84
ENDBRANCH  45  46
ENDBRANCH  37  40
ENDBRANCH  35  36
ENDBRANCH  34  35
ENDBRANCH   1  34
TORSDOF 15
