REMARK SMILES CCn1ncc(NC(=O)[C@@H]2CCCC[C@@H]2C(=O)NCCCNC(=O)c2ccc(-c3c4nc(c(-c5ccccc5)c5ccc([nH]5)c(-c5ccccc5)c5nc(c(-c6ccccc6)c6ccc3[nH]6)C=C5)C=C4)cc2)c1C(=O)Nc1cnn(C)c1C
REMARK SMILES IDX 19 1 18 2 16 3 17 4 15 6 10 7 11 8 12 9 14 10 13 11 8 12
REMARK SMILES IDX 7 13 9 15 6 16 3 17 4 18 73 19 5 20 2 21 1 22 74 23 75 24
REMARK SMILES IDX 76 25 77 27 78 28 82 29 79 30 80 31 83 32 81 33 20 34 21 35
REMARK SMILES IDX 22 36 23 37 24 39 25 40 26 41 72 42 27 43 71 44 28 45 29 46
REMARK SMILES IDX 30 47 65 48 31 49 70 50 64 51 66 52 32 53 69 54 63 55 62 56
REMARK SMILES IDX 33 58 55 59 40 60 54 61 41 62 44 63 53 64 67 65 42 66 43 67
REMARK SMILES IDX 52 69 68 70 45 71 34 72 35 73 39 74 36 75 38 76 37 77 56 78
REMARK SMILES IDX 57 79 61 80 58 81 60 82 59 83 46 84 47 85 51 86 48 87 50 88
REMARK SMILES IDX 49 89
REMARK H PARENT 18 5 7 14 76 26 22 38 66 57 44 68
REMARK Flexibility Score: inf
ROOT
ATOM      1  C   UNL     1      -5.097  -7.493  -1.465  1.00  0.00     0.117 C 
ENDROOT
BRANCH   1   2
ATOM      2  N   UNL     1      -4.422  -6.692  -0.464  1.00  0.00    -0.356 N 
ATOM      3  C   UNL     1      -3.119  -6.310  -0.388  1.00  0.00     0.223 C 
ATOM      4  O   UNL     1      -2.732  -5.913   0.713  1.00  0.00    -0.275 OA
ATOM      5  H   UNL     1      -4.993  -6.377   0.274  1.00  0.00     0.163 HD
BRANCH   3   6
ATOM      6  C   UNL     1      -2.216  -6.346  -1.641  1.00  0.00     0.091 C 
ATOM      7  C   UNL     1      -0.894  -5.528  -1.401  1.00  0.00     0.091 C 
ATOM      8  C   UNL     1      -1.313  -4.100  -1.070  1.00  0.00     0.014 C 
ATOM      9  C   UNL     1      -2.128  -3.461  -2.173  1.00  0.00     0.001 C 
ATOM     10  C   UNL     1      -2.901  -5.696  -2.875  1.00  0.00     0.014 C 
ATOM     11  C   UNL     1      -3.331  -4.265  -2.585  1.00  0.00     0.001 C 
BRANCH   7  12
ATOM     12  C   UNL     1       0.091  -6.202  -0.442  1.00  0.00     0.228 C 
ATOM     13  N   UNL     1       1.156  -5.587   0.162  1.00  0.00    -0.322 N 
ATOM     14  H   UNL     1       1.757  -6.226   0.609  1.00  0.00     0.170 HD
ATOM     15  O   UNL     1      -0.029  -7.415  -0.209  1.00  0.00    -0.274 OA
BRANCH  13  16
ATOM     16  C   UNL     1       1.587  -4.268   0.293  1.00  0.00     0.092 A 
ATOM     17  N   UNL     1       1.594  -2.113   0.372  1.00  0.00    -0.258 N 
ATOM     18  N   UNL     1       2.208  -2.459   1.530  1.00  0.00    -0.178 NA
ATOM     19  C   UNL     1       1.651  -3.148  -0.558  1.00  0.00     0.150 A 
ATOM     20  C   UNL     1       2.118  -3.787   1.516  1.00  0.00     0.162 A 
BRANCH  17  21
ATOM     21  C   UNL     1       0.540  -1.112   0.506  1.00  0.00     0.142 C 
ATOM     22  C   UNL     1       1.062   0.277   0.819  1.00  0.00     0.029 C 
ENDBRANCH  17  21
BRANCH  19  23
ATOM     23  C   UNL     1       1.623  -3.120  -2.023  1.00  0.00     0.276 C 
ATOM     24  O   UNL     1       2.052  -4.079  -2.672  1.00  0.00    -0.267 OA
ATOM     25  N   UNL     1       0.886  -2.194  -2.747  1.00  0.00    -0.318 N 
ATOM     26  H   UNL     1       0.317  -2.591  -3.445  1.00  0.00     0.170 HD
BRANCH  25  27
ATOM     27  C   UNL     1       0.804  -0.821  -2.667  1.00  0.00     0.082 A 
ATOM     28  C   UNL     1       1.816   0.115  -2.387  1.00  0.00     0.161 A 
ATOM     29  C   UNL     1      -0.322  -0.054  -2.939  1.00  0.00     0.059 A 
ATOM     30  N   UNL     1       1.355   1.367  -2.367  1.00  0.00    -0.179 NA
ATOM     31  N   UNL     1       0.042   1.236  -2.629  1.00  0.00    -0.271 N 
ATOM     32  C   UNL     1      -1.722  -0.388  -3.313  1.00  0.00     0.068 C 
ATOM     33  C   UNL     1      -0.818   2.385  -2.440  1.00  0.00     0.174 C 
ENDBRANCH  25  27
ENDBRANCH  19  23
ENDBRANCH  13  16
ENDBRANCH   7  12
ENDBRANCH   3   6
ENDBRANCH   1   2
BRANCH   1  34
ATOM     34  C   UNL     1      -5.452  -8.879  -0.952  1.00  0.00     0.042 C 
BRANCH  34  35
ATOM     35  C   UNL     1      -6.502  -8.840   0.133  1.00  0.00     0.118 C 
BRANCH  35  36
ATOM     36  N   UNL     1      -7.785  -8.306  -0.329  1.00  0.00    -0.352 N 
ATOM     37  C   UNL     1      -8.940  -8.159   0.411  1.00  0.00     0.251 C 
ATOM     38  H   UNL     1      -7.829  -8.021  -1.271  1.00  0.00     0.163 HD
ATOM     39  O   UNL     1     -10.029  -7.963  -0.115  1.00  0.00    -0.269 OA
BRANCH  37  40
ATOM     40  C   UNL     1      -8.812  -8.234   1.870  1.00  0.00     0.039 A 
ATOM     41  C   UNL     1      -9.610  -9.087   2.637  1.00  0.00     0.014 A 
ATOM     42  C   UNL     1      -7.766  -7.508   2.431  1.00  0.00     0.014 A 
ATOM     43  C   UNL     1      -9.297  -9.259   3.982  1.00  0.00     0.010 A 
ATOM     44  C   UNL     1      -7.346  -7.829   3.688  1.00  0.00     0.010 A 
ATOM     45  C   UNL     1      -8.155  -8.632   4.491  1.00  0.00    -0.014 A 
BRANCH  45  46
ATOM     46  C   UNL     1      -7.726  -8.799   5.871  1.00  0.00     0.031 A 
ATOM     47  C   UNL     1      -7.237 -10.155   6.246  1.00  0.00     0.074 A 
ATOM     48  C   UNL     1      -7.473  -7.701   6.616  1.00  0.00     0.049 A 
ATOM     49  N   UNL     1      -7.674 -10.935   7.179  1.00  0.00    -0.248 NA
ATOM     50  C   UNL     1      -6.179 -10.760   5.417  1.00  0.00     0.031 C 
ATOM     51  C   UNL     1      -7.555  -6.290   6.199  1.00  0.00     0.029 A 
ATOM     52  N   UNL     1      -6.902  -7.612   7.843  1.00  0.00    -0.354 N 
ATOM     53  C   UNL     1      -6.838 -12.053   7.176  1.00  0.00     0.074 A 
ATOM     54  C   UNL     1      -6.062 -11.970   5.966  1.00  0.00     0.031 C 
ATOM     55  C   UNL     1      -6.807  -5.532   7.028  1.00  0.00     0.029 A 
ATOM     56  C   UNL     1      -6.361  -6.365   8.127  1.00  0.00     0.049 A 
ATOM     57  H   UNL     1      -6.875  -8.365   8.476  1.00  0.00     0.167 HD
ATOM     58  C   UNL     1      -6.672 -12.832   8.284  1.00  0.00     0.031 A 
ATOM     59  C   UNL     1      -5.556  -6.050   9.169  1.00  0.00     0.031 A 
ATOM     60  C   UNL     1      -7.667 -12.544   9.284  1.00  0.00     0.049 A 
ATOM     61  C   UNL     1      -5.686  -7.138  10.166  1.00  0.00     0.074 A 
ATOM     62  C   UNL     1      -9.042 -12.625   9.346  1.00  0.00     0.029 A 
ATOM     63  N   UNL     1      -7.286 -11.714  10.313  1.00  0.00    -0.354 N 
ATOM     64  N   UNL     1      -6.789  -7.393  10.812  1.00  0.00    -0.248 NA
ATOM     65  C   UNL     1      -4.733  -8.235  10.104  1.00  0.00     0.031 C 
ATOM     66  C   UNL     1      -9.440 -11.473  10.087  1.00  0.00     0.029 A 
ATOM     67  C   UNL     1      -8.286 -10.797  10.492  1.00  0.00     0.049 A 
ATOM     68  H   UNL     1      -6.448 -11.771  10.826  1.00  0.00     0.167 HD
ATOM     69  C   UNL     1      -6.861  -8.778  10.859  1.00  0.00     0.074 A 
ATOM     70  C   UNL     1      -5.518  -9.238  10.509  1.00  0.00     0.031 C 
ATOM     71  C   UNL     1      -8.066  -9.422  10.888  1.00  0.00     0.031 A 
BRANCH  58  72
ATOM     72  C   UNL     1      -5.390 -13.551   8.644  1.00  0.00    -0.014 A 
ATOM     73  C   UNL     1      -5.353 -14.300   9.838  1.00  0.00     0.009 A 
ATOM     74  C   UNL     1      -4.152 -13.305   8.024  1.00  0.00     0.009 A 
ATOM     75  C   UNL     1      -4.142 -14.691  10.422  1.00  0.00     0.001 A 
ATOM     76  C   UNL     1      -2.943 -13.733   8.581  1.00  0.00     0.001 A 
ATOM     77  C   UNL     1      -2.935 -14.397   9.797  1.00  0.00     0.000 A 
ENDBRANCH  58  72
BRANCH  59  78
ATOM     78  C   UNL     1      -4.505  -5.016   9.232  1.00  0.00    -0.014 A 
ATOM     79  C   UNL     1      -4.080  -4.491  10.461  1.00  0.00     0.009 A 
ATOM     80  C   UNL     1      -3.743  -4.708   8.088  1.00  0.00     0.009 A 
ATOM     81  C   UNL     1      -2.920  -3.708  10.545  1.00  0.00     0.001 A 
ATOM     82  C   UNL     1      -2.585  -3.927   8.172  1.00  0.00     0.001 A 
ATOM     83  C   UNL     1      -2.167  -3.437   9.404  1.00  0.00     0.000 A 
ENDBRANCH  59  78
BRANCH  71  84
ATOM     84  C   UNL     1      -9.314  -8.592  11.076  1.00  0.00    -0.014 A 
ATOM     85  C   UNL     1      -9.756  -7.655  10.125  1.00  0.00     0.009 A 
ATOM     86  C   UNL     1     -10.171  -8.918  12.136  1.00  0.00     0.009 A 
ATOM     87  C   UNL     1     -11.017  -7.059  10.237  1.00  0.00     0.001 A 
ATOM     88  C   UNL     1     -11.437  -8.338  12.237  1.00  0.00     0.001 A 
ATOM     89  C   UNL     1     -11.860  -7.409  11.289  1.00  0.00     0.000 A 
ENDBRANCH  71  84
ENDBRANCH  45  46
ENDBRANCH  37  40
ENDBRANCH  35  36
ENDBRANCH  34  35
ENDBRANCH   1  34
TORSDOF 15
