REMARK SMILES COc1ccc(C(=O)C2=C(NCCCNC(=O)c3ccc(-c4c5nc(c(-c6ccccc6)c6ccc([nH]6)c(-c6ccccc6)c6nc(c(-c7ccccc7)c7ccc4[nH]7)C=C6)C=C5)cc3)C(=O)N(CCC(=O)[O-])[C@H]2c2ccccc2F)cc1
REMARK SMILES IDX 12 1 11 2 10 4 9 5 74 6 66 7 68 8 67 9 7 10 8 11 6 12 3 13
REMARK SMILES IDX 4 14 83 15 5 16 82 17 2 18 1 19 75 20 76 21 80 22 77 23
REMARK SMILES IDX 79 24 81 25 78 26 69 27 70 28 71 29 72 30 73 31 13 32 14 33
REMARK SMILES IDX 15 34 16 35 17 37 18 38 19 39 65 40 20 41 64 42 21 43 22 44
REMARK SMILES IDX 23 45 58 46 24 47 63 48 57 49 59 50 25 51 62 52 56 53 55 54
REMARK SMILES IDX 26 56 48 57 33 58 47 59 34 60 37 61 46 62 60 63 35 64 36 65
REMARK SMILES IDX 45 67 61 68 38 69 27 70 28 71 32 72 29 73 31 74 30 75 49 76
REMARK SMILES IDX 50 77 54 78 51 79 53 80 52 81 39 82 40 83 44 84 41 85 43 86
REMARK SMILES IDX 42 87
REMARK H PARENT 11 3 15 36 59 55 37 66
REMARK Flexibility Score: inf
ROOT
ATOM      1  C   UNL     1       0.759  -4.532  -6.431  1.00  0.00     0.115 C 
ENDROOT
BRANCH   1   2
ATOM      2  N   UNL     1       2.204  -4.535  -6.450  1.00  0.00    -0.380 N 
ATOM      3  H   UNL     1       2.612  -4.216  -7.287  1.00  0.00     0.160 HD
BRANCH   2   4
ATOM      4  C   UNL     1       3.091  -4.913  -5.479  1.00  0.00     0.110 C 
ATOM      5  C   UNL     1       3.042  -5.239  -4.183  1.00  0.00     0.056 C 
ATOM      6  C   UNL     1       4.346  -5.708  -3.607  1.00  0.00     0.155 C 
ATOM      7  C   UNL     1       4.531  -5.099  -5.859  1.00  0.00     0.271 C 
ATOM      8  N   UNL     1       5.185  -5.667  -4.789  1.00  0.00    -0.326 N 
ATOM      9  O   UNL     1       4.982  -4.801  -6.951  1.00  0.00    -0.267 OA
BRANCH   5  10
ATOM     10  C   UNL     1       1.788  -5.322  -3.418  1.00  0.00     0.193 C 
ATOM     11  O   UNL     1       1.144  -6.367  -3.422  1.00  0.00    -0.289 OA
BRANCH  10  12
ATOM     12  C   UNL     1       1.317  -4.138  -2.639  1.00  0.00     0.023 A 
ATOM     13  C   UNL     1       0.475  -2.051  -0.937  1.00  0.00     0.118 A 
ATOM     14  C   UNL     1      -0.327  -3.178  -1.129  1.00  0.00     0.047 A 
ATOM     15  C   UNL     1       1.673  -1.948  -1.638  1.00  0.00     0.047 A 
ATOM     16  C   UNL     1       0.092  -4.219  -1.967  1.00  0.00     0.016 A 
ATOM     17  C   UNL     1       2.068  -2.967  -2.511  1.00  0.00     0.016 A 
BRANCH  13  18
ATOM     18  O   UNL     1      -0.009  -1.135  -0.045  1.00  0.00    -0.497 OA
ATOM     19  C   UNL     1       0.709   0.088   0.067  1.00  0.00     0.278 C 
ENDBRANCH  13  18
ENDBRANCH  10  12
ENDBRANCH   5  10
BRANCH   6  20
ATOM     20  C   UNL     1       4.888  -4.809  -2.513  1.00  0.00     0.015 A 
ATOM     21  C   UNL     1       5.451  -3.546  -2.785  1.00  0.00     0.009 A 
ATOM     22  C   UNL     1       4.788  -5.208  -1.178  1.00  0.00     0.128 A 
ATOM     23  C   UNL     1       5.855  -2.703  -1.748  1.00  0.00     0.001 A 
ATOM     24  C   UNL     1       5.204  -4.379  -0.140  1.00  0.00     0.039 A 
ATOM     25  F   UNL     1       4.274  -6.408  -0.880  1.00  0.00    -0.207 F 
ATOM     26  C   UNL     1       5.727  -3.118  -0.424  1.00  0.00     0.003 A 
ENDBRANCH   6  20
BRANCH   8  27
ATOM     27  C   UNL     1       6.572  -6.120  -4.805  1.00  0.00     0.127 C 
BRANCH  27  28
ATOM     28  C   UNL     1       6.782  -7.400  -5.603  1.00  0.00     0.074 C 
BRANCH  28  29
ATOM     29  C   UNL     1       6.846  -7.096  -7.069  1.00  0.00     0.043 C 
ATOM     30  O   UNL     1       7.769  -6.540  -7.643  1.00  0.00    -0.550 OA
ATOM     31  O   UNL     1       5.719  -7.439  -7.719  1.00  0.00    -0.550 OA
ENDBRANCH  28  29
ENDBRANCH  27  28
ENDBRANCH   8  27
ENDBRANCH   2   4
ENDBRANCH   1   2
BRANCH   1  32
ATOM     32  C   UNL     1       0.243  -3.146  -6.788  1.00  0.00     0.042 C 
BRANCH  32  33
ATOM     33  C   UNL     1       0.557  -2.729  -8.220  1.00  0.00     0.118 C 
BRANCH  33  34
ATOM     34  N   UNL     1      -0.171  -3.514  -9.209  1.00  0.00    -0.352 N 
ATOM     35  C   UNL     1      -1.097  -3.116 -10.142  1.00  0.00     0.251 C 
ATOM     36  H   UNL     1       0.034  -4.477  -9.209  1.00  0.00     0.163 HD
ATOM     37  O   UNL     1      -1.741  -3.955 -10.765  1.00  0.00    -0.269 OA
BRANCH  35  38
ATOM     38  C   UNL     1      -1.339  -1.678 -10.380  1.00  0.00     0.039 A 
ATOM     39  C   UNL     1      -2.655  -1.227 -10.512  1.00  0.00     0.014 A 
ATOM     40  C   UNL     1      -0.277  -0.776 -10.477  1.00  0.00     0.014 A 
ATOM     41  C   UNL     1      -2.906   0.138 -10.665  1.00  0.00     0.010 A 
ATOM     42  C   UNL     1      -0.532   0.590 -10.537  1.00  0.00     0.010 A 
ATOM     43  C   UNL     1      -1.849   1.063 -10.634  1.00  0.00    -0.014 A 
BRANCH  43  44
ATOM     44  C   UNL     1      -2.100   2.525 -10.691  1.00  0.00     0.031 A 
ATOM     45  C   UNL     1      -1.557   3.345 -11.829  1.00  0.00     0.074 A 
ATOM     46  C   UNL     1      -2.760   3.128  -9.682  1.00  0.00     0.049 A 
ATOM     47  N   UNL     1      -1.618   4.639 -12.018  1.00  0.00    -0.248 NA
ATOM     48  C   UNL     1      -0.826   2.620 -12.882  1.00  0.00     0.031 C 
ATOM     49  C   UNL     1      -3.304   2.454  -8.501  1.00  0.00     0.029 A 
ATOM     50  N   UNL     1      -3.080   4.448  -9.485  1.00  0.00    -0.354 N 
ATOM     51  C   UNL     1      -0.923   4.883 -13.195  1.00  0.00     0.074 A 
ATOM     52  C   UNL     1      -0.401   3.613 -13.649  1.00  0.00     0.031 C 
ATOM     53  C   UNL     1      -3.917   3.358  -7.721  1.00  0.00     0.029 A 
ATOM     54  C   UNL     1      -3.768   4.681  -8.319  1.00  0.00     0.049 A 
ATOM     55  H   UNL     1      -2.839   5.161 -10.120  1.00  0.00     0.167 HD
ATOM     56  C   UNL     1      -0.749   6.055 -13.851  1.00  0.00     0.031 A 
ATOM     57  C   UNL     1      -4.222   5.830  -7.784  1.00  0.00     0.031 A 
ATOM     58  C   UNL     1      -1.272   7.318 -13.402  1.00  0.00     0.049 A 
ATOM     59  C   UNL     1      -3.995   7.121  -8.520  1.00  0.00     0.074 A 
ATOM     60  C   UNL     1      -1.195   8.552 -14.024  1.00  0.00     0.029 A 
ATOM     61  N   UNL     1      -1.965   7.509 -12.217  1.00  0.00    -0.354 N 
ATOM     62  N   UNL     1      -3.393   7.324  -9.667  1.00  0.00    -0.248 NA
ATOM     63  C   UNL     1      -4.520   8.341  -7.891  1.00  0.00     0.031 C 
ATOM     64  C   UNL     1      -1.790   9.500 -13.186  1.00  0.00     0.029 A 
ATOM     65  C   UNL     1      -2.297   8.845 -12.076  1.00  0.00     0.049 A 
ATOM     66  H   UNL     1      -2.188   6.799 -11.572  1.00  0.00     0.167 HD
ATOM     67  C   UNL     1      -3.498   8.687  -9.914  1.00  0.00     0.074 A 
ATOM     68  C   UNL     1      -4.232   9.259  -8.804  1.00  0.00     0.031 C 
ATOM     69  C   UNL     1      -3.030   9.400 -10.967  1.00  0.00     0.031 A 
BRANCH  56  70
ATOM     70  C   UNL     1       0.051   6.025 -15.125  1.00  0.00    -0.014 A 
ATOM     71  C   UNL     1      -0.439   5.397 -16.282  1.00  0.00     0.009 A 
ATOM     72  C   UNL     1       1.298   6.668 -15.181  1.00  0.00     0.009 A 
ATOM     73  C   UNL     1       0.319   5.380 -17.454  1.00  0.00     0.001 A 
ATOM     74  C   UNL     1       2.039   6.677 -16.365  1.00  0.00     0.001 A 
ATOM     75  C   UNL     1       1.554   6.024 -17.497  1.00  0.00     0.000 A 
ENDBRANCH  56  70
BRANCH  57  76
ATOM     76  C   UNL     1      -4.949   5.814  -6.487  1.00  0.00    -0.014 A 
ATOM     77  C   UNL     1      -6.321   6.106  -6.434  1.00  0.00     0.009 A 
ATOM     78  C   UNL     1      -4.274   5.515  -5.293  1.00  0.00     0.009 A 
ATOM     79  C   UNL     1      -6.994   6.130  -5.211  1.00  0.00     0.001 A 
ATOM     80  C   UNL     1      -4.957   5.506  -4.075  1.00  0.00     0.001 A 
ATOM     81  C   UNL     1      -6.313   5.825  -4.033  1.00  0.00     0.000 A 
ENDBRANCH  57  76
BRANCH  69  82
ATOM     82  C   UNL     1      -3.338  10.872 -10.996  1.00  0.00    -0.014 A 
ATOM     83  C   UNL     1      -2.718  11.769 -10.113  1.00  0.00     0.009 A 
ATOM     84  C   UNL     1      -4.234  11.371 -11.955  1.00  0.00     0.009 A 
ATOM     85  C   UNL     1      -3.015  13.133 -10.170  1.00  0.00     0.001 A 
ATOM     86  C   UNL     1      -4.503  12.738 -12.031  1.00  0.00     0.001 A 
ATOM     87  C   UNL     1      -3.901  13.616 -11.132  1.00  0.00     0.000 A 
ENDBRANCH  69  82
ENDBRANCH  43  44
ENDBRANCH  35  38
ENDBRANCH  33  34
ENDBRANCH  32  33
ENDBRANCH   1  32
TORSDOF 17
