REMARK SMILES Cc1cc(=O)cc(C)n1C[C@H]1CCCC[C@@H]1C(=O)NCCCNC(=O)c1ccc(-c2c3nc(c(-c4ccccc4)c4ccc([nH]4)c(-c4ccccc4)c4nc(c(-c5ccccc5)c5ccc2[nH]5)C=C4)C=C3)cc1
REMARK SMILES IDX 21 1 20 2 19 3 17 4 18 5 16 7 11 8 12 9 13 10 15 11 14 12
REMARK SMILES IDX 10 13 9 14 1 15 2 16 3 17 4 18 7 19 5 20 6 21 8 22 22 23
REMARK SMILES IDX 23 24 24 25 25 27 26 28 27 29 73 30 28 31 72 32 29 33 30 34
REMARK SMILES IDX 31 35 66 36 32 37 71 38 65 39 67 40 33 41 70 42 64 43 63 44
REMARK SMILES IDX 34 46 56 47 41 48 55 49 42 50 45 51 54 52 68 53 43 54 44 55
REMARK SMILES IDX 53 57 69 58 46 59 35 60 36 61 40 62 37 63 39 64 38 65 57 66
REMARK SMILES IDX 58 67 62 68 59 69 61 70 60 71 47 72 48 73 52 74 49 75 51 76
REMARK SMILES IDX 50 77
REMARK H PARENT 19 6 23 26 67 45 45 56
REMARK Flexibility Score: inf
ROOT
ATOM      1  C   UNL     1      -1.650  -3.336   3.498  1.00  0.00     0.042 C 
ENDROOT
BRANCH   1   2
ATOM      2  C   UNL     1      -1.644  -1.897   3.028  1.00  0.00     0.117 C 
BRANCH   2   3
ATOM      3  N   UNL     1      -1.462  -1.593   1.644  1.00  0.00    -0.356 N 
ATOM      4  C   UNL     1      -1.831  -0.433   1.024  1.00  0.00     0.223 C 
ATOM      5  O   UNL     1      -1.538  -0.339  -0.175  1.00  0.00    -0.275 OA
ATOM      6  H   UNL     1      -1.031  -2.281   1.087  1.00  0.00     0.163 HD
BRANCH   4   7
ATOM      7  C   UNL     1      -2.678   0.697   1.689  1.00  0.00     0.083 C 
ATOM      8  C   UNL     1      -2.356   1.230   3.128  1.00  0.00     0.021 C 
ATOM      9  C   UNL     1      -3.161   0.518   4.237  1.00  0.00     0.006 C 
ATOM     10  C   UNL     1      -4.634   0.290   3.918  1.00  0.00     0.000 C 
ATOM     11  C   UNL     1      -4.177   0.462   1.443  1.00  0.00     0.014 C 
ATOM     12  C   UNL     1      -4.881  -0.316   2.545  1.00  0.00     0.001 C 
BRANCH   8  13
ATOM     13  C   UNL     1      -2.650   2.774   3.240  1.00  0.00     0.126 C 
BRANCH  13  14
ATOM     14  N   UNL     1      -1.795   3.461   4.265  1.00  0.00    -0.349 N 
ATOM     15  C   UNL     1      -0.489   4.650   2.439  1.00  0.00     0.064 C 
ATOM     16  C   UNL     1      -0.625   4.160   3.861  1.00  0.00     0.018 A 
ATOM     17  C   UNL     1       0.353   4.493   4.724  1.00  0.00     0.073 A 
ATOM     18  C   UNL     1       0.213   4.146   6.147  1.00  0.00     0.182 A 
ATOM     19  C   UNL     1      -2.057   3.401   5.663  1.00  0.00     0.018 A 
ATOM     20  O   UNL     1       1.124   4.323   6.946  1.00  0.00    -0.290 OA
ATOM     21  C   UNL     1      -1.110   3.673   6.581  1.00  0.00     0.073 A 
ATOM     22  C   UNL     1      -3.433   3.130   6.225  1.00  0.00     0.064 C 
ENDBRANCH  13  14
ENDBRANCH   8  13
ENDBRANCH   4   7
ENDBRANCH   2   3
ENDBRANCH   1   2
BRANCH   1  23
ATOM     23  C   UNL     1      -0.284  -3.971   3.662  1.00  0.00     0.118 C 
BRANCH  23  24
ATOM     24  N   UNL     1       0.582  -3.293   4.618  1.00  0.00    -0.352 N 
ATOM     25  C   UNL     1       0.832  -3.402   5.968  1.00  0.00     0.251 C 
ATOM     26  H   UNL     1       1.120  -2.584   4.195  1.00  0.00     0.163 HD
ATOM     27  O   UNL     1       1.609  -2.598   6.466  1.00  0.00    -0.269 OA
BRANCH  25  28
ATOM     28  C   UNL     1       0.184  -4.409   6.852  1.00  0.00     0.039 A 
ATOM     29  C   UNL     1       0.066  -4.112   8.221  1.00  0.00     0.014 A 
ATOM     30  C   UNL     1      -0.249  -5.652   6.409  1.00  0.00     0.014 A 
ATOM     31  C   UNL     1      -0.527  -5.025   9.104  1.00  0.00     0.010 A 
ATOM     32  C   UNL     1      -0.954  -6.504   7.256  1.00  0.00     0.010 A 
ATOM     33  C   UNL     1      -1.077  -6.218   8.620  1.00  0.00    -0.014 A 
BRANCH  33  34
ATOM     34  C   UNL     1      -1.726  -7.217   9.511  1.00  0.00     0.031 A 
ATOM     35  C   UNL     1      -1.190  -8.625   9.582  1.00  0.00     0.074 A 
ATOM     36  C   UNL     1      -2.836  -6.890  10.202  1.00  0.00     0.049 A 
ATOM     37  N   UNL     1      -1.676  -9.667  10.209  1.00  0.00    -0.248 NA
ATOM     38  C   UNL     1       0.031  -8.911   8.809  1.00  0.00     0.031 C 
ATOM     39  C   UNL     1      -3.484  -5.577  10.199  1.00  0.00     0.029 A 
ATOM     40  N   UNL     1      -3.616  -7.643  11.045  1.00  0.00    -0.354 N 
ATOM     41  C   UNL     1      -0.842 -10.728   9.878  1.00  0.00     0.074 A 
ATOM     42  C   UNL     1       0.134 -10.223   8.939  1.00  0.00     0.031 C 
ATOM     43  C   UNL     1      -4.528  -5.601  11.042  1.00  0.00     0.029 A 
ATOM     44  C   UNL     1      -4.652  -6.940  11.609  1.00  0.00     0.049 A 
ATOM     45  H   UNL     1      -3.448  -8.596  11.227  1.00  0.00     0.167 HD
ATOM     46  C   UNL     1      -0.856 -12.001  10.339  1.00  0.00     0.031 A 
ATOM     47  C   UNL     1      -5.594  -7.328  12.490  1.00  0.00     0.031 A 
ATOM     48  C   UNL     1      -1.795 -12.495  11.306  1.00  0.00     0.049 A 
ATOM     49  C   UNL     1      -5.604  -8.746  12.983  1.00  0.00     0.074 A 
ATOM     50  C   UNL     1      -1.852 -13.747  11.893  1.00  0.00     0.029 A 
ATOM     51  N   UNL     1      -2.838 -11.753  11.838  1.00  0.00    -0.354 N 
ATOM     52  N   UNL     1      -4.779  -9.724  12.695  1.00  0.00    -0.248 NA
ATOM     53  C   UNL     1      -6.674  -9.115  13.920  1.00  0.00     0.031 C 
ATOM     54  C   UNL     1      -2.958 -13.775  12.748  1.00  0.00     0.029 A 
ATOM     55  C   UNL     1      -3.561 -12.527  12.727  1.00  0.00     0.049 A 
ATOM     56  H   UNL     1      -3.034 -10.814  11.615  1.00  0.00     0.167 HD
ATOM     57  C   UNL     1      -5.223 -10.821  13.422  1.00  0.00     0.074 A 
ATOM     58  C   UNL     1      -6.379 -10.383  14.178  1.00  0.00     0.031 C 
ATOM     59  C   UNL     1      -4.718 -12.078  13.458  1.00  0.00     0.031 A 
BRANCH  46  60
ATOM     60  C   UNL     1       0.195 -12.936   9.806  1.00  0.00    -0.014 A 
ATOM     61  C   UNL     1       1.550 -12.768  10.138  1.00  0.00     0.009 A 
ATOM     62  C   UNL     1      -0.170 -13.996   8.963  1.00  0.00     0.009 A 
ATOM     63  C   UNL     1       2.523 -13.609   9.594  1.00  0.00     0.001 A 
ATOM     64  C   UNL     1       0.802 -14.856   8.446  1.00  0.00     0.001 A 
ATOM     65  C   UNL     1       2.148 -14.654   8.751  1.00  0.00     0.000 A 
ENDBRANCH  46  60
BRANCH  47  66
ATOM     66  C   UNL     1      -6.573  -6.333  12.997  1.00  0.00    -0.014 A 
ATOM     67  C   UNL     1      -6.436  -5.817  14.295  1.00  0.00     0.009 A 
ATOM     68  C   UNL     1      -7.610  -5.855  12.182  1.00  0.00     0.009 A 
ATOM     69  C   UNL     1      -7.320  -4.845  14.768  1.00  0.00     0.001 A 
ATOM     70  C   UNL     1      -8.480  -4.867  12.651  1.00  0.00     0.001 A 
ATOM     71  C   UNL     1      -8.336  -4.365  13.943  1.00  0.00     0.000 A 
ENDBRANCH  47  66
BRANCH  59  72
ATOM     72  C   UNL     1      -5.411 -13.079  14.335  1.00  0.00    -0.014 A 
ATOM     73  C   UNL     1      -6.628 -13.655  13.941  1.00  0.00     0.009 A 
ATOM     74  C   UNL     1      -4.798 -13.518  15.518  1.00  0.00     0.009 A 
ATOM     75  C   UNL     1      -7.224 -14.646  14.724  1.00  0.00     0.001 A 
ATOM     76  C   UNL     1      -5.384 -14.525  16.286  1.00  0.00     0.001 A 
ATOM     77  C   UNL     1      -6.597 -15.085  15.890  1.00  0.00     0.000 A 
ENDBRANCH  59  72
ENDBRANCH  33  34
ENDBRANCH  25  28
ENDBRANCH  23  24
ENDBRANCH   1  23
TORSDOF 12
