REMARK SMILES Cc1cc2nc(NC(=O)[C@H]3[C@@H](C(=O)NCCCNC(=O)c4ccc(-c5c6nc(c(-c7ccccc7)c7ccc([nH]7)c(-c7ccccc7)c7nc(c(-c8ccccc8)c8ccc5[nH]8)C=C7)C=C6)cc4)[C@@H]4C=C[C@H]3C4)sc2cc1C
REMARK SMILES IDX 16 1 15 2 14 3 12 4 13 5 11 7 10 8 72 9 69 10 71 11 73 12
REMARK SMILES IDX 70 13 8 14 7 15 9 17 6 18 1 19 2 20 3 21 77 22 4 23 76 24
REMARK SMILES IDX 78 25 5 26 75 27 74 28 17 29 18 30 19 31 20 33 21 34 22 35
REMARK SMILES IDX 68 36 23 37 67 38 24 39 25 40 26 41 61 42 27 43 66 44 60 45
REMARK SMILES IDX 62 46 28 47 65 48 59 49 58 50 29 52 51 53 36 54 50 55 37 56
REMARK SMILES IDX 40 57 49 58 63 59 38 60 39 61 48 63 64 64 41 65 30 66 31 67
REMARK SMILES IDX 35 68 32 69 34 70 33 71 52 72 53 73 57 74 54 75 56 76 55 77
REMARK SMILES IDX 42 78 43 79 47 80 44 81 46 82 45 83
REMARK H PARENT 14 6 7 16 18 32 62 51 40 62
REMARK Flexibility Score: inf
ROOT
ATOM      1  C   UNL     1      -7.606   1.246   0.598  1.00  0.00     0.042 C 
ENDROOT
BRANCH   1   2
ATOM      2  C   UNL     1      -8.244  -0.105   0.309  1.00  0.00     0.117 C 
BRANCH   2   3
ATOM      3  N   UNL     1      -7.686  -0.790  -0.837  1.00  0.00    -0.356 N 
ATOM      4  C   UNL     1      -6.880  -1.879  -0.924  1.00  0.00     0.224 C 
ATOM      5  O   UNL     1      -6.805  -2.391  -2.042  1.00  0.00    -0.275 OA
ATOM      6  H   UNL     1      -7.935  -0.398  -1.705  1.00  0.00     0.163 HD
BRANCH   4   7
ATOM      7  C   UNL     1      -6.090  -2.408   0.283  1.00  0.00     0.098 C 
ATOM      8  C   UNL     1      -4.942  -3.402  -0.147  1.00  0.00     0.099 C 
ATOM      9  C   UNL     1      -5.567  -4.784   0.232  1.00  0.00     0.025 C 
ATOM     10  C   UNL     1      -6.902  -3.297   1.250  1.00  0.00     0.025 C 
ATOM     11  C   UNL     1      -5.263  -4.873   1.720  1.00  0.00    -0.027 C 
ATOM     12  C   UNL     1      -7.077  -4.541   0.383  1.00  0.00     0.017 C 
ATOM     13  C   UNL     1      -5.991  -3.909   2.315  1.00  0.00    -0.027 C 
BRANCH   8  14
ATOM     14  C   UNL     1      -4.293  -3.183  -1.515  1.00  0.00     0.230 C 
ATOM     15  N   UNL     1      -3.654  -1.975  -1.749  1.00  0.00    -0.302 N 
ATOM     16  H   UNL     1      -3.368  -1.776  -2.670  1.00  0.00     0.172 HD
ATOM     17  O   UNL     1      -4.309  -4.045  -2.395  1.00  0.00    -0.274 OA
BRANCH  15  18
ATOM     18  C   UNL     1      -3.396  -1.037  -0.781  1.00  0.00     0.190 A 
ATOM     19  C   UNL     1      -5.566   1.192   4.161  1.00  0.00     0.044 C 
ATOM     20  C   UNL     1      -4.708   1.254   2.921  1.00  0.00    -0.046 A 
ATOM     21  C   UNL     1      -4.168   0.044   2.462  1.00  0.00     0.033 A 
ATOM     22  C   UNL     1      -4.539   2.416   2.146  1.00  0.00    -0.047 A 
ATOM     23  C   UNL     1      -3.671  -0.049   1.149  1.00  0.00     0.084 A 
ATOM     24  C   UNL     1      -3.966   2.346   0.852  1.00  0.00     0.025 A 
ATOM     25  C   UNL     1      -5.102   3.730   2.606  1.00  0.00     0.044 C 
ATOM     26  N   UNL     1      -3.378  -1.228   0.510  1.00  0.00    -0.220 NA
ATOM     27  C   UNL     1      -3.621   1.085   0.342  1.00  0.00     0.057 A 
ATOM     28  S   UNL     1      -3.200   0.585  -1.272  1.00  0.00    -0.097 S 
ENDBRANCH  15  18
ENDBRANCH   8  14
ENDBRANCH   4   7
ENDBRANCH   2   3
ENDBRANCH   1   2
BRANCH   1  29
ATOM     29  C   UNL     1      -7.666   2.276  -0.525  1.00  0.00     0.118 C 
BRANCH  29  30
ATOM     30  N   UNL     1      -8.999   2.698  -0.918  1.00  0.00    -0.352 N 
ATOM     31  C   UNL     1      -9.944   3.555  -0.407  1.00  0.00     0.251 C 
ATOM     32  H   UNL     1      -9.298   2.265  -1.750  1.00  0.00     0.163 HD
ATOM     33  O   UNL     1     -10.971   3.704  -1.048  1.00  0.00    -0.269 OA
BRANCH  31  34
ATOM     34  C   UNL     1      -9.824   4.234   0.909  1.00  0.00     0.039 A 
ATOM     35  C   UNL     1      -8.628   4.603   1.514  1.00  0.00     0.014 A 
ATOM     36  C   UNL     1     -11.029   4.539   1.563  1.00  0.00     0.014 A 
ATOM     37  C   UNL     1      -8.626   5.085   2.824  1.00  0.00     0.010 A 
ATOM     38  C   UNL     1     -11.031   5.081   2.845  1.00  0.00     0.010 A 
ATOM     39  C   UNL     1      -9.827   5.269   3.518  1.00  0.00    -0.014 A 
BRANCH  39  40
ATOM     40  C   UNL     1      -9.774   5.718   4.918  1.00  0.00     0.031 A 
ATOM     41  C   UNL     1      -8.926   6.920   5.192  1.00  0.00     0.074 A 
ATOM     42  C   UNL     1     -10.515   5.168   5.907  1.00  0.00     0.049 A 
ATOM     43  N   UNL     1      -7.933   7.030   6.016  1.00  0.00    -0.248 NA
ATOM     44  C   UNL     1      -9.160   8.123   4.379  1.00  0.00     0.031 C 
ATOM     45  C   UNL     1     -11.572   4.156   5.788  1.00  0.00     0.029 A 
ATOM     46  N   UNL     1     -10.563   5.492   7.234  1.00  0.00    -0.354 N 
ATOM     47  C   UNL     1      -7.508   8.358   5.944  1.00  0.00     0.074 A 
ATOM     48  C   UNL     1      -8.222   8.950   4.841  1.00  0.00     0.031 C 
ATOM     49  C   UNL     1     -12.326   4.158   6.910  1.00  0.00     0.029 A 
ATOM     50  C   UNL     1     -11.707   5.037   7.883  1.00  0.00     0.049 A 
ATOM     51  H   UNL     1      -9.853   6.000   7.689  1.00  0.00     0.167 HD
ATOM     52  C   UNL     1      -6.726   8.930   6.903  1.00  0.00     0.031 A 
ATOM     53  C   UNL     1     -12.152   5.401   9.111  1.00  0.00     0.031 A 
ATOM     54  C   UNL     1      -6.079   7.946   7.726  1.00  0.00     0.049 A 
ATOM     55  C   UNL     1     -11.008   5.961   9.858  1.00  0.00     0.074 A 
ATOM     56  C   UNL     1      -5.138   6.961   7.518  1.00  0.00     0.029 A 
ATOM     57  N   UNL     1      -6.634   7.688   8.954  1.00  0.00    -0.354 N 
ATOM     58  N   UNL     1      -9.989   5.257  10.256  1.00  0.00    -0.248 NA
ATOM     59  C   UNL     1     -10.805   7.399   9.822  1.00  0.00     0.031 C 
ATOM     60  C   UNL     1      -5.511   5.906   8.399  1.00  0.00     0.029 A 
ATOM     61  C   UNL     1      -6.621   6.332   9.132  1.00  0.00     0.049 A 
ATOM     62  H   UNL     1      -6.978   8.356   9.591  1.00  0.00     0.167 HD
ATOM     63  C   UNL     1      -8.901   6.098  10.089  1.00  0.00     0.074 A 
ATOM     64  C   UNL     1      -9.475   7.433   9.930  1.00  0.00     0.031 C 
ATOM     65  C   UNL     1      -7.661   5.597   9.816  1.00  0.00     0.031 A 
BRANCH  52  66
ATOM     66  C   UNL     1      -6.828  10.376   7.334  1.00  0.00    -0.014 A 
ATOM     67  C   UNL     1      -7.889  11.221   6.963  1.00  0.00     0.009 A 
ATOM     68  C   UNL     1      -5.994  10.836   8.373  1.00  0.00     0.009 A 
ATOM     69  C   UNL     1      -8.135  12.434   7.615  1.00  0.00     0.001 A 
ATOM     70  C   UNL     1      -6.261  12.030   9.056  1.00  0.00     0.001 A 
ATOM     71  C   UNL     1      -7.339  12.824   8.682  1.00  0.00     0.000 A 
ENDBRANCH  52  66
BRANCH  53  72
ATOM     72  C   UNL     1     -13.548   5.643   9.539  1.00  0.00    -0.014 A 
ATOM     73  C   UNL     1     -14.502   6.090   8.606  1.00  0.00     0.009 A 
ATOM     74  C   UNL     1     -13.871   5.741  10.903  1.00  0.00     0.009 A 
ATOM     75  C   UNL     1     -15.710   6.661   9.019  1.00  0.00     0.001 A 
ATOM     76  C   UNL     1     -15.081   6.315  11.316  1.00  0.00     0.001 A 
ATOM     77  C   UNL     1     -15.991   6.791  10.375  1.00  0.00     0.000 A 
ENDBRANCH  53  72
BRANCH  65  78
ATOM     78  C   UNL     1      -7.433   4.111   9.961  1.00  0.00    -0.014 A 
ATOM     79  C   UNL     1      -6.328   3.687  10.716  1.00  0.00     0.009 A 
ATOM     80  C   UNL     1      -8.146   3.147   9.227  1.00  0.00     0.009 A 
ATOM     81  C   UNL     1      -5.933   2.348  10.723  1.00  0.00     0.001 A 
ATOM     82  C   UNL     1      -7.768   1.800   9.257  1.00  0.00     0.001 A 
ATOM     83  C   UNL     1      -6.654   1.405   9.994  1.00  0.00     0.000 A 
ENDBRANCH  65  78
ENDBRANCH  39  40
ENDBRANCH  31  34
ENDBRANCH  29  30
ENDBRANCH   1  29
TORSDOF 12
