REMARK SMILES Cc1cc(Cl)ccc1Oc1cc(C)c(N)c(C(=O)NCCCNC(=O)c2ccc(-c3c4nc(c(-c5ccccc5)c5ccc([nH]5)c(-c5ccccc5)c5nc(c(-c6ccccc6)c6ccc3[nH]6)C=C5)C=C4)cc2)c1
REMARK SMILES IDX 21 1 20 2 19 3 17 4 18 5 16 7 10 8 11 9 74 10 12 11 13 12
REMARK SMILES IDX 14 13 9 14 8 15 1 16 2 17 3 18 4 19 7 20 5 21 6 22 15 23
REMARK SMILES IDX 22 26 23 27 24 28 25 30 26 31 27 32 73 33 28 34 72 35 29 36
REMARK SMILES IDX 30 37 31 38 66 39 32 40 71 41 65 42 67 43 33 44 70 45 64 46
REMARK SMILES IDX 63 47 34 49 56 50 41 51 55 52 42 53 45 54 54 55 68 56 43 57
REMARK SMILES IDX 44 58 53 60 69 61 46 62 35 63 36 64 40 65 37 66 39 67 38 68
REMARK SMILES IDX 57 69 58 70 62 71 59 72 61 73 60 74 47 75 48 76 52 77 49 78
REMARK SMILES IDX 51 79 50 80
REMARK H PARENT 19 6 15 24 15 25 23 29 67 48 45 59
REMARK Flexibility Score: inf
ROOT
ATOM      1  C   UNL     1      -5.534  -1.467   4.244  1.00  0.00     0.042 C 
ENDROOT
BRANCH   1   2
ATOM      2  C   UNL     1      -6.656  -1.465   3.203  1.00  0.00     0.118 C 
BRANCH   2   3
ATOM      3  N   UNL     1      -7.245  -0.144   3.080  1.00  0.00    -0.352 N 
ATOM      4  C   UNL     1      -7.106   0.885   2.181  1.00  0.00     0.253 C 
ATOM      5  O   UNL     1      -7.787   1.889   2.409  1.00  0.00    -0.269 OA
ATOM      6  H   UNL     1      -7.885   0.060   3.800  1.00  0.00     0.163 HD
BRANCH   4   7
ATOM      7  C   UNL     1      -6.226   0.838   0.965  1.00  0.00     0.066 A 
ATOM      8  C   UNL     1      -4.307  -0.025  -0.238  1.00  0.00     0.128 A 
ATOM      9  C   UNL     1      -4.654   0.699  -1.370  1.00  0.00     0.052 A 
ATOM     10  C   UNL     1      -5.079   0.041   0.919  1.00  0.00     0.063 A 
ATOM     11  C   UNL     1      -5.731   1.593  -1.320  1.00  0.00    -0.024 A 
ATOM     12  C   UNL     1      -5.977   2.489  -2.505  1.00  0.00     0.047 C 
ATOM     13  C   UNL     1      -6.527   1.673  -0.151  1.00  0.00     0.048 A 
BRANCH   8  14
ATOM     14  O   UNL     1      -3.269  -0.910  -0.266  1.00  0.00    -0.457 OA
BRANCH  14  15
ATOM     15  C   UNL     1      -1.962  -0.495  -0.126  1.00  0.00     0.130 A 
ATOM     16  C   UNL     1      -2.238   2.052   0.265  1.00  0.00     0.048 C 
ATOM     17  C   UNL     1      -1.438   0.789   0.112  1.00  0.00    -0.007 A 
ATOM     18  C   UNL     1      -0.034   0.932   0.191  1.00  0.00     0.027 A 
ATOM     19  C   UNL     1       0.820  -0.163   0.075  1.00  0.00     0.041 A 
ATOM     20  C   UNL     1      -1.080  -1.590  -0.235  1.00  0.00     0.049 A 
ATOM     21  Cl  UNL     1       2.521   0.060   0.191  1.00  0.00    -0.084 Cl
ATOM     22  C   UNL     1       0.301  -1.431  -0.131  1.00  0.00     0.024 A 
ENDBRANCH  14  15
ENDBRANCH   8  14
BRANCH  13  23
ATOM     23  N   UNL     1      -7.649   2.502  -0.147  1.00  0.00    -0.398 N 
ATOM     24  H   UNL     1      -7.843   3.072  -0.926  1.00  0.00     0.156 HD
ATOM     25  H   UNL     1      -8.248   2.516   0.634  1.00  0.00     0.156 HD
ENDBRANCH  13  23
ENDBRANCH   4   7
ENDBRANCH   2   3
ENDBRANCH   1   2
BRANCH   1  26
ATOM     26  C   UNL     1      -6.040  -1.364   5.683  1.00  0.00     0.118 C 
BRANCH  26  27
ATOM     27  N   UNL     1      -6.737  -2.571   6.102  1.00  0.00    -0.352 N 
ATOM     28  C   UNL     1      -6.505  -3.406   7.164  1.00  0.00     0.251 C 
ATOM     29  H   UNL     1      -7.497  -2.828   5.532  1.00  0.00     0.163 HD
ATOM     30  O   UNL     1      -7.067  -4.496   7.205  1.00  0.00    -0.269 OA
BRANCH  28  31
ATOM     31  C   UNL     1      -5.589  -3.015   8.259  1.00  0.00     0.039 A 
ATOM     32  C   UNL     1      -4.770  -3.998   8.826  1.00  0.00     0.014 A 
ATOM     33  C   UNL     1      -5.588  -1.720   8.783  1.00  0.00     0.014 A 
ATOM     34  C   UNL     1      -3.929  -3.675   9.893  1.00  0.00     0.010 A 
ATOM     35  C   UNL     1      -4.703  -1.383   9.806  1.00  0.00     0.010 A 
ATOM     36  C   UNL     1      -3.875  -2.360  10.381  1.00  0.00    -0.014 A 
BRANCH  36  37
ATOM     37  C   UNL     1      -2.975  -1.998  11.504  1.00  0.00     0.031 A 
ATOM     38  C   UNL     1      -3.547  -1.568  12.828  1.00  0.00     0.074 A 
ATOM     39  C   UNL     1      -1.641  -2.011  11.319  1.00  0.00     0.049 A 
ATOM     40  N   UNL     1      -2.922  -1.174  13.909  1.00  0.00    -0.248 NA
ATOM     41  C   UNL     1      -5.014  -1.557  12.944  1.00  0.00     0.031 C 
ATOM     42  C   UNL     1      -0.961  -2.377  10.075  1.00  0.00     0.029 A 
ATOM     43  N   UNL     1      -0.618  -1.704  12.180  1.00  0.00    -0.354 N 
ATOM     44  C   UNL     1      -3.916  -0.849  14.823  1.00  0.00     0.074 A 
ATOM     45  C   UNL     1      -5.185  -1.052  14.157  1.00  0.00     0.031 C 
ATOM     46  C   UNL     1       0.366  -2.298  10.261  1.00  0.00     0.029 A 
ATOM     47  C   UNL     1       0.630  -1.844  11.623  1.00  0.00     0.049 A 
ATOM     48  H   UNL     1      -0.764  -1.412  13.109  1.00  0.00     0.167 HD
ATOM     49  C   UNL     1      -3.788  -0.436  16.107  1.00  0.00     0.031 A 
ATOM     50  C   UNL     1       1.850  -1.629  12.149  1.00  0.00     0.031 A 
ATOM     51  C   UNL     1      -2.528  -0.249  16.776  1.00  0.00     0.049 A 
ATOM     52  C   UNL     1       1.966  -1.173  13.576  1.00  0.00     0.074 A 
ATOM     53  C   UNL     1      -2.294   0.116  18.090  1.00  0.00     0.029 A 
ATOM     54  N   UNL     1      -1.288  -0.413  16.179  1.00  0.00    -0.354 N 
ATOM     55  N   UNL     1       1.016  -0.928  14.445  1.00  0.00    -0.248 NA
ATOM     56  C   UNL     1       3.327  -0.979  14.097  1.00  0.00     0.031 C 
ATOM     57  C   UNL     1      -0.911   0.212  18.277  1.00  0.00     0.029 A 
ATOM     58  C   UNL     1      -0.284  -0.141  17.093  1.00  0.00     0.049 A 
ATOM     59  H   UNL     1      -1.142  -0.684  15.244  1.00  0.00     0.167 HD
ATOM     60  C   UNL     1       1.663  -0.577  15.622  1.00  0.00     0.074 A 
ATOM     61  C   UNL     1       3.085  -0.656  15.360  1.00  0.00     0.031 C 
ATOM     62  C   UNL     1       1.126  -0.223  16.816  1.00  0.00     0.031 A 
BRANCH  49  63
ATOM     63  C   UNL     1      -5.052  -0.151  16.870  1.00  0.00    -0.014 A 
ATOM     64  C   UNL     1      -5.910  -1.188  17.271  1.00  0.00     0.009 A 
ATOM     65  C   UNL     1      -5.378   1.170  17.215  1.00  0.00     0.009 A 
ATOM     66  C   UNL     1      -7.087  -0.904  17.967  1.00  0.00     0.001 A 
ATOM     67  C   UNL     1      -6.542   1.448  17.935  1.00  0.00     0.001 A 
ATOM     68  C   UNL     1      -7.400   0.413  18.301  1.00  0.00     0.000 A 
ENDBRANCH  49  63
BRANCH  50  69
ATOM     69  C   UNL     1       3.064  -1.868  11.327  1.00  0.00    -0.014 A 
ATOM     70  C   UNL     1       3.889  -2.973  11.587  1.00  0.00     0.009 A 
ATOM     71  C   UNL     1       3.402  -0.998  10.280  1.00  0.00     0.009 A 
ATOM     72  C   UNL     1       5.043  -3.187  10.829  1.00  0.00     0.001 A 
ATOM     73  C   UNL     1       4.542  -1.230   9.507  1.00  0.00     0.001 A 
ATOM     74  C   UNL     1       5.366  -2.319   9.788  1.00  0.00     0.000 A 
ENDBRANCH  50  69
BRANCH  62  75
ATOM     75  C   UNL     1       2.083   0.070  17.935  1.00  0.00    -0.014 A 
ATOM     76  C   UNL     1       2.839   1.252  17.957  1.00  0.00     0.009 A 
ATOM     77  C   UNL     1       2.203  -0.836  19.000  1.00  0.00     0.009 A 
ATOM     78  C   UNL     1       3.724   1.503  19.008  1.00  0.00     0.001 A 
ATOM     79  C   UNL     1       3.068  -0.569  20.062  1.00  0.00     0.001 A 
ATOM     80  C   UNL     1       3.834   0.595  20.060  1.00  0.00     0.000 A 
ENDBRANCH  62  75
ENDBRANCH  36  37
ENDBRANCH  28  31
ENDBRANCH  26  27
ENDBRANCH   1  26
TORSDOF 13
