REMARK SMILES COc1ccc(-c2ccc(/C=C3\SC(=S)N([C@H](Cc4ccccc4)C(=O)NCCCNC(=O)c4ccc(-c5c6nc(c(-c7ccccc7)c7ccc([nH]7)c(-c7ccccc7)c7nc(c(-c8ccccc8)c8ccc5[nH]8)C=C7)C=C6)cc4)C3=O)o2)cc1
REMARK SMILES IDX 28 1 27 2 25 3 26 4 17 6 16 7 11 8 12 9 13 10 82 11 14 12
REMARK SMILES IDX 83 13 15 14 10 15 7 16 8 17 84 18 9 19 6 20 3 21 4 22 86 23
REMARK SMILES IDX 5 24 85 25 2 26 1 27 18 28 19 29 20 30 24 31 21 32 23 33
REMARK SMILES IDX 22 34 29 35 30 36 31 37 32 38 33 40 34 41 35 42 81 43 36 44
REMARK SMILES IDX 80 45 37 46 38 47 39 48 74 49 40 50 79 51 73 52 75 53 41 54
REMARK SMILES IDX 78 55 72 56 71 57 42 59 64 60 49 61 63 62 50 63 53 64 62 65
REMARK SMILES IDX 76 66 51 67 52 68 61 70 77 71 54 72 43 73 44 74 48 75 45 76
REMARK SMILES IDX 47 77 46 78 65 79 66 80 70 81 67 82 69 83 68 84 55 85 56 86
REMARK SMILES IDX 60 87 57 88 59 89 58 90
REMARK H PARENT 27 5 31 39 75 58 53 69
REMARK Flexibility Score: inf
ROOT
ATOM      1  C   UNL     1       0.896  -6.927 -11.094  1.00  0.00     0.117 C 
ENDROOT
BRANCH   1   2
ATOM      2  N   UNL     1       1.229  -8.244 -11.607  1.00  0.00    -0.354 N 
ATOM      3  C   UNL     1       0.522  -9.414 -11.567  1.00  0.00     0.243 C 
ATOM      4  O   UNL     1       0.995 -10.379 -12.176  1.00  0.00    -0.273 OA
ATOM      5  H   UNL     1       2.103  -8.304 -12.056  1.00  0.00     0.163 HD
BRANCH   3   6
ATOM      6  C   UNL     1      -0.746  -9.588 -10.692  1.00  0.00     0.185 C 
BRANCH   6   7
ATOM      7  N   UNL     1      -1.949  -8.759 -11.039  1.00  0.00    -0.280 N 
ATOM      8  C   UNL     1      -3.516  -6.394 -13.305  1.00  0.00     0.068 C 
ATOM      9  C   UNL     1      -3.284  -7.279 -12.327  1.00  0.00     0.084 C 
ATOM     10  S   UNL     1      -4.347  -7.775 -11.087  1.00  0.00    -0.054 SA
ATOM     11  C   UNL     1      -2.000  -8.019 -12.215  1.00  0.00     0.267 C 
ATOM     12  C   UNL     1      -3.174  -8.876 -10.394  1.00  0.00     0.149 C 
ATOM     13  O   UNL     1      -1.153  -7.957 -13.093  1.00  0.00    -0.268 OA
ATOM     14  S   UNL     1      -3.661  -9.864  -9.146  1.00  0.00    -0.052 S 
BRANCH   8  15
ATOM     15  C   UNL     1      -4.750  -5.702 -13.444  1.00  0.00     0.128 A 
ATOM     16  C   UNL     1      -6.587  -4.970 -14.449  1.00  0.00     0.134 A 
ATOM     17  C   UNL     1      -6.673  -4.536 -13.149  1.00  0.00     0.051 A 
ATOM     18  O   UNL     1      -5.427  -5.655 -14.639  1.00  0.00    -0.457 OA
ATOM     19  C   UNL     1      -5.495  -4.986 -12.512  1.00  0.00     0.051 A 
BRANCH  16  20
ATOM     20  C   UNL     1      -7.435  -4.823 -15.613  1.00  0.00     0.017 A 
ATOM     21  C   UNL     1      -9.075  -4.512 -17.863  1.00  0.00     0.118 A 
ATOM     22  C   UNL     1      -8.641  -5.782 -17.485  1.00  0.00     0.047 A 
ATOM     23  C   UNL     1      -8.725  -3.400 -17.098  1.00  0.00     0.047 A 
ATOM     24  C   UNL     1      -7.809  -5.937 -16.374  1.00  0.00     0.016 A 
ATOM     25  C   UNL     1      -7.909  -3.557 -15.976  1.00  0.00     0.016 A 
BRANCH  21  26
ATOM     26  O   UNL     1      -9.883  -4.452 -18.965  1.00  0.00    -0.497 OA
ATOM     27  C   UNL     1      -9.565  -3.376 -19.845  1.00  0.00     0.278 C 
ENDBRANCH  21  26
ENDBRANCH  16  20
ENDBRANCH   8  15
ENDBRANCH   6   7
BRANCH   6  28
ATOM     28  C   UNL     1      -0.277  -9.425  -9.210  1.00  0.00     0.071 C 
BRANCH  28  29
ATOM     29  C   UNL     1      -0.181 -10.645  -8.307  1.00  0.00    -0.045 A 
ATOM     30  C   UNL     1       0.575 -10.523  -7.126  1.00  0.00     0.004 A 
ATOM     31  C   UNL     1      -0.871 -11.845  -8.518  1.00  0.00     0.004 A 
ATOM     32  C   UNL     1       0.618 -11.554  -6.184  1.00  0.00     0.000 A 
ATOM     33  C   UNL     1      -0.846 -12.868  -7.565  1.00  0.00     0.000 A 
ATOM     34  C   UNL     1      -0.105 -12.722  -6.398  1.00  0.00     0.000 A 
ENDBRANCH  28  29
ENDBRANCH   6  28
ENDBRANCH   3   6
ENDBRANCH   1   2
BRANCH   1  35
ATOM     35  C   UNL     1       2.031  -6.307 -10.289  1.00  0.00     0.042 C 
BRANCH  35  36
ATOM     36  C   UNL     1       3.314  -6.063 -11.079  1.00  0.00     0.118 C 
BRANCH  36  37
ATOM     37  N   UNL     1       3.147  -5.104 -12.163  1.00  0.00    -0.352 N 
ATOM     38  C   UNL     1       3.734  -3.878 -12.369  1.00  0.00     0.251 C 
ATOM     39  H   UNL     1       2.510  -5.378 -12.861  1.00  0.00     0.163 HD
ATOM     40  O   UNL     1       3.332  -3.155 -13.276  1.00  0.00    -0.269 OA
BRANCH  38  41
ATOM     41  C   UNL     1       4.824  -3.404 -11.487  1.00  0.00     0.039 A 
ATOM     42  C   UNL     1       4.801  -2.078 -11.044  1.00  0.00     0.014 A 
ATOM     43  C   UNL     1       5.867  -4.249 -11.102  1.00  0.00     0.014 A 
ATOM     44  C   UNL     1       5.769  -1.629 -10.143  1.00  0.00     0.010 A 
ATOM     45  C   UNL     1       6.786  -3.825 -10.146  1.00  0.00     0.010 A 
ATOM     46  C   UNL     1       6.739  -2.515  -9.646  1.00  0.00    -0.014 A 
BRANCH  46  47
ATOM     47  C   UNL     1       7.684  -2.106  -8.575  1.00  0.00     0.031 A 
ATOM     48  C   UNL     1       9.165  -2.082  -8.832  1.00  0.00     0.074 A 
ATOM     49  C   UNL     1       7.212  -1.839  -7.342  1.00  0.00     0.049 A 
ATOM     50  N   UNL     1      10.143  -1.845  -7.994  1.00  0.00    -0.248 NA
ATOM     51  C   UNL     1       9.607  -2.389 -10.201  1.00  0.00     0.031 C 
ATOM     52  C   UNL     1       5.800  -1.865  -6.949  1.00  0.00     0.029 A 
ATOM     53  N   UNL     1       7.871  -1.504  -6.185  1.00  0.00    -0.354 N 
ATOM     54  C   UNL     1      11.313  -1.993  -8.728  1.00  0.00     0.074 A 
ATOM     55  C   UNL     1      10.925  -2.381 -10.067  1.00  0.00     0.031 C 
ATOM     56  C   UNL     1       5.699  -1.538  -5.651  1.00  0.00     0.029 A 
ATOM     57  C   UNL     1       7.036  -1.324  -5.109  1.00  0.00     0.049 A 
ATOM     58  H   UNL     1       8.849  -1.404  -6.132  1.00  0.00     0.167 HD
ATOM     59  C   UNL     1      12.594  -1.809  -8.329  1.00  0.00     0.031 A 
ATOM     60  C   UNL     1       7.314  -1.033  -3.824  1.00  0.00     0.031 A 
ATOM     61  C   UNL     1      12.982  -1.412  -7.001  1.00  0.00     0.049 A 
ATOM     62  C   UNL     1       8.744  -0.856  -3.401  1.00  0.00     0.074 A 
ATOM     63  C   UNL     1      14.250  -1.135  -6.521  1.00  0.00     0.029 A 
ATOM     64  N   UNL     1      12.106  -1.241  -5.941  1.00  0.00    -0.354 N 
ATOM     65  N   UNL     1       9.834  -0.935  -4.125  1.00  0.00    -0.248 NA
ATOM     66  C   UNL     1       8.981  -0.547  -1.984  1.00  0.00     0.031 C 
ATOM     67  C   UNL     1      14.147  -0.844  -5.156  1.00  0.00     0.029 A 
ATOM     68  C   UNL     1      12.809  -0.893  -4.800  1.00  0.00     0.049 A 
ATOM     69  H   UNL     1      11.129  -1.351  -5.992  1.00  0.00     0.167 HD
ATOM     70  C   UNL     1      10.884  -0.670  -3.256  1.00  0.00     0.074 A 
ATOM     71  C   UNL     1      10.299  -0.408  -1.957  1.00  0.00     0.031 C 
ATOM     72  C   UNL     1      12.214  -0.648  -3.512  1.00  0.00     0.031 A 
BRANCH  59  73
ATOM     73  C   UNL     1      13.676  -2.045  -9.345  1.00  0.00    -0.014 A 
ATOM     74  C   UNL     1      13.874  -1.158 -10.415  1.00  0.00     0.009 A 
ATOM     75  C   UNL     1      14.531  -3.150  -9.212  1.00  0.00     0.009 A 
ATOM     76  C   UNL     1      14.883  -1.393 -11.351  1.00  0.00     0.001 A 
ATOM     77  C   UNL     1      15.556  -3.368 -10.134  1.00  0.00     0.001 A 
ATOM     78  C   UNL     1      15.726  -2.495 -11.207  1.00  0.00     0.000 A 
ENDBRANCH  59  73
BRANCH  60  79
ATOM     79  C   UNL     1       6.211  -0.890  -2.839  1.00  0.00    -0.014 A 
ATOM     80  C   UNL     1       5.871   0.374  -2.334  1.00  0.00     0.009 A 
ATOM     81  C   UNL     1       5.494  -2.014  -2.399  1.00  0.00     0.009 A 
ATOM     82  C   UNL     1       4.849   0.507  -1.391  1.00  0.00     0.001 A 
ATOM     83  C   UNL     1       4.456  -1.874  -1.476  1.00  0.00     0.001 A 
ATOM     84  C   UNL     1       4.140  -0.615  -0.966  1.00  0.00     0.000 A 
ENDBRANCH  60  79
BRANCH  72  85
ATOM     85  C   UNL     1      13.125  -0.317  -2.365  1.00  0.00    -0.014 A 
ATOM     86  C   UNL     1      13.369  -1.247  -1.342  1.00  0.00     0.009 A 
ATOM     87  C   UNL     1      13.774   0.927  -2.325  1.00  0.00     0.009 A 
ATOM     88  C   UNL     1      14.223  -0.926  -0.286  1.00  0.00     0.001 A 
ATOM     89  C   UNL     1      14.648   1.235  -1.281  1.00  0.00     0.001 A 
ATOM     90  C   UNL     1      14.865   0.312  -0.259  1.00  0.00     0.000 A 
ENDBRANCH  72  85
ENDBRANCH  46  47
ENDBRANCH  38  41
ENDBRANCH  36  37
ENDBRANCH  35  36
ENDBRANCH   1  35
TORSDOF 16
