REMARK SMILES C/C(=C/C[N@H+]1C[C@H]2CCC[N@H+]2C[C@@H]1C)C(=O)NCCCNC(=O)c1ccc(-c2c3nc(c(-c4ccccc4)c4ccc([nH]4)c(-c4ccccc4)c4nc(c(-c5ccccc5)c5ccc2[nH]5)C=C4)C=C3)cc1
REMARK SMILES IDX 19 1 18 2 17 3 15 4 16 5 2 7 1 8 3 9 4 10 5 11 6 12 13 13
REMARK SMILES IDX 7 15 12 16 14 17 8 18 11 19 9 20 10 21 20 23 21 24 22 25
REMARK SMILES IDX 23 27 24 28 25 29 71 30 26 31 70 32 27 33 28 34 29 35 64 36
REMARK SMILES IDX 30 37 69 38 63 39 65 40 31 41 68 42 62 43 61 44 32 46 54 47
REMARK SMILES IDX 39 48 53 49 40 50 43 51 52 52 66 53 41 54 42 55 51 57 67 58
REMARK SMILES IDX 44 59 33 60 34 61 38 62 35 63 37 64 36 65 55 66 56 67 60 68
REMARK SMILES IDX 57 69 59 70 58 71 45 72 46 73 50 74 47 75 49 76 48 77
REMARK H PARENT 17 6 5 14 11 22 21 26 65 45 43 56
REMARK Flexibility Score: inf
ROOT
ATOM      1  C   UNL     1      -1.190   4.833   0.336  1.00  0.00     0.042 C 
ENDROOT
BRANCH   1   2
ATOM      2  C   UNL     1       0.277   4.405   0.283  1.00  0.00     0.118 C 
BRANCH   2   3
ATOM      3  N   UNL     1       0.542   3.302   1.168  1.00  0.00    -0.352 N 
ATOM      4  C   UNL     1       0.636   1.965   1.027  1.00  0.00     0.246 C 
ATOM      5  O   UNL     1       1.001   1.384   2.058  1.00  0.00    -0.270 OA
ATOM      6  H   UNL     1       0.689   3.593   2.097  1.00  0.00     0.163 HD
BRANCH   4   7
ATOM      7  C   UNL     1       0.401   1.137  -0.220  1.00  0.00     0.015 C 
ATOM      8  C   UNL     1       0.919  -0.280   0.031  1.00  0.00     0.050 C 
ATOM      9  C   UNL     1      -0.151   1.327  -1.440  1.00  0.00     0.042 C 
BRANCH   9  10
ATOM     10  C   UNL     1      -0.819   2.446  -2.172  1.00  0.00     0.292 C 
BRANCH  10  11
ATOM     11  N   UNL     1      -0.090   3.081  -3.274  1.00  0.00    -0.320 N 
ATOM     12  C   UNL     1      -0.231   4.540  -3.337  1.00  0.00     0.328 C 
ATOM     13  C   UNL     1       1.269   2.602  -3.587  1.00  0.00     0.237 C 
ATOM     14  H   UNL     1      -0.612   2.704  -4.065  1.00  0.00     0.348 HD
ATOM     15  C   UNL     1       0.360   5.167  -4.622  1.00  0.00     0.240 C 
ATOM     16  C   UNL     1       2.248   3.696  -4.114  1.00  0.00     0.328 C 
ATOM     17  C   UNL     1       1.154   1.456  -4.600  1.00  0.00     0.081 C 
ATOM     18  C   UNL     1       0.554   6.678  -4.484  1.00  0.00     0.077 C 
ATOM     19  N   UNL     1       1.665   4.638  -5.075  1.00  0.00    -0.323 N 
ATOM     20  C   UNL     1       1.649   6.977  -5.487  1.00  0.00     0.068 C 
ATOM     21  C   UNL     1       2.560   5.770  -5.351  1.00  0.00     0.263 C 
ATOM     22  H   UNL     1       1.526   4.101  -5.931  1.00  0.00     0.348 HD
ENDBRANCH  10  11
ENDBRANCH   9  10
ENDBRANCH   4   7
ENDBRANCH   2   3
ENDBRANCH   1   2
BRANCH   1  23
ATOM     23  C   UNL     1      -1.410   6.220   0.913  1.00  0.00     0.118 C 
BRANCH  23  24
ATOM     24  N   UNL     1      -0.906   7.271   0.037  1.00  0.00    -0.352 N 
ATOM     25  C   UNL     1      -1.499   8.442  -0.371  1.00  0.00     0.251 C 
ATOM     26  H   UNL     1      -0.000   7.118  -0.318  1.00  0.00     0.163 HD
ATOM     27  O   UNL     1      -0.950   9.124  -1.234  1.00  0.00    -0.269 OA
BRANCH  25  28
ATOM     28  C   UNL     1      -2.804   8.867   0.187  1.00  0.00     0.039 A 
ATOM     29  C   UNL     1      -3.723   9.507  -0.652  1.00  0.00     0.014 A 
ATOM     30  C   UNL     1      -3.134   8.640   1.524  1.00  0.00     0.014 A 
ATOM     31  C   UNL     1      -4.991   9.845  -0.170  1.00  0.00     0.010 A 
ATOM     32  C   UNL     1      -4.428   8.878   1.972  1.00  0.00     0.010 A 
ATOM     33  C   UNL     1      -5.368   9.494   1.135  1.00  0.00    -0.014 A 
BRANCH  33  34
ATOM     34  C   UNL     1      -6.731   9.766   1.656  1.00  0.00     0.031 A 
ATOM     35  C   UNL     1      -6.915  10.652   2.859  1.00  0.00     0.074 A 
ATOM     36  C   UNL     1      -7.792   9.137   1.115  1.00  0.00     0.049 A 
ATOM     37  N   UNL     1      -8.008  10.932   3.521  1.00  0.00    -0.248 NA
ATOM     38  C   UNL     1      -5.700  11.269   3.418  1.00  0.00     0.031 C 
ATOM     39  C   UNL     1      -7.740   8.194  -0.004  1.00  0.00     0.029 A 
ATOM     40  N   UNL     1      -9.122   9.184   1.448  1.00  0.00    -0.354 N 
ATOM     41  C   UNL     1      -7.607  11.718   4.594  1.00  0.00     0.074 A 
ATOM     42  C   UNL     1      -6.167  11.829   4.523  1.00  0.00     0.031 C 
ATOM     43  C   UNL     1      -8.984   7.773  -0.281  1.00  0.00     0.029 A 
ATOM     44  C   UNL     1      -9.914   8.386   0.661  1.00  0.00     0.049 A 
ATOM     45  H   UNL     1      -9.474   9.738   2.182  1.00  0.00     0.167 HD
ATOM     46  C   UNL     1      -8.368  12.312   5.544  1.00  0.00     0.031 A 
ATOM     47  C   UNL     1     -11.242   8.169   0.693  1.00  0.00     0.031 A 
ATOM     48  C   UNL     1      -9.803  12.233   5.590  1.00  0.00     0.049 A 
ATOM     49  C   UNL     1     -12.077   8.884   1.715  1.00  0.00     0.074 A 
ATOM     50  C   UNL     1     -10.677  12.876   6.448  1.00  0.00     0.029 A 
ATOM     51  N   UNL     1     -10.574  11.459   4.736  1.00  0.00    -0.354 N 
ATOM     52  N   UNL     1     -11.693   9.698   2.669  1.00  0.00    -0.248 NA
ATOM     53  C   UNL     1     -13.528   8.664   1.656  1.00  0.00     0.031 C 
ATOM     54  C   UNL     1     -11.976  12.458   6.140  1.00  0.00     0.029 A 
ATOM     55  C   UNL     1     -11.914  11.591   5.060  1.00  0.00     0.049 A 
ATOM     56  H   UNL     1     -10.222  10.899   4.008  1.00  0.00     0.167 HD
ATOM     57  C   UNL     1     -12.855  10.101   3.313  1.00  0.00     0.074 A 
ATOM     58  C   UNL     1     -13.958   9.456   2.629  1.00  0.00     0.031 C 
ATOM     59  C   UNL     1     -12.995  10.932   4.375  1.00  0.00     0.031 A 
BRANCH  46  60
ATOM     60  C   UNL     1      -7.649  13.091   6.611  1.00  0.00    -0.014 A 
ATOM     61  C   UNL     1      -6.980  14.291   6.317  1.00  0.00     0.009 A 
ATOM     62  C   UNL     1      -7.634  12.614   7.930  1.00  0.00     0.009 A 
ATOM     63  C   UNL     1      -6.264  14.964   7.309  1.00  0.00     0.001 A 
ATOM     64  C   UNL     1      -6.944  13.306   8.928  1.00  0.00     0.001 A 
ATOM     65  C   UNL     1      -6.248  14.472   8.613  1.00  0.00     0.000 A 
ENDBRANCH  46  60
BRANCH  47  66
ATOM     66  C   UNL     1     -11.859   7.256  -0.302  1.00  0.00    -0.014 A 
ATOM     67  C   UNL     1     -12.591   7.774  -1.382  1.00  0.00     0.009 A 
ATOM     68  C   UNL     1     -11.684   5.867  -0.203  1.00  0.00     0.009 A 
ATOM     69  C   UNL     1     -13.146   6.918  -2.335  1.00  0.00     0.001 A 
ATOM     70  C   UNL     1     -12.221   5.015  -1.171  1.00  0.00     0.001 A 
ATOM     71  C   UNL     1     -12.956   5.541  -2.233  1.00  0.00     0.000 A 
ENDBRANCH  47  66
BRANCH  59  72
ATOM     72  C   UNL     1     -14.393  11.201   4.852  1.00  0.00    -0.014 A 
ATOM     73  C   UNL     1     -15.117  10.231   5.562  1.00  0.00     0.009 A 
ATOM     74  C   UNL     1     -14.976  12.458   4.625  1.00  0.00     0.009 A 
ATOM     75  C   UNL     1     -16.410  10.506   6.012  1.00  0.00     0.001 A 
ATOM     76  C   UNL     1     -16.258  12.738   5.099  1.00  0.00     0.001 A 
ATOM     77  C   UNL     1     -16.976  11.760   5.784  1.00  0.00     0.000 A 
ENDBRANCH  59  72
ENDBRANCH  33  34
ENDBRANCH  25  28
ENDBRANCH  23  24
ENDBRANCH   1  23
TORSDOF 12
