REMARK SMILES O=C(NCCCNC(=O)c1ccc(N2C(=O)[C@@H]3N=NC(c4ccccc4)=C3[C@H]2c2cccc(Br)c2)cc1)c1ccc(-c2c3nc(c(-c4ccccc4)c4ccc([nH]4)c(-c4ccccc4)c4nc(c(-c5ccccc5)c5ccc2[nH]5)C=C4)C=C3)cc1
REMARK SMILES IDX 5 1 4 2 3 3 1 4 2 5 38 7 39 8 85 9 40 10 84 11 41 12 42 13
REMARK SMILES IDX 43 14 78 15 44 16 83 17 77 18 79 19 45 20 82 21 76 22 75 23
REMARK SMILES IDX 46 25 68 26 53 27 67 28 54 29 57 30 66 31 80 32 55 33 56 34
REMARK SMILES IDX 65 36 81 37 58 38 47 39 48 40 52 41 49 42 51 43 50 44 69 45
REMARK SMILES IDX 70 46 74 47 71 48 73 49 72 50 59 51 60 52 64 53 61 54 63 55
REMARK SMILES IDX 62 56 6 57 7 58 8 59 9 61 10 62 11 63 37 64 12 65 36 66
REMARK SMILES IDX 13 67 14 68 15 69 28 70 17 71 16 72 27 73 18 74 20 75 19 76
REMARK SMILES IDX 29 77 30 78 35 79 31 80 33 81 32 82 34 83 21 84 22 85 26 86
REMARK SMILES IDX 23 87 25 88 24 89
REMARK H PARENT 3 6 79 24 57 35 7 60
REMARK Flexibility Score: inf
ROOT
ATOM      1  C   UNL     1       4.915   2.030   0.808  1.00  0.00     0.042 C 
ENDROOT
BRANCH   1   2
ATOM      2  C   UNL     1       4.578   0.554   1.011  1.00  0.00     0.118 C 
BRANCH   2   3
ATOM      3  N   UNL     1       3.163   0.242   1.049  1.00  0.00    -0.352 N 
ATOM      4  O   UNL     1       1.120  -0.425   0.547  1.00  0.00    -0.269 OA
ATOM      5  C   UNL     1       2.198  -0.008   0.114  1.00  0.00     0.251 C 
ATOM      6  H   UNL     1       2.813   0.202   1.969  1.00  0.00     0.163 HD
BRANCH   5   7
ATOM      7  C   UNL     1       2.316   0.260  -1.345  1.00  0.00     0.039 A 
ATOM      8  C   UNL     1       3.499   0.445  -2.060  1.00  0.00     0.014 A 
ATOM      9  C   UNL     1       1.092   0.341  -2.039  1.00  0.00     0.014 A 
ATOM     10  C   UNL     1       3.455   0.789  -3.414  1.00  0.00     0.010 A 
ATOM     11  C   UNL     1       1.042   0.678  -3.386  1.00  0.00     0.010 A 
ATOM     12  C   UNL     1       2.226   0.937  -4.067  1.00  0.00    -0.014 A 
BRANCH  12  13
ATOM     13  C   UNL     1       2.207   1.166  -5.513  1.00  0.00     0.031 A 
ATOM     14  C   UNL     1       2.732   0.023  -6.318  1.00  0.00     0.074 A 
ATOM     15  C   UNL     1       1.602   2.219  -6.104  1.00  0.00     0.049 A 
ATOM     16  N   UNL     1       3.714   0.023  -7.158  1.00  0.00    -0.248 NA
ATOM     17  C   UNL     1       2.147  -1.310  -6.084  1.00  0.00     0.031 C 
ATOM     18  C   UNL     1       0.790   3.262  -5.472  1.00  0.00     0.029 A 
ATOM     19  N   UNL     1       1.492   2.518  -7.433  1.00  0.00    -0.354 N 
ATOM     20  C   UNL     1       3.774  -1.267  -7.685  1.00  0.00     0.074 A 
ATOM     21  C   UNL     1       2.877  -2.073  -6.897  1.00  0.00     0.031 C 
ATOM     22  C   UNL     1       0.089   3.925  -6.423  1.00  0.00     0.029 A 
ATOM     23  C   UNL     1       0.501   3.449  -7.733  1.00  0.00     0.049 A 
ATOM     24  H   UNL     1       2.066   2.109  -8.121  1.00  0.00     0.167 HD
ATOM     25  C   UNL     1       4.392  -1.537  -8.867  1.00  0.00     0.031 A 
ATOM     26  C   UNL     1       0.016   3.768  -8.962  1.00  0.00     0.031 A 
ATOM     27  C   UNL     1       5.293  -0.488  -9.257  1.00  0.00     0.049 A 
ATOM     28  C   UNL     1       1.002   3.313  -9.967  1.00  0.00     0.074 A 
ATOM     29  C   UNL     1       6.429   0.072  -8.708  1.00  0.00     0.029 A 
ATOM     30  N   UNL     1       4.851   0.407 -10.199  1.00  0.00    -0.354 N 
ATOM     31  N   UNL     1       2.176   3.851 -10.113  1.00  0.00    -0.248 NA
ATOM     32  C   UNL     1       0.850   1.975 -10.511  1.00  0.00     0.031 C 
ATOM     33  C   UNL     1       6.313   1.467  -8.979  1.00  0.00     0.029 A 
ATOM     34  C   UNL     1       5.160   1.661  -9.741  1.00  0.00     0.049 A 
ATOM     35  H   UNL     1       4.398   0.190 -11.045  1.00  0.00     0.167 HD
ATOM     36  C   UNL     1       3.022   2.777 -10.339  1.00  0.00     0.074 A 
ATOM     37  C   UNL     1       2.138   1.659 -10.668  1.00  0.00     0.031 C 
ATOM     38  C   UNL     1       4.333   2.824  -9.962  1.00  0.00     0.031 A 
BRANCH  25  39
ATOM     39  C   UNL     1       3.876  -2.555  -9.853  1.00  0.00    -0.014 A 
ATOM     40  C   UNL     1       4.614  -2.810 -11.023  1.00  0.00     0.009 A 
ATOM     41  C   UNL     1       2.558  -3.050  -9.815  1.00  0.00     0.009 A 
ATOM     42  C   UNL     1       4.037  -3.467 -12.118  1.00  0.00     0.001 A 
ATOM     43  C   UNL     1       1.993  -3.740 -10.891  1.00  0.00     0.001 A 
ATOM     44  C   UNL     1       2.725  -3.925 -12.054  1.00  0.00     0.000 A 
ENDBRANCH  25  39
BRANCH  26  45
ATOM     45  C   UNL     1      -1.353   4.171  -9.362  1.00  0.00    -0.014 A 
ATOM     46  C   UNL     1      -1.599   4.763 -10.614  1.00  0.00     0.009 A 
ATOM     47  C   UNL     1      -2.462   3.703  -8.636  1.00  0.00     0.009 A 
ATOM     48  C   UNL     1      -2.901   4.845 -11.133  1.00  0.00     0.001 A 
ATOM     49  C   UNL     1      -3.760   3.786  -9.152  1.00  0.00     0.001 A 
ATOM     50  C   UNL     1      -3.978   4.344 -10.408  1.00  0.00     0.000 A 
ENDBRANCH  26  45
BRANCH  38  51
ATOM     51  C   UNL     1       4.890   4.149  -9.500  1.00  0.00    -0.014 A 
ATOM     52  C   UNL     1       4.389   4.855  -8.390  1.00  0.00     0.009 A 
ATOM     53  C   UNL     1       6.054   4.626 -10.119  1.00  0.00     0.009 A 
ATOM     54  C   UNL     1       5.020   6.019  -7.937  1.00  0.00     0.001 A 
ATOM     55  C   UNL     1       6.696   5.775  -9.653  1.00  0.00     0.001 A 
ATOM     56  C   UNL     1       6.176   6.475  -8.567  1.00  0.00     0.000 A 
ENDBRANCH  38  51
ENDBRANCH  12  13
ENDBRANCH   5   7
ENDBRANCH   2   3
ENDBRANCH   1   2
BRANCH   1  57
ATOM     57  C   UNL     1       4.384   2.977   1.888  1.00  0.00     0.118 C 
BRANCH  57  58
ATOM     58  N   UNL     1       4.970   2.745   3.199  1.00  0.00    -0.352 N 
ATOM     59  C   UNL     1       5.655   3.599   4.028  1.00  0.00     0.251 C 
ATOM     60  H   UNL     1       4.856   1.831   3.548  1.00  0.00     0.163 HD
ATOM     61  O   UNL     1       6.176   3.159   5.051  1.00  0.00    -0.269 OA
BRANCH  59  62
ATOM     62  C   UNL     1       5.820   5.035   3.691  1.00  0.00     0.039 A 
ATOM     63  C   UNL     1       7.112   5.557   3.708  1.00  0.00     0.016 A 
ATOM     64  C   UNL     1       4.739   5.880   3.405  1.00  0.00     0.016 A 
ATOM     65  C   UNL     1       7.324   6.890   3.346  1.00  0.00     0.027 A 
ATOM     66  C   UNL     1       4.954   7.229   3.051  1.00  0.00     0.027 A 
ATOM     67  C   UNL     1       6.253   7.735   2.986  1.00  0.00     0.045 A 
BRANCH  67  68
ATOM     68  N   UNL     1       6.529   9.043   2.456  1.00  0.00    -0.299 N 
ATOM     69  C   UNL     1       7.647   9.100   1.555  1.00  0.00     0.259 C 
ATOM     70  C   UNL     1       6.526  10.227   3.354  1.00  0.00     0.152 C 
ATOM     71  C   UNL     1       8.447  10.320   1.882  1.00  0.00     0.248 C 
ATOM     72  O   UNL     1       7.943   8.262   0.706  1.00  0.00    -0.271 OA
ATOM     73  C   UNL     1       7.973  10.504   3.271  1.00  0.00     0.021 C 
ATOM     74  N   UNL     1       9.891  10.135   2.080  1.00  0.00    -0.170 NA
ATOM     75  C   UNL     1       9.055  10.663   4.024  1.00  0.00     0.097 C 
ATOM     76  N   UNL     1      10.194  10.477   3.265  1.00  0.00    -0.154 NA
BRANCH  70  77
ATOM     77  C   UNL     1       5.741  11.477   2.883  1.00  0.00    -0.020 A 
ATOM     78  C   UNL     1       6.400  12.724   2.690  1.00  0.00     0.006 A 
ATOM     79  C   UNL     1       4.344  11.484   2.757  1.00  0.00     0.022 A 
ATOM     80  C   UNL     1       5.723  13.906   2.390  1.00  0.00     0.002 A 
ATOM     81  C   UNL     1       3.662  12.686   2.480  1.00  0.00     0.018 A 
ATOM     82  C   UNL     1       4.343  13.892   2.300  1.00  0.00     0.016 A 
ATOM     83  Br  UNL     1       1.771  12.706   2.395  1.00  0.00    -0.051 Br
ENDBRANCH  70  77
BRANCH  75  84
ATOM     84  C   UNL     1       9.180  10.831   5.468  1.00  0.00     0.002 A 
ATOM     85  C   UNL     1       9.082  12.103   6.050  1.00  0.00     0.010 A 
ATOM     86  C   UNL     1       9.640   9.757   6.238  1.00  0.00     0.010 A 
ATOM     87  C   UNL     1       9.544  12.313   7.352  1.00  0.00     0.001 A 
ATOM     88  C   UNL     1      10.099   9.969   7.537  1.00  0.00     0.001 A 
ATOM     89  C   UNL     1      10.080  11.252   8.082  1.00  0.00     0.000 A 
ENDBRANCH  75  84
ENDBRANCH  67  68
ENDBRANCH  59  62
ENDBRANCH  57  58
ENDBRANCH   1  57
TORSDOF 13
