REMARK SMILES C[C@@]1(C(=O)NCCCNC(=O)c2ccc(-c3c4nc(c(-c5ccccc5)c5ccc([nH]5)c(-c5ccccc5)c5nc(c(-c6ccccc6)c6ccc3[nH]6)C=C5)C=C4)cc2)CCCN(C(=O)[C@@H]2CCCCC[C@@H]2[NH3+])C1
REMARK SMILES IDX 3 1 4 2 5 3 2 5 1 6 60 7 74 8 61 9 63 10 62 11 64 12 65 13
REMARK SMILES IDX 66 14 67 15 68 16 69 17 72 19 71 20 70 21 73 23 6 27 7 28
REMARK SMILES IDX 8 29 9 30 10 31 11 33 12 34 13 35 59 36 14 37 58 38 15 39
REMARK SMILES IDX 16 40 17 41 52 42 18 43 57 44 51 45 53 46 19 47 56 48 50 49
REMARK SMILES IDX 49 50 20 52 42 53 27 54 41 55 28 56 31 57 40 58 54 59 29 60
REMARK SMILES IDX 30 61 39 63 55 64 32 65 21 66 22 67 26 68 23 69 25 70 24 71
REMARK SMILES IDX 43 72 44 73 48 74 45 75 47 76 46 77 33 78 34 79 38 80 35 81
REMARK SMILES IDX 37 82 36 83
REMARK H PARENT 5 4 73 24 73 25 73 26 9 32 53 51 31 62
REMARK Flexibility Score: 90.00
ROOT
ATOM      1  C   UNL     1      -0.442   0.317  -2.077  1.00  0.00     0.227 C 
ATOM      2  O   UNL     1      -0.578  -0.912  -2.062  1.00  0.00    -0.274 OA
ATOM      3  N   UNL     1      -0.881   0.924  -3.208  1.00  0.00    -0.356 N 
ATOM      4  H   UNL     1      -1.218   0.295  -3.886  1.00  0.00     0.163 HD
ENDROOT
BRANCH   1   5
ATOM      5  C   UNL     1       0.203   1.076  -0.900  1.00  0.00     0.064 C 
ATOM      6  C   UNL     1       0.523   0.019   0.192  1.00  0.00     0.024 C 
ATOM      7  C   UNL     1      -0.757   2.093  -0.245  1.00  0.00     0.020 C 
ATOM      8  C   UNL     1       1.501   1.763  -1.399  1.00  0.00     0.136 C 
ATOM      9  C   UNL     1      -0.041   2.971   0.782  1.00  0.00     0.023 C 
ATOM     10  N   UNL     1       2.138   2.613  -0.389  1.00  0.00    -0.341 N 
ATOM     11  C   UNL     1       1.236   3.595   0.225  1.00  0.00     0.119 C 
BRANCH  10  12
ATOM     12  C   UNL     1       3.503   2.733  -0.138  1.00  0.00     0.231 C 
ATOM     13  O   UNL     1       3.902   3.507   0.745  1.00  0.00    -0.274 OA
BRANCH  12  14
ATOM     14  C   UNL     1       4.585   1.968  -0.939  1.00  0.00     0.136 C 
BRANCH  14  15
ATOM     15  C   UNL     1       4.578   2.330  -2.436  1.00  0.00     0.020 C 
BRANCH  15  16
ATOM     16  C   UNL     1       5.937   2.101  -3.110  1.00  0.00     0.001 C 
BRANCH  16  17
ATOM     17  C   UNL     1       6.126   0.696  -3.673  1.00  0.00     0.000 CG0
ATOM     18  G   UNL     1       5.629  -0.442  -2.789  1.00  0.00     0.000 G0
ENDBRANCH  16  17
ENDBRANCH  15  16
ENDBRANCH  14  15
BRANCH  14  19
ATOM     19  C   UNL     1       4.808   0.493  -0.520  1.00  0.00     0.193 C 
BRANCH  19  20
ATOM     20  C   UNL     1       5.917  -0.244  -1.299  1.00  0.00     0.066 C 
BRANCH  20  21
ATOM     21  C   UNL     1       5.629  -0.442  -2.789  1.00  0.00     0.006 CG0
ATOM     22  G   UNL     1       6.126   0.696  -3.673  1.00  0.00     0.000 G0
ENDBRANCH  20  21
ENDBRANCH  19  20
BRANCH  19  23
ATOM     23  N   UNL     1       3.614  -0.344  -0.559  1.00  0.00    -0.354 N 
ATOM     24  H   UNL     1       3.317  -0.468  -1.527  1.00  0.00     0.344 HD
ATOM     25  H   UNL     1       2.867   0.103  -0.028  1.00  0.00     0.344 HD
ATOM     26  H   UNL     1       3.824  -1.255  -0.149  1.00  0.00     0.344 HD
ENDBRANCH  19  23
ENDBRANCH  14  19
ENDBRANCH  12  14
ENDBRANCH  10  12
ENDBRANCH   1   5
BRANCH   3  27
ATOM     27  C   UNL     1      -0.956   2.312  -3.622  1.00  0.00     0.117 C 
BRANCH  27  28
ATOM     28  C   UNL     1      -0.017   2.628  -4.777  1.00  0.00     0.042 C 
BRANCH  28  29
ATOM     29  C   UNL     1      -0.348   1.887  -6.065  1.00  0.00     0.118 C 
BRANCH  29  30
ATOM     30  N   UNL     1      -1.684   2.199  -6.556  1.00  0.00    -0.352 N 
ATOM     31  C   UNL     1      -2.077   2.912  -7.658  1.00  0.00     0.251 C 
ATOM     32  H   UNL     1      -2.420   1.841  -6.010  1.00  0.00     0.163 HD
ATOM     33  O   UNL     1      -3.251   3.274  -7.761  1.00  0.00    -0.269 OA
BRANCH  31  34
ATOM     34  C   UNL     1      -1.107   3.259  -8.715  1.00  0.00     0.039 A 
ATOM     35  C   UNL     1      -1.176   4.519  -9.316  1.00  0.00     0.014 A 
ATOM     36  C   UNL     1      -0.151   2.334  -9.142  1.00  0.00     0.014 A 
ATOM     37  C   UNL     1      -0.246   4.873 -10.296  1.00  0.00     0.010 A 
ATOM     38  C   UNL     1       0.829   2.718 -10.051  1.00  0.00     0.010 A 
ATOM     39  C   UNL     1       0.787   3.988 -10.644  1.00  0.00    -0.014 A 
BRANCH  39  40
ATOM     40  C   UNL     1       1.832   4.365 -11.629  1.00  0.00     0.031 A 
ATOM     41  C   UNL     1       1.980   3.583 -12.908  1.00  0.00     0.074 A 
ATOM     42  C   UNL     1       2.696   5.357 -11.336  1.00  0.00     0.049 A 
ATOM     43  N   UNL     1       2.885   3.703 -13.846  1.00  0.00    -0.248 NA
ATOM     44  C   UNL     1       1.003   2.508 -13.152  1.00  0.00     0.031 C 
ATOM     45  C   UNL     1       2.685   6.160 -10.111  1.00  0.00     0.029 A 
ATOM     46  N   UNL     1       3.764   5.850 -12.044  1.00  0.00    -0.354 N 
ATOM     47  C   UNL     1       2.603   2.705 -14.771  1.00  0.00     0.074 A 
ATOM     48  C   UNL     1       1.469   1.964 -14.267  1.00  0.00     0.031 C 
ATOM     49  C   UNL     1       3.685   7.055 -10.162  1.00  0.00     0.029 A 
ATOM     50  C   UNL     1       4.436   6.859 -11.397  1.00  0.00     0.049 A 
ATOM     51  H   UNL     1       4.025   5.512 -12.931  1.00  0.00     0.167 HD
ATOM     52  C   UNL     1       3.227   2.438 -15.943  1.00  0.00     0.031 A 
ATOM     53  C   UNL     1       5.543   7.540 -11.751  1.00  0.00     0.031 A 
ATOM     54  C   UNL     1       4.335   3.196 -16.457  1.00  0.00     0.049 A 
ATOM     55  C   UNL     1       6.212   7.218 -13.060  1.00  0.00     0.074 A 
ATOM     56  C   UNL     1       4.978   3.056 -17.675  1.00  0.00     0.029 A 
ATOM     57  N   UNL     1       4.967   4.228 -15.785  1.00  0.00    -0.354 N 
ATOM     58  N   UNL     1       5.874   6.334 -13.966  1.00  0.00    -0.248 NA
ATOM     59  C   UNL     1       7.411   7.999 -13.399  1.00  0.00     0.031 C 
ATOM     60  C   UNL     1       6.040   3.963 -17.713  1.00  0.00     0.029 A 
ATOM     61  C   UNL     1       6.016   4.712 -16.547  1.00  0.00     0.049 A 
ATOM     62  H   UNL     1       4.709   4.567 -14.897  1.00  0.00     0.167 HD
ATOM     63  C   UNL     1       6.796   6.476 -14.995  1.00  0.00     0.074 A 
ATOM     64  C   UNL     1       7.695   7.543 -14.610  1.00  0.00     0.031 C 
ATOM     65  C   UNL     1       6.892   5.784 -16.156  1.00  0.00     0.031 A 
BRANCH  52  66
ATOM     66  C   UNL     1       2.737   1.273 -16.756  1.00  0.00    -0.014 A 
ATOM     67  C   UNL     1       1.511   1.320 -17.437  1.00  0.00     0.009 A 
ATOM     68  C   UNL     1       3.558   0.145 -16.912  1.00  0.00     0.009 A 
ATOM     69  C   UNL     1       1.109   0.252 -18.242  1.00  0.00     0.001 A 
ATOM     70  C   UNL     1       3.166  -0.909 -17.739  1.00  0.00     0.001 A 
ATOM     71  C   UNL     1       1.940  -0.857 -18.399  1.00  0.00     0.000 A 
ENDBRANCH  52  66
BRANCH  53  72
ATOM     72  C   UNL     1       6.107   8.585 -10.855  1.00  0.00    -0.014 A 
ATOM     73  C   UNL     1       6.106   9.935 -11.239  1.00  0.00     0.009 A 
ATOM     74  C   UNL     1       6.694   8.232  -9.630  1.00  0.00     0.009 A 
ATOM     75  C   UNL     1       6.722  10.901 -10.439  1.00  0.00     0.001 A 
ATOM     76  C   UNL     1       7.278   9.205  -8.815  1.00  0.00     0.001 A 
ATOM     77  C   UNL     1       7.306  10.535  -9.228  1.00  0.00     0.000 A 
ENDBRANCH  53  72
BRANCH  65  78
ATOM     78  C   UNL     1       7.974   6.190 -17.116  1.00  0.00    -0.014 A 
ATOM     79  C   UNL     1       9.326   5.925 -16.851  1.00  0.00     0.009 A 
ATOM     80  C   UNL     1       7.625   6.804 -18.329  1.00  0.00     0.009 A 
ATOM     81  C   UNL     1      10.310   6.299 -17.768  1.00  0.00     0.001 A 
ATOM     82  C   UNL     1       8.608   7.147 -19.258  1.00  0.00     0.001 A 
ATOM     83  C   UNL     1       9.950   6.903 -18.973  1.00  0.00     0.000 A 
ENDBRANCH  65  78
ENDBRANCH  39  40
ENDBRANCH  31  34
ENDBRANCH  29  30
ENDBRANCH  28  29
ENDBRANCH  27  28
ENDBRANCH   3  27
TORSDOF 13
