REMARK SMILES O=C(CNC(=O)CNC(=O)OCc1ccccc1)NCCCNC(=O)c1ccc(-c2c3nc(c(-c4ccccc4)c4ccc([nH]4)c(-c4ccccc4)c4nc(c(-c5ccccc5)c5ccc2[nH]5)C=C4)C=C3)cc1
REMARK SMILES IDX 1 1 2 2 19 3 3 5 4 6 5 7 6 9 7 10 8 11 9 12 10 14 11 15
REMARK SMILES IDX 12 16 13 17 14 18 18 19 15 20 17 21 16 22 20 23 21 24 22 25
REMARK SMILES IDX 23 26 24 27 25 29 26 30 27 31 73 32 28 33 72 34 29 35 30 36
REMARK SMILES IDX 31 37 66 38 32 39 71 40 65 41 67 42 33 43 70 44 64 45 63 46
REMARK SMILES IDX 34 48 56 49 41 50 55 51 42 52 45 53 54 54 68 55 43 56 44 57
REMARK SMILES IDX 53 59 69 60 46 61 35 62 36 63 40 64 37 65 39 66 38 67 57 68
REMARK SMILES IDX 58 69 62 70 59 71 61 72 60 73 47 74 48 75 52 76 49 77 51 78
REMARK SMILES IDX 50 79
REMARK H PARENT 19 4 4 8 8 13 23 28 67 47 45 58
REMARK Flexibility Score: inf
ROOT
ATOM      1  O   UNL     1       1.113   0.019   0.613  1.00  0.00    -0.273 OA
ATOM      2  C   UNL     1       2.172  -0.158   0.015  1.00  0.00     0.239 C 
ATOM      3  N   UNL     1       2.800   0.828  -0.715  1.00  0.00    -0.355 N 
ATOM      4  H   UNL     1       3.705   0.656  -1.064  1.00  0.00     0.163 HD
ENDROOT
BRANCH   2   5
ATOM      5  C   UNL     1       2.917  -1.500   0.090  1.00  0.00     0.216 C 
BRANCH   5   6
ATOM      6  N   UNL     1       3.995  -1.636  -0.884  1.00  0.00    -0.346 N 
ATOM      7  C   UNL     1       5.344  -1.672  -0.684  1.00  0.00     0.239 C 
ATOM      8  H   UNL     1       3.707  -1.713  -1.822  1.00  0.00     0.164 HD
ATOM      9  O   UNL     1       6.075  -1.744  -1.673  1.00  0.00    -0.273 OA
BRANCH   7  10
ATOM     10  C   UNL     1       5.919  -1.550   0.726  1.00  0.00     0.219 C 
BRANCH  10  11
ATOM     11  N   UNL     1       5.754  -0.180   1.170  1.00  0.00    -0.312 N 
ATOM     12  C   UNL     1       5.072   0.234   2.271  1.00  0.00     0.407 C 
ATOM     13  H   UNL     1       6.177   0.519   0.621  1.00  0.00     0.167 HD
ATOM     14  O   UNL     1       4.768   1.413   2.408  1.00  0.00    -0.225 OA
BRANCH  12  15
ATOM     15  O   UNL     1       4.753  -0.776   3.111  1.00  0.00    -0.445 OA
BRANCH  15  16
ATOM     16  C   UNL     1       3.877  -0.436   4.195  1.00  0.00     0.270 C 
BRANCH  16  17
ATOM     17  C   UNL     1       4.568   0.323   5.300  1.00  0.00    -0.011 A 
ATOM     18  C   UNL     1       5.422  -0.325   6.201  1.00  0.00     0.007 A 
ATOM     19  C   UNL     1       4.369   1.706   5.427  1.00  0.00     0.007 A 
ATOM     20  C   UNL     1       6.054   0.398   7.216  1.00  0.00     0.000 A 
ATOM     21  C   UNL     1       5.009   2.428   6.434  1.00  0.00     0.000 A 
ATOM     22  C   UNL     1       5.849   1.773   7.330  1.00  0.00     0.000 A 
ENDBRANCH  16  17
ENDBRANCH  15  16
ENDBRANCH  12  15
ENDBRANCH  10  11
ENDBRANCH   7  10
ENDBRANCH   5   6
ENDBRANCH   2   5
BRANCH   3  23
ATOM     23  C   UNL     1       2.179   2.109  -0.987  1.00  0.00     0.117 C 
BRANCH  23  24
ATOM     24  C   UNL     1       2.463   3.179   0.063  1.00  0.00     0.042 C 
BRANCH  24  25
ATOM     25  C   UNL     1       3.919   3.629   0.157  1.00  0.00     0.118 C 
BRANCH  25  26
ATOM     26  N   UNL     1       4.426   4.227  -1.069  1.00  0.00    -0.352 N 
ATOM     27  C   UNL     1       5.116   5.388  -1.302  1.00  0.00     0.251 C 
ATOM     28  H   UNL     1       4.239   3.700  -1.879  1.00  0.00     0.163 HD
ATOM     29  O   UNL     1       5.375   5.684  -2.468  1.00  0.00    -0.269 OA
BRANCH  27  30
ATOM     30  C   UNL     1       5.539   6.307  -0.215  1.00  0.00     0.039 A 
ATOM     31  C   UNL     1       5.553   7.679  -0.498  1.00  0.00     0.014 A 
ATOM     32  C   UNL     1       5.989   5.866   1.032  1.00  0.00     0.014 A 
ATOM     33  C   UNL     1       5.978   8.599   0.464  1.00  0.00     0.010 A 
ATOM     34  C   UNL     1       6.348   6.791   2.019  1.00  0.00     0.010 A 
ATOM     35  C   UNL     1       6.361   8.166   1.742  1.00  0.00    -0.014 A 
BRANCH  35  36
ATOM     36  C   UNL     1       6.796   9.147   2.772  1.00  0.00     0.031 A 
ATOM     37  C   UNL     1       8.219   9.162   3.267  1.00  0.00     0.074 A 
ATOM     38  C   UNL     1       5.909  10.026   3.279  1.00  0.00     0.049 A 
ATOM     39  N   UNL     1       8.782   9.960   4.141  1.00  0.00    -0.248 NA
ATOM     40  C   UNL     1       9.123   8.136   2.724  1.00  0.00     0.031 C 
ATOM     41  C   UNL     1       4.492  10.102   2.919  1.00  0.00     0.029 A 
ATOM     42  N   UNL     1       6.072  11.029   4.203  1.00  0.00    -0.354 N 
ATOM     43  C   UNL     1      10.095   9.524   4.262  1.00  0.00     0.074 A 
ATOM     44  C   UNL     1      10.234   8.365   3.407  1.00  0.00     0.031 C 
ATOM     45  C   UNL     1       3.923  11.118   3.590  1.00  0.00     0.029 A 
ATOM     46  C   UNL     1       4.926  11.746   4.444  1.00  0.00     0.049 A 
ATOM     47  H   UNL     1       6.929  11.216   4.649  1.00  0.00     0.167 HD
ATOM     48  C   UNL     1      11.103  10.048   5.001  1.00  0.00     0.031 A 
ATOM     49  C   UNL     1       4.706  12.799   5.255  1.00  0.00     0.031 A 
ATOM     50  C   UNL     1      10.980  11.207   5.845  1.00  0.00     0.049 A 
ATOM     51  C   UNL     1       5.843  13.372   6.052  1.00  0.00     0.074 A 
ATOM     52  C   UNL     1      11.958  11.835   6.598  1.00  0.00     0.029 A 
ATOM     53  N   UNL     1       9.805  11.913   6.047  1.00  0.00    -0.354 N 
ATOM     54  N   UNL     1       7.094  12.985   6.105  1.00  0.00    -0.248 NA
ATOM     55  C   UNL     1       5.539  14.545   6.885  1.00  0.00     0.031 C 
ATOM     56  C   UNL     1      11.365  12.902   7.284  1.00  0.00     0.029 A 
ATOM     57  C   UNL     1      10.031  12.965   6.920  1.00  0.00     0.049 A 
ATOM     58  H   UNL     1       8.938  11.699   5.632  1.00  0.00     0.167 HD
ATOM     59  C   UNL     1       7.733  13.886   6.948  1.00  0.00     0.074 A 
ATOM     60  C   UNL     1       6.735  14.845   7.372  1.00  0.00     0.031 C 
ATOM     61  C   UNL     1       9.032  13.917   7.332  1.00  0.00     0.031 A 
BRANCH  48  62
ATOM     62  C   UNL     1      12.438   9.359   4.930  1.00  0.00    -0.014 A 
ATOM     63  C   UNL     1      13.233   9.436   3.775  1.00  0.00     0.009 A 
ATOM     64  C   UNL     1      12.921   8.649   6.040  1.00  0.00     0.009 A 
ATOM     65  C   UNL     1      14.466   8.782   3.720  1.00  0.00     0.001 A 
ATOM     66  C   UNL     1      14.166   8.020   5.992  1.00  0.00     0.001 A 
ATOM     67  C   UNL     1      14.933   8.079   4.830  1.00  0.00     0.000 A 
ENDBRANCH  48  62
BRANCH  49  68
ATOM     68  C   UNL     1       3.354  13.411   5.327  1.00  0.00    -0.014 A 
ATOM     69  C   UNL     1       3.111  14.666   4.748  1.00  0.00     0.009 A 
ATOM     70  C   UNL     1       2.305  12.751   5.984  1.00  0.00     0.009 A 
ATOM     71  C   UNL     1       1.852  15.261   4.851  1.00  0.00     0.001 A 
ATOM     72  C   UNL     1       1.040  13.337   6.063  1.00  0.00     0.001 A 
ATOM     73  C   UNL     1       0.817  14.595   5.505  1.00  0.00     0.000 A 
ENDBRANCH  49  68
BRANCH  61  74
ATOM     74  C   UNL     1       9.457  15.052   8.220  1.00  0.00    -0.014 A 
ATOM     75  C   UNL     1       9.071  15.113   9.567  1.00  0.00     0.009 A 
ATOM     76  C   UNL     1      10.273  16.070   7.699  1.00  0.00     0.009 A 
ATOM     77  C   UNL     1       9.459  16.192  10.364  1.00  0.00     0.001 A 
ATOM     78  C   UNL     1      10.681  17.133   8.505  1.00  0.00     0.001 A 
ATOM     79  C   UNL     1      10.265  17.199   9.834  1.00  0.00     0.000 A 
ENDBRANCH  61  74
ENDBRANCH  35  36
ENDBRANCH  27  30
ENDBRANCH  25  26
ENDBRANCH  24  25
ENDBRANCH  23  24
ENDBRANCH   3  23
TORSDOF 16
