REMARK SMILES CC(=O)N(c1ccccc1)c1nc(/C=C(/C#N)C(=O)NCCCNC(=O)c2ccc(-c3c4nc(c(-c5ccccc5)c5ccc([nH]5)c(-c5ccccc5)c5nc(c(-c6ccccc6)c6ccc3[nH]6)C=C5)C=C4)cc2)cs1
REMARK SMILES IDX 21 1 20 2 18 3 19 4 15 6 14 7 13 8 11 9 12 10 76 11 75 12
REMARK SMILES IDX 4 13 2 14 1 15 3 16 5 17 6 18 10 19 7 20 9 21 8 22 16 23
REMARK SMILES IDX 17 24 22 25 23 26 24 27 25 28 26 30 27 31 28 32 74 33 29 34
REMARK SMILES IDX 73 35 30 36 31 37 32 38 67 39 33 40 72 41 66 42 68 43 34 44
REMARK SMILES IDX 71 45 65 46 64 47 35 49 57 50 42 51 56 52 43 53 46 54 55 55
REMARK SMILES IDX 69 56 44 57 45 58 54 60 70 61 47 62 36 63 37 64 41 65 38 66
REMARK SMILES IDX 40 67 39 68 58 69 59 70 63 71 60 72 62 73 61 74 48 75 49 76
REMARK SMILES IDX 53 77 50 78 52 79 51 80
REMARK H PARENT 20 5 24 29 68 48 46 59
REMARK Flexibility Score: inf
ROOT
ATOM      1  C   UNL     1      -2.305  -2.390  10.349  1.00  0.00     0.118 C 
ENDROOT
BRANCH   1   2
ATOM      2  N   UNL     1      -1.401  -2.848   9.301  1.00  0.00    -0.351 N 
ATOM      3  C   UNL     1      -1.577  -3.023   7.959  1.00  0.00     0.262 C 
ATOM      4  O   UNL     1      -0.857  -3.864   7.419  1.00  0.00    -0.268 OA
ATOM      5  H   UNL     1      -0.497  -3.071   9.620  1.00  0.00     0.163 HD
BRANCH   3   6
ATOM      6  C   UNL     1      -2.574  -2.223   7.169  1.00  0.00     0.119 C 
ATOM      7  C   UNL     1      -2.286  -1.731   5.944  1.00  0.00     0.054 C 
BRANCH   7   8
ATOM      8  C   UNL     1      -1.034  -1.782   5.227  1.00  0.00     0.078 A 
ATOM      9  C   UNL     1       0.161  -1.780   3.358  1.00  0.00     0.197 A 
ATOM     10  N   UNL     1      -1.057  -1.628   3.848  1.00  0.00    -0.220 NA
ATOM     11  S   UNL     1       1.393  -2.085   4.523  1.00  0.00    -0.104 S 
ATOM     12  C   UNL     1       0.232  -1.901   5.763  1.00  0.00     0.097 A 
BRANCH   9  13
ATOM     13  N   UNL     1       0.596  -1.564   2.049  1.00  0.00    -0.256 N 
BRANCH  13  14
ATOM     14  C   UNL     1       0.253  -0.335   1.494  1.00  0.00     0.230 C 
ATOM     15  C   UNL     1       0.518  -0.136   0.018  1.00  0.00     0.115 C 
ATOM     16  O   UNL     1      -0.231   0.609   2.127  1.00  0.00    -0.274 OA
ENDBRANCH  13  14
BRANCH  13  17
ATOM     17  C   UNL     1       1.463  -2.541   1.468  1.00  0.00     0.051 A 
ATOM     18  C   UNL     1       1.135  -3.906   1.538  1.00  0.00     0.027 A 
ATOM     19  C   UNL     1       2.658  -2.176   0.830  1.00  0.00     0.027 A 
ATOM     20  C   UNL     1       1.964  -4.873   0.961  1.00  0.00     0.002 A 
ATOM     21  C   UNL     1       3.493  -3.146   0.264  1.00  0.00     0.002 A 
ATOM     22  C   UNL     1       3.142  -4.492   0.323  1.00  0.00     0.000 A 
ENDBRANCH  13  17
ENDBRANCH   9  13
ENDBRANCH   7   8
BRANCH   6  23
ATOM     23  C   UNL     1      -3.927  -2.094   7.849  1.00  0.00     0.105 C 
ATOM     24  N   UNL     1      -5.050  -1.988   8.413  1.00  0.00    -0.192 NA
ENDBRANCH   6  23
ENDBRANCH   3   6
ENDBRANCH   1   2
BRANCH   1  25
ATOM     25  C   UNL     1      -3.146  -3.566  10.860  1.00  0.00     0.042 C 
BRANCH  25  26
ATOM     26  C   UNL     1      -2.332  -4.556  11.694  1.00  0.00     0.118 C 
BRANCH  26  27
ATOM     27  N   UNL     1      -1.932  -3.975  12.967  1.00  0.00    -0.352 N 
ATOM     28  C   UNL     1      -2.156  -4.428  14.238  1.00  0.00     0.251 C 
ATOM     29  H   UNL     1      -1.426  -3.133  12.905  1.00  0.00     0.163 HD
ATOM     30  O   UNL     1      -1.969  -3.671  15.193  1.00  0.00    -0.269 OA
BRANCH  28  31
ATOM     31  C   UNL     1      -2.606  -5.813  14.480  1.00  0.00     0.039 A 
ATOM     32  C   UNL     1      -3.556  -6.047  15.479  1.00  0.00     0.014 A 
ATOM     33  C   UNL     1      -2.040  -6.885  13.783  1.00  0.00     0.014 A 
ATOM     34  C   UNL     1      -3.955  -7.354  15.765  1.00  0.00     0.010 A 
ATOM     35  C   UNL     1      -2.482  -8.182  14.028  1.00  0.00     0.010 A 
ATOM     36  C   UNL     1      -3.428  -8.430  15.034  1.00  0.00    -0.014 A 
BRANCH  36  37
ATOM     37  C   UNL     1      -3.827  -9.827  15.332  1.00  0.00     0.031 A 
ATOM     38  C   UNL     1      -2.818 -10.795  15.887  1.00  0.00     0.074 A 
ATOM     39  C   UNL     1      -5.077 -10.239  15.053  1.00  0.00     0.049 A 
ATOM     40  N   UNL     1      -2.951 -12.071  16.144  1.00  0.00    -0.248 NA
ATOM     41  C   UNL     1      -1.474 -10.263  16.165  1.00  0.00     0.031 C 
ATOM     42  C   UNL     1      -6.138  -9.404  14.486  1.00  0.00     0.029 A 
ATOM     43  N   UNL     1      -5.664 -11.469  15.202  1.00  0.00    -0.354 N 
ATOM     44  C   UNL     1      -1.706 -12.498  16.588  1.00  0.00     0.074 A 
ATOM     45  C   UNL     1      -0.820 -11.356  16.527  1.00  0.00     0.031 C 
ATOM     46  C   UNL     1      -7.253 -10.142  14.354  1.00  0.00     0.029 A 
ATOM     47  C   UNL     1      -6.974 -11.506  14.794  1.00  0.00     0.049 A 
ATOM     48  H   UNL     1      -5.191 -12.252  15.567  1.00  0.00     0.167 HD
ATOM     49  C   UNL     1      -1.335 -13.727  17.021  1.00  0.00     0.031 A 
ATOM     50  C   UNL     1      -7.852 -12.526  14.773  1.00  0.00     0.031 A 
ATOM     51  C   UNL     1      -2.221 -14.857  17.101  1.00  0.00     0.049 A 
ATOM     52  C   UNL     1      -7.420 -13.877  15.268  1.00  0.00     0.074 A 
ATOM     53  C   UNL     1      -1.957 -16.130  17.574  1.00  0.00     0.029 A 
ATOM     54  N   UNL     1      -3.548 -14.846  16.699  1.00  0.00    -0.354 N 
ATOM     55  N   UNL     1      -6.253 -14.252  15.732  1.00  0.00    -0.248 NA
ATOM     56  C   UNL     1      -8.433 -14.941  15.248  1.00  0.00     0.031 C 
ATOM     57  C   UNL     1      -3.115 -16.901  17.424  1.00  0.00     0.029 A 
ATOM     58  C   UNL     1      -4.112 -16.094  16.901  1.00  0.00     0.049 A 
ATOM     59  H   UNL     1      -4.019 -14.066  16.325  1.00  0.00     0.167 HD
ATOM     60  C   UNL     1      -6.399 -15.587  16.086  1.00  0.00     0.074 A 
ATOM     61  C   UNL     1      -7.771 -15.951  15.796  1.00  0.00     0.031 C 
ATOM     62  C   UNL     1      -5.480 -16.435  16.608  1.00  0.00     0.031 A 
BRANCH  49  63
ATOM     63  C   UNL     1       0.098 -13.909  17.437  1.00  0.00    -0.014 A 
ATOM     64  C   UNL     1       0.594 -13.327  18.615  1.00  0.00     0.009 A 
ATOM     65  C   UNL     1       0.959 -14.690  16.651  1.00  0.00     0.009 A 
ATOM     66  C   UNL     1       1.933 -13.492  18.977  1.00  0.00     0.001 A 
ATOM     67  C   UNL     1       2.291 -14.877  17.030  1.00  0.00     0.001 A 
ATOM     68  C   UNL     1       2.778 -14.269  18.186  1.00  0.00     0.000 A 
ENDBRANCH  49  63
BRANCH  50  69
ATOM     69  C   UNL     1      -9.238 -12.302  14.288  1.00  0.00    -0.014 A 
ATOM     70  C   UNL     1     -10.310 -12.279  15.193  1.00  0.00     0.009 A 
ATOM     71  C   UNL     1      -9.496 -12.108  12.923  1.00  0.00     0.009 A 
ATOM     72  C   UNL     1     -11.617 -12.092  14.737  1.00  0.00     0.001 A 
ATOM     73  C   UNL     1     -10.801 -11.895  12.473  1.00  0.00     0.001 A 
ATOM     74  C   UNL     1     -11.860 -11.896  13.379  1.00  0.00     0.000 A 
ENDBRANCH  50  69
BRANCH  62  75
ATOM     75  C   UNL     1      -5.942 -17.826  16.934  1.00  0.00    -0.014 A 
ATOM     76  C   UNL     1      -6.186 -18.769  15.924  1.00  0.00     0.009 A 
ATOM     77  C   UNL     1      -6.102 -18.206  18.276  1.00  0.00     0.009 A 
ATOM     78  C   UNL     1      -6.614 -20.056  16.252  1.00  0.00     0.001 A 
ATOM     79  C   UNL     1      -6.505 -19.501  18.601  1.00  0.00     0.001 A 
ATOM     80  C   UNL     1      -6.770 -20.422  17.589  1.00  0.00     0.000 A 
ENDBRANCH  62  75
ENDBRANCH  36  37
ENDBRANCH  28  31
ENDBRANCH  26  27
ENDBRANCH  25  26
ENDBRANCH   1  25
TORSDOF 15
