REMARK SMILES C/C(=N\NC(N)=S)c1nnn(-c2ccc(C(=O)NCCCNC(=O)c3ccc(-c4c5nc(c(-c6ccccc6)c6ccc([nH]6)c(-c6ccccc6)c6nc(c(-c7ccccc7)c7ccc4[nH]7)C=C6)C=C5)cc3)cc2)c1C
REMARK SMILES IDX 16 1 17 2 18 3 15 5 12 6 13 7 74 8 14 9 73 10 11 11 8 12
REMARK SMILES IDX 9 13 75 14 10 15 76 16 2 17 1 18 3 19 4 20 5 22 7 23 6 24
REMARK SMILES IDX 19 27 20 28 21 29 22 30 23 31 24 33 25 34 26 35 72 36 27 37
REMARK SMILES IDX 71 38 28 39 29 40 30 41 65 42 31 43 70 44 64 45 66 46 32 47
REMARK SMILES IDX 69 48 63 49 62 50 33 52 55 53 40 54 54 55 41 56 44 57 53 58
REMARK SMILES IDX 67 59 42 60 43 61 52 63 68 64 45 65 34 66 35 67 39 68 36 69
REMARK SMILES IDX 38 70 37 71 56 72 57 73 61 74 58 75 60 76 59 77 46 78 47 79
REMARK SMILES IDX 51 80 48 81 50 82 49 83
REMARK H PARENT 18 4 4 21 6 25 6 26 22 32 66 51 44 62
REMARK Flexibility Score: inf
ROOT
ATOM      1  C   UNL     1       6.667   2.124   7.036  1.00  0.00     0.251 C 
ATOM      2  O   UNL     1       6.699   1.566   8.133  1.00  0.00    -0.269 OA
ATOM      3  N   UNL     1       7.851   2.603   6.521  1.00  0.00    -0.352 N 
ATOM      4  H   UNL     1       8.613   2.537   7.140  1.00  0.00     0.163 HD
ENDROOT
BRANCH   1   5
ATOM      5  C   UNL     1       5.375   2.201   6.295  1.00  0.00     0.039 A 
ATOM      6  C   UNL     1       3.061   2.084   4.746  1.00  0.00     0.067 A 
ATOM      7  C   UNL     1       3.207   1.193   5.811  1.00  0.00     0.029 A 
ATOM      8  C   UNL     1       3.982   3.102   4.530  1.00  0.00     0.029 A 
ATOM      9  C   UNL     1       4.386   1.239   6.567  1.00  0.00     0.016 A 
ATOM     10  C   UNL     1       5.105   3.180   5.339  1.00  0.00     0.016 A 
BRANCH   6  11
ATOM     11  N   UNL     1       2.043   1.903   3.800  1.00  0.00    -0.217 N 
ATOM     12  C   UNL     1       0.913   1.514   1.991  1.00  0.00     0.132 A 
ATOM     13  N   UNL     1       0.039   1.652   3.039  1.00  0.00    -0.128 NA
ATOM     14  C   UNL     1       2.207   1.657   2.449  1.00  0.00     0.071 A 
ATOM     15  N   UNL     1       0.745   1.817   4.149  1.00  0.00    -0.061 NA
ATOM     16  C   UNL     1       3.510   1.403   1.787  1.00  0.00     0.069 C 
BRANCH  12  17
ATOM     17  C   UNL     1       0.490   0.998   0.703  1.00  0.00     0.087 C 
ATOM     18  C   UNL     1       0.532  -0.501   0.582  1.00  0.00     0.071 C 
ATOM     19  N   UNL     1       0.092   1.882  -0.163  1.00  0.00    -0.176 NA
BRANCH  19  20
ATOM     20  N   UNL     1      -0.433   1.542  -1.376  1.00  0.00    -0.254 N 
ATOM     21  H   UNL     1      -1.350   1.863  -1.536  1.00  0.00     0.193 HD
BRANCH  20  22
ATOM     22  C   UNL     1       0.121   0.819  -2.413  1.00  0.00     0.184 C 
ATOM     23  S   UNL     1       1.614   0.101  -2.539  1.00  0.00    -0.040 S 
BRANCH  22  24
ATOM     24  N   UNL     1      -0.736   0.717  -3.477  1.00  0.00    -0.375 N 
ATOM     25  H   UNL     1      -1.628   1.132  -3.432  1.00  0.00     0.159 HD
ATOM     26  H   UNL     1      -0.460   0.229  -4.286  1.00  0.00     0.159 HD
ENDBRANCH  22  24
ENDBRANCH  20  22
ENDBRANCH  19  20
ENDBRANCH  12  17
ENDBRANCH   6  11
ENDBRANCH   1   5
BRANCH   3  27
ATOM     27  C   UNL     1       8.185   3.191   5.228  1.00  0.00     0.118 C 
BRANCH  27  28
ATOM     28  C   UNL     1       8.143   4.727   5.258  1.00  0.00     0.042 C 
BRANCH  28  29
ATOM     29  C   UNL     1       9.431   5.334   5.774  1.00  0.00     0.118 C 
BRANCH  29  30
ATOM     30  N   UNL     1      10.533   5.212   4.819  1.00  0.00    -0.352 N 
ATOM     31  C   UNL     1      11.842   5.643   4.955  1.00  0.00     0.251 C 
ATOM     32  H   UNL     1      10.315   4.765   3.969  1.00  0.00     0.163 HD
ATOM     33  O   UNL     1      12.554   5.801   3.980  1.00  0.00    -0.269 OA
BRANCH  31  34
ATOM     34  C   UNL     1      12.357   5.902   6.312  1.00  0.00     0.039 A 
ATOM     35  C   UNL     1      13.237   6.954   6.584  1.00  0.00     0.014 A 
ATOM     36  C   UNL     1      11.912   5.071   7.333  1.00  0.00     0.014 A 
ATOM     37  C   UNL     1      13.599   7.198   7.907  1.00  0.00     0.010 A 
ATOM     38  C   UNL     1      12.086   5.443   8.634  1.00  0.00     0.010 A 
ATOM     39  C   UNL     1      13.002   6.442   8.927  1.00  0.00    -0.014 A 
BRANCH  39  40
ATOM     40  C   UNL     1      13.214   6.728  10.338  1.00  0.00     0.031 A 
ATOM     41  C   UNL     1      12.803   8.097  10.734  1.00  0.00     0.074 A 
ATOM     42  C   UNL     1      13.489   5.751  11.233  1.00  0.00     0.049 A 
ATOM     43  N   UNL     1      13.571   9.076  11.076  1.00  0.00    -0.248 NA
ATOM     44  C   UNL     1      11.389   8.478  10.566  1.00  0.00     0.031 C 
ATOM     45  C   UNL     1      13.591   4.303  10.989  1.00  0.00     0.029 A 
ATOM     46  N   UNL     1      13.605   5.826  12.585  1.00  0.00    -0.354 N 
ATOM     47  C   UNL     1      12.718  10.125  11.402  1.00  0.00     0.074 A 
ATOM     48  C   UNL     1      11.432   9.781  10.854  1.00  0.00     0.031 C 
ATOM     49  C   UNL     1      13.509   3.634  12.161  1.00  0.00     0.029 A 
ATOM     50  C   UNL     1      13.531   4.599  13.242  1.00  0.00     0.049 A 
ATOM     51  H   UNL     1      13.732   6.678  13.062  1.00  0.00     0.167 HD
ATOM     52  C   UNL     1      13.062  11.025  12.365  1.00  0.00     0.031 A 
ATOM     53  C   UNL     1      13.477   4.394  14.582  1.00  0.00     0.031 A 
ATOM     54  C   UNL     1      14.458  10.899  12.714  1.00  0.00     0.049 A 
ATOM     55  C   UNL     1      13.971   5.629  15.225  1.00  0.00     0.074 A 
ATOM     56  C   UNL     1      15.661  11.049  12.058  1.00  0.00     0.029 A 
ATOM     57  N   UNL     1      14.715  10.146  13.834  1.00  0.00    -0.354 N 
ATOM     58  N   UNL     1      15.204   6.032  15.142  1.00  0.00    -0.248 NA
ATOM     59  C   UNL     1      13.004   6.646  15.605  1.00  0.00     0.031 C 
ATOM     60  C   UNL     1      16.511  10.039  12.601  1.00  0.00     0.029 A 
ATOM     61  C   UNL     1      15.818   9.370  13.613  1.00  0.00     0.049 A 
ATOM     62  H   UNL     1      14.187  10.163  14.665  1.00  0.00     0.167 HD
ATOM     63  C   UNL     1      15.108   7.407  14.991  1.00  0.00     0.074 A 
ATOM     64  C   UNL     1      13.755   7.738  15.432  1.00  0.00     0.031 C 
ATOM     65  C   UNL     1      16.030   8.085  14.244  1.00  0.00     0.031 A 
BRANCH  52  66
ATOM     66  C   UNL     1      12.074  11.633  13.341  1.00  0.00    -0.014 A 
ATOM     67  C   UNL     1      12.576  12.482  14.348  1.00  0.00     0.009 A 
ATOM     68  C   UNL     1      10.752  11.181  13.509  1.00  0.00     0.009 A 
ATOM     69  C   UNL     1      11.837  12.767  15.502  1.00  0.00     0.001 A 
ATOM     70  C   UNL     1       9.996  11.497  14.642  1.00  0.00     0.001 A 
ATOM     71  C   UNL     1      10.552  12.262  15.655  1.00  0.00     0.000 A 
ENDBRANCH  52  66
BRANCH  53  72
ATOM     72  C   UNL     1      12.847   3.316  15.372  1.00  0.00    -0.014 A 
ATOM     73  C   UNL     1      13.236   3.081  16.702  1.00  0.00     0.009 A 
ATOM     74  C   UNL     1      11.656   2.719  14.923  1.00  0.00     0.009 A 
ATOM     75  C   UNL     1      12.433   2.324  17.567  1.00  0.00     0.001 A 
ATOM     76  C   UNL     1      10.854   1.963  15.787  1.00  0.00     0.001 A 
ATOM     77  C   UNL     1      11.234   1.780  17.114  1.00  0.00     0.000 A 
ENDBRANCH  53  72
BRANCH  65  78
ATOM     78  C   UNL     1      17.292   7.348  13.865  1.00  0.00    -0.014 A 
ATOM     79  C   UNL     1      17.313   6.212  13.035  1.00  0.00     0.009 A 
ATOM     80  C   UNL     1      18.516   7.899  14.268  1.00  0.00     0.009 A 
ATOM     81  C   UNL     1      18.526   5.630  12.648  1.00  0.00     0.001 A 
ATOM     82  C   UNL     1      19.726   7.333  13.864  1.00  0.00     0.001 A 
ATOM     83  C   UNL     1      19.731   6.195  13.060  1.00  0.00     0.000 A 
ENDBRANCH  65  78
ENDBRANCH  39  40
ENDBRANCH  31  34
ENDBRANCH  29  30
ENDBRANCH  28  29
ENDBRANCH  27  28
ENDBRANCH   3  27
TORSDOF 15
