REMARK SMILES O=C(NCCCNC(=O)c1ccc(-c2c3nc(c(-c4ccccc4)c4ccc([nH]4)c(-c4ccccc4)c4nc(c(-c5ccccc5)c5ccc2[nH]5)C=C4)C=C3)cc1)C1=Cc2c(ccc(Cl)c2Sc2ccccc2)O[C@H]1C(F)(F)F
REMARK SMILES IDX 5 1 4 2 3 3 1 4 2 5 58 7 59 8 75 9 60 10 74 11 61 12 66 13
REMARK SMILES IDX 62 14 64 15 63 16 65 17 76 18 77 19 78 20 79 21 67 22 68 23
REMARK SMILES IDX 69 24 73 25 70 26 72 27 71 28 6 29 7 30 8 31 9 33 10 34
REMARK SMILES IDX 11 35 57 36 12 37 56 38 13 39 14 40 15 41 50 42 16 43 55 44
REMARK SMILES IDX 49 45 51 46 17 47 54 48 48 49 47 50 18 52 40 53 25 54 39 55
REMARK SMILES IDX 26 56 29 57 38 58 52 59 27 60 28 61 37 63 53 64 30 65 19 66
REMARK SMILES IDX 20 67 24 68 21 69 23 70 22 71 41 72 42 73 46 74 43 75 45 76
REMARK SMILES IDX 44 77 31 78 32 79 36 80 33 81 35 82 34 83
REMARK H PARENT 3 6 7 32 51 51 29 62
REMARK Flexibility Score: inf
ROOT
ATOM      1  C   UNL     1       4.051  -2.476  -1.705  1.00  0.00     0.042 C 
ENDROOT
BRANCH   1   2
ATOM      2  C   UNL     1       3.372  -1.139  -1.471  1.00  0.00     0.118 C 
BRANCH   2   3
ATOM      3  N   UNL     1       2.302  -1.207  -0.494  1.00  0.00    -0.352 N 
ATOM      4  O   UNL     1       1.233  -1.014   1.465  1.00  0.00    -0.270 OA
ATOM      5  C   UNL     1       2.219  -0.744   0.784  1.00  0.00     0.251 C 
ATOM      6  H   UNL     1       1.492  -1.669  -0.811  1.00  0.00     0.163 HD
BRANCH   5   7
ATOM      7  C   UNL     1       3.313   0.036   1.385  1.00  0.00     0.067 C 
ATOM      8  C   UNL     1       3.655   1.250   0.941  1.00  0.00     0.026 C 
ATOM      9  C   UNL     1       4.224  -0.634   2.355  1.00  0.00     0.314 C 
ATOM     10  C   UNL     1       4.969   1.190   0.261  1.00  0.00     0.033 A 
ATOM     11  O   UNL     1       5.621  -0.525   1.916  1.00  0.00    -0.475 OA
ATOM     12  C   UNL     1       5.877   0.233   0.788  1.00  0.00     0.129 A 
ATOM     13  C   UNL     1       5.210   1.851  -0.976  1.00  0.00     0.042 A 
ATOM     14  C   UNL     1       7.035  -0.084   0.094  1.00  0.00     0.049 A 
ATOM     15  C   UNL     1       6.372   1.452  -1.680  1.00  0.00     0.055 A 
ATOM     16  C   UNL     1       7.264   0.502  -1.149  1.00  0.00     0.025 A 
ATOM     17  Cl  UNL     1       6.737   2.004  -3.286  1.00  0.00    -0.083 Cl
BRANCH   9  18
ATOM     18  C   UNL     1       4.045  -0.065   3.773  1.00  0.00     0.429 C 
ATOM     19  F   UNL     1       2.753   0.223   4.056  1.00  0.00    -0.167 F 
ATOM     20  F   UNL     1       4.468  -0.945   4.711  1.00  0.00    -0.167 F 
ATOM     21  F   UNL     1       4.749   1.081   3.949  1.00  0.00    -0.167 F 
ENDBRANCH   9  18
BRANCH  13  22
ATOM     22  S   UNL     1       4.045   2.986  -1.806  1.00  0.00    -0.088 SA
BRANCH  22  23
ATOM     23  C   UNL     1       2.859   3.495  -0.581  1.00  0.00     0.012 A 
ATOM     24  C   UNL     1       1.589   2.898  -0.551  1.00  0.00     0.015 A 
ATOM     25  C   UNL     1       3.223   4.389   0.432  1.00  0.00     0.015 A 
ATOM     26  C   UNL     1       0.744   3.100   0.543  1.00  0.00     0.001 A 
ATOM     27  C   UNL     1       2.372   4.595   1.522  1.00  0.00     0.001 A 
ATOM     28  C   UNL     1       1.147   3.931   1.589  1.00  0.00     0.000 A 
ENDBRANCH  22  23
ENDBRANCH  13  22
ENDBRANCH   5   7
ENDBRANCH   2   3
ENDBRANCH   1   2
BRANCH   1  29
ATOM     29  C   UNL     1       3.963  -2.911  -3.157  1.00  0.00     0.118 C 
BRANCH  29  30
ATOM     30  N   UNL     1       4.693  -2.050  -4.087  1.00  0.00    -0.352 N 
ATOM     31  C   UNL     1       5.627  -2.363  -5.050  1.00  0.00     0.251 C 
ATOM     32  H   UNL     1       4.483  -1.091  -4.012  1.00  0.00     0.163 HD
ATOM     33  O   UNL     1       6.163  -1.466  -5.696  1.00  0.00    -0.269 OA
BRANCH  31  34
ATOM     34  C   UNL     1       6.033  -3.768  -5.271  1.00  0.00     0.039 A 
ATOM     35  C   UNL     1       7.382  -4.063  -5.491  1.00  0.00     0.014 A 
ATOM     36  C   UNL     1       5.102  -4.801  -5.206  1.00  0.00     0.014 A 
ATOM     37  C   UNL     1       7.804  -5.394  -5.524  1.00  0.00     0.010 A 
ATOM     38  C   UNL     1       5.540  -6.111  -5.086  1.00  0.00     0.010 A 
ATOM     39  C   UNL     1       6.895  -6.429  -5.253  1.00  0.00    -0.014 A 
BRANCH  39  40
ATOM     40  C   UNL     1       7.311  -7.852  -5.157  1.00  0.00     0.031 A 
ATOM     41  C   UNL     1       6.640  -8.883  -6.029  1.00  0.00     0.074 A 
ATOM     42  C   UNL     1       8.201  -8.236  -4.220  1.00  0.00     0.049 A 
ATOM     43  N   UNL     1       6.731 -10.188  -5.989  1.00  0.00    -0.248 NA
ATOM     44  C   UNL     1       5.698  -8.381  -7.046  1.00  0.00     0.031 C 
ATOM     45  C   UNL     1       8.880  -7.350  -3.270  1.00  0.00     0.029 A 
ATOM     46  N   UNL     1       8.681  -9.483  -3.904  1.00  0.00    -0.354 N 
ATOM     47  C   UNL     1       5.825 -10.655  -6.933  1.00  0.00     0.074 A 
ATOM     48  C   UNL     1       5.149  -9.503  -7.484  1.00  0.00     0.031 C 
ATOM     49  C   UNL     1       9.716  -8.074  -2.509  1.00  0.00     0.029 A 
ATOM     50  C   UNL     1       9.596  -9.480  -2.878  1.00  0.00     0.049 A 
ATOM     51  H   UNL     1       8.396 -10.303  -4.369  1.00  0.00     0.167 HD
ATOM     52  C   UNL     1       5.594 -11.928  -7.332  1.00  0.00     0.031 A 
ATOM     53  C   UNL     1      10.261 -10.497  -2.297  1.00  0.00     0.031 A 
ATOM     54  C   UNL     1       6.310 -13.066  -6.827  1.00  0.00     0.049 A 
ATOM     55  C   UNL     1      10.021 -11.898  -2.787  1.00  0.00     0.074 A 
ATOM     56  C   UNL     1       6.216 -14.388  -7.222  1.00  0.00     0.029 A 
ATOM     57  N   UNL     1       7.267 -13.010  -5.826  1.00  0.00    -0.354 N 
ATOM     58  N   UNL     1       9.206 -12.316  -3.725  1.00  0.00    -0.248 NA
ATOM     59  C   UNL     1      10.801 -12.965  -2.146  1.00  0.00     0.031 C 
ATOM     60  C   UNL     1       7.091 -15.140  -6.431  1.00  0.00     0.029 A 
ATOM     61  C   UNL     1       7.764 -14.277  -5.581  1.00  0.00     0.049 A 
ATOM     62  H   UNL     1       7.550 -12.191  -5.359  1.00  0.00     0.167 HD
ATOM     63  C   UNL     1       9.397 -13.689  -3.808  1.00  0.00     0.074 A 
ATOM     64  C   UNL     1      10.416 -14.030  -2.836  1.00  0.00     0.031 C 
ATOM     65  C   UNL     1       8.786 -14.589  -4.616  1.00  0.00     0.031 A 
BRANCH  52  66
ATOM     66  C   UNL     1       4.533 -12.147  -8.376  1.00  0.00    -0.014 A 
ATOM     67  C   UNL     1       4.707 -11.705  -9.698  1.00  0.00     0.009 A 
ATOM     68  C   UNL     1       3.350 -12.822  -8.038  1.00  0.00     0.009 A 
ATOM     69  C   UNL     1       3.700 -11.893 -10.646  1.00  0.00     0.001 A 
ATOM     70  C   UNL     1       2.359 -13.039  -8.997  1.00  0.00     0.001 A 
ATOM     71  C   UNL     1       2.529 -12.564 -10.297  1.00  0.00     0.000 A 
ENDBRANCH  52  66
BRANCH  53  72
ATOM     72  C   UNL     1      11.239 -10.229  -1.209  1.00  0.00    -0.014 A 
ATOM     73  C   UNL     1      12.615 -10.384  -1.439  1.00  0.00     0.009 A 
ATOM     74  C   UNL     1      10.807  -9.825   0.064  1.00  0.00     0.009 A 
ATOM     75  C   UNL     1      13.536 -10.169  -0.411  1.00  0.00     0.001 A 
ATOM     76  C   UNL     1      11.732  -9.582   1.082  1.00  0.00     0.001 A 
ATOM     77  C   UNL     1      13.094  -9.765   0.847  1.00  0.00     0.000 A 
ENDBRANCH  53  72
BRANCH  65  78
ATOM     78  C   UNL     1       9.234 -16.018  -4.516  1.00  0.00    -0.014 A 
ATOM     79  C   UNL     1       8.882 -16.817  -3.419  1.00  0.00     0.009 A 
ATOM     80  C   UNL     1       9.973 -16.585  -5.567  1.00  0.00     0.009 A 
ATOM     81  C   UNL     1       9.288 -18.151  -3.362  1.00  0.00     0.001 A 
ATOM     82  C   UNL     1      10.352 -17.926  -5.521  1.00  0.00     0.001 A 
ATOM     83  C   UNL     1      10.017 -18.706  -4.415  1.00  0.00     0.000 A 
ENDBRANCH  65  78
ENDBRANCH  39  40
ENDBRANCH  31  34
ENDBRANCH  29  30
ENDBRANCH   1  29
TORSDOF 13
