REMARK SMILES Cc1cc(NC(=O)c2ccc3ncsc3c2)sc1C(=O)NCCCNC(=O)c1ccc(-c2c3nc(c(-c4ccccc4)c4ccc([nH]4)c(-c4ccccc4)c4nc(c(-c5ccccc5)c5ccc2[nH]5)C=C4)C=C3)cc1
REMARK SMILES IDX 23 1 22 2 21 3 19 4 20 5 18 7 1 8 2 9 3 10 4 11 17 12 5 13
REMARK SMILES IDX 6 14 7 16 8 17 9 18 16 19 10 20 15 21 11 22 14 23 12 24
REMARK SMILES IDX 13 25 24 26 25 27 26 28 27 30 28 31 29 32 75 33 30 34 74 35
REMARK SMILES IDX 31 36 32 37 33 38 68 39 34 40 73 41 67 42 69 43 35 44 72 45
REMARK SMILES IDX 66 46 65 47 36 49 58 50 43 51 57 52 44 53 47 54 56 55 70 56
REMARK SMILES IDX 45 57 46 58 55 60 71 61 48 62 37 63 38 64 42 65 39 66 41 67
REMARK SMILES IDX 40 68 59 69 60 70 64 71 61 72 63 73 62 74 49 75 50 76 54 77
REMARK SMILES IDX 51 78 53 79 52 80
REMARK H PARENT 21 6 5 15 25 29 69 48 47 59
REMARK Flexibility Score: inf
ROOT
ATOM      1  C   UNL     1       3.743  -2.721   0.641  1.00  0.00     0.042 C 
ENDROOT
BRANCH   1   2
ATOM      2  C   UNL     1       2.833  -2.689  -0.583  1.00  0.00     0.118 C 
BRANCH   2   3
ATOM      3  N   UNL     1       1.467  -2.995  -0.240  1.00  0.00    -0.351 N 
ATOM      4  C   UNL     1       0.356  -2.228   0.006  1.00  0.00     0.261 C 
ATOM      5  O   UNL     1      -0.673  -2.910   0.095  1.00  0.00    -0.268 OA
ATOM      6  H   UNL     1       1.293  -3.961  -0.167  1.00  0.00     0.163 HD
BRANCH   4   7
ATOM      7  C   UNL     1       0.344  -0.769   0.171  1.00  0.00     0.097 A 
ATOM      8  C   UNL     1       2.742   0.284   0.564  1.00  0.00     0.046 C 
ATOM      9  C   UNL     1       1.256   0.245   0.479  1.00  0.00    -0.025 A 
ATOM     10  C   UNL     1       0.568   1.456   0.812  1.00  0.00     0.042 A 
ATOM     11  C   UNL     1      -0.688   1.500   0.289  1.00  0.00     0.096 A 
ATOM     12  S   UNL     1      -1.256  -0.048  -0.043  1.00  0.00    -0.112 S 
BRANCH  11  13
ATOM     13  N   UNL     1      -1.528   2.552   0.013  1.00  0.00    -0.314 N 
ATOM     14  C   UNL     1      -1.146   3.876  -0.134  1.00  0.00     0.256 C 
ATOM     15  H   UNL     1      -2.486   2.347  -0.090  1.00  0.00     0.171 HD
ATOM     16  O   UNL     1      -1.971   4.781  -0.193  1.00  0.00    -0.269 OA
BRANCH  14  17
ATOM     17  C   UNL     1       0.293   4.219  -0.284  1.00  0.00     0.041 A 
ATOM     18  C   UNL     1       1.036   3.667  -1.334  1.00  0.00     0.016 A 
ATOM     19  C   UNL     1       0.906   4.990   0.714  1.00  0.00     0.035 A 
ATOM     20  C   UNL     1       2.430   3.792  -1.350  1.00  0.00     0.030 A 
ATOM     21  C   UNL     1       2.309   5.083   0.693  1.00  0.00     0.055 A 
ATOM     22  C   UNL     1       3.082   4.483  -0.308  1.00  0.00     0.081 A 
ATOM     23  S   UNL     1       3.363   5.851   1.822  1.00  0.00    -0.122 S 
ATOM     24  N   UNL     1       4.453   4.608  -0.158  1.00  0.00    -0.245 NA
ATOM     25  C   UNL     1       4.714   5.304   0.924  1.00  0.00     0.176 A 
ENDBRANCH  14  17
ENDBRANCH  11  13
ENDBRANCH   4   7
ENDBRANCH   2   3
ENDBRANCH   1   2
BRANCH   1  26
ATOM     26  C   UNL     1       4.345  -4.085   0.941  1.00  0.00     0.118 C 
BRANCH  26  27
ATOM     27  N   UNL     1       5.370  -4.446  -0.026  1.00  0.00    -0.352 N 
ATOM     28  C   UNL     1       6.725  -4.607   0.123  1.00  0.00     0.251 C 
ATOM     29  H   UNL     1       5.036  -4.599  -0.940  1.00  0.00     0.163 HD
ATOM     30  O   UNL     1       7.430  -4.658  -0.881  1.00  0.00    -0.269 OA
BRANCH  28  31
ATOM     31  C   UNL     1       7.351  -4.717   1.462  1.00  0.00     0.039 A 
ATOM     32  C   UNL     1       8.643  -4.208   1.642  1.00  0.00     0.014 A 
ATOM     33  C   UNL     1       6.720  -5.376   2.519  1.00  0.00     0.014 A 
ATOM     34  C   UNL     1       9.275  -4.322   2.883  1.00  0.00     0.010 A 
ATOM     35  C   UNL     1       7.311  -5.408   3.780  1.00  0.00     0.010 A 
ATOM     36  C   UNL     1       8.604  -4.899   3.971  1.00  0.00    -0.014 A 
BRANCH  36  37
ATOM     37  C   UNL     1       9.242  -5.009   5.307  1.00  0.00     0.031 A 
ATOM     38  C   UNL     1       9.510  -6.363   5.909  1.00  0.00     0.074 A 
ATOM     39  C   UNL     1       9.525  -3.892   6.005  1.00  0.00     0.049 A 
ATOM     40  N   UNL     1       9.993  -6.662   7.088  1.00  0.00    -0.248 NA
ATOM     41  C   UNL     1       9.164  -7.535   5.088  1.00  0.00     0.031 C 
ATOM     42  C   UNL     1       9.280  -2.522   5.551  1.00  0.00     0.029 A 
ATOM     43  N   UNL     1      10.077  -3.735   7.252  1.00  0.00    -0.354 N 
ATOM     44  C   UNL     1       9.986  -8.050   7.158  1.00  0.00     0.074 A 
ATOM     45  C   UNL     1       9.405  -8.533   5.925  1.00  0.00     0.031 C 
ATOM     46  C   UNL     1       9.703  -1.664   6.492  1.00  0.00     0.029 A 
ATOM     47  C   UNL     1      10.211  -2.422   7.631  1.00  0.00     0.049 A 
ATOM     48  H   UNL     1      10.350  -4.491   7.820  1.00  0.00     0.167 HD
ATOM     49  C   UNL     1      10.441  -8.854   8.149  1.00  0.00     0.031 A 
ATOM     50  C   UNL     1      10.686  -1.887   8.771  1.00  0.00     0.031 A 
ATOM     51  C   UNL     1      11.034  -8.374   9.368  1.00  0.00     0.049 A 
ATOM     52  C   UNL     1      11.183  -2.798   9.858  1.00  0.00     0.074 A 
ATOM     53  C   UNL     1      11.575  -9.106  10.411  1.00  0.00     0.029 A 
ATOM     54  N   UNL     1      11.164  -7.036   9.707  1.00  0.00    -0.354 N 
ATOM     55  N   UNL     1      11.223  -4.108   9.883  1.00  0.00    -0.248 NA
ATOM     56  C   UNL     1      11.712  -2.155  11.069  1.00  0.00     0.031 C 
ATOM     57  C   UNL     1      11.991  -8.210  11.402  1.00  0.00     0.029 A 
ATOM     58  C   UNL     1      11.760  -6.921  10.951  1.00  0.00     0.049 A 
ATOM     59  H   UNL     1      10.877  -6.280   9.145  1.00  0.00     0.167 HD
ATOM     60  C   UNL     1      11.804  -4.446  11.098  1.00  0.00     0.074 A 
ATOM     61  C   UNL     1      12.116  -3.202  11.773  1.00  0.00     0.031 C 
ATOM     62  C   UNL     1      12.059  -5.675  11.608  1.00  0.00     0.031 A 
BRANCH  49  63
ATOM     63  C   UNL     1      10.307 -10.339   7.952  1.00  0.00    -0.014 A 
ATOM     64  C   UNL     1      11.083 -11.020   6.999  1.00  0.00     0.009 A 
ATOM     65  C   UNL     1       9.414 -11.073   8.747  1.00  0.00     0.009 A 
ATOM     66  C   UNL     1      10.936 -12.397   6.819  1.00  0.00     0.001 A 
ATOM     67  C   UNL     1       9.291 -12.455   8.586  1.00  0.00     0.001 A 
ATOM     68  C   UNL     1      10.044 -13.114   7.615  1.00  0.00     0.000 A 
ENDBRANCH  49  63
BRANCH  50  69
ATOM     69  C   UNL     1      10.732  -0.410   8.935  1.00  0.00    -0.014 A 
ATOM     70  C   UNL     1      11.960   0.269   8.920  1.00  0.00     0.009 A 
ATOM     71  C   UNL     1       9.550   0.328   9.104  1.00  0.00     0.009 A 
ATOM     72  C   UNL     1      12.006   1.654   9.094  1.00  0.00     0.001 A 
ATOM     73  C   UNL     1       9.597   1.716   9.249  1.00  0.00     0.001 A 
ATOM     74  C   UNL     1      10.824   2.377   9.253  1.00  0.00     0.000 A 
ENDBRANCH  50  69
BRANCH  62  75
ATOM     75  C   UNL     1      12.735  -5.733  12.949  1.00  0.00    -0.014 A 
ATOM     76  C   UNL     1      12.048  -5.404  14.127  1.00  0.00     0.009 A 
ATOM     77  C   UNL     1      14.070  -6.160  13.034  1.00  0.00     0.009 A 
ATOM     78  C   UNL     1      12.696  -5.469  15.362  1.00  0.00     0.001 A 
ATOM     79  C   UNL     1      14.706  -6.251  14.272  1.00  0.00     0.001 A 
ATOM     80  C   UNL     1      14.022  -5.897  15.434  1.00  0.00     0.000 A 
ENDBRANCH  62  75
ENDBRANCH  36  37
ENDBRANCH  28  31
ENDBRANCH  26  27
ENDBRANCH   1  26
TORSDOF 12
