REMARK SMILES C=CCOc1ccccc1/C=C/c1cc(C(=O)NCCCNC(=O)c2ccc(-c3c4nc(c(-c5ccccc5)c5ccc([nH]5)c(-c5ccccc5)c5nc(c(-c6ccccc6)c6ccc3[nH]6)C=C5)C=C4)cc2)ncn1
REMARK SMILES IDX 16 1 17 2 18 3 15 5 13 6 14 7 75 8 74 9 73 10 12 11 11 12
REMARK SMILES IDX 10 13 5 14 6 15 7 16 9 17 8 18 4 19 3 20 2 21 1 22 19 23
REMARK SMILES IDX 20 24 21 25 22 26 23 27 24 29 25 30 26 31 72 32 27 33 71 34
REMARK SMILES IDX 28 35 29 36 30 37 65 38 31 39 70 40 64 41 66 42 32 43 69 44
REMARK SMILES IDX 63 45 62 46 33 48 55 49 40 50 54 51 41 52 44 53 53 54 67 55
REMARK SMILES IDX 42 56 43 57 52 59 68 60 45 61 34 62 35 63 39 64 36 65 38 66
REMARK SMILES IDX 37 67 56 68 57 69 61 70 58 71 60 72 59 73 46 74 47 75 51 76
REMARK SMILES IDX 48 77 50 78 49 79
REMARK H PARENT 18 4 22 28 66 47 44 58
REMARK Flexibility Score: inf
ROOT
ATOM      1  C   UNL     1       4.469   0.572  -2.889  1.00  0.00     0.270 C 
ATOM      2  O   UNL     1       5.418   0.087  -3.508  1.00  0.00    -0.268 OA
ATOM      3  N   UNL     1       3.522   1.245  -3.633  1.00  0.00    -0.351 N 
ATOM      4  H   UNL     1       3.736   1.293  -4.593  1.00  0.00     0.163 HD
ENDROOT
BRANCH   1   5
ATOM      5  C   UNL     1       4.361   0.371  -1.405  1.00  0.00     0.132 A 
ATOM      6  C   UNL     1       3.519   0.860   0.719  1.00  0.00     0.067 A 
ATOM      7  C   UNL     1       3.753   1.280  -0.573  1.00  0.00     0.062 A 
ATOM      8  N   UNL     1       4.031  -0.282   1.211  1.00  0.00    -0.237 NA
ATOM      9  C   UNL     1       4.713  -1.044   0.348  1.00  0.00     0.223 A 
ATOM     10  N   UNL     1       4.875  -0.795  -0.953  1.00  0.00    -0.231 NA
BRANCH   6  11
ATOM     11  C   UNL     1       2.570   1.542   1.613  1.00  0.00     0.029 C 
ATOM     12  C   UNL     1       1.516   2.234   1.146  1.00  0.00     0.014 C 
BRANCH  12  13
ATOM     13  C   UNL     1       0.351   2.680   1.927  1.00  0.00     0.017 A 
ATOM     14  C   UNL     1      -0.919   2.716   1.315  1.00  0.00     0.126 A 
ATOM     15  C   UNL     1      -2.045   3.165   2.008  1.00  0.00     0.047 A 
ATOM     16  C   UNL     1      -1.922   3.556   3.339  1.00  0.00     0.004 A 
ATOM     17  C   UNL     1       0.456   3.088   3.262  1.00  0.00     0.012 A 
ATOM     18  C   UNL     1      -0.676   3.517   3.964  1.00  0.00     0.001 A 
BRANCH  14  19
ATOM     19  O   UNL     1      -1.070   2.361  -0.006  1.00  0.00    -0.489 OA
BRANCH  19  20
ATOM     20  C   UNL     1      -1.510   1.001  -0.132  1.00  0.00     0.257 C 
BRANCH  20  21
ATOM     21  C   UNL     1      -0.472   0.237  -0.903  1.00  0.00     0.006 C 
ATOM     22  C   UNL     1       0.240  -0.785  -0.411  1.00  0.00     0.007 C 
ENDBRANCH  20  21
ENDBRANCH  19  20
ENDBRANCH  14  19
ENDBRANCH  12  13
ENDBRANCH   6  11
ENDBRANCH   1   5
BRANCH   3  23
ATOM     23  C   UNL     1       2.272   1.896  -3.280  1.00  0.00     0.118 C 
BRANCH  23  24
ATOM     24  C   UNL     1       2.436   3.414  -3.225  1.00  0.00     0.042 C 
BRANCH  24  25
ATOM     25  C   UNL     1       2.534   4.060  -4.604  1.00  0.00     0.118 C 
BRANCH  25  26
ATOM     26  N   UNL     1       1.258   4.050  -5.306  1.00  0.00    -0.352 N 
ATOM     27  C   UNL     1       0.509   5.091  -5.791  1.00  0.00     0.251 C 
ATOM     28  H   UNL     1       0.873   3.157  -5.455  1.00  0.00     0.163 HD
ATOM     29  O   UNL     1      -0.645   4.882  -6.168  1.00  0.00    -0.269 OA
BRANCH  27  30
ATOM     30  C   UNL     1       1.060   6.462  -5.857  1.00  0.00     0.039 A 
ATOM     31  C   UNL     1       0.230   7.539  -5.529  1.00  0.00     0.014 A 
ATOM     32  C   UNL     1       2.370   6.699  -6.283  1.00  0.00     0.014 A 
ATOM     33  C   UNL     1       0.728   8.843  -5.575  1.00  0.00     0.010 A 
ATOM     34  C   UNL     1       2.887   7.992  -6.259  1.00  0.00     0.010 A 
ATOM     35  C   UNL     1       2.071   9.079  -5.910  1.00  0.00    -0.014 A 
BRANCH  35  36
ATOM     36  C   UNL     1       2.638  10.451  -5.904  1.00  0.00     0.031 A 
ATOM     37  C   UNL     1       3.135  11.074  -7.179  1.00  0.00     0.074 A 
ATOM     38  C   UNL     1       2.764  11.114  -4.737  1.00  0.00     0.049 A 
ATOM     39  N   UNL     1       3.724  12.230  -7.359  1.00  0.00    -0.248 NA
ATOM     40  C   UNL     1       2.973  10.285  -8.411  1.00  0.00     0.031 C 
ATOM     41  C   UNL     1       2.354  10.608  -3.425  1.00  0.00     0.029 A 
ATOM     42  N   UNL     1       3.284  12.355  -4.467  1.00  0.00    -0.354 N 
ATOM     43  C   UNL     1       4.018  12.297  -8.716  1.00  0.00     0.074 A 
ATOM     44  C   UNL     1       3.585  11.049  -9.304  1.00  0.00     0.031 C 
ATOM     45  C   UNL     1       2.615  11.540  -2.494  1.00  0.00     0.029 A 
ATOM     46  C   UNL     1       3.247  12.689  -3.135  1.00  0.00     0.049 A 
ATOM     47  H   UNL     1       3.648  12.950  -5.162  1.00  0.00     0.167 HD
ATOM     48  C   UNL     1       4.582  13.313  -9.413  1.00  0.00     0.031 A 
ATOM     49  C   UNL     1       3.682  13.792  -2.497  1.00  0.00     0.031 A 
ATOM     50  C   UNL     1       5.001  14.560  -8.831  1.00  0.00     0.049 A 
ATOM     51  C   UNL     1       4.316  14.899  -3.292  1.00  0.00     0.074 A 
ATOM     52  C   UNL     1       5.531  15.672  -9.464  1.00  0.00     0.029 A 
ATOM     53  N   UNL     1       4.940  14.860  -7.479  1.00  0.00    -0.354 N 
ATOM     54  N   UNL     1       4.528  14.972  -4.583  1.00  0.00    -0.248 NA
ATOM     55  C   UNL     1       4.762  16.080  -2.539  1.00  0.00     0.031 C 
ATOM     56  C   UNL     1       5.835  16.627  -8.488  1.00  0.00     0.029 A 
ATOM     57  C   UNL     1       5.444  16.130  -7.255  1.00  0.00     0.049 A 
ATOM     58  H   UNL     1       4.590  14.259  -6.782  1.00  0.00     0.167 HD
ATOM     59  C   UNL     1       5.108  16.215  -4.801  1.00  0.00     0.074 A 
ATOM     60  C   UNL     1       5.197  16.869  -3.512  1.00  0.00     0.031 C 
ATOM     61  C   UNL     1       5.528  16.766  -5.966  1.00  0.00     0.031 A 
BRANCH  48  62
ATOM     62  C   UNL     1       4.785  13.111 -10.889  1.00  0.00    -0.014 A 
ATOM     63  C   UNL     1       3.697  13.081 -11.776  1.00  0.00     0.009 A 
ATOM     64  C   UNL     1       6.084  12.985 -11.405  1.00  0.00     0.009 A 
ATOM     65  C   UNL     1       3.903  12.892 -13.144  1.00  0.00     0.001 A 
ATOM     66  C   UNL     1       6.289  12.825 -12.777  1.00  0.00     0.001 A 
ATOM     67  C   UNL     1       5.199  12.769 -13.644  1.00  0.00     0.000 A 
ENDBRANCH  48  62
BRANCH  49  68
ATOM     68  C   UNL     1       3.522  13.913  -1.025  1.00  0.00    -0.014 A 
ATOM     69  C   UNL     1       2.600  14.821  -0.482  1.00  0.00     0.009 A 
ATOM     70  C   UNL     1       4.295  13.128  -0.154  1.00  0.00     0.009 A 
ATOM     71  C   UNL     1       2.474  14.960   0.902  1.00  0.00     0.001 A 
ATOM     72  C   UNL     1       4.146  13.249   1.229  1.00  0.00     0.001 A 
ATOM     73  C   UNL     1       3.244  14.171   1.756  1.00  0.00     0.000 A 
ENDBRANCH  49  68
BRANCH  61  74
ATOM     74  C   UNL     1       6.092  18.157  -5.902  1.00  0.00    -0.014 A 
ATOM     75  C   UNL     1       7.358  18.405  -5.350  1.00  0.00     0.009 A 
ATOM     76  C   UNL     1       5.360  19.229  -6.436  1.00  0.00     0.009 A 
ATOM     77  C   UNL     1       7.865  19.705  -5.306  1.00  0.00     0.001 A 
ATOM     78  C   UNL     1       5.881  20.522  -6.416  1.00  0.00     0.001 A 
ATOM     79  C   UNL     1       7.129  20.761  -5.843  1.00  0.00     0.000 A 
ENDBRANCH  61  74
ENDBRANCH  35  36
ENDBRANCH  27  30
ENDBRANCH  25  26
ENDBRANCH  24  25
ENDBRANCH  23  24
ENDBRANCH   3  23
TORSDOF 15
