REMARK SMILES O=C1O[C@@H](c2ccc(O)c(O)c2)[C@H](C(=O)NCCCNC(=O)c2ccc(-c3c4nc(c(-c5ccccc5)c5ccc([nH]5)c(-c5ccccc5)c5nc(c(-c6ccccc6)c6ccc3[nH]6)C=C5)C=C4)cc2)/C1=C\c1ccc(O)c(O)c1
REMARK SMILES IDX 18 1 17 2 16 3 14 4 15 5 13 7 1 8 2 9 3 10 71 11 4 12 72 13
REMARK SMILES IDX 5 14 6 15 12 16 7 17 10 18 8 19 11 20 9 22 73 24 74 25 80 26
REMARK SMILES IDX 75 27 78 28 76 29 79 30 77 32 19 34 20 35 21 36 22 38 23 39
REMARK SMILES IDX 24 40 70 41 25 42 69 43 26 44 27 45 28 46 63 47 29 48 68 49
REMARK SMILES IDX 62 50 64 51 30 52 67 53 61 54 60 55 31 57 53 58 38 59 52 60
REMARK SMILES IDX 39 61 42 62 51 63 65 64 40 65 41 66 50 68 66 69 43 70 32 71
REMARK SMILES IDX 33 72 37 73 34 74 36 75 35 76 54 77 55 78 59 79 56 80 58 81
REMARK SMILES IDX 57 82 44 83 45 84 49 85 46 86 48 87 47 88
REMARK H PARENT 16 6 11 21 9 23 79 31 77 33 20 37 64 56 42 67
REMARK Flexibility Score: inf
ROOT
ATOM      1  C   UNL     1       5.181   1.406   1.502  1.00  0.00     0.042 C 
ENDROOT
BRANCH   1   2
ATOM      2  C   UNL     1       4.031   0.418   1.556  1.00  0.00     0.117 C 
BRANCH   2   3
ATOM      3  N   UNL     1       2.825   0.956   2.157  1.00  0.00    -0.355 N 
ATOM      4  C   UNL     1       1.550   1.093   1.686  1.00  0.00     0.231 C 
ATOM      5  O   UNL     1       0.708   1.458   2.509  1.00  0.00    -0.274 OA
ATOM      6  H   UNL     1       2.948   1.285   3.077  1.00  0.00     0.163 HD
BRANCH   4   7
ATOM      7  C   UNL     1       1.224   0.916   0.198  1.00  0.00     0.161 C 
ATOM      8  O   UNL     1      -1.904  -0.790  -0.110  1.00  0.00    -0.247 OA
ATOM      9  C   UNL     1      -0.742  -0.424  -0.136  1.00  0.00     0.335 C 
ATOM     10  O   UNL     1       0.329  -1.236  -0.285  1.00  0.00    -0.453 OA
ATOM     11  C   UNL     1      -0.250   0.960  -0.039  1.00  0.00     0.054 C 
ATOM     12  C   UNL     1       1.548  -0.476  -0.335  1.00  0.00     0.224 C 
ATOM     13  C   UNL     1      -1.109   1.977  -0.203  1.00  0.00     0.020 C 
BRANCH  12  14
ATOM     14  C   UNL     1       2.173  -0.486  -1.733  1.00  0.00    -0.002 A 
ATOM     15  C   UNL     1       3.242   0.380  -2.065  1.00  0.00     0.012 A 
ATOM     16  C   UNL     1       1.761  -1.416  -2.699  1.00  0.00     0.057 A 
ATOM     17  C   UNL     1       3.879   0.321  -3.310  1.00  0.00     0.050 A 
ATOM     18  C   UNL     1       2.389  -1.459  -3.938  1.00  0.00     0.157 A 
ATOM     19  C   UNL     1       3.444  -0.604  -4.243  1.00  0.00     0.157 A 
BRANCH  18  20
ATOM     20  O   UNL     1       1.965  -2.367  -4.865  1.00  0.00    -0.504 OA
ATOM     21  H   UNL     1       2.379  -2.408  -5.705  1.00  0.00     0.293 HD
ENDBRANCH  18  20
BRANCH  19  22
ATOM     22  O   UNL     1       4.026  -0.718  -5.473  1.00  0.00    -0.504 OA
ATOM     23  H   UNL     1       4.739  -0.156  -5.708  1.00  0.00     0.293 HD
ENDBRANCH  19  22
ENDBRANCH  12  14
BRANCH  13  24
ATOM     24  C   UNL     1      -0.746   3.392  -0.159  1.00  0.00    -0.021 A 
ATOM     25  C   UNL     1       0.115   3.950  -1.117  1.00  0.00     0.012 A 
ATOM     26  C   UNL     1      -1.311   4.209   0.826  1.00  0.00     0.058 A 
ATOM     27  C   UNL     1       0.434   5.311  -1.078  1.00  0.00     0.051 A 
ATOM     28  C   UNL     1      -0.995   5.560   0.852  1.00  0.00     0.157 A 
ATOM     29  C   UNL     1      -0.125   6.108  -0.087  1.00  0.00     0.157 A 
BRANCH  28  30
ATOM     30  O   UNL     1      -1.553   6.356   1.811  1.00  0.00    -0.504 OA
ATOM     31  H   UNL     1      -1.348   7.270   1.839  1.00  0.00     0.293 HD
ENDBRANCH  28  30
BRANCH  29  32
ATOM     32  O   UNL     1       0.144   7.446   0.002  1.00  0.00    -0.504 OA
ATOM     33  H   UNL     1       0.725   7.848  -0.613  1.00  0.00     0.293 HD
ENDBRANCH  29  32
ENDBRANCH  13  24
ENDBRANCH   4   7
ENDBRANCH   2   3
ENDBRANCH   1   2
BRANCH   1  34
ATOM     34  C   UNL     1       5.726   1.791   2.868  1.00  0.00     0.118 C 
BRANCH  34  35
ATOM     35  N   UNL     1       6.238   0.646   3.611  1.00  0.00    -0.352 N 
ATOM     36  C   UNL     1       7.516   0.327   3.998  1.00  0.00     0.251 C 
ATOM     37  H   UNL     1       5.553  -0.008   3.880  1.00  0.00     0.163 HD
ATOM     38  O   UNL     1       7.754  -0.793   4.438  1.00  0.00    -0.269 OA
BRANCH  36  39
ATOM     39  C   UNL     1       8.610   1.313   3.866  1.00  0.00     0.039 A 
ATOM     40  C   UNL     1       9.870   0.874   3.450  1.00  0.00     0.014 A 
ATOM     41  C   UNL     1       8.404   2.661   4.163  1.00  0.00     0.014 A 
ATOM     42  C   UNL     1      10.895   1.801   3.254  1.00  0.00     0.010 A 
ATOM     43  C   UNL     1       9.392   3.594   3.870  1.00  0.00     0.010 A 
ATOM     44  C   UNL     1      10.650   3.174   3.415  1.00  0.00    -0.014 A 
BRANCH  44  45
ATOM     45  C   UNL     1      11.690   4.187   3.103  1.00  0.00     0.031 A 
ATOM     46  C   UNL     1      12.192   5.115   4.177  1.00  0.00     0.074 A 
ATOM     47  C   UNL     1      12.123   4.323   1.834  1.00  0.00     0.049 A 
ATOM     48  N   UNL     1      13.043   6.105   4.077  1.00  0.00    -0.248 NA
ATOM     49  C   UNL     1      11.649   4.926   5.533  1.00  0.00     0.031 C 
ATOM     50  C   UNL     1      11.675   3.520   0.693  1.00  0.00     0.029 A 
ATOM     51  N   UNL     1      13.030   5.196   1.287  1.00  0.00    -0.354 N 
ATOM     52  C   UNL     1      13.116   6.668   5.346  1.00  0.00     0.074 A 
ATOM     53  C   UNL     1      12.192   5.942   6.187  1.00  0.00     0.031 C 
ATOM     54  C   UNL     1      12.328   3.920  -0.410  1.00  0.00     0.029 A 
ATOM     55  C   UNL     1      13.201   5.037  -0.067  1.00  0.00     0.049 A 
ATOM     56  H   UNL     1      13.514   5.872   1.815  1.00  0.00     0.167 HD
ATOM     57  C   UNL     1      13.896   7.688   5.774  1.00  0.00     0.031 A 
ATOM     58  C   UNL     1      13.963   5.723  -0.941  1.00  0.00     0.031 A 
ATOM     59  C   UNL     1      14.829   8.397   4.940  1.00  0.00     0.049 A 
ATOM     60  C   UNL     1      14.815   6.854  -0.436  1.00  0.00     0.074 A 
ATOM     61  C   UNL     1      15.722   9.391   5.301  1.00  0.00     0.029 A 
ATOM     62  N   UNL     1      14.985   8.193   3.579  1.00  0.00    -0.354 N 
ATOM     63  N   UNL     1      14.941   7.313   0.786  1.00  0.00    -0.248 NA
ATOM     64  C   UNL     1      15.640   7.556  -1.430  1.00  0.00     0.031 C 
ATOM     65  C   UNL     1      16.368   9.837   4.146  1.00  0.00     0.029 A 
ATOM     66  C   UNL     1      15.931   9.071   3.077  1.00  0.00     0.049 A 
ATOM     67  H   UNL     1      14.496   7.524   3.047  1.00  0.00     0.167 HD
ATOM     68  C   UNL     1      15.877   8.336   0.712  1.00  0.00     0.074 A 
ATOM     69  C   UNL     1      16.303   8.415  -0.669  1.00  0.00     0.031 C 
ATOM     70  C   UNL     1      16.342   9.139   1.699  1.00  0.00     0.031 A 
BRANCH  57  71
ATOM     71  C   UNL     1      13.768   8.114   7.211  1.00  0.00    -0.014 A 
ATOM     72  C   UNL     1      14.223   7.301   8.261  1.00  0.00     0.009 A 
ATOM     73  C   UNL     1      13.241   9.380   7.514  1.00  0.00     0.009 A 
ATOM     74  C   UNL     1      14.127   7.736   9.585  1.00  0.00     0.001 A 
ATOM     75  C   UNL     1      13.175   9.825   8.836  1.00  0.00     0.001 A 
ATOM     76  C   UNL     1      13.611   8.999   9.870  1.00  0.00     0.000 A 
ENDBRANCH  57  71
BRANCH  58  77
ATOM     77  C   UNL     1      13.950   5.370  -2.386  1.00  0.00    -0.014 A 
ATOM     78  C   UNL     1      15.086   4.826  -3.003  1.00  0.00     0.009 A 
ATOM     79  C   UNL     1      12.803   5.602  -3.163  1.00  0.00     0.009 A 
ATOM     80  C   UNL     1      15.088   4.559  -4.375  1.00  0.00     0.001 A 
ATOM     81  C   UNL     1      12.796   5.300  -4.527  1.00  0.00     0.001 A 
ATOM     82  C   UNL     1      13.942   4.792  -5.134  1.00  0.00     0.000 A 
ENDBRANCH  58  77
BRANCH  70  83
ATOM     83  C   UNL     1      17.390  10.152   1.328  1.00  0.00    -0.014 A 
ATOM     84  C   UNL     1      17.079  11.273   0.545  1.00  0.00     0.009 A 
ATOM     85  C   UNL     1      18.700  10.000   1.810  1.00  0.00     0.009 A 
ATOM     86  C   UNL     1      18.068  12.204   0.220  1.00  0.00     0.001 A 
ATOM     87  C   UNL     1      19.678  10.950   1.513  1.00  0.00     0.001 A 
ATOM     88  C   UNL     1      19.364  12.045   0.710  1.00  0.00     0.000 A 
ENDBRANCH  70  83
ENDBRANCH  44  45
ENDBRANCH  36  39
ENDBRANCH  34  35
ENDBRANCH   1  34
TORSDOF 16
