REMARK SMILES COc1cccc([C@@H]2CN(C(=O)c3cnn(C)c3)C[C@H]2C(=O)NCCCNC(=O)c2ccc(-c3c4nc(c(-c5ccccc5)c5ccc([nH]5)c(-c5ccccc5)c5nc(c(-c6ccccc6)c6ccc3[nH]6)C=C5)C=C4)cc2)c1OC
REMARK SMILES IDX 25 1 24 2 23 3 21 4 22 5 20 7 8 8 9 9 10 10 19 11 7 12 3 13
REMARK SMILES IDX 4 14 78 15 5 16 6 17 2 18 1 19 79 20 80 21 11 22 12 23 13 24
REMARK SMILES IDX 14 25 18 26 15 27 16 28 17 29 26 30 27 31 28 32 29 34 30 35
REMARK SMILES IDX 31 36 77 37 32 38 76 39 33 40 34 41 35 42 70 43 36 44 75 45
REMARK SMILES IDX 69 46 71 47 37 48 74 49 68 50 67 51 38 53 60 54 45 55 59 56
REMARK SMILES IDX 46 57 49 58 58 59 72 60 47 61 48 62 57 64 73 65 50 66 39 67
REMARK SMILES IDX 40 68 44 69 41 70 43 71 42 72 61 73 62 74 66 75 63 76 65 77
REMARK SMILES IDX 64 78 51 79 52 80 56 81 53 82 55 83 54 84
REMARK H PARENT 23 6 27 33 71 52 49 63
REMARK Flexibility Score: inf
ROOT
ATOM      1  C   UNL     1       5.121   7.668  -0.854  1.00  0.00     0.042 C 
ENDROOT
BRANCH   1   2
ATOM      2  C   UNL     1       5.856   6.574  -0.086  1.00  0.00     0.117 C 
BRANCH   2   3
ATOM      3  N   UNL     1       5.034   5.969   0.951  1.00  0.00    -0.356 N 
ATOM      4  C   UNL     1       4.511   4.726   1.103  1.00  0.00     0.225 C 
ATOM      5  O   UNL     1       3.857   4.532   2.133  1.00  0.00    -0.275 OA
ATOM      6  H   UNL     1       4.814   6.583   1.688  1.00  0.00     0.163 HD
BRANCH   4   7
ATOM      7  C   UNL     1       4.662   3.611   0.084  1.00  0.00     0.107 C 
ATOM      8  C   UNL     1       3.933   3.894  -1.243  1.00  0.00     0.057 C 
ATOM      9  C   UNL     1       4.882   3.387  -2.333  1.00  0.00     0.129 C 
ATOM     10  N   UNL     1       6.203   3.429  -1.728  1.00  0.00    -0.337 N 
ATOM     11  C   UNL     1       6.107   3.299  -0.282  1.00  0.00     0.134 C 
BRANCH   8  12
ATOM     12  C   UNL     1       2.522   3.336  -1.342  1.00  0.00     0.004 A 
ATOM     13  C   UNL     1       0.892   1.522  -1.289  1.00  0.00     0.161 A 
ATOM     14  C   UNL     1      -0.134   2.440  -1.542  1.00  0.00     0.050 A 
ATOM     15  C   UNL     1       2.227   1.960  -1.207  1.00  0.00     0.164 A 
ATOM     16  C   UNL     1       0.151   3.795  -1.671  1.00  0.00     0.004 A 
ATOM     17  C   UNL     1       1.467   4.240  -1.566  1.00  0.00     0.008 A 
BRANCH  13  18
ATOM     18  O   UNL     1       0.598   0.184  -1.219  1.00  0.00    -0.493 OA
ATOM     19  C   UNL     1      -0.371  -0.107  -0.210  1.00  0.00     0.278 C 
ENDBRANCH  13  18
BRANCH  15  20
ATOM     20  O   UNL     1       3.317   1.139  -1.055  1.00  0.00    -0.493 OA
ATOM     21  C   UNL     1       3.153  -0.014  -0.239  1.00  0.00     0.278 C 
ENDBRANCH  15  20
ENDBRANCH   8  12
BRANCH  10  22
ATOM     22  C   UNL     1       7.431   3.269  -2.351  1.00  0.00     0.257 C 
ATOM     23  O   UNL     1       8.454   3.068  -1.696  1.00  0.00    -0.269 OA
BRANCH  22  24
ATOM     24  C   UNL     1       7.489   3.312  -3.800  1.00  0.00     0.077 A 
ATOM     25  C   UNL     1       8.283   2.490  -4.633  1.00  0.00     0.149 A 
ATOM     26  C   UNL     1       6.889   4.188  -4.687  1.00  0.00     0.122 A 
ATOM     27  N   UNL     1       8.131   2.763  -5.932  1.00  0.00    -0.181 NA
ATOM     28  N   UNL     1       7.274   3.796  -5.936  1.00  0.00    -0.275 N 
ATOM     29  C   UNL     1       6.854   4.365  -7.193  1.00  0.00     0.173 C 
ENDBRANCH  22  24
ENDBRANCH  10  22
ENDBRANCH   4   7
ENDBRANCH   2   3
ENDBRANCH   1   2
BRANCH   1  30
ATOM     30  C   UNL     1       4.653   8.839   0.004  1.00  0.00     0.118 C 
BRANCH  30  31
ATOM     31  N   UNL     1       5.754   9.621   0.547  1.00  0.00    -0.352 N 
ATOM     32  C   UNL     1       6.177  10.894   0.251  1.00  0.00     0.251 C 
ATOM     33  H   UNL     1       6.282   9.162   1.239  1.00  0.00     0.163 HD
ATOM     34  O   UNL     1       7.239  11.303   0.710  1.00  0.00    -0.269 OA
BRANCH  32  35
ATOM     35  C   UNL     1       5.382  11.772  -0.636  1.00  0.00     0.039 A 
ATOM     36  C   UNL     1       6.048  12.509  -1.621  1.00  0.00     0.014 A 
ATOM     37  C   UNL     1       4.000  11.905  -0.482  1.00  0.00     0.014 A 
ATOM     38  C   UNL     1       5.321  13.312  -2.503  1.00  0.00     0.010 A 
ATOM     39  C   UNL     1       3.268  12.659  -1.398  1.00  0.00     0.010 A 
ATOM     40  C   UNL     1       3.921  13.361  -2.423  1.00  0.00    -0.014 A 
BRANCH  40  41
ATOM     41  C   UNL     1       3.115  14.121  -3.410  1.00  0.00     0.031 A 
ATOM     42  C   UNL     1       2.318  15.320  -2.982  1.00  0.00     0.074 A 
ATOM     43  C   UNL     1       3.035  13.682  -4.681  1.00  0.00     0.049 A 
ATOM     44  N   UNL     1       1.463  16.030  -3.675  1.00  0.00    -0.248 NA
ATOM     45  C   UNL     1       2.487  15.764  -1.591  1.00  0.00     0.031 C 
ATOM     46  C   UNL     1       3.739  12.520  -5.226  1.00  0.00     0.029 A 
ATOM     47  N   UNL     1       2.310  14.161  -5.743  1.00  0.00    -0.354 N 
ATOM     48  C   UNL     1       0.968  16.984  -2.795  1.00  0.00     0.074 A 
ATOM     49  C   UNL     1       1.605  16.751  -1.516  1.00  0.00     0.031 C 
ATOM     50  C   UNL     1       3.430  12.390  -6.526  1.00  0.00     0.029 A 
ATOM     51  C   UNL     1       2.478  13.432  -6.894  1.00  0.00     0.049 A 
ATOM     52  H   UNL     1       1.726  14.952  -5.685  1.00  0.00     0.167 HD
ATOM     53  C   UNL     1       0.070  17.969  -3.031  1.00  0.00     0.031 A 
ATOM     54  C   UNL     1       1.917  13.576  -8.109  1.00  0.00     0.031 A 
ATOM     55  C   UNL     1      -0.539  18.233  -4.306  1.00  0.00     0.049 A 
ATOM     56  C   UNL     1       0.915  14.667  -8.342  1.00  0.00     0.074 A 
ATOM     57  C   UNL     1      -1.395  19.263  -4.657  1.00  0.00     0.029 A 
ATOM     58  N   UNL     1      -0.356  17.459  -5.440  1.00  0.00    -0.354 N 
ATOM     59  N   UNL     1       0.481  15.578  -7.507  1.00  0.00    -0.248 NA
ATOM     60  C   UNL     1       0.319  14.740  -9.684  1.00  0.00     0.031 C 
ATOM     61  C   UNL     1      -1.752  19.095  -6.001  1.00  0.00     0.029 A 
ATOM     62  C   UNL     1      -1.100  17.974  -6.487  1.00  0.00     0.049 A 
ATOM     63  H   UNL     1       0.219  16.662  -5.493  1.00  0.00     0.167 HD
ATOM     64  C   UNL     1      -0.431  16.339  -8.223  1.00  0.00     0.074 A 
ATOM     65  C   UNL     1      -0.486  15.787  -9.561  1.00  0.00     0.031 C 
ATOM     66  C   UNL     1      -1.156  17.405  -7.806  1.00  0.00     0.031 A 
BRANCH  53  67
ATOM     67  C   UNL     1      -0.315  18.832  -1.867  1.00  0.00    -0.014 A 
ATOM     68  C   UNL     1       0.538  19.843  -1.401  1.00  0.00     0.009 A 
ATOM     69  C   UNL     1      -1.554  18.636  -1.237  1.00  0.00     0.009 A 
ATOM     70  C   UNL     1       0.170  20.623  -0.303  1.00  0.00     0.001 A 
ATOM     71  C   UNL     1      -1.925  19.429  -0.150  1.00  0.00     0.001 A 
ATOM     72  C   UNL     1      -1.060  20.416   0.320  1.00  0.00     0.000 A 
ENDBRANCH  53  67
BRANCH  54  73
ATOM     73  C   UNL     1       2.300  12.656  -9.206  1.00  0.00    -0.014 A 
ATOM     74  C   UNL     1       3.224  13.069 -10.176  1.00  0.00     0.009 A 
ATOM     75  C   UNL     1       1.759  11.364  -9.278  1.00  0.00     0.009 A 
ATOM     76  C   UNL     1       3.595  12.204 -11.207  1.00  0.00     0.001 A 
ATOM     77  C   UNL     1       2.142  10.498 -10.304  1.00  0.00     0.001 A 
ATOM     78  C   UNL     1       3.057  10.920 -11.269  1.00  0.00     0.000 A 
ENDBRANCH  54  73
BRANCH  66  79
ATOM     79  C   UNL     1      -2.062  18.043  -8.814  1.00  0.00    -0.014 A 
ATOM     80  C   UNL     1      -3.322  17.492  -9.095  1.00  0.00     0.009 A 
ATOM     81  C   UNL     1      -1.664  19.217  -9.469  1.00  0.00     0.009 A 
ATOM     82  C   UNL     1      -4.161  18.099 -10.031  1.00  0.00     0.001 A 
ATOM     83  C   UNL     1      -2.511  19.828 -10.395  1.00  0.00     0.001 A 
ATOM     84  C   UNL     1      -3.756  19.266 -10.678  1.00  0.00     0.000 A 
ENDBRANCH  66  79
ENDBRANCH  40  41
ENDBRANCH  32  35
ENDBRANCH  30  31
ENDBRANCH   1  30
TORSDOF 15
