REMARK SMILES O=C(CCn1c(SCc2ccccn2)nc2ccccc2c1=O)NCCCNC(=O)c1ccc(-c2c3nc(c(-c4ccccc4)c4ccc([nH]4)c(-c4ccccc4)c4nc(c(-c5ccccc5)c5ccc2[nH]5)C=C4)C=C3)cc1
REMARK SMILES IDX 1 1 2 2 24 3 3 5 4 6 5 7 6 8 22 9 15 10 21 11 23 12 16 13
REMARK SMILES IDX 20 14 17 15 19 16 18 17 7 18 8 19 9 20 10 21 14 22 11 23
REMARK SMILES IDX 13 24 12 25 25 26 26 27 27 28 28 29 29 30 30 32 31 33 32 34
REMARK SMILES IDX 78 35 33 36 77 37 34 38 35 39 36 40 71 41 37 42 76 43 70 44
REMARK SMILES IDX 72 45 38 46 75 47 69 48 68 49 39 51 61 52 46 53 60 54 47 55
REMARK SMILES IDX 50 56 59 57 73 58 48 59 49 60 58 62 74 63 51 64 40 65 41 66
REMARK SMILES IDX 45 67 42 68 44 69 43 70 62 71 63 72 67 73 64 74 66 75 65 76
REMARK SMILES IDX 52 77 53 78 57 79 54 80 56 81 55 82
REMARK H PARENT 24 4 28 31 72 50 50 61
REMARK Flexibility Score: inf
ROOT
ATOM      1  O   UNL     1       0.880   0.459  -0.217  1.00  0.00    -0.275 OA
ATOM      2  C   UNL     1       2.082   0.380  -0.439  1.00  0.00     0.221 C 
ATOM      3  N   UNL     1       2.690  -0.669  -1.082  1.00  0.00    -0.356 N 
ATOM      4  H   UNL     1       3.657  -0.607  -1.255  1.00  0.00     0.163 HD
ENDROOT
BRANCH   2   5
ATOM      5  C   UNL     1       3.062   1.421   0.044  1.00  0.00     0.122 C 
BRANCH   5   6
ATOM      6  C   UNL     1       3.747   0.917   1.316  1.00  0.00     0.138 C 
BRANCH   6   7
ATOM      7  N   UNL     1       4.725  -0.151   1.075  1.00  0.00    -0.287 N 
ATOM      8  C   UNL     1       4.549  -1.500   1.363  1.00  0.00     0.171 A 
ATOM      9  C   UNL     1       5.894   0.280   0.430  1.00  0.00     0.262 A 
ATOM     10  N   UNL     1       5.336  -2.420   0.895  1.00  0.00    -0.224 NA
ATOM     11  C   UNL     1       6.741  -0.754  -0.182  1.00  0.00     0.066 A 
ATOM     12  O   UNL     1       6.187   1.462   0.260  1.00  0.00    -0.269 OA
ATOM     13  C   UNL     1       6.399  -2.075   0.061  1.00  0.00     0.079 A 
ATOM     14  C   UNL     1       7.766  -0.422  -1.079  1.00  0.00     0.016 A 
ATOM     15  C   UNL     1       7.090  -3.083  -0.618  1.00  0.00     0.029 A 
ATOM     16  C   UNL     1       8.446  -1.435  -1.757  1.00  0.00     0.001 A 
ATOM     17  C   UNL     1       8.103  -2.767  -1.530  1.00  0.00     0.002 A 
BRANCH   8  18
ATOM     18  S   UNL     1       3.139  -2.182   2.132  1.00  0.00    -0.081 SA
BRANCH  18  19
ATOM     19  C   UNL     1       2.627  -1.274   3.583  1.00  0.00     0.134 C 
BRANCH  19  20
ATOM     20  C   UNL     1       3.570  -0.339   4.292  1.00  0.00     0.051 A 
ATOM     21  C   UNL     1       3.112   0.932   4.660  1.00  0.00     0.025 A 
ATOM     22  N   UNL     1       4.809  -0.776   4.611  1.00  0.00    -0.260 NA
ATOM     23  C   UNL     1       3.965   1.795   5.335  1.00  0.00     0.003 A 
ATOM     24  C   UNL     1       5.607   0.074   5.296  1.00  0.00     0.111 A 
ATOM     25  C   UNL     1       5.239   1.357   5.667  1.00  0.00     0.020 A 
ENDBRANCH  19  20
ENDBRANCH  18  19
ENDBRANCH   8  18
ENDBRANCH   6   7
ENDBRANCH   5   6
ENDBRANCH   2   5
BRANCH   3  26
ATOM     26  C   UNL     1       1.997  -1.861  -1.522  1.00  0.00     0.117 C 
BRANCH  26  27
ATOM     27  C   UNL     1       2.173  -2.080  -3.015  1.00  0.00     0.042 C 
BRANCH  27  28
ATOM     28  C   UNL     1       3.626  -2.169  -3.470  1.00  0.00     0.118 C 
BRANCH  28  29
ATOM     29  N   UNL     1       4.326  -3.365  -3.020  1.00  0.00    -0.352 N 
ATOM     30  C   UNL     1       5.166  -4.178  -3.753  1.00  0.00     0.251 C 
ATOM     31  H   UNL     1       4.183  -3.624  -2.081  1.00  0.00     0.163 HD
ATOM     32  O   UNL     1       5.649  -5.195  -3.275  1.00  0.00    -0.269 OA
BRANCH  30  33
ATOM     33  C   UNL     1       5.439  -3.818  -5.161  1.00  0.00     0.039 A 
ATOM     34  C   UNL     1       5.895  -2.538  -5.482  1.00  0.00     0.014 A 
ATOM     35  C   UNL     1       5.128  -4.736  -6.167  1.00  0.00     0.014 A 
ATOM     36  C   UNL     1       5.871  -2.117  -6.808  1.00  0.00     0.010 A 
ATOM     37  C   UNL     1       5.178  -4.333  -7.504  1.00  0.00     0.010 A 
ATOM     38  C   UNL     1       5.490  -3.003  -7.830  1.00  0.00    -0.014 A 
BRANCH  38  39
ATOM     39  C   UNL     1       5.388  -2.515  -9.230  1.00  0.00     0.031 A 
ATOM     40  C   UNL     1       4.052  -2.449  -9.925  1.00  0.00     0.074 A 
ATOM     41  C   UNL     1       6.493  -2.081  -9.864  1.00  0.00     0.049 A 
ATOM     42  N   UNL     1       3.777  -2.056 -11.144  1.00  0.00    -0.248 NA
ATOM     43  C   UNL     1       2.872  -2.875  -9.155  1.00  0.00     0.031 C 
ATOM     44  C   UNL     1       7.839  -2.058  -9.290  1.00  0.00     0.029 A 
ATOM     45  N   UNL     1       6.657  -1.554 -11.121  1.00  0.00    -0.354 N 
ATOM     46  C   UNL     1       2.404  -2.206 -11.292  1.00  0.00     0.074 A 
ATOM     47  C   UNL     1       1.900  -2.746 -10.049  1.00  0.00     0.031 C 
ATOM     48  C   UNL     1       8.681  -1.500 -10.172  1.00  0.00     0.029 A 
ATOM     49  C   UNL     1       7.951  -1.187 -11.397  1.00  0.00     0.049 A 
ATOM     50  H   UNL     1       5.917  -1.450 -11.763  1.00  0.00     0.167 HD
ATOM     51  C   UNL     1       1.631  -1.911 -12.364  1.00  0.00     0.031 A 
ATOM     52  C   UNL     1       8.498  -0.671 -12.513  1.00  0.00     0.031 A 
ATOM     53  C   UNL     1       2.127  -1.358 -13.597  1.00  0.00     0.049 A 
ATOM     54  C   UNL     1       7.631  -0.413 -13.711  1.00  0.00     0.074 A 
ATOM     55  C   UNL     1       1.412  -1.010 -14.730  1.00  0.00     0.029 A 
ATOM     56  N   UNL     1       3.457  -1.070 -13.857  1.00  0.00    -0.354 N 
ATOM     57  N   UNL     1       6.336  -0.568 -13.835  1.00  0.00    -0.248 NA
ATOM     58  C   UNL     1       8.299   0.081 -14.923  1.00  0.00     0.031 C 
ATOM     59  C   UNL     1       2.315  -0.559 -15.695  1.00  0.00     0.029 A 
ATOM     60  C   UNL     1       3.586  -0.573 -15.143  1.00  0.00     0.049 A 
ATOM     61  H   UNL     1       4.199  -1.200 -13.223  1.00  0.00     0.167 HD
ATOM     62  C   UNL     1       6.031  -0.181 -15.133  1.00  0.00     0.074 A 
ATOM     63  C   UNL     1       7.274   0.231 -15.752  1.00  0.00     0.031 C 
ATOM     64  C   UNL     1       4.827  -0.171 -15.751  1.00  0.00     0.031 A 
BRANCH  51  65
ATOM     65  C   UNL     1       0.157  -2.188 -12.272  1.00  0.00    -0.014 A 
ATOM     66  C   UNL     1      -0.404  -3.229 -13.030  1.00  0.00     0.009 A 
ATOM     67  C   UNL     1      -0.692  -1.362 -11.519  1.00  0.00     0.009 A 
ATOM     68  C   UNL     1      -1.785  -3.431 -13.044  1.00  0.00     0.001 A 
ATOM     69  C   UNL     1      -2.071  -1.582 -11.516  1.00  0.00     0.001 A 
ATOM     70  C   UNL     1      -2.617  -2.610 -12.285  1.00  0.00     0.000 A 
ENDBRANCH  51  65
BRANCH  52  71
ATOM     71  C   UNL     1       9.953  -0.372 -12.536  1.00  0.00    -0.014 A 
ATOM     72  C   UNL     1      10.894  -1.415 -12.519  1.00  0.00     0.009 A 
ATOM     73  C   UNL     1      10.407   0.954 -12.513  1.00  0.00     0.009 A 
ATOM     74  C   UNL     1      12.260  -1.135 -12.449  1.00  0.00     0.001 A 
ATOM     75  C   UNL     1      11.776   1.230 -12.472  1.00  0.00     0.001 A 
ATOM     76  C   UNL     1      12.700   0.186 -12.429  1.00  0.00     0.000 A 
ENDBRANCH  52  71
BRANCH  64  77
ATOM     77  C   UNL     1       4.771   0.309 -17.173  1.00  0.00    -0.014 A 
ATOM     78  C   UNL     1       4.177   1.546 -17.468  1.00  0.00     0.009 A 
ATOM     79  C   UNL     1       5.203  -0.510 -18.226  1.00  0.00     0.009 A 
ATOM     80  C   UNL     1       4.000   1.947 -18.793  1.00  0.00     0.001 A 
ATOM     81  C   UNL     1       5.046  -0.095 -19.550  1.00  0.00     0.001 A 
ATOM     82  C   UNL     1       4.436   1.127 -19.832  1.00  0.00     0.000 A 
ENDBRANCH  64  77
ENDBRANCH  38  39
ENDBRANCH  30  33
ENDBRANCH  28  29
ENDBRANCH  27  28
ENDBRANCH  26  27
ENDBRANCH   3  26
TORSDOF 15
