REMARK SMILES Cc1cc(F)cc(N[C@](C)(C(=O)NCCCNC(=O)c2ccc(-c3c4nc(c(-c5ccccc5)c5ccc([nH]5)c(-c5ccccc5)c5nc(c(-c6ccccc6)c6ccc3[nH]6)C=C5)C=C4)cc2)c2cccc(F)c2)c1
REMARK SMILES IDX 15 1 14 2 13 3 11 4 12 5 9 7 10 8 8 9 7 11 1 12 2 13 3 14
REMARK SMILES IDX 75 15 4 16 5 17 6 18 68 19 69 20 74 21 70 22 72 23 71 24
REMARK SMILES IDX 73 25 16 26 17 27 18 28 19 30 20 31 21 32 67 33 22 34 66 35
REMARK SMILES IDX 23 36 24 37 25 38 60 39 26 40 65 41 59 42 61 43 27 44 64 45
REMARK SMILES IDX 58 46 57 47 28 49 50 50 35 51 49 52 36 53 39 54 48 55 62 56
REMARK SMILES IDX 37 57 38 58 47 60 63 61 40 62 29 63 30 64 34 65 31 66 33 67
REMARK SMILES IDX 32 68 51 69 52 70 56 71 53 72 55 73 54 74 41 75 42 76 46 77
REMARK SMILES IDX 43 78 45 79 44 80
REMARK H PARENT 13 6 8 10 17 29 61 48 39 59
REMARK Flexibility Score: inf
ROOT
ATOM      1  C   UNL     1      -3.965  -6.372   1.228  1.00  0.00     0.042 C 
ENDROOT
BRANCH   1   2
ATOM      2  C   UNL     1      -3.856  -4.926   0.751  1.00  0.00     0.117 C 
BRANCH   2   3
ATOM      3  N   UNL     1      -2.831  -4.212   1.483  1.00  0.00    -0.354 N 
ATOM      4  C   UNL     1      -1.507  -4.010   1.246  1.00  0.00     0.250 C 
ATOM      5  O   UNL     1      -0.853  -3.702   2.256  1.00  0.00    -0.272 OA
ATOM      6  H   UNL     1      -3.155  -3.791   2.312  1.00  0.00     0.163 HD
BRANCH   4   7
ATOM      7  C   UNL     1      -0.792  -4.161  -0.170  1.00  0.00     0.139 C 
ATOM      8  C   UNL     1      -1.630  -3.865  -1.438  1.00  0.00     0.051 C 
BRANCH   7   9
ATOM      9  N   UNL     1       0.317  -3.149  -0.187  1.00  0.00    -0.368 N 
ATOM     10  H   UNL     1       1.229  -3.506  -0.286  1.00  0.00     0.161 HD
BRANCH   9  11
ATOM     11  C   UNL     1       0.205  -1.764  -0.080  1.00  0.00     0.038 A 
ATOM     12  C   UNL     1       2.680   1.171  -0.083  1.00  0.00     0.044 C 
ATOM     13  C   UNL     1       1.398   0.396  -0.051  1.00  0.00    -0.046 A 
ATOM     14  C   UNL     1       0.182   1.067   0.073  1.00  0.00     0.042 A 
ATOM     15  C   UNL     1       1.393  -1.007  -0.144  1.00  0.00     0.029 A 
ATOM     16  C   UNL     1      -0.996   0.336   0.115  1.00  0.00     0.125 A 
ATOM     17  F   UNL     1      -2.164   0.980   0.241  1.00  0.00    -0.207 F 
ATOM     18  C   UNL     1      -0.991  -1.056   0.040  1.00  0.00     0.065 A 
ENDBRANCH   9  11
ENDBRANCH   7   9
BRANCH   7  19
ATOM     19  C   UNL     1      -0.212  -5.613  -0.243  1.00  0.00    -0.011 A 
ATOM     20  C   UNL     1       1.100  -5.952   0.148  1.00  0.00     0.007 A 
ATOM     21  C   UNL     1      -1.041  -6.692  -0.619  1.00  0.00     0.046 A 
ATOM     22  C   UNL     1       1.550  -7.283   0.161  1.00  0.00     0.003 A 
ATOM     23  C   UNL     1      -0.595  -8.013  -0.580  1.00  0.00     0.123 A 
ATOM     24  C   UNL     1       0.696  -8.319  -0.194  1.00  0.00     0.039 A 
ATOM     25  F   UNL     1      -1.445  -8.998  -0.898  1.00  0.00    -0.207 F 
ENDBRANCH   7  19
ENDBRANCH   4   7
ENDBRANCH   2   3
ENDBRANCH   1   2
BRANCH   1  26
ATOM     26  C   UNL     1      -4.644  -6.525   2.583  1.00  0.00     0.118 C 
BRANCH  26  27
ATOM     27  N   UNL     1      -6.071  -6.258   2.513  1.00  0.00    -0.352 N 
ATOM     28  C   UNL     1      -7.142  -7.076   2.768  1.00  0.00     0.251 C 
ATOM     29  H   UNL     1      -6.306  -5.342   2.239  1.00  0.00     0.163 HD
ATOM     30  O   UNL     1      -8.265  -6.710   2.429  1.00  0.00    -0.269 OA
BRANCH  28  31
ATOM     31  C   UNL     1      -6.972  -8.387   3.436  1.00  0.00     0.039 A 
ATOM     32  C   UNL     1      -7.803  -9.445   3.051  1.00  0.00     0.014 A 
ATOM     33  C   UNL     1      -6.063  -8.570   4.482  1.00  0.00     0.014 A 
ATOM     34  C   UNL     1      -7.702 -10.683   3.689  1.00  0.00     0.010 A 
ATOM     35  C   UNL     1      -5.904  -9.828   5.061  1.00  0.00     0.010 A 
ATOM     36  C   UNL     1      -6.739 -10.891   4.688  1.00  0.00    -0.014 A 
BRANCH  36  37
ATOM     37  C   UNL     1      -6.623 -12.202   5.376  1.00  0.00     0.031 A 
ATOM     38  C   UNL     1      -6.927 -12.319   6.845  1.00  0.00     0.074 A 
ATOM     39  C   UNL     1      -6.210 -13.284   4.689  1.00  0.00     0.049 A 
ATOM     40  N   UNL     1      -6.881 -13.376   7.617  1.00  0.00    -0.248 NA
ATOM     41  C   UNL     1      -7.306 -11.081   7.545  1.00  0.00     0.031 C 
ATOM     42  C   UNL     1      -5.846 -13.299   3.271  1.00  0.00     0.029 A 
ATOM     43  N   UNL     1      -6.034 -14.583   5.092  1.00  0.00    -0.354 N 
ATOM     44  C   UNL     1      -7.202 -12.926   8.892  1.00  0.00     0.074 A 
ATOM     45  C   UNL     1      -7.390 -11.495   8.800  1.00  0.00     0.031 C 
ATOM     46  C   UNL     1      -5.533 -14.554   2.913  1.00  0.00     0.029 A 
ATOM     47  C   UNL     1      -5.642 -15.424   4.080  1.00  0.00     0.049 A 
ATOM     48  H   UNL     1      -6.176 -14.884   6.019  1.00  0.00     0.167 HD
ATOM     49  C   UNL     1      -7.349 -13.639  10.035  1.00  0.00     0.031 A 
ATOM     50  C   UNL     1      -5.407 -16.749   4.087  1.00  0.00     0.031 A 
ATOM     51  C   UNL     1      -7.182 -15.064  10.126  1.00  0.00     0.049 A 
ATOM     52  C   UNL     1      -5.581 -17.522   5.362  1.00  0.00     0.074 A 
ATOM     53  C   UNL     1      -7.375 -15.889  11.220  1.00  0.00     0.029 A 
ATOM     54  N   UNL     1      -6.780 -15.877   9.077  1.00  0.00    -0.354 N 
ATOM     55  N   UNL     1      -5.953 -17.093   6.544  1.00  0.00    -0.248 NA
ATOM     56  C   UNL     1      -5.312 -18.966   5.300  1.00  0.00     0.031 C 
ATOM     57  C   UNL     1      -7.047 -17.196  10.845  1.00  0.00     0.029 A 
ATOM     58  C   UNL     1      -6.696 -17.192   9.504  1.00  0.00     0.049 A 
ATOM     59  H   UNL     1      -6.583 -15.566   8.164  1.00  0.00     0.167 HD
ATOM     60  C   UNL     1      -5.989 -18.216   7.360  1.00  0.00     0.074 A 
ATOM     61  C   UNL     1      -5.611 -19.346   6.535  1.00  0.00     0.031 C 
ATOM     62  C   UNL     1      -6.311 -18.303   8.673  1.00  0.00     0.031 A 
BRANCH  49  63
ATOM     63  C   UNL     1      -7.699 -12.872  11.281  1.00  0.00    -0.014 A 
ATOM     64  C   UNL     1      -8.963 -12.281  11.443  1.00  0.00     0.009 A 
ATOM     65  C   UNL     1      -6.752 -12.739  12.307  1.00  0.00     0.009 A 
ATOM     66  C   UNL     1      -9.252 -11.530  12.584  1.00  0.00     0.001 A 
ATOM     67  C   UNL     1      -7.055 -12.013  13.461  1.00  0.00     0.001 A 
ATOM     68  C   UNL     1      -8.299 -11.398  13.592  1.00  0.00     0.000 A 
ENDBRANCH  49  63
BRANCH  50  69
ATOM     69  C   UNL     1      -5.031 -17.435   2.825  1.00  0.00    -0.014 A 
ATOM     70  C   UNL     1      -5.965 -18.241   2.156  1.00  0.00     0.009 A 
ATOM     71  C   UNL     1      -3.754 -17.268   2.268  1.00  0.00     0.009 A 
ATOM     72  C   UNL     1      -5.624 -18.877   0.962  1.00  0.00     0.001 A 
ATOM     73  C   UNL     1      -3.423 -17.888   1.062  1.00  0.00     0.001 A 
ATOM     74  C   UNL     1      -4.355 -18.696   0.412  1.00  0.00     0.000 A 
ENDBRANCH  50  69
BRANCH  62  75
ATOM     75  C   UNL     1      -6.294 -19.671   9.293  1.00  0.00    -0.014 A 
ATOM     76  C   UNL     1      -5.086 -20.320   9.589  1.00  0.00     0.009 A 
ATOM     77  C   UNL     1      -7.505 -20.300   9.620  1.00  0.00     0.009 A 
ATOM     78  C   UNL     1      -5.092 -21.587  10.174  1.00  0.00     0.001 A 
ATOM     79  C   UNL     1      -7.508 -21.557  10.227  1.00  0.00     0.001 A 
ATOM     80  C   UNL     1      -6.302 -22.202  10.496  1.00  0.00     0.000 A 
ENDBRANCH  62  75
ENDBRANCH  36  37
ENDBRANCH  28  31
ENDBRANCH  26  27
ENDBRANCH   1  26
TORSDOF 13
