REMARK SMILES COc1cc(/C=C2\SC(=S)N(CCC(=O)Nc3ccc(C(=O)NCCCNC(=O)c4ccc(-c5c6nc(c(-c7ccccc7)c7ccc([nH]7)c(-c7ccccc7)c7nc(c(-c8ccccc8)c8ccc5[nH]8)C=C7)C=C6)cc4)cc3)C2=O)ccc1O
REMARK SMILES IDX 21 1 22 2 23 3 20 5 17 6 18 7 79 8 19 9 78 10 16 11 14 12
REMARK SMILES IDX 15 13 13 15 12 16 11 17 6 18 7 19 8 20 80 21 9 22 81 23
REMARK SMILES IDX 10 24 5 25 3 26 4 27 84 28 83 29 82 30 2 31 1 32 85 33 24 35
REMARK SMILES IDX 25 36 26 37 27 38 28 39 29 41 30 42 31 43 77 44 32 45 76 46
REMARK SMILES IDX 33 47 34 48 35 49 70 50 36 51 75 52 69 53 71 54 37 55 74 56
REMARK SMILES IDX 68 57 67 58 38 60 60 61 45 62 59 63 46 64 49 65 58 66 72 67
REMARK SMILES IDX 47 68 48 69 57 71 73 72 50 73 39 74 40 75 44 76 41 77 43 78
REMARK SMILES IDX 42 79 61 80 62 81 66 82 63 83 65 84 64 85 51 86 52 87 56 88
REMARK SMILES IDX 53 89 55 90 54 91
REMARK H PARENT 23 4 16 14 85 34 27 40 71 59 49 70
REMARK Flexibility Score: inf
ROOT
ATOM      1  C   UNL     1      -3.024  -4.896  -1.317  1.00  0.00     0.251 C 
ATOM      2  O   UNL     1      -2.970  -3.976  -0.503  1.00  0.00    -0.269 OA
ATOM      3  N   UNL     1      -2.923  -6.191  -0.857  1.00  0.00    -0.352 N 
ATOM      4  H   UNL     1      -2.836  -6.270   0.120  1.00  0.00     0.163 HD
ENDROOT
BRANCH   1   5
ATOM      5  C   UNL     1      -3.138  -4.574  -2.765  1.00  0.00     0.039 A 
ATOM      6  C   UNL     1      -3.000  -4.064  -5.540  1.00  0.00     0.041 A 
ATOM      7  C   UNL     1      -2.435  -3.172  -4.620  1.00  0.00     0.027 A 
ATOM      8  C   UNL     1      -3.787  -5.098  -5.045  1.00  0.00     0.027 A 
ATOM      9  C   UNL     1      -2.495  -3.430  -3.243  1.00  0.00     0.016 A 
ATOM     10  C   UNL     1      -3.872  -5.341  -3.667  1.00  0.00     0.016 A 
BRANCH   6  11
ATOM     11  N   UNL     1      -2.712  -3.836  -6.896  1.00  0.00    -0.326 N 
ATOM     12  C   UNL     1      -2.739  -4.599  -8.026  1.00  0.00     0.226 C 
ATOM     13  O   UNL     1      -2.446  -4.042  -9.091  1.00  0.00    -0.275 OA
ATOM     14  H   UNL     1      -2.425  -2.911  -7.071  1.00  0.00     0.169 HD
BRANCH  12  15
ATOM     15  C   UNL     1      -3.032  -6.083  -8.034  1.00  0.00     0.122 C 
BRANCH  15  16
ATOM     16  C   UNL     1      -1.805  -6.979  -7.834  1.00  0.00     0.137 C 
BRANCH  16  17
ATOM     17  N   UNL     1      -1.135  -6.854  -6.536  1.00  0.00    -0.292 N 
ATOM     18  C   UNL     1       0.757  -4.631  -4.464  1.00  0.00     0.029 C 
ATOM     19  C   UNL     1       0.224  -5.766  -4.940  1.00  0.00     0.081 C 
ATOM     20  S   UNL     1      -0.292  -7.174  -4.126  1.00  0.00    -0.054 SA
ATOM     21  C   UNL     1      -0.196  -5.848  -6.366  1.00  0.00     0.266 C 
ATOM     22  C   UNL     1      -1.314  -7.695  -5.460  1.00  0.00     0.148 C 
ATOM     23  O   UNL     1       0.216  -5.094  -7.237  1.00  0.00    -0.268 OA
ATOM     24  S   UNL     1      -2.324  -9.018  -5.338  1.00  0.00    -0.052 S 
BRANCH  18  25
ATOM     25  C   UNL     1       1.007  -4.179  -3.079  1.00  0.00    -0.020 A 
ATOM     26  C   UNL     1       1.114  -2.235  -1.559  1.00  0.00     0.161 A 
ATOM     27  C   UNL     1       0.941  -2.793  -2.836  1.00  0.00     0.058 A 
ATOM     28  C   UNL     1       1.389  -3.098  -0.502  1.00  0.00     0.157 A 
ATOM     29  C   UNL     1       1.471  -4.476  -0.720  1.00  0.00     0.051 A 
ATOM     30  C   UNL     1       1.299  -5.013  -2.001  1.00  0.00     0.012 A 
BRANCH  26  31
ATOM     31  O   UNL     1       0.986  -0.875  -1.561  1.00  0.00    -0.493 OA
ATOM     32  C   UNL     1       0.854  -0.170  -0.338  1.00  0.00     0.278 C 
ENDBRANCH  26  31
BRANCH  28  33
ATOM     33  O   UNL     1       1.640  -2.702   0.779  1.00  0.00    -0.504 OA
ATOM     34  H   UNL     1       1.605  -1.793   1.004  1.00  0.00     0.293 HD
ENDBRANCH  28  33
ENDBRANCH  18  25
ENDBRANCH  16  17
ENDBRANCH  15  16
ENDBRANCH  12  15
ENDBRANCH   6  11
ENDBRANCH   1   5
BRANCH   3  35
ATOM     35  C   UNL     1      -2.924  -7.462  -1.566  1.00  0.00     0.118 C 
BRANCH  35  36
ATOM     36  C   UNL     1      -1.787  -8.395  -1.166  1.00  0.00     0.042 C 
BRANCH  36  37
ATOM     37  C   UNL     1      -1.971  -9.112   0.161  1.00  0.00     0.118 C 
BRANCH  37  38
ATOM     38  N   UNL     1      -3.071 -10.066   0.149  1.00  0.00    -0.352 N 
ATOM     39  C   UNL     1      -3.105 -11.430   0.314  1.00  0.00     0.251 C 
ATOM     40  H   UNL     1      -3.954  -9.659  -0.008  1.00  0.00     0.163 HD
ATOM     41  O   UNL     1      -4.166 -12.021   0.117  1.00  0.00    -0.269 OA
BRANCH  39  42
ATOM     42  C   UNL     1      -1.903 -12.211   0.698  1.00  0.00     0.039 A 
ATOM     43  C   UNL     1      -1.762 -13.510   0.190  1.00  0.00     0.014 A 
ATOM     44  C   UNL     1      -0.941 -11.720   1.580  1.00  0.00     0.014 A 
ATOM     45  C   UNL     1      -0.632 -14.273   0.505  1.00  0.00     0.010 A 
ATOM     46  C   UNL     1       0.230 -12.441   1.817  1.00  0.00     0.010 A 
ATOM     47  C   UNL     1       0.398 -13.727   1.286  1.00  0.00    -0.014 A 
BRANCH  47  48
ATOM     48  C   UNL     1       1.654 -14.479   1.554  1.00  0.00     0.031 A 
ATOM     49  C   UNL     1       2.050 -14.829   2.964  1.00  0.00     0.074 A 
ATOM     50  C   UNL     1       2.479 -14.785   0.533  1.00  0.00     0.049 A 
ATOM     51  N   UNL     1       3.145 -15.405   3.395  1.00  0.00    -0.248 NA
ATOM     52  C   UNL     1       1.107 -14.462   4.031  1.00  0.00     0.031 C 
ATOM     53  C   UNL     1       2.238 -14.473  -0.878  1.00  0.00     0.029 A 
ATOM     54  N   UNL     1       3.696 -15.423   0.527  1.00  0.00    -0.354 N 
ATOM     55  C   UNL     1       3.031 -15.447   4.780  1.00  0.00     0.074 A 
ATOM     56  C   UNL     1       1.784 -14.797   5.120  1.00  0.00     0.031 C 
ATOM     57  C   UNL     1       3.258 -14.943  -1.613  1.00  0.00     0.029 A 
ATOM     58  C   UNL     1       4.246 -15.548  -0.726  1.00  0.00     0.049 A 
ATOM     59  H   UNL     1       4.132 -15.758   1.343  1.00  0.00     0.167 HD
ATOM     60  C   UNL     1       3.877 -15.992   5.687  1.00  0.00     0.031 A 
ATOM     61  C   UNL     1       5.419 -16.079  -1.120  1.00  0.00     0.031 A 
ATOM     62  C   UNL     1       5.110 -16.653   5.354  1.00  0.00     0.049 A 
ATOM     63  C   UNL     1       6.346 -16.666  -0.092  1.00  0.00     0.074 A 
ATOM     64  C   UNL     1       6.003 -17.289   6.200  1.00  0.00     0.029 A 
ATOM     65  N   UNL     1       5.625 -16.764   4.072  1.00  0.00    -0.354 N 
ATOM     66  N   UNL     1       6.191 -16.751   1.206  1.00  0.00    -0.248 NA
ATOM     67  C   UNL     1       7.606 -17.237  -0.589  1.00  0.00     0.031 C 
ATOM     68  C   UNL     1       7.084 -17.740   5.436  1.00  0.00     0.029 A 
ATOM     69  C   UNL     1       6.836 -17.436   4.107  1.00  0.00     0.049 A 
ATOM     70  H   UNL     1       5.194 -16.418   3.258  1.00  0.00     0.167 HD
ATOM     71  C   UNL     1       7.320 -17.409   1.679  1.00  0.00     0.074 A 
ATOM     72  C   UNL     1       8.142 -17.714   0.526  1.00  0.00     0.031 C 
ATOM     73  C   UNL     1       7.645 -17.732   2.954  1.00  0.00     0.031 A 
BRANCH  60  74
ATOM     74  C   UNL     1       3.496 -15.888   7.139  1.00  0.00    -0.014 A 
ATOM     75  C   UNL     1       2.421 -16.623   7.665  1.00  0.00     0.009 A 
ATOM     76  C   UNL     1       4.247 -15.075   8.002  1.00  0.00     0.009 A 
ATOM     77  C   UNL     1       2.083 -16.517   9.015  1.00  0.00     0.001 A 
ATOM     78  C   UNL     1       3.925 -14.993   9.359  1.00  0.00     0.001 A 
ATOM     79  C   UNL     1       2.838 -15.706   9.862  1.00  0.00     0.000 A 
ENDBRANCH  60  74
BRANCH  61  80
ATOM     80  C   UNL     1       5.783 -16.094  -2.561  1.00  0.00    -0.014 A 
ATOM     81  C   UNL     1       5.805 -17.301  -3.277  1.00  0.00     0.009 A 
ATOM     82  C   UNL     1       6.117 -14.904  -3.227  1.00  0.00     0.009 A 
ATOM     83  C   UNL     1       6.179 -17.320  -4.622  1.00  0.00     0.001 A 
ATOM     84  C   UNL     1       6.463 -14.922  -4.580  1.00  0.00     0.001 A 
ATOM     85  C   UNL     1       6.503 -16.131  -5.274  1.00  0.00     0.000 A 
ENDBRANCH  61  80
BRANCH  73  86
ATOM     86  C   UNL     1       8.929 -18.482   3.167  1.00  0.00    -0.014 A 
ATOM     87  C   UNL     1      10.175 -17.853   3.024  1.00  0.00     0.009 A 
ATOM     88  C   UNL     1       8.889 -19.832   3.551  1.00  0.00     0.009 A 
ATOM     89  C   UNL     1      11.356 -18.570   3.231  1.00  0.00     0.001 A 
ATOM     90  C   UNL     1      10.069 -20.538   3.785  1.00  0.00     0.001 A 
ATOM     91  C   UNL     1      11.302 -19.909   3.616  1.00  0.00     0.000 A 
ENDBRANCH  73  86
ENDBRANCH  47  48
ENDBRANCH  39  42
ENDBRANCH  37  38
ENDBRANCH  36  37
ENDBRANCH  35  36
ENDBRANCH   3  35
TORSDOF 17
