REMARK SMILES O=C(NCCCNC(=O)C1CCN(S(=O)(=O)C2CC2)CC1)c1ccc(-c2c3nc(c(-c4ccccc4)c4ccc([nH]4)c(-c4ccccc4)c4nc(c(-c5ccccc5)c5ccc2[nH]5)C=C4)C=C3)cc1
REMARK SMILES IDX 5 1 4 2 3 3 1 4 2 5 22 7 23 8 69 9 24 10 68 11 25 12 26 13
REMARK SMILES IDX 27 14 62 15 28 16 67 17 61 18 63 19 29 20 66 21 60 22 59 23
REMARK SMILES IDX 30 25 52 26 37 27 51 28 38 29 41 30 50 31 64 32 39 33 40 34
REMARK SMILES IDX 49 36 65 37 42 38 31 39 32 40 36 41 33 42 35 43 34 44 53 45
REMARK SMILES IDX 54 46 58 47 55 48 57 49 56 50 43 51 44 52 48 53 45 54 47 55
REMARK SMILES IDX 46 56 6 57 7 58 8 59 9 61 10 62 11 63 21 64 12 65 20 66
REMARK SMILES IDX 13 67 14 68 15 69 16 70 17 71 18 72 19 73
REMARK H PARENT 3 6 63 24 41 35 7 60
REMARK Flexibility Score: inf
ROOT
ATOM      1  C   UNL     1       4.456  -0.517   2.392  1.00  0.00     0.042 C 
ENDROOT
BRANCH   1   2
ATOM      2  C   UNL     1       4.184  -1.141   1.032  1.00  0.00     0.118 C 
BRANCH   2   3
ATOM      3  N   UNL     1       2.777  -1.058   0.670  1.00  0.00    -0.352 N 
ATOM      4  O   UNL     1       0.905  -0.107  -0.121  1.00  0.00    -0.269 OA
ATOM      5  C   UNL     1       2.129  -0.193  -0.174  1.00  0.00     0.251 C 
ATOM      6  H   UNL     1       2.199  -1.729   1.099  1.00  0.00     0.163 HD
BRANCH   5   7
ATOM      7  C   UNL     1       2.878   0.630  -1.150  1.00  0.00     0.039 A 
ATOM      8  C   UNL     1       3.974   0.114  -1.847  1.00  0.00     0.014 A 
ATOM      9  C   UNL     1       2.412   1.915  -1.446  1.00  0.00     0.014 A 
ATOM     10  C   UNL     1       4.670   0.911  -2.750  1.00  0.00     0.010 A 
ATOM     11  C   UNL     1       3.054   2.682  -2.421  1.00  0.00     0.010 A 
ATOM     12  C   UNL     1       4.194   2.189  -3.074  1.00  0.00    -0.014 A 
BRANCH  12  13
ATOM     13  C   UNL     1       4.831   2.965  -4.165  1.00  0.00     0.031 A 
ATOM     14  C   UNL     1       5.473   4.292  -3.893  1.00  0.00     0.074 A 
ATOM     15  C   UNL     1       4.776   2.483  -5.422  1.00  0.00     0.049 A 
ATOM     16  N   UNL     1       5.979   5.152  -4.741  1.00  0.00    -0.248 NA
ATOM     17  C   UNL     1       5.542   4.717  -2.487  1.00  0.00     0.031 C 
ATOM     18  C   UNL     1       4.176   1.204  -5.810  1.00  0.00     0.029 A 
ATOM     19  N   UNL     1       5.217   3.016  -6.607  1.00  0.00    -0.354 N 
ATOM     20  C   UNL     1       6.399   6.232  -3.976  1.00  0.00     0.074 A 
ATOM     21  C   UNL     1       6.066   5.929  -2.600  1.00  0.00     0.031 C 
ATOM     22  C   UNL     1       4.294   1.046  -7.135  1.00  0.00     0.029 A 
ATOM     23  C   UNL     1       4.910   2.241  -7.699  1.00  0.00     0.049 A 
ATOM     24  H   UNL     1       5.705   3.869  -6.668  1.00  0.00     0.167 HD
ATOM     25  C   UNL     1       7.004   7.373  -4.388  1.00  0.00     0.031 A 
ATOM     26  C   UNL     1       5.061   2.479  -9.014  1.00  0.00     0.031 A 
ATOM     27  C   UNL     1       7.313   7.669  -5.763  1.00  0.00     0.049 A 
ATOM     28  C   UNL     1       5.684   3.771  -9.454  1.00  0.00     0.074 A 
ATOM     29  C   UNL     1       7.960   8.777  -6.283  1.00  0.00     0.029 A 
ATOM     30  N   UNL     1       6.979   6.859  -6.841  1.00  0.00    -0.354 N 
ATOM     31  N   UNL     1       6.117   4.766  -8.719  1.00  0.00    -0.248 NA
ATOM     32  C   UNL     1       5.842   3.973 -10.900  1.00  0.00     0.031 C 
ATOM     33  C   UNL     1       7.954   8.671  -7.677  1.00  0.00     0.029 A 
ATOM     34  C   UNL     1       7.374   7.461  -8.024  1.00  0.00     0.049 A 
ATOM     35  H   UNL     1       6.529   5.987  -6.773  1.00  0.00     0.167 HD
ATOM     36  C   UNL     1       6.625   5.702  -9.608  1.00  0.00     0.074 A 
ATOM     37  C   UNL     1       6.450   5.152 -10.938  1.00  0.00     0.031 C 
ATOM     38  C   UNL     1       7.193   6.903  -9.342  1.00  0.00     0.031 A 
BRANCH  25  39
ATOM     39  C   UNL     1       7.315   8.408  -3.339  1.00  0.00    -0.014 A 
ATOM     40  C   UNL     1       8.276   8.183  -2.340  1.00  0.00     0.009 A 
ATOM     41  C   UNL     1       6.632   9.634  -3.353  1.00  0.00     0.009 A 
ATOM     42  C   UNL     1       8.504   9.139  -1.347  1.00  0.00     0.001 A 
ATOM     43  C   UNL     1       6.887  10.603  -2.381  1.00  0.00     0.001 A 
ATOM     44  C   UNL     1       7.810  10.348  -1.369  1.00  0.00     0.000 A 
ENDBRANCH  25  39
BRANCH  26  45
ATOM     45  C   UNL     1       4.579   1.471  -9.993  1.00  0.00    -0.014 A 
ATOM     46  C   UNL     1       5.485   0.694 -10.728  1.00  0.00     0.009 A 
ATOM     47  C   UNL     1       3.202   1.236 -10.146  1.00  0.00     0.009 A 
ATOM     48  C   UNL     1       5.021  -0.293 -11.602  1.00  0.00     0.001 A 
ATOM     49  C   UNL     1       2.743   0.229 -10.996  1.00  0.00     0.001 A 
ATOM     50  C   UNL     1       3.653  -0.530 -11.728  1.00  0.00     0.000 A 
ENDBRANCH  26  45
BRANCH  38  51
ATOM     51  C   UNL     1       7.715   7.697 -10.507  1.00  0.00    -0.014 A 
ATOM     52  C   UNL     1       6.851   8.353 -11.395  1.00  0.00     0.009 A 
ATOM     53  C   UNL     1       9.102   7.855 -10.663  1.00  0.00     0.009 A 
ATOM     54  C   UNL     1       7.367   9.141 -12.426  1.00  0.00     0.001 A 
ATOM     55  C   UNL     1       9.614   8.666 -11.676  1.00  0.00     0.001 A 
ATOM     56  C   UNL     1       8.746   9.305 -12.559  1.00  0.00     0.000 A 
ENDBRANCH  38  51
ENDBRANCH  12  13
ENDBRANCH   5   7
ENDBRANCH   2   3
ENDBRANCH   1   2
BRANCH   1  57
ATOM     57  C   UNL     1       3.880  -1.308   3.565  1.00  0.00     0.117 C 
BRANCH  57  58
ATOM     58  N   UNL     1       4.673  -2.486   3.847  1.00  0.00    -0.356 N 
ATOM     59  C   UNL     1       5.665  -2.792   4.705  1.00  0.00     0.223 C 
ATOM     60  H   UNL     1       4.428  -3.248   3.273  1.00  0.00     0.163 HD
ATOM     61  O   UNL     1       6.156  -3.918   4.531  1.00  0.00    -0.275 OA
BRANCH  59  62
ATOM     62  C   UNL     1       6.208  -1.933   5.856  1.00  0.00     0.081 C 
ATOM     63  C   UNL     1       5.763  -0.510   6.147  1.00  0.00     0.030 C 
ATOM     64  C   UNL     1       7.738  -1.912   5.768  1.00  0.00     0.030 C 
ATOM     65  C   UNL     1       6.306   0.548   5.195  1.00  0.00     0.103 C 
ATOM     66  C   UNL     1       8.173  -1.029   4.609  1.00  0.00     0.103 C 
ATOM     67  N   UNL     1       7.746   0.383   4.823  1.00  0.00    -0.202 NA
BRANCH  67  68
ATOM     68  S   UNL     1       8.157   1.446   3.510  1.00  0.00     0.216 S 
ATOM     69  O   UNL     1       7.933   0.717   2.277  1.00  0.00    -0.212 OA
ATOM     70  O   UNL     1       7.462   2.694   3.749  1.00  0.00    -0.212 OA
BRANCH  68  71
ATOM     71  C   UNL     1       9.907   1.910   3.528  1.00  0.00     0.124 C 
ATOM     72  C   UNL     1      10.732   1.396   4.671  1.00  0.00     0.022 C 
ATOM     73  C   UNL     1      10.889   0.797   3.297  1.00  0.00     0.022 C 
ENDBRANCH  68  71
ENDBRANCH  67  68
ENDBRANCH  59  62
ENDBRANCH  57  58
ENDBRANCH   1  57
TORSDOF 12
