REMARK SMILES C/C=C/C=C/C(=O)N[C@@H](C)CC(=O)NCCCNC(=O)c1ccc(-c2c3nc(c(-c4ccccc4)c4ccc([nH]4)c(-c4ccccc4)c4nc(c(-c5ccccc5)c5ccc2[nH]5)C=C4)C=C3)cc1
REMARK SMILES IDX 15 1 14 2 12 3 13 4 11 6 9 7 10 8 8 9 6 10 7 11 5 13 4 14
REMARK SMILES IDX 3 15 1 16 2 17 16 18 17 19 18 20 19 21 20 23 21 24 22 25
REMARK SMILES IDX 68 26 23 27 67 28 24 29 25 30 26 31 61 32 27 33 66 34 60 35
REMARK SMILES IDX 62 36 28 37 65 38 59 39 58 40 29 42 51 43 36 44 50 45 37 46
REMARK SMILES IDX 40 47 49 48 63 49 38 50 39 51 48 53 64 54 41 55 30 56 31 57
REMARK SMILES IDX 35 58 32 59 34 60 33 61 52 62 53 63 57 64 54 65 56 66 55 67
REMARK SMILES IDX 42 68 43 69 47 70 44 71 46 72 45 73
REMARK H PARENT 14 5 8 12 18 22 62 41 40 52
REMARK Flexibility Score: inf
ROOT
ATOM      1  C   UNL     1      -4.449   4.740  -4.340  1.00  0.00     0.117 C 
ENDROOT
BRANCH   1   2
ATOM      2  N   UNL     1      -4.075   4.554  -2.948  1.00  0.00    -0.356 N 
ATOM      3  C   UNL     1      -2.893   4.801  -2.321  1.00  0.00     0.222 C 
ATOM      4  O   UNL     1      -2.766   4.444  -1.148  1.00  0.00    -0.275 OA
ATOM      5  H   UNL     1      -4.785   4.193  -2.370  1.00  0.00     0.163 HD
BRANCH   3   6
ATOM      6  C   UNL     1      -1.768   5.514  -3.039  1.00  0.00     0.124 C 
BRANCH   6   7
ATOM      7  C   UNL     1      -0.637   4.550  -3.409  1.00  0.00     0.088 C 
ATOM      8  C   UNL     1       0.668   5.324  -3.605  1.00  0.00     0.031 C 
BRANCH   7   9
ATOM      9  N   UNL     1      -0.912   3.826  -4.654  1.00  0.00    -0.350 N 
ATOM     10  C   UNL     1      -0.983   2.497  -4.935  1.00  0.00     0.244 C 
ATOM     11  O   UNL     1      -1.255   2.142  -6.081  1.00  0.00    -0.270 OA
ATOM     12  H   UNL     1      -1.076   4.409  -5.429  1.00  0.00     0.164 HD
BRANCH  10  13
ATOM     13  C   UNL     1      -0.887   1.478  -3.871  1.00  0.00     0.071 C 
ATOM     14  C   UNL     1       0.080   1.428  -2.946  1.00  0.00     0.005 C 
BRANCH  14  15
ATOM     15  C   UNL     1       0.117   0.418  -1.914  1.00  0.00    -0.004 C 
ATOM     16  C   UNL     1       0.921  -0.464   0.285  1.00  0.00     0.035 C 
ATOM     17  C   UNL     1       0.876   0.545  -0.816  1.00  0.00    -0.030 C 
ENDBRANCH  14  15
ENDBRANCH  10  13
ENDBRANCH   7   9
ENDBRANCH   6   7
ENDBRANCH   3   6
ENDBRANCH   1   2
BRANCH   1  18
ATOM     18  C   UNL     1      -4.447   3.419  -5.100  1.00  0.00     0.042 C 
BRANCH  18  19
ATOM     19  C   UNL     1      -5.635   2.520  -4.781  1.00  0.00     0.118 C 
BRANCH  19  20
ATOM     20  N   UNL     1      -6.860   2.982  -5.415  1.00  0.00    -0.352 N 
ATOM     21  C   UNL     1      -7.541   2.495  -6.500  1.00  0.00     0.251 C 
ATOM     22  H   UNL     1      -7.267   3.775  -4.995  1.00  0.00     0.163 HD
ATOM     23  O   UNL     1      -8.437   3.185  -7.000  1.00  0.00    -0.269 OA
BRANCH  21  24
ATOM     24  C   UNL     1      -7.227   1.177  -7.097  1.00  0.00     0.039 A 
ATOM     25  C   UNL     1      -7.287   1.041  -8.489  1.00  0.00     0.014 A 
ATOM     26  C   UNL     1      -6.941   0.059  -6.310  1.00  0.00     0.014 A 
ATOM     27  C   UNL     1      -7.001  -0.190  -9.089  1.00  0.00     0.010 A 
ATOM     28  C   UNL     1      -6.583  -1.149  -6.911  1.00  0.00     0.010 A 
ATOM     29  C   UNL     1      -6.612  -1.288  -8.307  1.00  0.00    -0.014 A 
BRANCH  29  30
ATOM     30  C   UNL     1      -6.225  -2.581  -8.928  1.00  0.00     0.031 A 
ATOM     31  C   UNL     1      -7.035  -3.824  -8.678  1.00  0.00     0.074 A 
ATOM     32  C   UNL     1      -5.101  -2.655  -9.668  1.00  0.00     0.049 A 
ATOM     33  N   UNL     1      -6.802  -5.054  -9.066  1.00  0.00    -0.248 NA
ATOM     34  C   UNL     1      -8.253  -3.671  -7.868  1.00  0.00     0.031 C 
ATOM     35  C   UNL     1      -4.204  -1.536  -9.961  1.00  0.00     0.029 A 
ATOM     36  N   UNL     1      -4.514  -3.725 -10.296  1.00  0.00    -0.354 N 
ATOM     37  C   UNL     1      -7.828  -5.821  -8.530  1.00  0.00     0.074 A 
ATOM     38  C   UNL     1      -8.667  -4.926  -7.762  1.00  0.00     0.031 C 
ATOM     39  C   UNL     1      -3.191  -1.974 -10.726  1.00  0.00     0.029 A 
ATOM     40  C   UNL     1      -3.342  -3.409 -10.940  1.00  0.00     0.049 A 
ATOM     41  H   UNL     1      -4.896  -4.633 -10.287  1.00  0.00     0.167 HD
ATOM     42  C   UNL     1      -8.060  -7.148  -8.674  1.00  0.00     0.031 A 
ATOM     43  C   UNL     1      -2.474  -4.188 -11.612  1.00  0.00     0.031 A 
ATOM     44  C   UNL     1      -7.241  -8.040  -9.450  1.00  0.00     0.049 A 
ATOM     45  C   UNL     1      -2.741  -5.660 -11.737  1.00  0.00     0.074 A 
ATOM     46  C   UNL     1      -7.442  -9.383  -9.716  1.00  0.00     0.029 A 
ATOM     47  N   UNL     1      -6.060  -7.680 -10.080  1.00  0.00    -0.354 N 
ATOM     48  N   UNL     1      -3.752  -6.357 -11.279  1.00  0.00    -0.248 NA
ATOM     49  C   UNL     1      -1.744  -6.453 -12.471  1.00  0.00     0.031 C 
ATOM     50  C   UNL     1      -6.356  -9.849 -10.466  1.00  0.00     0.029 A 
ATOM     51  C   UNL     1      -5.503  -8.784 -10.704  1.00  0.00     0.049 A 
ATOM     52  H   UNL     1      -5.675  -6.774 -10.083  1.00  0.00     0.167 HD
ATOM     53  C   UNL     1      -3.519  -7.666 -11.677  1.00  0.00     0.074 A 
ATOM     54  C   UNL     1      -2.283  -7.664 -12.432  1.00  0.00     0.031 C 
ATOM     55  C   UNL     1      -4.264  -8.772 -11.436  1.00  0.00     0.031 A 
BRANCH  42  56
ATOM     56  C   UNL     1      -9.251  -7.723  -7.959  1.00  0.00    -0.014 A 
ATOM     57  C   UNL     1     -10.558  -7.463  -8.397  1.00  0.00     0.009 A 
ATOM     58  C   UNL     1      -9.059  -8.566  -6.854  1.00  0.00     0.009 A 
ATOM     59  C   UNL     1     -11.652  -8.009  -7.722  1.00  0.00     0.001 A 
ATOM     60  C   UNL     1     -10.153  -9.131  -6.195  1.00  0.00     0.001 A 
ATOM     61  C   UNL     1     -11.448  -8.845  -6.624  1.00  0.00     0.000 A 
ENDBRANCH  42  56
BRANCH  43  62
ATOM     62  C   UNL     1      -1.256  -3.587 -12.212  1.00  0.00    -0.014 A 
ATOM     63  C   UNL     1      -1.154  -3.426 -13.602  1.00  0.00     0.009 A 
ATOM     64  C   UNL     1      -0.194  -3.164 -11.398  1.00  0.00     0.009 A 
ATOM     65  C   UNL     1      -0.004  -2.869 -14.166  1.00  0.00     0.001 A 
ATOM     66  C   UNL     1       0.944  -2.585 -11.963  1.00  0.00     0.001 A 
ATOM     67  C   UNL     1       1.041  -2.444 -13.346  1.00  0.00     0.000 A 
ENDBRANCH  43  62
BRANCH  55  68
ATOM     68  C   UNL     1      -3.761 -10.071 -11.997  1.00  0.00    -0.014 A 
ATOM     69  C   UNL     1      -2.673 -10.736 -11.412  1.00  0.00     0.009 A 
ATOM     70  C   UNL     1      -4.405 -10.653 -13.100  1.00  0.00     0.009 A 
ATOM     71  C   UNL     1      -2.222 -11.948 -11.938  1.00  0.00     0.001 A 
ATOM     72  C   UNL     1      -3.966 -11.877 -13.609  1.00  0.00     0.001 A 
ATOM     73  C   UNL     1      -2.871 -12.519 -13.032  1.00  0.00     0.000 A 
ENDBRANCH  55  68
ENDBRANCH  29  30
ENDBRANCH  21  24
ENDBRANCH  19  20
ENDBRANCH  18  19
ENDBRANCH   1  18
TORSDOF 14
