REMARK SMILES CCS(=O)(=O)Nc1ccc(N2CC[NH+](C)CC2)cc1C(=O)NCCCNC(=O)c1ccc(-c2c3nc(c(-c4ccccc4)c4ccc([nH]4)c(-c4ccccc4)c4nc(c(-c5ccccc5)c5ccc2[nH]5)C=C4)C=C3)cc1
REMARK SMILES IDX 23 1 22 2 20 3 21 4 19 6 7 7 8 8 9 9 18 10 10 11 6 12 3 14
REMARK SMILES IDX 4 15 5 16 2 17 1 18 11 19 12 20 17 21 13 22 16 23 14 24
REMARK SMILES IDX 15 25 24 27 25 28 26 29 27 30 28 32 29 33 30 34 76 35 31 36
REMARK SMILES IDX 75 37 32 38 33 39 34 40 69 41 35 42 74 43 68 44 70 45 36 46
REMARK SMILES IDX 73 47 67 48 66 49 37 51 59 52 44 53 58 54 45 55 48 56 57 57
REMARK SMILES IDX 71 58 46 59 47 60 56 62 72 63 49 64 38 65 39 66 43 67 40 68
REMARK SMILES IDX 42 69 41 70 60 71 61 72 65 73 62 74 64 75 63 76 50 77 51 78
REMARK SMILES IDX 55 79 52 80 54 81 53 82
REMARK H PARENT 22 5 6 13 14 26 26 31 70 50 48 61
REMARK Flexibility Score: inf
ROOT
ATOM      1  C   UNL     1       2.740   3.090  -0.980  1.00  0.00     0.118 C 
ENDROOT
BRANCH   1   2
ATOM      2  N   UNL     1       2.400   1.728  -1.352  1.00  0.00    -0.352 N 
ATOM      3  C   UNL     1       2.609   0.535  -0.724  1.00  0.00     0.253 C 
ATOM      4  O   UNL     1       2.187  -0.485  -1.271  1.00  0.00    -0.269 OA
ATOM      5  H   UNL     1       1.933   1.651  -2.215  1.00  0.00     0.163 HD
BRANCH   3   6
ATOM      6  C   UNL     1       3.409   0.405   0.514  1.00  0.00     0.066 A 
ATOM      7  C   UNL     1       3.312   1.193   1.661  1.00  0.00     0.061 A 
ATOM      8  C   UNL     1       4.285   1.034   2.651  1.00  0.00     0.030 A 
ATOM      9  C   UNL     1       5.201  -0.016   2.597  1.00  0.00     0.028 A 
ATOM     10  C   UNL     1       4.307  -0.696   0.514  1.00  0.00     0.042 A 
ATOM     11  C   UNL     1       5.166  -0.977   1.583  1.00  0.00     0.038 A 
BRANCH   7  12
ATOM     12  N   UNL     1       2.311   2.159   1.982  1.00  0.00    -0.283 N 
ATOM     13  H   UNL     1       2.608   3.071   2.201  1.00  0.00     0.180 HD
BRANCH  12  14
ATOM     14  S   UNL     1       0.669   1.847   2.013  1.00  0.00     0.232 S 
ATOM     15  O   UNL     1       0.128   2.075   0.688  1.00  0.00    -0.207 OA
ATOM     16  O   UNL     1       0.210   2.665   3.115  1.00  0.00    -0.207 OA
BRANCH  14  17
ATOM     17  C   UNL     1       0.432   0.135   2.504  1.00  0.00     0.156 C 
ATOM     18  C   UNL     1       0.283  -0.846   1.360  1.00  0.00     0.023 C 
ENDBRANCH  14  17
ENDBRANCH  12  14
ENDBRANCH   7  12
BRANCH  11  19
ATOM     19  N   UNL     1       5.875  -2.157   1.686  1.00  0.00    -0.360 N 
ATOM     20  C   UNL     1       6.426  -2.892   0.532  1.00  0.00     0.178 C 
ATOM     21  C   UNL     1       6.372  -2.623   2.995  1.00  0.00     0.178 C 
ATOM     22  C   UNL     1       6.342  -4.428   0.747  1.00  0.00     0.283 C 
ATOM     23  C   UNL     1       6.238  -4.152   3.130  1.00  0.00     0.283 C 
ATOM     24  N   UNL     1       6.915  -4.875   2.038  1.00  0.00    -0.334 N 
ATOM     25  C   UNL     1       6.750  -6.317   2.213  1.00  0.00     0.332 C 
ATOM     26  H   UNL     1       7.915  -4.673   2.049  1.00  0.00     0.347 HD
ENDBRANCH  11  19
ENDBRANCH   3   6
ENDBRANCH   1   2
BRANCH   1  27
ATOM     27  C   UNL     1       2.160   4.111  -1.949  1.00  0.00     0.042 C 
BRANCH  27  28
ATOM     28  C   UNL     1       0.650   3.981  -2.150  1.00  0.00     0.118 C 
BRANCH  28  29
ATOM     29  N   UNL     1      -0.166   4.459  -1.039  1.00  0.00    -0.352 N 
ATOM     30  C   UNL     1      -0.903   5.615  -0.897  1.00  0.00     0.251 C 
ATOM     31  H   UNL     1      -0.194   3.856  -0.261  1.00  0.00     0.163 HD
ATOM     32  O   UNL     1      -1.501   5.873   0.141  1.00  0.00    -0.269 OA
BRANCH  30  33
ATOM     33  C   UNL     1      -0.914   6.598  -2.001  1.00  0.00     0.039 A 
ATOM     34  C   UNL     1      -0.568   7.925  -1.736  1.00  0.00     0.014 A 
ATOM     35  C   UNL     1      -1.151   6.185  -3.309  1.00  0.00     0.014 A 
ATOM     36  C   UNL     1      -0.291   8.788  -2.799  1.00  0.00     0.010 A 
ATOM     37  C   UNL     1      -0.747   6.999  -4.357  1.00  0.00     0.010 A 
ATOM     38  C   UNL     1      -0.279   8.301  -4.115  1.00  0.00    -0.014 A 
BRANCH  38  39
ATOM     39  C   UNL     1       0.263   9.088  -5.257  1.00  0.00     0.031 A 
ATOM     40  C   UNL     1      -0.572   9.277  -6.495  1.00  0.00     0.074 A 
ATOM     41  C   UNL     1       1.549   9.497  -5.250  1.00  0.00     0.049 A 
ATOM     42  N   UNL     1      -0.209   9.687  -7.684  1.00  0.00    -0.248 NA
ATOM     43  C   UNL     1      -1.991   8.900  -6.396  1.00  0.00     0.031 C 
ATOM     44  C   UNL     1       2.495   9.339  -4.142  1.00  0.00     0.029 A 
ATOM     45  N   UNL     1       2.293  10.114  -6.228  1.00  0.00    -0.354 N 
ATOM     46  C   UNL     1      -1.335   9.551  -8.486  1.00  0.00     0.074 A 
ATOM     47  C   UNL     1      -2.381   8.992  -7.658  1.00  0.00     0.031 C 
ATOM     48  C   UNL     1       3.677   9.873  -4.488  1.00  0.00     0.029 A 
ATOM     49  C   UNL     1       3.597  10.354  -5.862  1.00  0.00     0.049 A 
ATOM     50  H   UNL     1       1.927  10.361  -7.107  1.00  0.00     0.167 HD
ATOM     51  C   UNL     1      -1.491   9.874  -9.791  1.00  0.00     0.031 A 
ATOM     52  C   UNL     1       4.622  10.880  -6.558  1.00  0.00     0.031 A 
ATOM     53  C   UNL     1      -0.474  10.493 -10.597  1.00  0.00     0.049 A 
ATOM     54  C   UNL     1       4.410  11.284  -7.990  1.00  0.00     0.074 A 
ATOM     55  C   UNL     1      -0.562  10.935 -11.905  1.00  0.00     0.029 A 
ATOM     56  N   UNL     1       0.809  10.778 -10.160  1.00  0.00    -0.354 N 
ATOM     57  N   UNL     1       3.330  11.178  -8.724  1.00  0.00    -0.248 NA
ATOM     58  C   UNL     1       5.559  11.877  -8.689  1.00  0.00     0.031 C 
ATOM     59  C   UNL     1       0.679  11.467 -12.269  1.00  0.00     0.029 A 
ATOM     60  C   UNL     1       1.525  11.390 -11.175  1.00  0.00     0.049 A 
ATOM     61  H   UNL     1       1.160  10.576  -9.263  1.00  0.00     0.167 HD
ATOM     62  C   UNL     1       3.659  11.718  -9.960  1.00  0.00     0.074 A 
ATOM     63  C   UNL     1       5.037  12.155  -9.876  1.00  0.00     0.031 C 
ATOM     64  C   UNL     1       2.887  11.838 -11.066  1.00  0.00     0.031 A 
BRANCH  51  65
ATOM     65  C   UNL     1      -2.816   9.563 -10.426  1.00  0.00    -0.014 A 
ATOM     66  C   UNL     1      -3.973  10.285 -10.090  1.00  0.00     0.009 A 
ATOM     67  C   UNL     1      -2.906   8.543 -11.386  1.00  0.00     0.009 A 
ATOM     68  C   UNL     1      -5.201   9.961 -10.669  1.00  0.00     0.001 A 
ATOM     69  C   UNL     1      -4.130   8.242 -11.986  1.00  0.00     0.001 A 
ATOM     70  C   UNL     1      -5.278   8.942 -11.618  1.00  0.00     0.000 A 
ENDBRANCH  51  65
BRANCH  52  71
ATOM     71  C   UNL     1       5.946  11.071  -5.911  1.00  0.00    -0.014 A 
ATOM     72  C   UNL     1       6.381  12.360  -5.565  1.00  0.00     0.009 A 
ATOM     73  C   UNL     1       6.782   9.977  -5.640  1.00  0.00     0.009 A 
ATOM     74  C   UNL     1       7.637  12.553  -4.986  1.00  0.00     0.001 A 
ATOM     75  C   UNL     1       8.028  10.171  -5.038  1.00  0.00     0.001 A 
ATOM     76  C   UNL     1       8.458  11.459  -4.719  1.00  0.00     0.000 A 
ENDBRANCH  52  71
BRANCH  64  77
ATOM     77  C   UNL     1       3.490  12.517 -12.259  1.00  0.00    -0.014 A 
ATOM     78  C   UNL     1       4.398  11.848 -13.093  1.00  0.00     0.009 A 
ATOM     79  C   UNL     1       3.086  13.819 -12.591  1.00  0.00     0.009 A 
ATOM     80  C   UNL     1       4.902  12.480 -14.232  1.00  0.00     0.001 A 
ATOM     81  C   UNL     1       3.575  14.440 -13.740  1.00  0.00     0.001 A 
ATOM     82  C   UNL     1       4.485  13.771 -14.557  1.00  0.00     0.000 A 
ENDBRANCH  64  77
ENDBRANCH  38  39
ENDBRANCH  30  33
ENDBRANCH  28  29
ENDBRANCH  27  28
ENDBRANCH   1  27
TORSDOF 14
