REMARK SMILES Cc1c(NS(=O)(=O)c2ccc3c(c2)COC3)cccc1C(=O)NCCCNC(=O)c1ccc(-c2c3nc(c(-c4ccccc4)c4ccc([nH]4)c(-c4ccccc4)c4nc(c(-c5ccccc5)c5ccc2[nH]5)C=C4)C=C3)cc1
REMARK SMILES IDX 24 1 23 2 21 3 22 4 20 6 1 7 2 8 3 9 17 10 19 11 18 12 4 13
REMARK SMILES IDX 5 15 6 16 7 17 8 18 9 19 13 20 10 21 12 22 11 23 14 24 16 25
REMARK SMILES IDX 15 26 25 27 26 28 27 29 28 30 29 32 30 33 31 34 77 35 32 36
REMARK SMILES IDX 76 37 33 38 34 39 35 40 70 41 36 42 75 43 69 44 71 45 37 46
REMARK SMILES IDX 74 47 68 48 67 49 38 51 60 52 45 53 59 54 46 55 49 56 58 57
REMARK SMILES IDX 72 58 47 59 48 60 57 62 73 63 50 64 39 65 40 66 44 67 41 68
REMARK SMILES IDX 43 69 42 70 61 71 62 72 66 73 63 74 65 75 64 76 51 77 52 78
REMARK SMILES IDX 56 79 53 80 55 81 54 82
REMARK H PARENT 23 5 4 14 27 31 71 50 49 61
REMARK Flexibility Score: inf
ROOT
ATOM      1  C   UNL     1       3.491   1.321   0.317  1.00  0.00     0.118 C 
ENDROOT
BRANCH   1   2
ATOM      2  N   UNL     1       2.492   2.183  -0.299  1.00  0.00    -0.352 N 
ATOM      3  C   UNL     1       1.132   2.025  -0.457  1.00  0.00     0.251 C 
ATOM      4  O   UNL     1       0.485   2.923  -0.990  1.00  0.00    -0.269 OA
ATOM      5  H   UNL     1       2.849   3.024  -0.665  1.00  0.00     0.163 HD
BRANCH   3   6
ATOM      6  C   UNL     1       0.400   0.850   0.095  1.00  0.00     0.044 A 
ATOM      7  C   UNL     1       1.559  -0.883  -1.357  1.00  0.00     0.047 C 
ATOM      8  C   UNL     1       0.666  -0.501  -0.215  1.00  0.00    -0.014 A 
ATOM      9  C   UNL     1       0.021  -1.507   0.538  1.00  0.00     0.053 A 
ATOM     10  C   UNL     1      -0.997  -1.169   1.436  1.00  0.00     0.027 A 
ATOM     11  C   UNL     1      -0.666   1.166   0.954  1.00  0.00     0.014 A 
ATOM     12  C   UNL     1      -1.384   0.159   1.595  1.00  0.00     0.003 A 
BRANCH   9  13
ATOM     13  N   UNL     1       0.475  -2.870   0.506  1.00  0.00    -0.279 N 
ATOM     14  H   UNL     1       1.336  -3.076   0.936  1.00  0.00     0.180 HD
BRANCH  13  15
ATOM     15  S   UNL     1      -0.372  -4.148  -0.223  1.00  0.00     0.261 S 
ATOM     16  O   UNL     1       0.073  -4.193  -1.602  1.00  0.00    -0.201 OA
ATOM     17  O   UNL     1      -0.147  -5.281   0.649  1.00  0.00    -0.201 OA
BRANCH  15  18
ATOM     18  C   UNL     1      -2.110  -3.813  -0.240  1.00  0.00     0.088 A 
ATOM     19  C   UNL     1      -2.982  -4.747   0.355  1.00  0.00     0.022 A 
ATOM     20  C   UNL     1      -2.599  -2.631  -0.799  1.00  0.00     0.028 A 
ATOM     21  C   UNL     1      -4.335  -4.445   0.510  1.00  0.00     0.008 A 
ATOM     22  C   UNL     1      -3.922  -2.313  -0.552  1.00  0.00    -0.015 A 
ATOM     23  C   UNL     1      -4.768  -3.196   0.106  1.00  0.00    -0.017 A 
ATOM     24  C   UNL     1      -4.655  -1.055  -0.837  1.00  0.00     0.196 C 
ATOM     25  C   UNL     1      -6.091  -2.551   0.293  1.00  0.00     0.196 C 
ATOM     26  O   UNL     1      -5.854  -1.161  -0.032  1.00  0.00    -0.372 OA
ENDBRANCH  15  18
ENDBRANCH  13  15
ENDBRANCH   9  13
ENDBRANCH   3   6
ENDBRANCH   1   2
BRANCH   1  27
ATOM     27  C   UNL     1       4.342   0.602  -0.733  1.00  0.00     0.042 C 
BRANCH  27  28
ATOM     28  C   UNL     1       5.631   1.311  -1.121  1.00  0.00     0.118 C 
BRANCH  28  29
ATOM     29  N   UNL     1       6.817   0.455  -0.984  1.00  0.00    -0.352 N 
ATOM     30  C   UNL     1       8.114   0.711  -1.399  1.00  0.00     0.251 C 
ATOM     31  H   UNL     1       6.672  -0.412  -0.541  1.00  0.00     0.163 HD
ATOM     32  O   UNL     1       9.042  -0.028  -1.101  1.00  0.00    -0.269 OA
BRANCH  30  33
ATOM     33  C   UNL     1       8.358   1.988  -2.098  1.00  0.00     0.039 A 
ATOM     34  C   UNL     1       9.064   2.960  -1.387  1.00  0.00     0.014 A 
ATOM     35  C   UNL     1       7.538   2.323  -3.171  1.00  0.00     0.014 A 
ATOM     36  C   UNL     1       8.698   4.290  -1.547  1.00  0.00     0.010 A 
ATOM     37  C   UNL     1       7.111   3.633  -3.266  1.00  0.00     0.010 A 
ATOM     38  C   UNL     1       7.627   4.593  -2.390  1.00  0.00    -0.014 A 
BRANCH  38  39
ATOM     39  C   UNL     1       6.971   5.893  -2.361  1.00  0.00     0.031 A 
ATOM     40  C   UNL     1       7.375   6.899  -3.354  1.00  0.00     0.074 A 
ATOM     41  C   UNL     1       6.088   6.242  -1.397  1.00  0.00     0.049 A 
ATOM     42  N   UNL     1       7.513   8.155  -3.094  1.00  0.00    -0.248 NA
ATOM     43  C   UNL     1       7.726   6.536  -4.719  1.00  0.00     0.031 C 
ATOM     44  C   UNL     1       5.335   7.492  -1.318  1.00  0.00     0.029 A 
ATOM     45  N   UNL     1       5.879   5.647  -0.153  1.00  0.00    -0.354 N 
ATOM     46  C   UNL     1       7.651   8.794  -4.302  1.00  0.00     0.074 A 
ATOM     47  C   UNL     1       7.894   7.743  -5.264  1.00  0.00     0.031 C 
ATOM     48  C   UNL     1       5.045   7.734  -0.030  1.00  0.00     0.029 A 
ATOM     49  C   UNL     1       5.679   6.697   0.762  1.00  0.00     0.049 A 
ATOM     50  H   UNL     1       5.872   4.683   0.045  1.00  0.00     0.167 HD
ATOM     51  C   UNL     1       7.380  10.126  -4.400  1.00  0.00     0.031 A 
ATOM     52  C   UNL     1       6.448   6.889   1.873  1.00  0.00     0.031 A 
ATOM     53  C   UNL     1       7.003  10.713  -3.114  1.00  0.00     0.049 A 
ATOM     54  C   UNL     1       7.142   8.237   1.907  1.00  0.00     0.074 A 
ATOM     55  C   UNL     1       5.789  11.085  -2.557  1.00  0.00     0.029 A 
ATOM     56  N   UNL     1       7.919  10.720  -2.071  1.00  0.00    -0.354 N 
ATOM     57  N   UNL     1       7.072   9.131   0.961  1.00  0.00    -0.248 NA
ATOM     58  C   UNL     1       8.076   8.625   2.961  1.00  0.00     0.031 C 
ATOM     59  C   UNL     1       5.985  11.316  -1.167  1.00  0.00     0.029 A 
ATOM     60  C   UNL     1       7.319  11.100  -0.882  1.00  0.00     0.049 A 
ATOM     61  H   UNL     1       8.870  10.484  -2.164  1.00  0.00     0.167 HD
ATOM     62  C   UNL     1       7.951  10.156   1.217  1.00  0.00     0.074 A 
ATOM     63  C   UNL     1       8.555   9.788   2.486  1.00  0.00     0.031 C 
ATOM     64  C   UNL     1       8.128  11.187   0.333  1.00  0.00     0.031 A 
BRANCH  51  65
ATOM     65  C   UNL     1       7.155  10.798  -5.734  1.00  0.00    -0.014 A 
ATOM     66  C   UNL     1       6.256  11.874  -5.833  1.00  0.00     0.009 A 
ATOM     67  C   UNL     1       7.752  10.383  -6.938  1.00  0.00     0.009 A 
ATOM     68  C   UNL     1       5.881  12.415  -7.070  1.00  0.00     0.001 A 
ATOM     69  C   UNL     1       7.345  10.883  -8.183  1.00  0.00     0.001 A 
ATOM     70  C   UNL     1       6.396  11.892  -8.249  1.00  0.00     0.000 A 
ENDBRANCH  51  65
BRANCH  52  71
ATOM     71  C   UNL     1       7.012   5.628   2.424  1.00  0.00    -0.014 A 
ATOM     72  C   UNL     1       6.110   4.700   2.982  1.00  0.00     0.009 A 
ATOM     73  C   UNL     1       8.276   5.179   2.017  1.00  0.00     0.009 A 
ATOM     74  C   UNL     1       6.401   3.334   2.978  1.00  0.00     0.001 A 
ATOM     75  C   UNL     1       8.566   3.811   2.031  1.00  0.00     0.001 A 
ATOM     76  C   UNL     1       7.613   2.887   2.461  1.00  0.00     0.000 A 
ENDBRANCH  52  71
BRANCH  64  77
ATOM     77  C   UNL     1       9.072  12.372   0.466  1.00  0.00    -0.014 A 
ATOM     78  C   UNL     1       9.747  12.749   1.633  1.00  0.00     0.009 A 
ATOM     79  C   UNL     1       9.272  13.220  -0.652  1.00  0.00     0.009 A 
ATOM     80  C   UNL     1      10.626  13.846   1.659  1.00  0.00     0.001 A 
ATOM     81  C   UNL     1      10.136  14.318  -0.633  1.00  0.00     0.001 A 
ATOM     82  C   UNL     1      10.829  14.623   0.525  1.00  0.00     0.000 A 
ENDBRANCH  64  77
ENDBRANCH  38  39
ENDBRANCH  30  33
ENDBRANCH  28  29
ENDBRANCH  27  28
ENDBRANCH   1  27
TORSDOF 13
