REMARK SMILES CCOC(=O)c1ccc(NC(=O)[C@H]2CC=CC[C@@]2(C)C(=O)NCCCNC(=O)c2ccc(-c3c4nc(c(-c5ccccc5)c5ccc([nH]5)c(-c5ccccc5)c5nc(c(-c6ccccc6)c6ccc3[nH]6)C=C5)C=C4)cc2)cc1
REMARK SMILES IDX 20 1 21 2 22 3 18 5 13 6 14 7 15 8 17 9 19 10 16 11 11 12
REMARK SMILES IDX 10 13 12 15 9 16 6 17 7 18 78 19 8 20 77 21 4 22 5 23 3 24
REMARK SMILES IDX 2 25 1 26 23 27 24 28 25 29 26 30 27 31 28 33 29 34 30 35
REMARK SMILES IDX 76 36 31 37 75 38 32 39 33 40 34 41 69 42 35 43 74 44 68 45
REMARK SMILES IDX 70 46 36 47 73 48 67 49 66 50 37 52 59 53 44 54 58 55 45 56
REMARK SMILES IDX 48 57 57 58 71 59 46 60 47 61 56 63 72 64 49 65 38 66 39 67
REMARK SMILES IDX 43 68 40 69 42 70 41 71 60 72 61 73 65 74 62 75 64 76 63 77
REMARK SMILES IDX 50 78 51 79 55 80 52 81 54 82 53 83
REMARK H PARENT 22 4 10 14 26 32 70 51 48 62
REMARK Flexibility Score: inf
ROOT
ATOM      1  C   UNL     1       5.873   2.909   8.642  1.00  0.00     0.227 C 
ATOM      2  O   UNL     1       4.788   2.387   8.918  1.00  0.00    -0.274 OA
ATOM      3  N   UNL     1       6.357   3.786   9.571  1.00  0.00    -0.356 N 
ATOM      4  H   UNL     1       6.051   3.605  10.489  1.00  0.00     0.163 HD
ENDROOT
BRANCH   1   5
ATOM      5  C   UNL     1       6.555   2.710   7.266  1.00  0.00     0.062 C 
ATOM      6  C   UNL     1       6.043   1.391   6.513  1.00  0.00     0.098 C 
ATOM      7  C   UNL     1       5.094   1.664   5.337  1.00  0.00     0.041 C 
ATOM      8  C   UNL     1       5.179   2.960   4.619  1.00  0.00    -0.030 C 
ATOM      9  C   UNL     1       6.301   4.058   6.519  1.00  0.00     0.044 C 
ATOM     10  C   UNL     1       8.085   2.485   7.433  1.00  0.00     0.023 C 
ATOM     11  C   UNL     1       5.739   4.040   5.147  1.00  0.00    -0.030 C 
BRANCH   6  12
ATOM     12  C   UNL     1       5.625   0.249   7.510  1.00  0.00     0.228 C 
ATOM     13  N   UNL     1       4.562  -0.592   7.300  1.00  0.00    -0.326 N 
ATOM     14  H   UNL     1       4.133  -0.930   8.118  1.00  0.00     0.169 HD
ATOM     15  O   UNL     1       6.272   0.075   8.552  1.00  0.00    -0.274 OA
BRANCH  13  16
ATOM     16  C   UNL     1       3.993  -1.046   6.104  1.00  0.00     0.041 A 
ATOM     17  C   UNL     1       2.787  -1.453   3.614  1.00  0.00     0.060 A 
ATOM     18  C   UNL     1       4.181  -1.468   3.736  1.00  0.00     0.018 A 
ATOM     19  C   UNL     1       1.999  -1.380   4.771  1.00  0.00     0.018 A 
ATOM     20  C   UNL     1       4.780  -1.294   4.982  1.00  0.00     0.027 A 
ATOM     21  C   UNL     1       2.607  -1.202   6.024  1.00  0.00     0.027 A 
BRANCH  17  22
ATOM     22  C   UNL     1       2.224  -1.494   2.241  1.00  0.00     0.338 C 
ATOM     23  O   UNL     1       2.884  -1.838   1.267  1.00  0.00    -0.246 OA
BRANCH  22  24
ATOM     24  O   UNL     1       0.946  -1.044   2.213  1.00  0.00    -0.462 OA
BRANCH  24  25
ATOM     25  C   UNL     1       0.325  -1.069   0.916  1.00  0.00     0.230 C 
ATOM     26  C   UNL     1       0.720   0.136   0.077  1.00  0.00     0.049 C 
ENDBRANCH  24  25
ENDBRANCH  22  24
ENDBRANCH  17  22
ENDBRANCH  13  16
ENDBRANCH   6  12
ENDBRANCH   1   5
BRANCH   3  27
ATOM     27  C   UNL     1       7.243   4.939   9.458  1.00  0.00     0.117 C 
BRANCH  27  28
ATOM     28  C   UNL     1       6.470   6.254   9.449  1.00  0.00     0.042 C 
BRANCH  28  29
ATOM     29  C   UNL     1       5.668   6.496  10.718  1.00  0.00     0.118 C 
BRANCH  29  30
ATOM     30  N   UNL     1       6.521   6.591  11.895  1.00  0.00    -0.352 N 
ATOM     31  C   UNL     1       6.926   7.694  12.605  1.00  0.00     0.251 C 
ATOM     32  H   UNL     1       6.860   5.731  12.234  1.00  0.00     0.163 HD
ATOM     33  O   UNL     1       7.852   7.604  13.405  1.00  0.00    -0.269 OA
BRANCH  31  34
ATOM     34  C   UNL     1       6.264   8.995  12.386  1.00  0.00     0.039 A 
ATOM     35  C   UNL     1       7.044  10.150  12.292  1.00  0.00     0.014 A 
ATOM     36  C   UNL     1       4.874   9.075  12.271  1.00  0.00     0.014 A 
ATOM     37  C   UNL     1       6.437  11.370  11.987  1.00  0.00     0.010 A 
ATOM     38  C   UNL     1       4.283  10.269  11.877  1.00  0.00     0.010 A 
ATOM     39  C   UNL     1       5.059  11.427  11.723  1.00  0.00    -0.014 A 
BRANCH  39  40
ATOM     40  C   UNL     1       4.409  12.674  11.252  1.00  0.00     0.031 A 
ATOM     41  C   UNL     1       3.325  13.319  12.069  1.00  0.00     0.074 A 
ATOM     42  C   UNL     1       4.732  13.171  10.042  1.00  0.00     0.049 A 
ATOM     43  N   UNL     1       2.572  14.348  11.775  1.00  0.00    -0.248 NA
ATOM     44  C   UNL     1       3.032  12.713  13.379  1.00  0.00     0.031 C 
ATOM     45  C   UNL     1       5.741  12.615   9.137  1.00  0.00     0.029 A 
ATOM     46  N   UNL     1       4.234  14.251   9.357  1.00  0.00    -0.354 N 
ATOM     47  C   UNL     1       1.708  14.502  12.852  1.00  0.00     0.074 A 
ATOM     48  C   UNL     1       1.995  13.433  13.783  1.00  0.00     0.031 C 
ATOM     49  C   UNL     1       5.804  13.371   8.030  1.00  0.00     0.029 A 
ATOM     50  C   UNL     1       4.806  14.430   8.121  1.00  0.00     0.049 A 
ATOM     51  H   UNL     1       3.534  14.841   9.718  1.00  0.00     0.167 HD
ATOM     52  C   UNL     1       0.771  15.458  13.054  1.00  0.00     0.031 A 
ATOM     53  C   UNL     1       4.542  15.332   7.157  1.00  0.00     0.031 A 
ATOM     54  C   UNL     1       0.487  16.520  12.126  1.00  0.00     0.049 A 
ATOM     55  C   UNL     1       3.463  16.353   7.387  1.00  0.00     0.074 A 
ATOM     56  C   UNL     1      -0.402  17.570  12.264  1.00  0.00     0.029 A 
ATOM     57  N   UNL     1       1.081  16.659  10.881  1.00  0.00    -0.354 N 
ATOM     58  N   UNL     1       2.706  16.531   8.443  1.00  0.00    -0.248 NA
ATOM     59  C   UNL     1       3.204  17.299   6.293  1.00  0.00     0.031 C 
ATOM     60  C   UNL     1      -0.394  18.308  11.077  1.00  0.00     0.029 A 
ATOM     61  C   UNL     1       0.548  17.755  10.224  1.00  0.00     0.049 A 
ATOM     62  H   UNL     1       1.779  16.067  10.518  1.00  0.00     0.167 HD
ATOM     63  C   UNL     1       1.895  17.619   8.148  1.00  0.00     0.074 A 
ATOM     64  C   UNL     1       2.269  18.074   6.824  1.00  0.00     0.031 C 
ATOM     65  C   UNL     1       0.924  18.188   8.903  1.00  0.00     0.031 A 
BRANCH  52  66
ATOM     66  C   UNL     1      -0.028  15.389  14.327  1.00  0.00    -0.014 A 
ATOM     67  C   UNL     1       0.562  15.649  15.574  1.00  0.00     0.009 A 
ATOM     68  C   UNL     1      -1.400  15.098  14.274  1.00  0.00     0.009 A 
ATOM     69  C   UNL     1      -0.197  15.582  16.744  1.00  0.00     0.001 A 
ATOM     70  C   UNL     1      -2.163  15.063  15.443  1.00  0.00     0.001 A 
ATOM     71  C   UNL     1      -1.559  15.295  16.677  1.00  0.00     0.000 A 
ENDBRANCH  52  66
BRANCH  53  72
ATOM     72  C   UNL     1       5.304  15.306   5.881  1.00  0.00    -0.014 A 
ATOM     73  C   UNL     1       6.201  16.338   5.566  1.00  0.00     0.009 A 
ATOM     74  C   UNL     1       5.135  14.254   4.967  1.00  0.00     0.009 A 
ATOM     75  C   UNL     1       6.891  16.331   4.351  1.00  0.00     0.001 A 
ATOM     76  C   UNL     1       5.850  14.233   3.768  1.00  0.00     0.001 A 
ATOM     77  C   UNL     1       6.720  15.276   3.456  1.00  0.00     0.000 A 
ENDBRANCH  53  72
BRANCH  65  78
ATOM     78  C   UNL     1       0.209  19.376   8.322  1.00  0.00    -0.014 A 
ATOM     79  C   UNL     1      -0.702  19.230   7.265  1.00  0.00     0.009 A 
ATOM     80  C   UNL     1       0.414  20.651   8.873  1.00  0.00     0.009 A 
ATOM     81  C   UNL     1      -1.371  20.343   6.752  1.00  0.00     0.001 A 
ATOM     82  C   UNL     1      -0.280  21.756   8.380  1.00  0.00     0.001 A 
ATOM     83  C   UNL     1      -1.165  21.602   7.314  1.00  0.00     0.000 A 
ENDBRANCH  65  78
ENDBRANCH  39  40
ENDBRANCH  31  34
ENDBRANCH  29  30
ENDBRANCH  28  29
ENDBRANCH  27  28
ENDBRANCH   3  27
TORSDOF 15
