REMARK SMILES Cc1nn([C@H]2CCS(=O)(=O)C2)c(C)c1[C@@H]([NH3+])C(=O)NCCCNC(=O)c1ccc(-c2c3nc(c(-c4ccccc4)c4ccc([nH]4)c(-c4ccccc4)c4nc(c(-c5ccccc5)c5ccc2[nH]5)C=C4)C=C3)cc1
REMARK SMILES IDX 21 1 20 2 19 3 17 4 18 5 15 7 14 8 1 9 2 10 3 11 4 12 12 13
REMARK SMILES IDX 13 14 5 15 6 16 11 17 7 18 8 19 9 20 10 21 16 22 22 26 23 27
REMARK SMILES IDX 24 28 25 30 26 31 27 32 73 33 28 34 72 35 29 36 30 37 31 38
REMARK SMILES IDX 66 39 32 40 71 41 65 42 67 43 33 44 70 45 64 46 63 47 34 49
REMARK SMILES IDX 56 50 41 51 55 52 42 53 45 54 54 55 68 56 43 57 44 58 53 60
REMARK SMILES IDX 69 61 46 62 35 63 36 64 40 65 37 66 39 67 38 68 57 69 58 70
REMARK SMILES IDX 62 71 59 72 61 73 60 74 47 75 48 76 52 77 49 78 51 79 50 80
REMARK H PARENT 19 6 16 23 16 24 16 25 23 29 67 48 45 59
REMARK Flexibility Score: inf
ROOT
ATOM      1  C   UNL     1      -1.201  -8.557   0.528  1.00  0.00     0.042 C 
ENDROOT
BRANCH   1   2
ATOM      2  C   UNL     1      -0.913  -9.198   1.881  1.00  0.00     0.118 C 
BRANCH   2   3
ATOM      3  N   UNL     1       0.354  -9.905   1.882  1.00  0.00    -0.351 N 
ATOM      4  C   UNL     1       1.605  -9.444   2.194  1.00  0.00     0.283 C 
ATOM      5  O   UNL     1       2.539 -10.246   2.070  1.00  0.00    -0.268 OA
ATOM      6  H   UNL     1       0.307 -10.854   1.621  1.00  0.00     0.163 HD
BRANCH   4   7
ATOM      7  C   UNL     1       1.874  -7.993   2.701  1.00  0.00     0.306 C 
BRANCH   7   8
ATOM      8  C   UNL     1       1.781  -6.969   1.599  1.00  0.00     0.063 A 
ATOM      9  C   UNL     1       4.332  -6.778   0.977  1.00  0.00     0.069 C 
ATOM     10  C   UNL     1       2.875  -6.561   0.775  1.00  0.00     0.069 A 
ATOM     11  N   UNL     1       2.466  -5.827  -0.263  1.00  0.00    -0.177 NA
ATOM     12  N   UNL     1       1.140  -5.700  -0.082  1.00  0.00    -0.265 N 
ATOM     13  C   UNL     1       0.773  -6.085   1.193  1.00  0.00     0.046 A 
ATOM     14  C   UNL     1      -0.424  -5.561   1.905  1.00  0.00     0.067 C 
BRANCH  12  15
ATOM     15  C   UNL     1       0.363  -5.134  -1.184  1.00  0.00     0.123 C 
ATOM     16  C   UNL     1       0.836  -5.665  -2.564  1.00  0.00     0.044 C 
ATOM     17  C   UNL     1      -1.126  -5.459  -1.172  1.00  0.00     0.164 C 
ATOM     18  C   UNL     1      -0.151  -5.179  -3.619  1.00  0.00     0.139 C 
ATOM     19  S   UNL     1      -1.720  -5.070  -2.792  1.00  0.00     0.152 S 
ATOM     20  O   UNL     1      -2.146  -3.680  -2.788  1.00  0.00    -0.229 OA
ATOM     21  O   UNL     1      -2.569  -6.145  -3.237  1.00  0.00    -0.229 OA
ENDBRANCH  12  15
ENDBRANCH   7   8
BRANCH   7  22
ATOM     22  N   UNL     1       1.042  -7.662   3.866  1.00  0.00    -0.343 N 
ATOM     23  H   UNL     1       0.058  -7.678   3.596  1.00  0.00     0.345 HD
ATOM     24  H   UNL     1       1.286  -6.731   4.204  1.00  0.00     0.345 HD
ATOM     25  H   UNL     1       1.204  -8.346   4.605  1.00  0.00     0.345 HD
ENDBRANCH   7  22
ENDBRANCH   4   7
ENDBRANCH   2   3
ENDBRANCH   1   2
BRANCH   1  26
ATOM     26  C   UNL     1      -2.083  -9.382  -0.373  1.00  0.00     0.118 C 
BRANCH  26  27
ATOM     27  N   UNL     1      -3.517  -9.249  -0.047  1.00  0.00    -0.352 N 
ATOM     28  C   UNL     1      -4.615  -9.711  -0.770  1.00  0.00     0.251 C 
ATOM     29  H   UNL     1      -3.724  -8.774   0.790  1.00  0.00     0.163 HD
ATOM     30  O   UNL     1      -5.737  -9.262  -0.579  1.00  0.00    -0.269 OA
BRANCH  28  31
ATOM     31  C   UNL     1      -4.389 -10.783  -1.757  1.00  0.00     0.039 A 
ATOM     32  C   UNL     1      -5.011 -10.891  -3.003  1.00  0.00     0.014 A 
ATOM     33  C   UNL     1      -3.372 -11.646  -1.429  1.00  0.00     0.014 A 
ATOM     34  C   UNL     1      -4.527 -11.859  -3.891  1.00  0.00     0.010 A 
ATOM     35  C   UNL     1      -2.621 -12.059  -2.471  1.00  0.00     0.010 A 
ATOM     36  C   UNL     1      -3.307 -12.467  -3.586  1.00  0.00    -0.014 A 
BRANCH  36  37
ATOM     37  C   UNL     1      -2.567 -13.408  -4.410  1.00  0.00     0.031 A 
ATOM     38  C   UNL     1      -2.184 -12.843  -5.714  1.00  0.00     0.074 A 
ATOM     39  C   UNL     1      -2.007 -14.534  -3.899  1.00  0.00     0.049 A 
ATOM     40  N   UNL     1      -2.773 -13.040  -6.843  1.00  0.00    -0.248 NA
ATOM     41  C   UNL     1      -1.180 -11.765  -5.738  1.00  0.00     0.031 C 
ATOM     42  C   UNL     1      -2.010 -15.008  -2.501  1.00  0.00     0.029 A 
ATOM     43  N   UNL     1      -1.207 -15.452  -4.507  1.00  0.00    -0.354 N 
ATOM     44  C   UNL     1      -2.025 -12.327  -7.768  1.00  0.00     0.074 A 
ATOM     45  C   UNL     1      -1.272 -11.363  -7.008  1.00  0.00     0.031 C 
ATOM     46  C   UNL     1      -1.092 -15.989  -2.341  1.00  0.00     0.029 A 
ATOM     47  C   UNL     1      -0.560 -16.336  -3.644  1.00  0.00     0.049 A 
ATOM     48  H   UNL     1      -1.094 -15.490  -5.484  1.00  0.00     0.167 HD
ATOM     49  C   UNL     1      -1.800 -12.839  -9.010  1.00  0.00     0.031 A 
ATOM     50  C   UNL     1       0.343 -17.291  -3.983  1.00  0.00     0.031 A 
ATOM     51  C   UNL     1      -2.613 -14.016  -9.228  1.00  0.00     0.049 A 
ATOM     52  C   UNL     1       0.164 -17.554  -5.427  1.00  0.00     0.074 A 
ATOM     53  C   UNL     1      -3.962 -14.292  -9.287  1.00  0.00     0.029 A 
ATOM     54  N   UNL     1      -1.973 -15.206  -8.969  1.00  0.00    -0.354 N 
ATOM     55  N   UNL     1      -0.909 -18.099  -5.922  1.00  0.00    -0.248 NA
ATOM     56  C   UNL     1       0.986 -16.822  -6.377  1.00  0.00     0.031 C 
ATOM     57  C   UNL     1      -4.108 -15.588  -8.706  1.00  0.00     0.029 A 
ATOM     58  C   UNL     1      -2.843 -16.088  -8.389  1.00  0.00     0.049 A 
ATOM     59  H   UNL     1      -1.028 -15.395  -9.171  1.00  0.00     0.167 HD
ATOM     60  C   UNL     1      -1.143 -17.397  -7.094  1.00  0.00     0.074 A 
ATOM     61  C   UNL     1       0.130 -16.750  -7.402  1.00  0.00     0.031 C 
ATOM     62  C   UNL     1      -2.422 -17.167  -7.517  1.00  0.00     0.031 A 
BRANCH  49  63
ATOM     63  C   UNL     1      -0.521 -12.633  -9.795  1.00  0.00    -0.014 A 
ATOM     64  C   UNL     1      -0.413 -13.262 -11.050  1.00  0.00     0.009 A 
ATOM     65  C   UNL     1       0.668 -12.106  -9.257  1.00  0.00     0.009 A 
ATOM     66  C   UNL     1       0.825 -13.436 -11.679  1.00  0.00     0.001 A 
ATOM     67  C   UNL     1       1.901 -12.245  -9.899  1.00  0.00     0.001 A 
ATOM     68  C   UNL     1       1.984 -12.937 -11.097  1.00  0.00     0.000 A 
ENDBRANCH  49  63
BRANCH  50  69
ATOM     69  C   UNL     1       1.476 -17.864  -3.225  1.00  0.00    -0.014 A 
ATOM     70  C   UNL     1       2.024 -19.112  -3.570  1.00  0.00     0.009 A 
ATOM     71  C   UNL     1       2.215 -17.045  -2.353  1.00  0.00     0.009 A 
ATOM     72  C   UNL     1       3.287 -19.502  -3.099  1.00  0.00     0.001 A 
ATOM     73  C   UNL     1       3.477 -17.434  -1.886  1.00  0.00     0.001 A 
ATOM     74  C   UNL     1       4.020 -18.655  -2.272  1.00  0.00     0.000 A 
ENDBRANCH  50  69
BRANCH  62  75
ATOM     75  C   UNL     1      -3.518 -17.982  -6.871  1.00  0.00    -0.014 A 
ATOM     76  C   UNL     1      -3.864 -17.891  -5.511  1.00  0.00     0.009 A 
ATOM     77  C   UNL     1      -4.303 -18.793  -7.702  1.00  0.00     0.009 A 
ATOM     78  C   UNL     1      -4.946 -18.616  -4.996  1.00  0.00     0.001 A 
ATOM     79  C   UNL     1      -5.394 -19.499  -7.194  1.00  0.00     0.001 A 
ATOM     80  C   UNL     1      -5.712 -19.416  -5.841  1.00  0.00     0.000 A 
ENDBRANCH  62  75
ENDBRANCH  36  37
ENDBRANCH  28  31
ENDBRANCH  26  27
ENDBRANCH   1  26
TORSDOF 13
