REMARK SMILES CC[N@@H+](Cc1cccc(C)n1)Cc1csc(C(=O)NCCCNC(=O)c2ccc(-c3c4nc(c(-c5ccccc5)c5ccc([nH]5)c(-c5ccccc5)c5nc(c(-c6ccccc6)c6ccc3[nH]6)C=C5)C=C4)cc2)n1
REMARK SMILES IDX 20 1 19 2 17 3 18 4 16 6 13 7 14 8 74 9 15 10 12 11 3 12
REMARK SMILES IDX 2 14 1 15 4 16 5 17 6 18 11 19 7 20 9 21 8 22 10 23 21 24
REMARK SMILES IDX 22 25 23 26 24 27 25 29 26 30 27 31 73 32 28 33 72 34 29 35
REMARK SMILES IDX 30 36 31 37 66 38 32 39 71 40 65 41 67 42 33 43 70 44 64 45
REMARK SMILES IDX 63 46 34 48 56 49 41 50 55 51 42 52 45 53 54 54 68 55 43 56
REMARK SMILES IDX 44 57 53 59 69 60 46 61 35 62 36 63 40 64 37 65 39 66 38 67
REMARK SMILES IDX 57 68 58 69 62 70 59 71 61 72 60 73 47 74 48 75 52 76 49 77
REMARK SMILES IDX 51 78 50 79
REMARK H PARENT 19 5 3 13 23 28 67 47 45 58
REMARK Flexibility Score: inf
ROOT
ATOM      1  C   UNL     1       2.491   1.758  -3.023  1.00  0.00     0.118 C 
ENDROOT
BRANCH   1   2
ATOM      2  N   UNL     1       3.163   1.379  -4.254  1.00  0.00    -0.350 N 
ATOM      3  C   UNL     1       3.647   0.146  -4.653  1.00  0.00     0.280 C 
ATOM      4  O   UNL     1       4.132   0.108  -5.792  1.00  0.00    -0.267 OA
ATOM      5  H   UNL     1       3.294   2.109  -4.901  1.00  0.00     0.163 HD
BRANCH   3   6
ATOM      6  C   UNL     1       3.547  -1.013  -3.768  1.00  0.00     0.181 A 
ATOM      7  C   UNL     1       3.072  -2.226  -1.966  1.00  0.00     0.106 A 
ATOM      8  C   UNL     1       3.371  -3.248  -2.849  1.00  0.00     0.097 A 
ATOM      9  N   UNL     1       3.245  -0.953  -2.486  1.00  0.00    -0.230 NA
ATOM     10  S   UNL     1       3.804  -2.599  -4.376  1.00  0.00    -0.117 S 
BRANCH   7  11
ATOM     11  C   UNL     1       2.621  -2.358  -0.542  1.00  0.00     0.320 C 
BRANCH  11  12
ATOM     12  N   UNL     1       1.151  -2.367  -0.357  1.00  0.00    -0.325 N 
ATOM     13  H   UNL     1       1.046  -2.413   0.656  1.00  0.00     0.348 HD
BRANCH  12  14
ATOM     14  C   UNL     1       0.478  -1.141  -0.815  1.00  0.00     0.259 C 
ATOM     15  C   UNL     1       0.825   0.083   0.025  1.00  0.00     0.071 C 
ENDBRANCH  12  14
BRANCH  12  16
ATOM     16  C   UNL     1       0.489  -3.553  -0.946  1.00  0.00     0.319 C 
BRANCH  16  17
ATOM     17  C   UNL     1       0.941  -4.901  -0.409  1.00  0.00     0.095 A 
ATOM     18  C   UNL     1       1.337  -5.058   0.917  1.00  0.00     0.030 A 
ATOM     19  N   UNL     1       0.896  -5.946  -1.276  1.00  0.00    -0.252 NA
ATOM     20  C   UNL     1       1.768  -6.306   1.349  1.00  0.00     0.004 A 
ATOM     21  C   UNL     1       1.271  -7.167  -0.826  1.00  0.00     0.038 A 
ATOM     22  C   UNL     1       1.731  -7.379   0.468  1.00  0.00     0.023 A 
ATOM     23  C   UNL     1       1.106  -8.313  -1.779  1.00  0.00     0.067 C 
ENDBRANCH  16  17
ENDBRANCH  12  16
ENDBRANCH  11  12
ENDBRANCH   7  11
ENDBRANCH   3   6
ENDBRANCH   1   2
BRANCH   1  24
ATOM     24  C   UNL     1       3.431   2.458  -2.047  1.00  0.00     0.042 C 
BRANCH  24  25
ATOM     25  C   UNL     1       3.786   3.879  -2.478  1.00  0.00     0.118 C 
BRANCH  25  26
ATOM     26  N   UNL     1       2.620   4.756  -2.505  1.00  0.00    -0.352 N 
ATOM     27  C   UNL     1       2.404   5.969  -1.908  1.00  0.00     0.251 C 
ATOM     28  H   UNL     1       1.865   4.420  -3.039  1.00  0.00     0.163 HD
ATOM     29  O   UNL     1       1.269   6.446  -1.905  1.00  0.00    -0.269 OA
BRANCH  27  30
ATOM     30  C   UNL     1       3.509   6.707  -1.265  1.00  0.00     0.039 A 
ATOM     31  C   UNL     1       3.252   7.401  -0.079  1.00  0.00     0.014 A 
ATOM     32  C   UNL     1       4.779   6.762  -1.845  1.00  0.00     0.014 A 
ATOM     33  C   UNL     1       4.278   8.109   0.549  1.00  0.00     0.010 A 
ATOM     34  C   UNL     1       5.819   7.403  -1.179  1.00  0.00     0.010 A 
ATOM     35  C   UNL     1       5.578   8.093   0.019  1.00  0.00    -0.014 A 
BRANCH  35  36
ATOM     36  C   UNL     1       6.693   8.803   0.693  1.00  0.00     0.031 A 
ATOM     37  C   UNL     1       7.383   9.951   0.007  1.00  0.00     0.074 A 
ATOM     38  C   UNL     1       7.124   8.377   1.896  1.00  0.00     0.049 A 
ATOM     39  N   UNL     1       8.412  10.654   0.407  1.00  0.00    -0.248 NA
ATOM     40  C   UNL     1       6.864  10.346  -1.314  1.00  0.00     0.031 C 
ATOM     41  C   UNL     1       6.561   7.256   2.653  1.00  0.00     0.029 A 
ATOM     42  N   UNL     1       8.142   8.836   2.693  1.00  0.00    -0.354 N 
ATOM     43  C   UNL     1       8.679  11.551  -0.620  1.00  0.00     0.074 A 
ATOM     44  C   UNL     1       7.732  11.278  -1.678  1.00  0.00     0.031 C 
ATOM     45  C   UNL     1       7.221   7.135   3.816  1.00  0.00     0.029 A 
ATOM     46  C   UNL     1       8.279   8.139   3.869  1.00  0.00     0.049 A 
ATOM     47  H   UNL     1       8.720   9.594   2.446  1.00  0.00     0.167 HD
ATOM     48  C   UNL     1       9.618  12.526  -0.671  1.00  0.00     0.031 A 
ATOM     49  C   UNL     1       9.162   8.288   4.874  1.00  0.00     0.031 A 
ATOM     50  C   UNL     1      10.544  12.813   0.392  1.00  0.00     0.049 A 
ATOM     51  C   UNL     1      10.199   9.373   4.785  1.00  0.00     0.074 A 
ATOM     52  C   UNL     1      11.487  13.824   0.462  1.00  0.00     0.029 A 
ATOM     53  N   UNL     1      10.644  12.088   1.568  1.00  0.00    -0.354 N 
ATOM     54  N   UNL     1      10.390  10.260   3.839  1.00  0.00    -0.248 NA
ATOM     55  C   UNL     1      11.136   9.483   5.913  1.00  0.00     0.031 C 
ATOM     56  C   UNL     1      12.194  13.678   1.659  1.00  0.00     0.029 A 
ATOM     57  C   UNL     1      11.650  12.615   2.361  1.00  0.00     0.049 A 
ATOM     58  H   UNL     1      10.083  11.315   1.805  1.00  0.00     0.167 HD
ATOM     59  C   UNL     1      11.441  11.057   4.276  1.00  0.00     0.074 A 
ATOM     60  C   UNL     1      11.837  10.556   5.575  1.00  0.00     0.031 C 
ATOM     61  C   UNL     1      12.023  12.113   3.657  1.00  0.00     0.031 A 
BRANCH  48  62
ATOM     62  C   UNL     1       9.698  13.353  -1.924  1.00  0.00    -0.014 A 
ATOM     63  C   UNL     1       8.697  14.281  -2.253  1.00  0.00     0.009 A 
ATOM     64  C   UNL     1      10.817  13.237  -2.764  1.00  0.00     0.009 A 
ATOM     65  C   UNL     1       8.801  15.053  -3.412  1.00  0.00     0.001 A 
ATOM     66  C   UNL     1      10.932  14.030  -3.906  1.00  0.00     0.001 A 
ATOM     67  C   UNL     1       9.921  14.931  -4.234  1.00  0.00     0.000 A 
ENDBRANCH  48  62
BRANCH  49  68
ATOM     68  C   UNL     1       9.100   7.403   6.067  1.00  0.00    -0.014 A 
ATOM     69  C   UNL     1       8.714   7.920   7.314  1.00  0.00     0.009 A 
ATOM     70  C   UNL     1       9.454   6.048   5.976  1.00  0.00     0.009 A 
ATOM     71  C   UNL     1       8.722   7.108   8.451  1.00  0.00     0.001 A 
ATOM     72  C   UNL     1       9.430   5.231   7.108  1.00  0.00     0.001 A 
ATOM     73  C   UNL     1       9.077   5.764   8.347  1.00  0.00     0.000 A 
ENDBRANCH  49  68
BRANCH  61  74
ATOM     74  C   UNL     1      13.111  12.833   4.402  1.00  0.00    -0.014 A 
ATOM     75  C   UNL     1      14.376  12.255   4.594  1.00  0.00     0.009 A 
ATOM     76  C   UNL     1      12.873  14.128   4.889  1.00  0.00     0.009 A 
ATOM     77  C   UNL     1      15.368  12.947   5.292  1.00  0.00     0.001 A 
ATOM     78  C   UNL     1      13.876  14.829   5.558  1.00  0.00     0.001 A 
ATOM     79  C   UNL     1      15.119  14.234   5.769  1.00  0.00     0.000 A 
ENDBRANCH  61  74
ENDBRANCH  35  36
ENDBRANCH  27  30
ENDBRANCH  25  26
ENDBRANCH  24  25
ENDBRANCH   1  24
TORSDOF 15
