REMARK SMILES O=C(NCCCNC(=O)c1cc(/N=C/c2ccc([N+](=O)[O-])cc2)ccc1O)c1ccc(-c2c3nc(c(-c4ccccc4)c4ccc([nH]4)c(-c4ccccc4)c4nc(c(-c5ccccc5)c5ccc2[nH]5)C=C4)C=C3)cc1
REMARK SMILES IDX 5 1 4 2 3 3 1 4 2 5 28 7 29 8 75 9 30 10 74 11 31 12 32 13
REMARK SMILES IDX 33 14 68 15 34 16 73 17 67 18 69 19 35 20 72 21 66 22 65 23
REMARK SMILES IDX 36 25 58 26 43 27 57 28 44 29 47 30 56 31 70 32 45 33 46 34
REMARK SMILES IDX 55 36 71 37 48 38 37 39 38 40 42 41 39 42 41 43 40 44 59 45
REMARK SMILES IDX 60 46 64 47 61 48 63 49 62 50 49 51 50 52 54 53 51 54 53 55
REMARK SMILES IDX 52 56 6 57 7 58 8 59 9 61 10 62 11 63 26 64 12 65 25 66
REMARK SMILES IDX 24 67 27 68 13 70 14 71 15 72 16 73 23 74 17 75 22 76 18 77
REMARK SMILES IDX 19 78 20 79 21 80
REMARK H PARENT 3 6 69 24 47 35 7 60 27 69
REMARK Flexibility Score: inf
ROOT
ATOM      1  C   UNL     1       4.931   1.634  -1.750  1.00  0.00     0.042 C 
ENDROOT
BRANCH   1   2
ATOM      2  C   UNL     1       4.535   1.331  -0.315  1.00  0.00     0.118 C 
BRANCH   2   3
ATOM      3  N   UNL     1       3.102   1.110  -0.157  1.00  0.00    -0.352 N 
ATOM      4  O   UNL     1       1.176  -0.043   0.045  1.00  0.00    -0.269 OA
ATOM      5  C   UNL     1       2.402  -0.037   0.131  1.00  0.00     0.251 C 
ATOM      6  H   UNL     1       2.545   1.914  -0.275  1.00  0.00     0.163 HD
BRANCH   5   7
ATOM      7  C   UNL     1       3.115  -1.273   0.521  1.00  0.00     0.039 A 
ATOM      8  C   UNL     1       4.214  -1.222   1.376  1.00  0.00     0.014 A 
ATOM      9  C   UNL     1       2.661  -2.509   0.047  1.00  0.00     0.014 A 
ATOM     10  C   UNL     1       4.966  -2.366   1.607  1.00  0.00     0.010 A 
ATOM     11  C   UNL     1       3.350  -3.680   0.379  1.00  0.00     0.010 A 
ATOM     12  C   UNL     1       4.529  -3.614   1.136  1.00  0.00    -0.014 A 
BRANCH  12  13
ATOM     13  C   UNL     1       5.286  -4.828   1.534  1.00  0.00     0.031 A 
ATOM     14  C   UNL     1       5.976  -5.695   0.519  1.00  0.00     0.074 A 
ATOM     15  C   UNL     1       5.393  -5.108   2.849  1.00  0.00     0.049 A 
ATOM     16  N   UNL     1       6.727  -6.750   0.719  1.00  0.00    -0.248 NA
ATOM     17  C   UNL     1       5.801  -5.346  -0.899  1.00  0.00     0.031 C 
ATOM     18  C   UNL     1       4.758  -4.343   3.928  1.00  0.00     0.029 A 
ATOM     19  N   UNL     1       6.098  -6.081   3.506  1.00  0.00    -0.354 N 
ATOM     20  C   UNL     1       7.100  -7.198  -0.541  1.00  0.00     0.074 A 
ATOM     21  C   UNL     1       6.474  -6.317  -1.504  1.00  0.00     0.031 C 
ATOM     22  C   UNL     1       5.161  -4.830   5.109  1.00  0.00     0.029 A 
ATOM     23  C   UNL     1       6.018  -5.985   4.874  1.00  0.00     0.049 A 
ATOM     24  H   UNL     1       6.613  -6.781   3.043  1.00  0.00     0.167 HD
ATOM     25  C   UNL     1       7.896  -8.246  -0.865  1.00  0.00     0.031 A 
ATOM     26  C   UNL     1       6.560  -6.748   5.840  1.00  0.00     0.031 A 
ATOM     27  C   UNL     1       8.519  -9.121   0.095  1.00  0.00     0.049 A 
ATOM     28  C   UNL     1       7.413  -7.915   5.447  1.00  0.00     0.074 A 
ATOM     29  C   UNL     1       9.358 -10.198  -0.138  1.00  0.00     0.029 A 
ATOM     30  N   UNL     1       8.371  -9.021   1.469  1.00  0.00    -0.354 N 
ATOM     31  N   UNL     1       7.773  -8.308   4.250  1.00  0.00    -0.248 NA
ATOM     32  C   UNL     1       7.932  -8.747   6.540  1.00  0.00     0.031 C 
ATOM     33  C   UNL     1       9.679 -10.778   1.094  1.00  0.00     0.029 A 
ATOM     34  C   UNL     1       9.084 -10.030   2.096  1.00  0.00     0.049 A 
ATOM     35  H   UNL     1       7.839  -8.334   1.932  1.00  0.00     0.167 HD
ATOM     36  C   UNL     1       8.567  -9.428   4.444  1.00  0.00     0.074 A 
ATOM     37  C   UNL     1       8.662  -9.631   5.876  1.00  0.00     0.031 C 
ATOM     38  C   UNL     1       9.157 -10.224   3.521  1.00  0.00     0.031 A 
BRANCH  25  39
ATOM     39  C   UNL     1       8.126  -8.525  -2.325  1.00  0.00    -0.014 A 
ATOM     40  C   UNL     1       8.963  -7.708  -3.100  1.00  0.00     0.009 A 
ATOM     41  C   UNL     1       7.552  -9.662  -2.916  1.00  0.00     0.009 A 
ATOM     42  C   UNL     1       9.203  -8.011  -4.442  1.00  0.00     0.001 A 
ATOM     43  C   UNL     1       7.812  -9.977  -4.251  1.00  0.00     0.001 A 
ATOM     44  C   UNL     1       8.632  -9.148  -5.015  1.00  0.00     0.000 A 
ENDBRANCH  25  39
BRANCH  26  45
ATOM     45  C   UNL     1       6.286  -6.444   7.268  1.00  0.00    -0.014 A 
ATOM     46  C   UNL     1       7.306  -5.982   8.112  1.00  0.00     0.009 A 
ATOM     47  C   UNL     1       4.995  -6.616   7.792  1.00  0.00     0.009 A 
ATOM     48  C   UNL     1       7.043  -5.723   9.459  1.00  0.00     0.001 A 
ATOM     49  C   UNL     1       4.728  -6.324   9.130  1.00  0.00     0.001 A 
ATOM     50  C   UNL     1       5.754  -5.888   9.965  1.00  0.00     0.000 A 
ENDBRANCH  26  45
BRANCH  38  51
ATOM     51  C   UNL     1       9.970 -11.373   4.043  1.00  0.00    -0.014 A 
ATOM     52  C   UNL     1       9.352 -12.497   4.614  1.00  0.00     0.009 A 
ATOM     53  C   UNL     1      11.370 -11.333   3.957  1.00  0.00     0.009 A 
ATOM     54  C   UNL     1      10.124 -13.541   5.127  1.00  0.00     0.001 A 
ATOM     55  C   UNL     1      12.137 -12.391   4.445  1.00  0.00     0.001 A 
ATOM     56  C   UNL     1      11.514 -13.488   5.040  1.00  0.00     0.000 A 
ENDBRANCH  38  51
ENDBRANCH  12  13
ENDBRANCH   5   7
ENDBRANCH   2   3
ENDBRANCH   1   2
BRANCH   1  57
ATOM     57  C   UNL     1       4.425   2.976  -2.250  1.00  0.00     0.118 C 
BRANCH  57  58
ATOM     58  N   UNL     1       5.006   4.093  -1.522  1.00  0.00    -0.352 N 
ATOM     59  C   UNL     1       5.780   5.124  -1.997  1.00  0.00     0.255 C 
ATOM     60  H   UNL     1       4.819   4.114  -0.556  1.00  0.00     0.163 HD
ATOM     61  O   UNL     1       6.272   5.935  -1.217  1.00  0.00    -0.269 OA
BRANCH  59  62
ATOM     62  C   UNL     1       6.082   5.215  -3.439  1.00  0.00     0.083 A 
ATOM     63  C   UNL     1       7.431   5.229  -3.815  1.00  0.00     0.046 A 
ATOM     64  C   UNL     1       5.079   5.274  -4.413  1.00  0.00     0.128 A 
ATOM     65  C   UNL     1       7.784   5.235  -5.165  1.00  0.00     0.064 A 
ATOM     66  C   UNL     1       5.420   5.244  -5.762  1.00  0.00     0.049 A 
ATOM     67  C   UNL     1       6.767   5.200  -6.130  1.00  0.00     0.032 A 
BRANCH  64  68
ATOM     68  O   UNL     1       3.762   5.333  -4.053  1.00  0.00    -0.507 OA
ATOM     69  H   UNL     1       3.525   5.353  -3.146  1.00  0.00     0.293 HD
ENDBRANCH  64  68
BRANCH  65  70
ATOM     70  N   UNL     1       9.146   5.216  -5.508  1.00  0.00    -0.256 NA
ATOM     71  C   UNL     1       9.546   6.054  -6.410  1.00  0.00     0.119 C 
BRANCH  71  72
ATOM     72  C   UNL     1      10.954   6.133  -6.846  1.00  0.00    -0.007 A 
ATOM     73  C   UNL     1      11.267   6.955  -7.934  1.00  0.00     0.017 A 
ATOM     74  C   UNL     1      11.957   5.420  -6.181  1.00  0.00     0.017 A 
ATOM     75  C   UNL     1      12.594   7.075  -8.356  1.00  0.00     0.086 A 
ATOM     76  C   UNL     1      13.287   5.541  -6.594  1.00  0.00     0.086 A 
ATOM     77  C   UNL     1      13.601   6.373  -7.679  1.00  0.00     0.269 A 
BRANCH  77  78
ATOM     78  N   UNL     1      14.999   6.518  -8.109  1.00  0.00     0.062 N 
ATOM     79  O   UNL     1      15.230   7.269  -9.067  1.00  0.00    -0.258 OA
ATOM     80  O   UNL     1      15.862   5.883  -7.487  1.00  0.00    -0.258 OA
ENDBRANCH  77  78
ENDBRANCH  71  72
ENDBRANCH  65  70
ENDBRANCH  59  62
ENDBRANCH  57  58
ENDBRANCH   1  57
TORSDOF 14
