REMARK SMILES CC[C@@H](Nc1ccc([N+](=O)[O-])c(N)n1)C(=O)NCCCNC(=O)c1ccc(-c2c3nc(c(-c4ccccc4)c4ccc([nH]4)c(-c4ccccc4)c4nc(c(-c5ccccc5)c5ccc2[nH]5)C=C4)C=C3)cc1
REMARK SMILES IDX 18 1 17 2 15 3 16 4 3 6 2 7 1 8 4 9 5 11 6 12 14 13 7 14
REMARK SMILES IDX 12 15 8 16 13 17 9 20 10 21 11 22 19 23 20 24 21 25 22 26
REMARK SMILES IDX 23 28 24 29 25 30 71 31 26 32 70 33 27 34 28 35 29 36 64 37
REMARK SMILES IDX 30 38 69 39 63 40 65 41 31 42 68 43 62 44 61 45 32 47 54 48
REMARK SMILES IDX 39 49 53 50 40 51 43 52 52 53 66 54 41 55 42 56 51 58 67 59
REMARK SMILES IDX 44 60 33 61 34 62 38 63 35 64 37 65 36 66 55 67 56 68 60 69
REMARK SMILES IDX 57 70 59 71 58 72 45 73 46 74 50 75 47 76 49 77 48 78
REMARK H PARENT 17 5 4 10 13 18 13 19 21 27 65 46 43 57
REMARK Flexibility Score: inf
ROOT
ATOM      1  C   UNL     1      -1.852   2.785  -1.589  1.00  0.00     0.117 C 
ENDROOT
BRANCH   1   2
ATOM      2  N   UNL     1      -0.685   3.658  -1.524  1.00  0.00    -0.354 N 
ATOM      3  C   UNL     1       0.639   3.387  -1.288  1.00  0.00     0.242 C 
ATOM      4  O   UNL     1       1.419   4.344  -1.269  1.00  0.00    -0.273 OA
ATOM      5  H   UNL     1      -0.882   4.610  -1.677  1.00  0.00     0.163 HD
BRANCH   3   6
ATOM      6  C   UNL     1       1.141   1.936  -1.038  1.00  0.00     0.169 C 
BRANCH   6   7
ATOM      7  C   UNL     1       0.540   1.463   0.298  1.00  0.00     0.031 C 
ATOM      8  C   UNL     1       1.032   0.150   0.877  1.00  0.00     0.006 C 
ENDBRANCH   6   7
BRANCH   6   9
ATOM      9  N   UNL     1       0.802   1.129  -2.206  1.00  0.00    -0.358 N 
ATOM     10  H   UNL     1       0.208   1.571  -2.855  1.00  0.00     0.162 HD
BRANCH   9  11
ATOM     11  C   UNL     1       1.173  -0.133  -2.543  1.00  0.00     0.129 A 
ATOM     12  C   UNL     1       2.170  -0.853  -1.908  1.00  0.00     0.054 A 
ATOM     13  N   UNL     1       0.435  -0.676  -3.535  1.00  0.00    -0.208 NA
ATOM     14  C   UNL     1       2.308  -2.209  -2.183  1.00  0.00     0.093 A 
ATOM     15  C   UNL     1       0.595  -1.979  -3.857  1.00  0.00     0.204 A 
ATOM     16  C   UNL     1       1.482  -2.780  -3.150  1.00  0.00     0.311 A 
BRANCH  15  17
ATOM     17  N   UNL     1      -0.254  -2.429  -4.848  1.00  0.00    -0.378 N 
ATOM     18  H   UNL     1      -0.208  -3.365  -5.147  1.00  0.00     0.158 HD
ATOM     19  H   UNL     1      -0.904  -1.812  -5.256  1.00  0.00     0.158 HD
ENDBRANCH  15  17
BRANCH  16  20
ATOM     20  N   UNL     1       1.554  -4.208  -3.382  1.00  0.00     0.066 N 
ATOM     21  O   UNL     1       1.427  -4.619  -4.545  1.00  0.00    -0.258 OA
ATOM     22  O   UNL     1       1.770  -4.929  -2.396  1.00  0.00    -0.258 OA
ENDBRANCH  16  20
ENDBRANCH   9  11
ENDBRANCH   6   9
ENDBRANCH   3   6
ENDBRANCH   1   2
BRANCH   1  23
ATOM     23  C   UNL     1      -2.734   2.877  -0.346  1.00  0.00     0.042 C 
BRANCH  23  24
ATOM     24  C   UNL     1      -3.437   4.214  -0.167  1.00  0.00     0.118 C 
BRANCH  24  25
ATOM     25  N   UNL     1      -4.449   4.457  -1.185  1.00  0.00    -0.352 N 
ATOM     26  C   UNL     1      -5.808   4.582  -1.073  1.00  0.00     0.251 C 
ATOM     27  H   UNL     1      -4.100   4.546  -2.101  1.00  0.00     0.163 HD
ATOM     28  O   UNL     1      -6.497   4.596  -2.097  1.00  0.00    -0.269 OA
BRANCH  26  29
ATOM     29  C   UNL     1      -6.469   4.680   0.247  1.00  0.00     0.039 A 
ATOM     30  C   UNL     1      -7.690   4.023   0.439  1.00  0.00     0.014 A 
ATOM     31  C   UNL     1      -5.926   5.444   1.284  1.00  0.00     0.014 A 
ATOM     32  C   UNL     1      -8.329   4.083   1.680  1.00  0.00     0.010 A 
ATOM     33  C   UNL     1      -6.520   5.434   2.544  1.00  0.00     0.010 A 
ATOM     34  C   UNL     1      -7.732   4.761   2.754  1.00  0.00    -0.014 A 
BRANCH  34  35
ATOM     35  C   UNL     1      -8.361   4.780   4.100  1.00  0.00     0.031 A 
ATOM     36  C   UNL     1      -8.818   6.078   4.708  1.00  0.00     0.074 A 
ATOM     37  C   UNL     1      -8.466   3.635   4.804  1.00  0.00     0.049 A 
ATOM     38  N   UNL     1      -9.332   6.299   5.893  1.00  0.00    -0.248 NA
ATOM     39  C   UNL     1      -8.654   7.290   3.890  1.00  0.00     0.031 C 
ATOM     40  C   UNL     1      -8.030   2.314   4.346  1.00  0.00     0.029 A 
ATOM     41  N   UNL     1      -8.970   3.402   6.059  1.00  0.00    -0.354 N 
ATOM     42  C   UNL     1      -9.532   7.672   5.968  1.00  0.00     0.074 A 
ATOM     43  C   UNL     1      -9.042   8.239   4.730  1.00  0.00     0.031 C 
ATOM     44  C   UNL     1      -8.309   1.406   5.295  1.00  0.00     0.029 A 
ATOM     45  C   UNL     1      -8.905   2.084   6.442  1.00  0.00     0.049 A 
ATOM     46  H   UNL     1      -9.343   4.111   6.631  1.00  0.00     0.167 HD
ATOM     47  C   UNL     1     -10.088   8.396   6.968  1.00  0.00     0.031 A 
ATOM     48  C   UNL     1      -9.276   1.486   7.590  1.00  0.00     0.031 A 
ATOM     49  C   UNL     1     -10.590   7.835   8.194  1.00  0.00     0.049 A 
ATOM     50  C   UNL     1      -9.881   2.313   8.689  1.00  0.00     0.074 A 
ATOM     51  C   UNL     1     -11.227   8.480   9.240  1.00  0.00     0.029 A 
ATOM     52  N   UNL     1     -10.510   6.495   8.539  1.00  0.00    -0.354 N 
ATOM     53  N   UNL     1     -10.122   3.601   8.717  1.00  0.00    -0.248 NA
ATOM     54  C   UNL     1     -10.275   1.600   9.912  1.00  0.00     0.031 C 
ATOM     55  C   UNL     1     -11.485   7.538  10.241  1.00  0.00     0.029 A 
ATOM     56  C   UNL     1     -11.062   6.297   9.793  1.00  0.00     0.049 A 
ATOM     57  H   UNL     1     -10.118   5.788   7.975  1.00  0.00     0.167 HD
ATOM     58  C   UNL     1     -10.720   3.848   9.946  1.00  0.00     0.074 A 
ATOM     59  C   UNL     1     -10.819   2.574  10.628  1.00  0.00     0.031 C 
ATOM     60  C   UNL     1     -11.151   5.025  10.462  1.00  0.00     0.031 A 
BRANCH  47  61
ATOM     61  C   UNL     1     -10.175   9.886   6.779  1.00  0.00    -0.014 A 
ATOM     62  C   UNL     1     -11.059  10.453   5.847  1.00  0.00     0.009 A 
ATOM     63  C   UNL     1      -9.389  10.737   7.572  1.00  0.00     0.009 A 
ATOM     64  C   UNL     1     -11.126  11.839   5.687  1.00  0.00     0.001 A 
ATOM     65  C   UNL     1      -9.479  12.123   7.431  1.00  0.00     0.001 A 
ATOM     66  C   UNL     1     -10.339  12.672   6.481  1.00  0.00     0.000 A 
ENDBRANCH  47  61
BRANCH  48  67
ATOM     67  C   UNL     1      -9.099   0.020   7.755  1.00  0.00    -0.014 A 
ATOM     68  C   UNL     1     -10.213  -0.833   7.768  1.00  0.00     0.009 A 
ATOM     69  C   UNL     1      -7.818  -0.534   7.901  1.00  0.00     0.009 A 
ATOM     70  C   UNL     1     -10.050  -2.208   7.949  1.00  0.00     0.001 A 
ATOM     71  C   UNL     1      -7.656  -1.913   8.053  1.00  0.00     0.001 A 
ATOM     72  C   UNL     1      -8.772  -2.747   8.086  1.00  0.00     0.000 A 
ENDBRANCH  48  67
BRANCH  60  73
ATOM     73  C   UNL     1     -11.799   4.986  11.817  1.00  0.00    -0.014 A 
ATOM     74  C   UNL     1     -11.045   4.770  12.981  1.00  0.00     0.009 A 
ATOM     75  C   UNL     1     -13.180   5.208  11.931  1.00  0.00     0.009 A 
ATOM     76  C   UNL     1     -11.669   4.745  14.230  1.00  0.00     0.001 A 
ATOM     77  C   UNL     1     -13.796   5.211  13.184  1.00  0.00     0.001 A 
ATOM     78  C   UNL     1     -13.041   4.970  14.331  1.00  0.00     0.000 A 
ENDBRANCH  60  73
ENDBRANCH  34  35
ENDBRANCH  26  29
ENDBRANCH  24  25
ENDBRANCH  23  24
ENDBRANCH   1  23
TORSDOF 15
