REMARK SMILES O=C(/C=C/c1cc(C(=O)NCCn2cccn2)cs1)NCCCNC(=O)c1ccc(-c2c3nc(c(-c4ccccc4)c4ccc([nH]4)c(-c4ccccc4)c4nc(c(-c5ccccc5)c5ccc2[nH]5)C=C4)C=C3)cc1
REMARK SMILES IDX 1 1 2 2 20 3 3 5 4 6 5 7 6 8 19 9 7 10 18 11 8 12 9 13 10 14
REMARK SMILES IDX 11 16 12 17 13 18 14 19 17 20 15 21 16 22 21 23 22 24 23 25
REMARK SMILES IDX 24 26 25 27 26 29 27 30 28 31 74 32 29 33 73 34 30 35 31 36
REMARK SMILES IDX 32 37 67 38 33 39 72 40 66 41 68 42 34 43 71 44 65 45 64 46
REMARK SMILES IDX 35 48 57 49 42 50 56 51 43 52 46 53 55 54 69 55 44 56 45 57
REMARK SMILES IDX 54 59 70 60 47 61 36 62 37 63 41 64 38 65 40 66 39 67 58 68
REMARK SMILES IDX 59 69 63 70 60 71 62 72 61 73 48 74 49 75 53 76 50 77 52 78
REMARK SMILES IDX 51 79
REMARK H PARENT 20 4 10 15 24 28 68 47 46 58
REMARK Flexibility Score: inf
ROOT
ATOM      1  O   UNL     1       0.969  -0.144   0.399  1.00  0.00    -0.270 OA
ATOM      2  C   UNL     1       2.134   0.033   0.065  1.00  0.00     0.244 C 
ATOM      3  N   UNL     1       2.665   1.247  -0.282  1.00  0.00    -0.352 N 
ATOM      4  H   UNL     1       3.628   1.311  -0.478  1.00  0.00     0.163 HD
ENDROOT
BRANCH   2   5
ATOM      5  C   UNL     1       3.027  -1.137  -0.094  1.00  0.00     0.072 C 
ATOM      6  C   UNL     1       4.364  -1.140   0.015  1.00  0.00     0.024 C 
BRANCH   6   7
ATOM      7  C   UNL     1       5.070  -2.365  -0.159  1.00  0.00     0.028 A 
ATOM      8  C   UNL     1       4.835  -3.398  -1.053  1.00  0.00     0.033 A 
ATOM      9  S   UNL     1       6.421  -2.725   0.814  1.00  0.00    -0.144 S 
ATOM     10  C   UNL     1       5.600  -4.582  -0.801  1.00  0.00     0.051 A 
ATOM     11  C   UNL     1       6.547  -4.299   0.172  1.00  0.00     0.079 A 
BRANCH  10  12
ATOM     12  C   UNL     1       5.531  -5.928  -1.372  1.00  0.00     0.252 C 
ATOM     13  O   UNL     1       6.382  -6.777  -1.098  1.00  0.00    -0.269 OA
ATOM     14  N   UNL     1       4.511  -6.350  -2.179  1.00  0.00    -0.350 N 
ATOM     15  H   UNL     1       4.567  -7.310  -2.389  1.00  0.00     0.163 HD
BRANCH  14  16
ATOM     16  C   UNL     1       3.360  -5.706  -2.799  1.00  0.00     0.140 C 
BRANCH  16  17
ATOM     17  C   UNL     1       3.654  -5.227  -4.224  1.00  0.00     0.165 C 
BRANCH  17  18
ATOM     18  N   UNL     1       3.446  -6.245  -5.243  1.00  0.00    -0.271 N 
ATOM     19  C   UNL     1       3.724  -7.582  -5.179  1.00  0.00     0.108 A 
ATOM     20  N   UNL     1       2.906  -5.883  -6.425  1.00  0.00    -0.181 NA
ATOM     21  C   UNL     1       3.303  -8.123  -6.370  1.00  0.00     0.042 A 
ATOM     22  C   UNL     1       2.821  -7.029  -7.105  1.00  0.00     0.135 A 
ENDBRANCH  17  18
ENDBRANCH  16  17
ENDBRANCH  14  16
ENDBRANCH  10  12
ENDBRANCH   6   7
ENDBRANCH   2   5
BRANCH   3  23
ATOM     23  C   UNL     1       1.844   2.445  -0.368  1.00  0.00     0.118 C 
BRANCH  23  24
ATOM     24  C   UNL     1       1.951   3.359   0.854  1.00  0.00     0.042 C 
BRANCH  24  25
ATOM     25  C   UNL     1       3.341   3.946   1.039  1.00  0.00     0.118 C 
BRANCH  25  26
ATOM     26  N   UNL     1       3.754   4.870  -0.030  1.00  0.00    -0.352 N 
ATOM     27  C   UNL     1       4.928   5.609  -0.157  1.00  0.00     0.251 C 
ATOM     28  H   UNL     1       3.105   4.981  -0.763  1.00  0.00     0.163 HD
ATOM     29  O   UNL     1       4.990   6.563  -0.910  1.00  0.00    -0.269 OA
BRANCH  27  30
ATOM     30  C   UNL     1       6.113   5.200   0.626  1.00  0.00     0.039 A 
ATOM     31  C   UNL     1       7.069   6.093   1.129  1.00  0.00     0.014 A 
ATOM     32  C   UNL     1       6.233   3.847   0.883  1.00  0.00     0.014 A 
ATOM     33  C   UNL     1       8.124   5.583   1.893  1.00  0.00     0.010 A 
ATOM     34  C   UNL     1       7.015   3.434   1.911  1.00  0.00     0.010 A 
ATOM     35  C   UNL     1       8.087   4.234   2.259  1.00  0.00    -0.014 A 
BRANCH  35  36
ATOM     36  C   UNL     1       9.095   3.548   3.053  1.00  0.00     0.031 A 
ATOM     37  C   UNL     1       9.046   3.892   4.493  1.00  0.00     0.074 A 
ATOM     38  C   UNL     1       9.700   2.427   2.586  1.00  0.00     0.049 A 
ATOM     39  N   UNL     1       9.915   4.551   5.183  1.00  0.00    -0.248 NA
ATOM     40  C   UNL     1       7.788   3.622   5.217  1.00  0.00     0.031 C 
ATOM     41  C   UNL     1       9.490   1.747   1.295  1.00  0.00     0.029 A 
ATOM     42  N   UNL     1      10.524   1.560   3.232  1.00  0.00    -0.354 N 
ATOM     43  C   UNL     1       9.409   4.577   6.478  1.00  0.00     0.074 A 
ATOM     44  C   UNL     1       8.012   4.252   6.369  1.00  0.00     0.031 C 
ATOM     45  C   UNL     1       9.975   0.484   1.359  1.00  0.00     0.029 A 
ATOM     46  C   UNL     1      10.657   0.310   2.629  1.00  0.00     0.049 A 
ATOM     47  H   UNL     1      10.993   1.798   4.064  1.00  0.00     0.167 HD
ATOM     48  C   UNL     1      10.229   4.521   7.565  1.00  0.00     0.031 A 
ATOM     49  C   UNL     1      11.242  -0.794   3.165  1.00  0.00     0.031 A 
ATOM     50  C   UNL     1      11.605   4.739   7.193  1.00  0.00     0.049 A 
ATOM     51  C   UNL     1      12.039  -0.349   4.330  1.00  0.00     0.074 A 
ATOM     52  C   UNL     1      12.294   5.751   6.555  1.00  0.00     0.029 A 
ATOM     53  N   UNL     1      12.403   3.621   7.100  1.00  0.00    -0.354 N 
ATOM     54  N   UNL     1      13.105   0.391   4.229  1.00  0.00    -0.248 NA
ATOM     55  C   UNL     1      11.378  -0.322   5.626  1.00  0.00     0.031 C 
ATOM     56  C   UNL     1      13.218   5.080   5.700  1.00  0.00     0.029 A 
ATOM     57  C   UNL     1      13.110   3.708   5.930  1.00  0.00     0.049 A 
ATOM     58  H   UNL     1      12.456   2.890   7.757  1.00  0.00     0.167 HD
ATOM     59  C   UNL     1      12.991   1.308   5.262  1.00  0.00     0.074 A 
ATOM     60  C   UNL     1      11.961   0.762   6.147  1.00  0.00     0.031 C 
ATOM     61  C   UNL     1      13.515   2.564   5.144  1.00  0.00     0.031 A 
BRANCH  48  62
ATOM     62  C   UNL     1       9.860   3.827   8.858  1.00  0.00    -0.014 A 
ATOM     63  C   UNL     1      10.786   3.857   9.916  1.00  0.00     0.009 A 
ATOM     64  C   UNL     1       8.782   2.931   8.996  1.00  0.00     0.009 A 
ATOM     65  C   UNL     1      10.681   2.980  11.003  1.00  0.00     0.001 A 
ATOM     66  C   UNL     1       8.649   2.085  10.100  1.00  0.00     0.001 A 
ATOM     67  C   UNL     1       9.617   2.088  11.090  1.00  0.00     0.000 A 
ENDBRANCH  48  62
BRANCH  49  68
ATOM     68  C   UNL     1      10.936  -2.230   2.959  1.00  0.00    -0.014 A 
ATOM     69  C   UNL     1      11.874  -3.233   3.257  1.00  0.00     0.009 A 
ATOM     70  C   UNL     1       9.605  -2.629   2.758  1.00  0.00     0.009 A 
ATOM     71  C   UNL     1      11.488  -4.580   3.366  1.00  0.00     0.001 A 
ATOM     72  C   UNL     1       9.219  -3.970   2.884  1.00  0.00     0.001 A 
ATOM     73  C   UNL     1      10.158  -4.946   3.190  1.00  0.00     0.000 A 
ENDBRANCH  49  68
BRANCH  61  74
ATOM     74  C   UNL     1      14.400   2.851   3.954  1.00  0.00    -0.014 A 
ATOM     75  C   UNL     1      13.950   2.795   2.621  1.00  0.00     0.009 A 
ATOM     76  C   UNL     1      15.684   3.355   4.199  1.00  0.00     0.009 A 
ATOM     77  C   UNL     1      14.773   3.212   1.569  1.00  0.00     0.001 A 
ATOM     78  C   UNL     1      16.497   3.790   3.151  1.00  0.00     0.001 A 
ATOM     79  C   UNL     1      16.044   3.715   1.836  1.00  0.00     0.000 A 
ENDBRANCH  61  74
ENDBRANCH  35  36
ENDBRANCH  27  30
ENDBRANCH  25  26
ENDBRANCH  24  25
ENDBRANCH  23  24
ENDBRANCH   3  23
TORSDOF 15
