REMARK SMILES CCn1nc(C(=O)NCCCNC(=O)c2ccc(-c3c4nc(c(-c5ccccc5)c5ccc([nH]5)c(-c5ccccc5)c5nc(c(-c6ccccc6)c6ccc3[nH]6)C=C5)C=C4)cc2)c2c1CC[C@H]([NH2+]Cc1nn(CC)c3ccccc13)C2
REMARK SMILES IDX 9 1 8 2 6 3 7 4 5 6 3 7 4 8 64 9 63 10 65 11 81 12 66 13
REMARK SMILES IDX 67 14 2 15 1 16 68 17 69 20 70 21 71 22 80 23 72 24 75 25
REMARK SMILES IDX 79 26 76 27 78 28 77 29 73 30 74 31 10 32 11 33 12 34 13 35
REMARK SMILES IDX 14 37 15 38 16 39 62 40 17 41 61 42 18 43 19 44 20 45 55 46
REMARK SMILES IDX 21 47 60 48 54 49 56 50 22 51 59 52 53 53 52 54 23 56 45 57
REMARK SMILES IDX 30 58 44 59 31 60 34 61 43 62 57 63 32 64 33 65 42 67 58 68
REMARK SMILES IDX 35 69 24 70 25 71 29 72 26 73 28 74 27 75 46 76 47 77 51 78
REMARK SMILES IDX 48 79 50 80 49 81 36 82 37 83 41 84 38 85 40 86 39 87
REMARK H PARENT 8 5 68 18 68 19 12 36 56 55 34 66
REMARK Flexibility Score: inf
ROOT
ATOM      1  C   UNL     1       3.421   5.539   3.940  1.00  0.00     0.118 C 
ENDROOT
BRANCH   1   2
ATOM      2  N   UNL     1       2.989   5.063   2.612  1.00  0.00    -0.351 N 
ATOM      3  C   UNL     1       1.981   4.224   2.144  1.00  0.00     0.272 C 
ATOM      4  O   UNL     1       1.357   4.691   1.182  1.00  0.00    -0.267 OA
ATOM      5  H   UNL     1       3.545   5.425   1.885  1.00  0.00     0.163 HD
BRANCH   3   6
ATOM      6  C   UNL     1       1.772   2.819   2.589  1.00  0.00     0.153 A 
ATOM      7  N   UNL     1       1.259   0.727   2.380  1.00  0.00    -0.269 N 
ATOM      8  N   UNL     1       1.116   1.941   1.797  1.00  0.00    -0.167 NA
ATOM      9  C   UNL     1       1.903   0.805   3.581  1.00  0.00     0.043 A 
ATOM     10  C   UNL     1       2.179   2.133   3.751  1.00  0.00     0.012 A 
ATOM     11  C   UNL     1       2.329  -0.236   4.549  1.00  0.00     0.062 C 
ATOM     12  C   UNL     1       2.810   2.661   4.941  1.00  0.00     0.105 C 
ATOM     13  C   UNL     1       2.361   0.341   6.002  1.00  0.00     0.072 C 
ATOM     14  C   UNL     1       2.860   1.817   6.204  1.00  0.00     0.187 C 
BRANCH   7  15
ATOM     15  C   UNL     1       0.738  -0.440   1.684  1.00  0.00     0.141 C 
ATOM     16  C   UNL     1       1.036  -0.431   0.186  1.00  0.00     0.029 C 
ENDBRANCH   7  15
BRANCH  14  17
ATOM     17  N   UNL     1       2.208   2.493   7.384  1.00  0.00    -0.338 N 
ATOM     18  H   UNL     1       2.497   1.989   8.222  1.00  0.00     0.346 HD
ATOM     19  H   UNL     1       1.209   2.464   7.179  1.00  0.00     0.346 HD
BRANCH  17  20
ATOM     20  C   UNL     1       2.511   3.953   7.607  1.00  0.00     0.320 C 
BRANCH  20  21
ATOM     21  C   UNL     1       1.443   4.918   7.049  1.00  0.00     0.124 A 
ATOM     22  N   UNL     1       0.440   4.440   6.279  1.00  0.00    -0.171 NA
ATOM     23  C   UNL     1       1.382   6.364   7.078  1.00  0.00     0.029 A 
ATOM     24  N   UNL     1      -0.024   5.530   5.638  1.00  0.00    -0.265 N 
ATOM     25  C   UNL     1       0.649   6.682   5.938  1.00  0.00     0.069 A 
ATOM     26  C   UNL     1       1.881   7.454   7.821  1.00  0.00     0.012 A 
ATOM     27  C   UNL     1       0.582   7.957   5.358  1.00  0.00     0.028 A 
ATOM     28  C   UNL     1       1.631   8.773   7.365  1.00  0.00     0.001 A 
ATOM     29  C   UNL     1       1.062   9.014   6.115  1.00  0.00     0.002 A 
BRANCH  24  30
ATOM     30  C   UNL     1      -1.294   5.518   4.939  1.00  0.00     0.141 C 
ATOM     31  C   UNL     1      -1.150   5.460   3.433  1.00  0.00     0.029 C 
ENDBRANCH  24  30
ENDBRANCH  20  21
ENDBRANCH  17  20
ENDBRANCH  14  17
ENDBRANCH   3   6
ENDBRANCH   1   2
BRANCH   1  32
ATOM     32  C   UNL     1       4.902   5.271   4.285  1.00  0.00     0.042 C 
BRANCH  32  33
ATOM     33  C   UNL     1       5.599   6.270   5.223  1.00  0.00     0.118 C 
BRANCH  33  34
ATOM     34  N   UNL     1       5.268   6.191   6.659  1.00  0.00    -0.352 N 
ATOM     35  C   UNL     1       5.268   7.218   7.609  1.00  0.00     0.251 C 
ATOM     36  H   UNL     1       5.015   5.300   6.991  1.00  0.00     0.163 HD
ATOM     37  O   UNL     1       5.369   6.985   8.797  1.00  0.00    -0.269 OA
BRANCH  35  38
ATOM     38  C   UNL     1       5.094   8.604   7.126  1.00  0.00     0.039 A 
ATOM     39  C   UNL     1       5.732   9.717   7.671  1.00  0.00     0.014 A 
ATOM     40  C   UNL     1       4.275   8.738   6.015  1.00  0.00     0.014 A 
ATOM     41  C   UNL     1       5.648  10.927   6.975  1.00  0.00     0.010 A 
ATOM     42  C   UNL     1       4.285   9.871   5.264  1.00  0.00     0.010 A 
ATOM     43  C   UNL     1       4.967  10.970   5.742  1.00  0.00    -0.014 A 
BRANCH  43  44
ATOM     44  C   UNL     1       5.233  11.992   4.746  1.00  0.00     0.031 A 
ATOM     45  C   UNL     1       6.673  12.060   4.409  1.00  0.00     0.074 A 
ATOM     46  C   UNL     1       4.313  12.562   3.944  1.00  0.00     0.049 A 
ATOM     47  N   UNL     1       7.528  12.867   4.937  1.00  0.00    -0.248 NA
ATOM     48  C   UNL     1       7.282  10.987   3.602  1.00  0.00     0.031 C 
ATOM     49  C   UNL     1       2.872  12.312   3.858  1.00  0.00     0.029 A 
ATOM     50  N   UNL     1       4.524  13.446   2.938  1.00  0.00    -0.354 N 
ATOM     51  C   UNL     1       8.729  12.592   4.308  1.00  0.00     0.074 A 
ATOM     52  C   UNL     1       8.580  11.279   3.732  1.00  0.00     0.031 C 
ATOM     53  C   UNL     1       2.378  12.885   2.733  1.00  0.00     0.029 A 
ATOM     54  C   UNL     1       3.429  13.678   2.120  1.00  0.00     0.049 A 
ATOM     55  H   UNL     1       5.392  13.890   2.799  1.00  0.00     0.167 HD
ATOM     56  C   UNL     1       9.600  13.600   4.029  1.00  0.00     0.031 A 
ATOM     57  C   UNL     1       3.410  14.474   1.022  1.00  0.00     0.031 A 
ATOM     58  C   UNL     1       9.187  14.835   4.667  1.00  0.00     0.049 A 
ATOM     59  C   UNL     1       4.543  15.424   1.158  1.00  0.00     0.074 A 
ATOM     60  C   UNL     1       8.896  15.208   5.966  1.00  0.00     0.029 A 
ATOM     61  N   UNL     1       8.555  15.761   3.864  1.00  0.00    -0.354 N 
ATOM     62  N   UNL     1       4.593  16.340   2.081  1.00  0.00    -0.248 NA
ATOM     63  C   UNL     1       5.825  15.059   0.577  1.00  0.00     0.031 C 
ATOM     64  C   UNL     1       7.724  16.020   5.864  1.00  0.00     0.029 A 
ATOM     65  C   UNL     1       7.421  16.187   4.511  1.00  0.00     0.049 A 
ATOM     66  H   UNL     1       8.863  16.064   2.979  1.00  0.00     0.167 HD
ATOM     67  C   UNL     1       5.905  16.311   2.533  1.00  0.00     0.074 A 
ATOM     68  C   UNL     1       6.642  15.595   1.490  1.00  0.00     0.031 C 
ATOM     69  C   UNL     1       6.208  16.602   3.834  1.00  0.00     0.031 A 
BRANCH  56  70
ATOM     70  C   UNL     1      10.524  13.599   2.839  1.00  0.00    -0.014 A 
ATOM     71  C   UNL     1      11.425  14.667   2.697  1.00  0.00     0.009 A 
ATOM     72  C   UNL     1      10.373  12.747   1.727  1.00  0.00     0.009 A 
ATOM     73  C   UNL     1      12.077  14.913   1.483  1.00  0.00     0.001 A 
ATOM     74  C   UNL     1      11.053  12.965   0.527  1.00  0.00     0.001 A 
ATOM     75  C   UNL     1      11.883  14.066   0.396  1.00  0.00     0.000 A 
ENDBRANCH  56  70
BRANCH  57  76
ATOM     76  C   UNL     1       2.637  14.357  -0.231  1.00  0.00    -0.014 A 
ATOM     77  C   UNL     1       2.545  15.444  -1.116  1.00  0.00     0.009 A 
ATOM     78  C   UNL     1       2.251  13.091  -0.705  1.00  0.00     0.009 A 
ATOM     79  C   UNL     1       2.141  15.260  -2.445  1.00  0.00     0.001 A 
ATOM     80  C   UNL     1       1.845  12.908  -2.032  1.00  0.00     0.001 A 
ATOM     81  C   UNL     1       1.811  13.989  -2.908  1.00  0.00     0.000 A 
ENDBRANCH  57  76
BRANCH  69  82
ATOM     82  C   UNL     1       5.114  17.205   4.691  1.00  0.00    -0.014 A 
ATOM     83  C   UNL     1       3.866  16.592   4.915  1.00  0.00     0.009 A 
ATOM     84  C   UNL     1       5.391  18.394   5.381  1.00  0.00     0.009 A 
ATOM     85  C   UNL     1       2.912  17.178   5.757  1.00  0.00     0.001 A 
ATOM     86  C   UNL     1       4.450  18.967   6.241  1.00  0.00     0.001 A 
ATOM     87  C   UNL     1       3.206  18.366   6.419  1.00  0.00     0.000 A 
ENDBRANCH  69  82
ENDBRANCH  43  44
ENDBRANCH  35  38
ENDBRANCH  33  34
ENDBRANCH  32  33
ENDBRANCH   1  32
TORSDOF 15
