REMARK SMILES CCCCOC(=O)[C@@H]1[C@H]2c3ccccc3[C@H](c3ccccc32)[C@@H]1C(=O)NCCCNC(=O)c1ccc(-c2c3nc(c(-c4ccccc4)c4ccc([nH]4)c(-c4ccccc4)c4nc(c(-c5ccccc5)c5ccc2[nH]5)C=C4)C=C3)cc1
REMARK SMILES IDX 24 1 25 2 26 3 23 5 8 6 9 7 22 8 10 9 16 10 21 11 17 12
REMARK SMILES IDX 15 13 11 14 20 15 18 16 14 17 12 18 19 19 13 20 6 21 7 22
REMARK SMILES IDX 5 23 4 24 3 25 2 26 1 27 27 28 28 29 29 30 30 31 31 32 32 34
REMARK SMILES IDX 33 35 34 36 80 37 35 38 79 39 36 40 37 41 38 42 73 43 39 44
REMARK SMILES IDX 78 45 72 46 74 47 40 48 77 49 71 50 70 51 41 53 63 54 48 55
REMARK SMILES IDX 62 56 49 57 52 58 61 59 75 60 50 61 51 62 60 64 76 65 53 66
REMARK SMILES IDX 42 67 43 68 47 69 44 70 46 71 45 72 64 73 65 74 69 75 66 76
REMARK SMILES IDX 68 77 67 78 54 79 55 80 59 81 56 82 58 83 57 84
REMARK H PARENT 26 4 30 33 74 52 52 63
REMARK Flexibility Score: inf
ROOT
ATOM      1  C   UNL     1      -4.526   0.323   0.749  1.00  0.00     0.224 C 
ATOM      2  O   UNL     1      -4.213   0.729   1.876  1.00  0.00    -0.275 OA
ATOM      3  N   UNL     1      -5.649   0.864   0.223  1.00  0.00    -0.356 N 
ATOM      4  H   UNL     1      -6.151   1.433   0.850  1.00  0.00     0.163 HD
ENDROOT
BRANCH   1   5
ATOM      5  C   UNL     1      -3.696  -0.793   0.115  1.00  0.00     0.105 C 
ATOM      6  C   UNL     1      -3.051  -0.661  -1.309  1.00  0.00     0.124 C 
ATOM      7  C   UNL     1      -3.398  -1.931  -2.155  1.00  0.00     0.065 C 
ATOM      8  C   UNL     1      -4.904  -2.208  -2.123  1.00  0.00    -0.036 A 
ATOM      9  C   UNL     1      -2.787  -3.109  -1.359  1.00  0.00    -0.036 A 
ATOM     10  C   UNL     1      -4.378  -2.182   0.289  1.00  0.00     0.063 C 
ATOM     11  C   UNL     1      -5.706  -2.463  -3.229  1.00  0.00     0.004 A 
ATOM     12  C   UNL     1      -5.418  -2.386  -0.809  1.00  0.00    -0.036 A 
ATOM     13  C   UNL     1      -3.297  -3.217  -0.030  1.00  0.00    -0.036 A 
ATOM     14  C   UNL     1      -1.938  -4.084  -1.859  1.00  0.00     0.004 A 
ATOM     15  C   UNL     1      -7.009  -2.927  -3.021  1.00  0.00     0.000 A 
ATOM     16  C   UNL     1      -6.700  -2.886  -0.608  1.00  0.00     0.004 A 
ATOM     17  C   UNL     1      -2.929  -4.266   0.800  1.00  0.00     0.004 A 
ATOM     18  C   UNL     1      -1.585  -5.150  -1.025  1.00  0.00     0.000 A 
ATOM     19  C   UNL     1      -7.496  -3.153  -1.723  1.00  0.00     0.000 A 
ATOM     20  C   UNL     1      -2.066  -5.235   0.292  1.00  0.00     0.000 A 
BRANCH   6  21
ATOM     21  C   UNL     1      -3.175   0.699  -1.968  1.00  0.00     0.310 C 
ATOM     22  O   UNL     1      -3.357   1.740  -1.340  1.00  0.00    -0.252 OA
BRANCH  21  23
ATOM     23  O   UNL     1      -2.903   0.670  -3.299  1.00  0.00    -0.465 OA
BRANCH  23  24
ATOM     24  C   UNL     1      -2.753   1.958  -3.938  1.00  0.00     0.233 C 
BRANCH  24  25
ATOM     25  C   UNL     1      -3.842   2.176  -4.986  1.00  0.00     0.041 C 
BRANCH  25  26
ATOM     26  C   UNL     1      -5.267   2.162  -4.430  1.00  0.00     0.000 C 
ATOM     27  C   UNL     1      -5.601   3.410  -3.627  1.00  0.00     0.004 C 
ENDBRANCH  25  26
ENDBRANCH  24  25
ENDBRANCH  23  24
ENDBRANCH  21  23
ENDBRANCH   6  21
ENDBRANCH   1   5
BRANCH   3  28
ATOM     28  C   UNL     1      -6.252   0.764  -1.089  1.00  0.00     0.117 C 
BRANCH  28  29
ATOM     29  C   UNL     1      -7.672   0.236  -1.027  1.00  0.00     0.042 C 
BRANCH  29  30
ATOM     30  C   UNL     1      -8.702   1.345  -1.099  1.00  0.00     0.118 C 
BRANCH  30  31
ATOM     31  N   UNL     1      -9.018   1.711  -2.480  1.00  0.00    -0.352 N 
ATOM     32  C   UNL     1     -10.097   1.432  -3.288  1.00  0.00     0.251 C 
ATOM     33  H   UNL     1      -8.327   2.261  -2.914  1.00  0.00     0.163 HD
ATOM     34  O   UNL     1     -10.034   1.699  -4.486  1.00  0.00    -0.269 OA
BRANCH  32  35
ATOM     35  C   UNL     1     -11.304   0.766  -2.750  1.00  0.00     0.039 A 
ATOM     36  C   UNL     1     -11.721   0.987  -1.444  1.00  0.00     0.014 A 
ATOM     37  C   UNL     1     -12.027  -0.118  -3.558  1.00  0.00     0.014 A 
ATOM     38  C   UNL     1     -12.634   0.125  -0.860  1.00  0.00     0.010 A 
ATOM     39  C   UNL     1     -13.082  -0.860  -3.012  1.00  0.00     0.010 A 
ATOM     40  C   UNL     1     -13.345  -0.801  -1.635  1.00  0.00    -0.014 A 
BRANCH  40  41
ATOM     41  C   UNL     1     -14.346  -1.683  -0.975  1.00  0.00     0.031 A 
ATOM     42  C   UNL     1     -14.226  -3.185  -1.057  1.00  0.00     0.074 A 
ATOM     43  C   UNL     1     -15.319  -1.125  -0.224  1.00  0.00     0.049 A 
ATOM     44  N   UNL     1     -15.005  -4.099  -0.535  1.00  0.00    -0.248 NA
ATOM     45  C   UNL     1     -13.095  -3.738  -1.823  1.00  0.00     0.031 C 
ATOM     46  C   UNL     1     -15.515   0.316  -0.032  1.00  0.00     0.029 A 
ATOM     47  N   UNL     1     -16.293  -1.692   0.560  1.00  0.00    -0.354 N 
ATOM     48  C   UNL     1     -14.476  -5.323  -0.930  1.00  0.00     0.074 A 
ATOM     49  C   UNL     1     -13.331  -5.041  -1.763  1.00  0.00     0.031 C 
ATOM     50  C   UNL     1     -16.468   0.515   0.887  1.00  0.00     0.029 A 
ATOM     51  C   UNL     1     -17.035  -0.773   1.264  1.00  0.00     0.049 A 
ATOM     52  H   UNL     1     -16.445  -2.663   0.613  1.00  0.00     0.167 HD
ATOM     53  C   UNL     1     -14.901  -6.569  -0.612  1.00  0.00     0.031 A 
ATOM     54  C   UNL     1     -18.072  -0.936   2.108  1.00  0.00     0.031 A 
ATOM     55  C   UNL     1     -16.029  -6.841   0.240  1.00  0.00     0.049 A 
ATOM     56  C   UNL     1     -18.563  -2.327   2.384  1.00  0.00     0.074 A 
ATOM     57  C   UNL     1     -16.543  -8.071   0.612  1.00  0.00     0.029 A 
ATOM     58  N   UNL     1     -16.804  -5.876   0.864  1.00  0.00    -0.354 N 
ATOM     59  N   UNL     1     -18.068  -3.470   1.976  1.00  0.00    -0.248 NA
ATOM     60  C   UNL     1     -19.756  -2.454   3.232  1.00  0.00     0.031 C 
ATOM     61  C   UNL     1     -17.667  -7.850   1.408  1.00  0.00     0.029 A 
ATOM     62  C   UNL     1     -17.802  -6.485   1.605  1.00  0.00     0.049 A 
ATOM     63  H   UNL     1     -16.666  -4.904   0.791  1.00  0.00     0.167 HD
ATOM     64  C   UNL     1     -18.868  -4.453   2.542  1.00  0.00     0.074 A 
ATOM     65  C   UNL     1     -19.870  -3.772   3.336  1.00  0.00     0.031 C 
ATOM     66  C   UNL     1     -18.779  -5.798   2.410  1.00  0.00     0.031 A 
BRANCH  53  67
ATOM     67  C   UNL     1     -14.157  -7.750  -1.178  1.00  0.00    -0.014 A 
ATOM     68  C   UNL     1     -14.799  -8.607  -2.088  1.00  0.00     0.009 A 
ATOM     69  C   UNL     1     -12.875  -8.090  -0.719  1.00  0.00     0.009 A 
ATOM     70  C   UNL     1     -14.188  -9.792  -2.502  1.00  0.00     0.001 A 
ATOM     71  C   UNL     1     -12.252  -9.259  -1.161  1.00  0.00     0.001 A 
ATOM     72  C   UNL     1     -12.914 -10.116  -2.040  1.00  0.00     0.000 A 
ENDBRANCH  53  67
BRANCH  54  73
ATOM     73  C   UNL     1     -18.702   0.252   2.747  1.00  0.00    -0.014 A 
ATOM     74  C   UNL     1     -19.345   1.232   1.970  1.00  0.00     0.009 A 
ATOM     75  C   UNL     1     -18.629   0.438   4.136  1.00  0.00     0.009 A 
ATOM     76  C   UNL     1     -19.867   2.384   2.563  1.00  0.00     0.001 A 
ATOM     77  C   UNL     1     -19.190   1.571   4.731  1.00  0.00     0.001 A 
ATOM     78  C   UNL     1     -19.796   2.548   3.944  1.00  0.00     0.000 A 
ENDBRANCH  54  73
BRANCH  66  79
ATOM     79  C   UNL     1     -19.756  -6.648   3.175  1.00  0.00    -0.014 A 
ATOM     80  C   UNL     1     -19.285  -7.488   4.198  1.00  0.00     0.009 A 
ATOM     81  C   UNL     1     -21.109  -6.712   2.812  1.00  0.00     0.009 A 
ATOM     82  C   UNL     1     -20.142  -8.390   4.827  1.00  0.00     0.001 A 
ATOM     83  C   UNL     1     -21.974  -7.590   3.470  1.00  0.00     0.001 A 
ATOM     84  C   UNL     1     -21.487  -8.437   4.466  1.00  0.00     0.000 A 
ENDBRANCH  66  79
ENDBRANCH  40  41
ENDBRANCH  32  35
ENDBRANCH  30  31
ENDBRANCH  29  30
ENDBRANCH  28  29
ENDBRANCH   3  28
TORSDOF 15
