REMARK SMILES CN(C)S(=O)(=O)c1ccc(-n2c(CCC(=O)NCCCNC(=O)c3ccc(-c4c5nc(c(-c6ccccc6)c6ccc([nH]6)c(-c6ccccc6)c6nc(c(-c7ccccc7)c7ccc4[nH]7)C=C6)C=C5)cc3)ccc2-c2ccc(F)cc2)cc1
REMARK SMILES IDX 15 1 16 2 17 3 14 5 13 6 12 7 11 8 74 9 72 10 73 11 10 12
REMARK SMILES IDX 7 13 8 14 83 15 9 16 82 17 4 18 5 19 6 20 2 21 1 22 3 23
REMARK SMILES IDX 75 24 76 25 81 26 77 27 80 28 78 29 79 30 18 31 19 32 20 33
REMARK SMILES IDX 21 34 22 35 23 37 24 38 25 39 71 40 26 41 70 42 27 43 28 44
REMARK SMILES IDX 29 45 64 46 30 47 69 48 63 49 65 50 31 51 68 52 62 53 61 54
REMARK SMILES IDX 32 56 54 57 39 58 53 59 40 60 43 61 52 62 66 63 41 64 42 65
REMARK SMILES IDX 51 67 67 68 44 69 33 70 34 71 38 72 35 73 37 74 36 75 55 76
REMARK SMILES IDX 56 77 60 78 57 79 59 80 58 81 45 82 46 83 50 84 47 85 49 86
REMARK SMILES IDX 48 87
REMARK H PARENT 17 4 21 36 65 55 43 66
REMARK Flexibility Score: inf
ROOT
ATOM      1  C   UNL     1       0.306  -5.904   6.466  1.00  0.00     0.220 C 
ATOM      2  O   UNL     1       1.134  -6.312   5.644  1.00  0.00    -0.275 OA
ATOM      3  N   UNL     1      -0.900  -5.473   5.970  1.00  0.00    -0.356 N 
ATOM      4  H   UNL     1      -0.919  -5.368   4.991  1.00  0.00     0.163 HD
ENDROOT
BRANCH   1   5
ATOM      5  C   UNL     1       0.710  -5.794   7.938  1.00  0.00     0.106 C 
BRANCH   5   6
ATOM      6  C   UNL     1       1.521  -4.539   8.348  1.00  0.00     0.064 C 
BRANCH   6   7
ATOM      7  C   UNL     1       0.651  -3.419   8.857  1.00  0.00     0.024 A 
ATOM      8  N   UNL     1       0.321  -2.191   8.225  1.00  0.00    -0.314 N 
ATOM      9  C   UNL     1      -0.478  -1.494   9.200  1.00  0.00     0.053 A 
ATOM     10  C   UNL     1       0.078  -3.460  10.117  1.00  0.00     0.024 A 
ATOM     11  C   UNL     1      -0.642  -2.291  10.317  1.00  0.00     0.029 A 
BRANCH   8  12
ATOM     12  C   UNL     1       0.616  -1.831   6.807  1.00  0.00     0.046 A 
ATOM     13  C   UNL     1       0.979  -1.433   3.943  1.00  0.00     0.082 A 
ATOM     14  C   UNL     1       0.747  -0.351   4.793  1.00  0.00     0.024 A 
ATOM     15  C   UNL     1       1.080  -2.682   4.520  1.00  0.00     0.024 A 
ATOM     16  C   UNL     1       0.590  -0.558   6.219  1.00  0.00     0.028 A 
ATOM     17  C   UNL     1       0.917  -2.839   5.897  1.00  0.00     0.028 A 
BRANCH  13  18
ATOM     18  S   UNL     1       1.293  -1.418   2.187  1.00  0.00     0.242 S 
ATOM     19  O   UNL     1       0.728  -2.630   1.652  1.00  0.00    -0.207 OA
ATOM     20  O   UNL     1       2.717  -1.131   2.038  1.00  0.00    -0.207 OA
BRANCH  18  21
ATOM     21  N   UNL     1       0.433  -0.143   1.442  1.00  0.00    -0.204 NA
ATOM     22  C   UNL     1       0.856   0.001   0.009  1.00  0.00     0.124 C 
ATOM     23  C   UNL     1      -1.038  -0.286   1.484  1.00  0.00     0.124 C 
ENDBRANCH  18  21
ENDBRANCH  13  18
ENDBRANCH   8  12
BRANCH   9  24
ATOM     24  C   UNL     1      -1.415  -0.418   8.910  1.00  0.00    -0.001 A 
ATOM     25  C   UNL     1      -1.098   0.933   9.015  1.00  0.00     0.013 A 
ATOM     26  C   UNL     1      -2.470  -0.821   8.140  1.00  0.00     0.013 A 
ATOM     27  C   UNL     1      -1.501   1.774   7.985  1.00  0.00     0.040 A 
ATOM     28  C   UNL     1      -2.492  -0.149   6.964  1.00  0.00     0.040 A 
ATOM     29  C   UNL     1      -2.035   1.155   6.873  1.00  0.00     0.123 A 
ATOM     30  F   UNL     1      -1.820   1.680   5.665  1.00  0.00    -0.207 F 
ENDBRANCH   9  24
ENDBRANCH   6   7
ENDBRANCH   5   6
ENDBRANCH   1   5
BRANCH   3  31
ATOM     31  C   UNL     1      -2.156  -5.143   6.631  1.00  0.00     0.117 C 
BRANCH  31  32
ATOM     32  C   UNL     1      -2.748  -3.731   6.385  1.00  0.00     0.042 C 
BRANCH  32  33
ATOM     33  C   UNL     1      -3.597  -3.349   5.129  1.00  0.00     0.118 C 
BRANCH  33  34
ATOM     34  N   UNL     1      -4.942  -2.805   5.513  1.00  0.00    -0.352 N 
ATOM     35  C   UNL     1      -5.792  -1.744   5.203  1.00  0.00     0.251 C 
ATOM     36  H   UNL     1      -5.354  -3.378   6.199  1.00  0.00     0.163 HD
ATOM     37  O   UNL     1      -6.913  -1.772   5.715  1.00  0.00    -0.269 OA
BRANCH  35  38
ATOM     38  C   UNL     1      -5.479  -0.572   4.324  1.00  0.00     0.039 A 
ATOM     39  C   UNL     1      -6.417   0.373   3.906  1.00  0.00     0.014 A 
ATOM     40  C   UNL     1      -4.178  -0.180   4.147  1.00  0.00     0.014 A 
ATOM     41  C   UNL     1      -6.006   1.552   3.231  1.00  0.00     0.010 A 
ATOM     42  C   UNL     1      -3.724   0.855   3.361  1.00  0.00     0.010 A 
ATOM     43  C   UNL     1      -4.652   1.764   2.917  1.00  0.00    -0.014 A 
BRANCH  43  44
ATOM     44  C   UNL     1      -4.118   2.890   2.120  1.00  0.00     0.031 A 
ATOM     45  C   UNL     1      -3.410   4.020   2.917  1.00  0.00     0.074 A 
ATOM     46  C   UNL     1      -4.232   2.674   0.775  1.00  0.00     0.049 A 
ATOM     47  N   UNL     1      -3.055   5.215   2.553  1.00  0.00    -0.248 NA
ATOM     48  C   UNL     1      -3.010   3.793   4.327  1.00  0.00     0.031 C 
ATOM     49  C   UNL     1      -4.777   1.431   0.165  1.00  0.00     0.029 A 
ATOM     50  N   UNL     1      -3.932   3.407  -0.347  1.00  0.00    -0.354 N 
ATOM     51  C   UNL     1      -2.319   5.822   3.610  1.00  0.00     0.074 A 
ATOM     52  C   UNL     1      -2.281   4.862   4.668  1.00  0.00     0.031 C 
ATOM     53  C   UNL     1      -4.906   1.562  -1.169  1.00  0.00     0.029 A 
ATOM     54  C   UNL     1      -4.460   2.881  -1.554  1.00  0.00     0.049 A 
ATOM     55  H   UNL     1      -3.393   4.231  -0.316  1.00  0.00     0.167 HD
ATOM     56  C   UNL     1      -1.776   7.077   3.531  1.00  0.00     0.031 A 
ATOM     57  C   UNL     1      -4.621   3.501  -2.759  1.00  0.00     0.031 A 
ATOM     58  C   UNL     1      -2.231   7.716   2.348  1.00  0.00     0.049 A 
ATOM     59  C   UNL     1      -4.020   4.828  -2.599  1.00  0.00     0.074 A 
ATOM     60  C   UNL     1      -3.462   8.199   1.987  1.00  0.00     0.029 A 
ATOM     61  N   UNL     1      -1.457   7.564   1.229  1.00  0.00    -0.354 N 
ATOM     62  N   UNL     1      -2.748   5.071  -2.559  1.00  0.00    -0.248 NA
ATOM     63  C   UNL     1      -4.911   5.966  -2.341  1.00  0.00     0.031 C 
ATOM     64  C   UNL     1      -3.577   7.757   0.653  1.00  0.00     0.029 A 
ATOM     65  C   UNL     1      -2.334   7.289   0.210  1.00  0.00     0.049 A 
ATOM     66  H   UNL     1      -0.477   7.636   1.168  1.00  0.00     0.167 HD
ATOM     67  C   UNL     1      -2.705   6.280  -1.913  1.00  0.00     0.074 A 
ATOM     68  C   UNL     1      -3.998   6.902  -2.102  1.00  0.00     0.031 C 
ATOM     69  C   UNL     1      -1.859   6.467  -0.871  1.00  0.00     0.031 A 
BRANCH  56  70
ATOM     70  C   UNL     1      -0.747   7.839   4.331  1.00  0.00    -0.014 A 
ATOM     71  C   UNL     1      -0.683   9.246   4.133  1.00  0.00     0.009 A 
ATOM     72  C   UNL     1       0.356   7.236   4.939  1.00  0.00     0.009 A 
ATOM     73  C   UNL     1       0.472   9.987   4.392  1.00  0.00     0.001 A 
ATOM     74  C   UNL     1       1.507   7.991   5.238  1.00  0.00     0.001 A 
ATOM     75  C   UNL     1       1.580   9.351   4.927  1.00  0.00     0.000 A 
ENDBRANCH  56  70
BRANCH  57  76
ATOM     76  C   UNL     1      -5.381   3.253  -4.032  1.00  0.00    -0.014 A 
ATOM     77  C   UNL     1      -5.958   2.045  -4.428  1.00  0.00     0.009 A 
ATOM     78  C   UNL     1      -5.617   4.357  -4.897  1.00  0.00     0.009 A 
ATOM     79  C   UNL     1      -6.810   1.982  -5.552  1.00  0.00     0.001 A 
ATOM     80  C   UNL     1      -6.495   4.314  -5.980  1.00  0.00     0.001 A 
ATOM     81  C   UNL     1      -7.110   3.120  -6.299  1.00  0.00     0.000 A 
ENDBRANCH  57  76
BRANCH  69  82
ATOM     82  C   UNL     1      -0.683   5.505  -0.788  1.00  0.00    -0.014 A 
ATOM     83  C   UNL     1       0.213   5.421  -1.865  1.00  0.00     0.009 A 
ATOM     84  C   UNL     1      -0.471   4.626   0.292  1.00  0.00     0.009 A 
ATOM     85  C   UNL     1       1.270   4.502  -1.870  1.00  0.00     0.001 A 
ATOM     86  C   UNL     1       0.597   3.715   0.299  1.00  0.00     0.001 A 
ATOM     87  C   UNL     1       1.468   3.654  -0.785  1.00  0.00     0.000 A 
ENDBRANCH  69  82
ENDBRANCH  43  44
ENDBRANCH  35  38
ENDBRANCH  33  34
ENDBRANCH  32  33
ENDBRANCH  31  32
ENDBRANCH   3  31
TORSDOF 16
