REMARK SMILES C[C@](Nc1ccc(C(N)=O)nn1)(C(=O)NCCCNC(=O)c1ccc(-c2c3nc(c(-c4ccccc4)c4ccc([nH]4)c(-c4ccccc4)c4nc(c(-c5ccccc5)c5ccc2[nH]5)C=C4)C=C3)cc1)c1ccccc1
REMARK SMILES IDX 16 1 15 2 13 3 14 4 2 6 1 7 70 8 71 9 75 10 72 11 74 12
REMARK SMILES IDX 73 13 3 14 4 16 5 17 12 18 6 19 11 20 7 21 8 22 9 23 10 24
REMARK SMILES IDX 17 27 18 28 19 29 20 30 21 32 22 33 23 34 69 35 24 36 68 37
REMARK SMILES IDX 25 38 26 39 27 40 62 41 28 42 67 43 61 44 63 45 29 46 66 47
REMARK SMILES IDX 60 48 59 49 30 51 52 52 37 53 51 54 38 55 41 56 50 57 64 58
REMARK SMILES IDX 39 59 40 60 49 62 65 63 42 64 31 65 32 66 36 67 33 68 35 69
REMARK SMILES IDX 34 70 53 71 54 72 58 73 55 74 57 75 56 76 43 77 44 78 48 79
REMARK SMILES IDX 45 80 47 81 46 82
REMARK H PARENT 15 5 3 15 9 25 9 26 19 31 63 50 41 61
REMARK Flexibility Score: inf
ROOT
ATOM      1  C   UNL     1      -0.981   2.038   1.108  1.00  0.00     0.117 C 
ENDROOT
BRANCH   1   2
ATOM      2  N   UNL     1      -1.523   0.690   1.181  1.00  0.00    -0.354 N 
ATOM      3  C   UNL     1      -0.939  -0.530   1.406  1.00  0.00     0.250 C 
ATOM      4  O   UNL     1      -1.740  -1.447   1.613  1.00  0.00    -0.272 OA
ATOM      5  H   UNL     1      -2.497   0.645   1.041  1.00  0.00     0.163 HD
BRANCH   3   6
ATOM      6  C   UNL     1       0.651  -0.710   1.422  1.00  0.00     0.140 C 
ATOM      7  C   UNL     1       1.094   0.089   2.680  1.00  0.00     0.051 C 
BRANCH   6   8
ATOM      8  C   UNL     1       1.058  -2.208   1.475  1.00  0.00    -0.013 A 
ATOM      9  C   UNL     1       0.365  -3.181   0.727  1.00  0.00     0.007 A 
ATOM     10  C   UNL     1       2.166  -2.667   2.219  1.00  0.00     0.007 A 
ATOM     11  C   UNL     1       0.715  -4.536   0.777  1.00  0.00     0.000 A 
ATOM     12  C   UNL     1       2.543  -4.013   2.238  1.00  0.00     0.000 A 
ATOM     13  C   UNL     1       1.806  -4.952   1.531  1.00  0.00     0.000 A 
ENDBRANCH   6   8
BRANCH   6  14
ATOM     14  N   UNL     1       1.169  -0.130   0.151  1.00  0.00    -0.351 N 
ATOM     15  H   UNL     1       0.609  -0.200  -0.656  1.00  0.00     0.163 HD
BRANCH  14  16
ATOM     16  C   UNL     1       2.392   0.497   0.044  1.00  0.00     0.149 A 
ATOM     17  C   UNL     1       3.585  -0.102   0.408  1.00  0.00     0.051 A 
ATOM     18  N   UNL     1       2.394   1.774  -0.402  1.00  0.00    -0.132 NA
ATOM     19  C   UNL     1       4.766   0.633   0.399  1.00  0.00     0.040 A 
ATOM     20  N   UNL     1       3.554   2.521  -0.416  1.00  0.00    -0.143 NA
ATOM     21  C   UNL     1       4.708   1.952  -0.001  1.00  0.00     0.150 A 
BRANCH  21  22
ATOM     22  C   UNL     1       5.926   2.806   0.033  1.00  0.00     0.269 C 
ATOM     23  N   UNL     1       5.801   4.076  -0.460  1.00  0.00    -0.364 N 
ATOM     24  O   UNL     1       6.990   2.400   0.487  1.00  0.00    -0.268 OA
ATOM     25  H   UNL     1       4.937   4.381  -0.820  1.00  0.00     0.160 HD
ATOM     26  H   UNL     1       6.575   4.684  -0.455  1.00  0.00     0.160 HD
ENDBRANCH  21  22
ENDBRANCH  14  16
ENDBRANCH   6  14
ENDBRANCH   3   6
ENDBRANCH   1   2
BRANCH   1  27
ATOM     27  C   UNL     1      -1.425   2.777  -0.143  1.00  0.00     0.042 C 
BRANCH  27  28
ATOM     28  C   UNL     1      -2.930   2.976  -0.247  1.00  0.00     0.118 C 
BRANCH  28  29
ATOM     29  N   UNL     1      -3.468   3.824   0.809  1.00  0.00    -0.352 N 
ATOM     30  C   UNL     1      -4.048   5.067   0.732  1.00  0.00     0.251 C 
ATOM     31  H   UNL     1      -3.405   3.448   1.717  1.00  0.00     0.163 HD
ATOM     32  O   UNL     1      -4.283   5.700   1.757  1.00  0.00    -0.269 OA
BRANCH  30  33
ATOM     33  C   UNL     1      -4.360   5.656  -0.587  1.00  0.00     0.039 A 
ATOM     34  C   UNL     1      -4.018   6.988  -0.832  1.00  0.00     0.014 A 
ATOM     35  C   UNL     1      -4.966   4.891  -1.585  1.00  0.00     0.014 A 
ATOM     36  C   UNL     1      -4.198   7.522  -2.110  1.00  0.00     0.010 A 
ATOM     37  C   UNL     1      -5.059   5.393  -2.877  1.00  0.00     0.010 A 
ATOM     38  C   UNL     1      -4.669   6.711  -3.156  1.00  0.00    -0.014 A 
BRANCH  38  39
ATOM     39  C   UNL     1      -4.739   7.209  -4.553  1.00  0.00     0.031 A 
ATOM     40  C   UNL     1      -6.061   7.279  -5.266  1.00  0.00     0.074 A 
ATOM     41  C   UNL     1      -3.602   7.516  -5.208  1.00  0.00     0.049 A 
ATOM     42  N   UNL     1      -6.310   7.595  -6.512  1.00  0.00    -0.248 NA
ATOM     43  C   UNL     1      -7.256   6.924  -4.485  1.00  0.00     0.031 C 
ATOM     44  C   UNL     1      -2.252   7.455  -4.642  1.00  0.00     0.029 A 
ATOM     45  N   UNL     1      -3.399   7.929  -6.502  1.00  0.00    -0.354 N 
ATOM     46  C   UNL     1      -7.684   7.459  -6.667  1.00  0.00     0.074 A 
ATOM     47  C   UNL     1      -8.208   6.984  -5.405  1.00  0.00     0.031 C 
ATOM     48  C   UNL     1      -1.366   7.842  -5.574  1.00  0.00     0.029 A 
ATOM     49  C   UNL     1      -2.076   8.128  -6.816  1.00  0.00     0.049 A 
ATOM     50  H   UNL     1      -4.132   8.071  -7.143  1.00  0.00     0.167 HD
ATOM     51  C   UNL     1      -8.444   7.722  -7.756  1.00  0.00     0.031 A 
ATOM     52  C   UNL     1      -1.496   8.484  -7.978  1.00  0.00     0.031 A 
ATOM     53  C   UNL     1      -7.923   8.197  -9.010  1.00  0.00     0.049 A 
ATOM     54  C   UNL     1      -2.359   8.732  -9.183  1.00  0.00     0.074 A 
ATOM     55  C   UNL     1      -8.619   8.546 -10.154  1.00  0.00     0.029 A 
ATOM     56  N   UNL     1      -6.578   8.381  -9.287  1.00  0.00    -0.354 N 
ATOM     57  N   UNL     1      -3.664   8.668  -9.292  1.00  0.00    -0.248 NA
ATOM     58  C   UNL     1      -1.668   9.107 -10.425  1.00  0.00     0.031 C 
ATOM     59  C   UNL     1      -7.691   8.881 -11.144  1.00  0.00     0.029 A 
ATOM     60  C   UNL     1      -6.420   8.806 -10.596  1.00  0.00     0.049 A 
ATOM     61  H   UNL     1      -5.843   8.232  -8.649  1.00  0.00     0.167 HD
ATOM     62  C   UNL     1      -3.952   9.020 -10.605  1.00  0.00     0.074 A 
ATOM     63  C   UNL     1      -2.687   9.313 -11.248  1.00  0.00     0.031 C 
ATOM     64  C   UNL     1      -5.156   9.092 -11.223  1.00  0.00     0.031 A 
BRANCH  51  65
ATOM     65  C   UNL     1      -9.926   7.489  -7.640  1.00  0.00    -0.014 A 
ATOM     66  C   UNL     1     -10.732   8.304  -6.829  1.00  0.00     0.009 A 
ATOM     67  C   UNL     1     -10.531   6.462  -8.382  1.00  0.00     0.009 A 
ATOM     68  C   UNL     1     -12.105   8.071  -6.734  1.00  0.00     0.001 A 
ATOM     69  C   UNL     1     -11.909   6.252  -8.310  1.00  0.00     0.001 A 
ATOM     70  C   UNL     1     -12.693   7.050  -7.479  1.00  0.00     0.000 A 
ENDBRANCH  51  65
BRANCH  52  71
ATOM     71  C   UNL     1      -0.018   8.627  -8.062  1.00  0.00    -0.014 A 
ATOM     72  C   UNL     1       0.567   9.890  -8.238  1.00  0.00     0.009 A 
ATOM     73  C   UNL     1       0.816   7.500  -7.978  1.00  0.00     0.009 A 
ATOM     74  C   UNL     1       1.953  10.019  -8.357  1.00  0.00     0.001 A 
ATOM     75  C   UNL     1       2.203   7.636  -8.065  1.00  0.00     0.001 A 
ATOM     76  C   UNL     1       2.770   8.894  -8.265  1.00  0.00     0.000 A 
ENDBRANCH  52  71
BRANCH  64  77
ATOM     77  C   UNL     1      -5.169   9.535 -12.659  1.00  0.00    -0.014 A 
ATOM     78  C   UNL     1      -4.699   8.701 -13.685  1.00  0.00     0.009 A 
ATOM     79  C   UNL     1      -5.707  10.788 -12.994  1.00  0.00     0.009 A 
ATOM     80  C   UNL     1      -4.742   9.126 -15.015  1.00  0.00     0.001 A 
ATOM     81  C   UNL     1      -5.778  11.197 -14.326  1.00  0.00     0.001 A 
ATOM     82  C   UNL     1      -5.287  10.369 -15.335  1.00  0.00     0.000 A 
ENDBRANCH  64  77
ENDBRANCH  38  39
ENDBRANCH  30  33
ENDBRANCH  28  29
ENDBRANCH  27  28
ENDBRANCH   1  27
TORSDOF 14
