REMARK SMILES CCCCCNc1cncc(C(=O)NCCCNC(=O)c2ccc(-c3c4nc(c(-c5ccccc5)c5ccc([nH]5)c(-c5ccccc5)c5nc(c(-c6ccccc6)c6ccc3[nH]6)C=C5)C=C4)cc2)n1
REMARK SMILES IDX 12 1 13 2 14 3 11 5 7 6 8 7 69 8 9 9 10 10 6 11 5 13 4 14
REMARK SMILES IDX 3 15 2 16 1 17 15 18 16 19 17 20 18 21 19 22 20 24 21 25
REMARK SMILES IDX 22 26 68 27 23 28 67 29 24 30 25 31 26 32 61 33 27 34 66 35
REMARK SMILES IDX 60 36 62 37 28 38 65 39 59 40 58 41 29 43 51 44 36 45 50 46
REMARK SMILES IDX 37 47 40 48 49 49 63 50 38 51 39 52 48 54 64 55 41 56 30 57
REMARK SMILES IDX 31 58 35 59 32 60 34 61 33 62 52 63 53 64 57 65 54 66 56 67
REMARK SMILES IDX 55 68 42 69 43 70 47 71 44 72 46 73 45 74
REMARK H PARENT 14 4 6 12 18 23 62 42 40 53
REMARK Flexibility Score: inf
ROOT
ATOM      1  C   UNL     1      -2.716  -8.107  -1.392  1.00  0.00     0.271 C 
ATOM      2  O   UNL     1      -3.356  -9.123  -1.116  1.00  0.00    -0.267 OA
ATOM      3  N   UNL     1      -1.795  -8.197  -2.413  1.00  0.00    -0.351 N 
ATOM      4  H   UNL     1      -1.737  -9.089  -2.826  1.00  0.00     0.163 HD
ENDROOT
BRANCH   1   5
ATOM      5  C   UNL     1      -2.967  -6.857  -0.617  1.00  0.00     0.148 A 
ATOM      6  C   UNL     1      -2.478  -4.658  -0.136  1.00  0.00     0.145 A 
ATOM      7  C   UNL     1      -3.471  -4.677   0.842  1.00  0.00     0.157 A 
ATOM      8  N   UNL     1      -2.225  -5.753  -0.875  1.00  0.00    -0.223 NA
ATOM      9  N   UNL     1      -4.227  -5.768   1.120  1.00  0.00    -0.258 NA
ATOM     10  C   UNL     1      -3.949  -6.860   0.364  1.00  0.00     0.145 A 
BRANCH   6  11
ATOM     11  N   UNL     1      -1.693  -3.573  -0.441  1.00  0.00    -0.369 N 
ATOM     12  H   UNL     1      -1.526  -3.354  -1.386  1.00  0.00     0.162 HD
BRANCH  11  13
ATOM     13  C   UNL     1      -1.103  -2.741   0.590  1.00  0.00     0.114 C 
BRANCH  13  14
ATOM     14  C   UNL     1       0.426  -2.762   0.474  1.00  0.00     0.021 C 
BRANCH  14  15
ATOM     15  C   UNL     1       0.999  -2.146  -0.810  1.00  0.00     0.002 C 
BRANCH  15  16
ATOM     16  C   UNL     1       0.602  -0.693  -1.080  1.00  0.00    -0.003 C 
ATOM     17  C   UNL     1       1.039   0.264   0.018  1.00  0.00     0.004 C 
ENDBRANCH  15  16
ENDBRANCH  14  15
ENDBRANCH  13  14
ENDBRANCH  11  13
ENDBRANCH   6  11
ENDBRANCH   1   5
BRANCH   3  18
ATOM     18  C   UNL     1      -0.893  -7.212  -2.992  1.00  0.00     0.118 C 
BRANCH  18  19
ATOM     19  C   UNL     1       0.540  -7.379  -2.492  1.00  0.00     0.042 C 
BRANCH  19  20
ATOM     20  C   UNL     1       1.232  -8.637  -3.021  1.00  0.00     0.118 C 
BRANCH  20  21
ATOM     21  N   UNL     1       1.377  -8.626  -4.473  1.00  0.00    -0.352 N 
ATOM     22  C   UNL     1       2.491  -8.694  -5.266  1.00  0.00     0.251 C 
ATOM     23  H   UNL     1       0.528  -8.560  -4.967  1.00  0.00     0.163 HD
ATOM     24  O   UNL     1       2.386  -8.463  -6.472  1.00  0.00    -0.269 OA
BRANCH  22  25
ATOM     25  C   UNL     1       3.816  -9.030  -4.705  1.00  0.00     0.039 A 
ATOM     26  C   UNL     1       4.942  -8.361  -5.199  1.00  0.00     0.014 A 
ATOM     27  C   UNL     1       3.970 -10.036  -3.749  1.00  0.00     0.014 A 
ATOM     28  C   UNL     1       6.209  -8.659  -4.693  1.00  0.00     0.010 A 
ATOM     29  C   UNL     1       5.225 -10.288  -3.198  1.00  0.00     0.010 A 
ATOM     30  C   UNL     1       6.357  -9.604  -3.666  1.00  0.00    -0.014 A 
BRANCH  30  31
ATOM     31  C   UNL     1       7.686  -9.883  -3.064  1.00  0.00     0.031 A 
ATOM     32  C   UNL     1       8.320 -11.238  -3.209  1.00  0.00     0.074 A 
ATOM     33  C   UNL     1       8.293  -8.931  -2.328  1.00  0.00     0.049 A 
ATOM     34  N   UNL     1       9.441 -11.684  -2.698  1.00  0.00    -0.248 NA
ATOM     35  C   UNL     1       7.590 -12.230  -4.014  1.00  0.00     0.031 C 
ATOM     36  C   UNL     1       7.769  -7.586  -2.081  1.00  0.00     0.029 A 
ATOM     37  N   UNL     1       9.483  -8.954  -1.646  1.00  0.00    -0.354 N 
ATOM     38  C   UNL     1       9.537 -13.011  -3.099  1.00  0.00     0.074 A 
ATOM     39  C   UNL     1       8.345 -13.309  -3.864  1.00  0.00     0.031 C 
ATOM     40  C   UNL     1       8.646  -6.905  -1.325  1.00  0.00     0.029 A 
ATOM     41  C   UNL     1       9.771  -7.776  -1.001  1.00  0.00     0.049 A 
ATOM     42  H   UNL     1      10.075  -9.741  -1.621  1.00  0.00     0.167 HD
ATOM     43  C   UNL     1      10.534 -13.898  -2.864  1.00  0.00     0.031 A 
ATOM     44  C   UNL     1      10.820  -7.435  -0.230  1.00  0.00     0.031 A 
ATOM     45  C   UNL     1      11.729 -13.598  -2.120  1.00  0.00     0.049 A 
ATOM     46  C   UNL     1      11.908  -8.440   0.020  1.00  0.00     0.074 A 
ATOM     47  C   UNL     1      12.824 -14.411  -1.886  1.00  0.00     0.029 A 
ATOM     48  N   UNL     1      11.983 -12.391  -1.490  1.00  0.00    -0.354 N 
ATOM     49  N   UNL     1      12.014  -9.669  -0.421  1.00  0.00    -0.248 NA
ATOM     50  C   UNL     1      13.027  -8.003   0.868  1.00  0.00     0.031 C 
ATOM     51  C   UNL     1      13.723 -13.710  -1.075  1.00  0.00     0.029 A 
ATOM     52  C   UNL     1      13.208 -12.444  -0.847  1.00  0.00     0.049 A 
ATOM     53  H   UNL     1      11.383 -11.611  -1.499  1.00  0.00     0.167 HD
ATOM     54  C   UNL     1      13.222 -10.144   0.072  1.00  0.00     0.074 A 
ATOM     55  C   UNL     1      13.819  -9.066   0.835  1.00  0.00     0.031 C 
ATOM     56  C   UNL     1      13.788 -11.364  -0.093  1.00  0.00     0.031 A 
BRANCH  43  57
ATOM     57  C   UNL     1      10.368 -15.287  -3.412  1.00  0.00    -0.014 A 
ATOM     58  C   UNL     1      10.465 -15.543  -4.789  1.00  0.00     0.009 A 
ATOM     59  C   UNL     1      10.149 -16.362  -2.535  1.00  0.00     0.009 A 
ATOM     60  C   UNL     1      10.312 -16.842  -5.279  1.00  0.00     0.001 A 
ATOM     61  C   UNL     1      10.023 -17.663  -3.026  1.00  0.00     0.001 A 
ATOM     62  C   UNL     1      10.095 -17.900  -4.398  1.00  0.00     0.000 A 
ENDBRANCH  43  57
BRANCH  44  63
ATOM     63  C   UNL     1      10.904  -6.070   0.350  1.00  0.00    -0.014 A 
ATOM     64  C   UNL     1      11.841  -5.149  -0.142  1.00  0.00     0.009 A 
ATOM     65  C   UNL     1      10.057  -5.684   1.400  1.00  0.00     0.009 A 
ATOM     66  C   UNL     1      11.946  -3.877   0.424  1.00  0.00     0.001 A 
ATOM     67  C   UNL     1      10.147  -4.402   1.946  1.00  0.00     0.001 A 
ATOM     68  C   UNL     1      11.097  -3.503   1.464  1.00  0.00     0.000 A 
ENDBRANCH  44  63
BRANCH  56  69
ATOM     69  C   UNL     1      15.135 -11.585   0.534  1.00  0.00    -0.014 A 
ATOM     70  C   UNL     1      15.275 -11.745   1.921  1.00  0.00     0.009 A 
ATOM     71  C   UNL     1      16.275 -11.666  -0.281  1.00  0.00     0.009 A 
ATOM     72  C   UNL     1      16.537 -11.951   2.482  1.00  0.00     0.001 A 
ATOM     73  C   UNL     1      17.531 -11.899   0.280  1.00  0.00     0.001 A 
ATOM     74  C   UNL     1      17.662 -12.032   1.661  1.00  0.00     0.000 A 
ENDBRANCH  56  69
ENDBRANCH  30  31
ENDBRANCH  22  25
ENDBRANCH  20  21
ENDBRANCH  19  20
ENDBRANCH  18  19
ENDBRANCH   3  18
TORSDOF 15
