REMARK SMILES CC(C)OC(=O)c1c(NC(=O)[C@H]2[C@@H](C(=O)NCCCNC(=O)c3ccc(-c4c5nc(c(-c6ccccc6)c6ccc([nH]6)c(-c6ccccc6)c6nc(c(-c7ccccc7)c7ccc4[nH]7)C=C6)C=C5)cc3)[C@@H]3C=C[C@H]2CC3)sc2c1CCC2
REMARK SMILES IDX 14 1 15 2 16 3 13 5 12 6 74 7 71 8 73 9 75 10 72 11 76 12
REMARK SMILES IDX 10 13 9 14 11 16 8 17 7 18 79 19 77 20 78 21 80 22 82 23
REMARK SMILES IDX 81 24 5 25 6 26 4 27 2 28 1 29 3 30 17 31 18 32 19 33 20 34
REMARK SMILES IDX 21 35 22 37 23 38 24 39 70 40 25 41 69 42 26 43 27 44 28 45
REMARK SMILES IDX 63 46 29 47 68 48 62 49 64 50 30 51 67 52 61 53 60 54 31 56
REMARK SMILES IDX 53 57 38 58 52 59 39 60 42 61 51 62 65 63 40 64 41 65 50 67
REMARK SMILES IDX 66 68 43 69 32 70 33 71 37 72 34 73 36 74 35 75 54 76 55 77
REMARK SMILES IDX 59 78 56 79 58 80 57 81 44 82 45 83 49 84 46 85 48 86 47 87
REMARK H PARENT 16 4 9 15 20 36 64 55 42 66
REMARK Flexibility Score: inf
ROOT
ATOM      1  C   UNL     1      -7.293   0.956   1.931  1.00  0.00     0.224 C 
ATOM      2  O   UNL     1      -6.553   1.071   0.945  1.00  0.00    -0.275 OA
ATOM      3  N   UNL     1      -8.458   1.640   1.860  1.00  0.00    -0.356 N 
ATOM      4  H   UNL     1      -8.668   1.947   0.948  1.00  0.00     0.163 HD
ENDROOT
BRANCH   1   5
ATOM      5  C   UNL     1      -6.793   0.208   3.163  1.00  0.00     0.098 C 
ATOM      6  C   UNL     1      -6.084  -1.150   2.830  1.00  0.00     0.099 C 
ATOM      7  C   UNL     1      -6.654  -2.296   3.728  1.00  0.00     0.025 C 
ATOM      8  C   UNL     1      -7.691  -0.025   4.399  1.00  0.00     0.025 C 
ATOM      9  C   UNL     1      -6.360  -1.893   5.155  1.00  0.00    -0.027 C 
ATOM     10  C   UNL     1      -8.190  -2.366   3.597  1.00  0.00     0.009 C 
ATOM     11  C   UNL     1      -6.868  -0.699   5.493  1.00  0.00    -0.027 C 
ATOM     12  C   UNL     1      -8.808  -1.023   4.014  1.00  0.00     0.009 C 
BRANCH   6  13
ATOM     13  C   UNL     1      -5.990  -1.685   1.405  1.00  0.00     0.229 C 
ATOM     14  N   UNL     1      -4.821  -2.231   0.922  1.00  0.00    -0.317 N 
ATOM     15  H   UNL     1      -4.858  -2.462  -0.035  1.00  0.00     0.170 HD
ATOM     16  O   UNL     1      -6.984  -1.703   0.673  1.00  0.00    -0.274 OA
BRANCH  14  17
ATOM     17  C   UNL     1      -3.597  -2.520   1.520  1.00  0.00     0.110 A 
ATOM     18  C   UNL     1      -2.403  -2.898   0.890  1.00  0.00     0.098 A 
ATOM     19  C   UNL     1      -1.338  -2.911   1.846  1.00  0.00    -0.017 A 
ATOM     20  S   UNL     1      -3.417  -2.600   3.226  1.00  0.00    -0.122 S 
ATOM     21  C   UNL     1      -1.777  -2.610   3.101  1.00  0.00     0.011 A 
ATOM     22  C   UNL     1       0.138  -3.094   1.865  1.00  0.00     0.038 C 
ATOM     23  C   UNL     1      -0.727  -2.449   4.121  1.00  0.00     0.047 C 
ATOM     24  C   UNL     1       0.445  -3.166   3.405  1.00  0.00     0.010 C 
BRANCH  18  25
ATOM     25  C   UNL     1      -2.313  -3.163  -0.540  1.00  0.00     0.341 C 
ATOM     26  O   UNL     1      -2.983  -2.569  -1.367  1.00  0.00    -0.246 OA
BRANCH  25  27
ATOM     27  O   UNL     1      -1.473  -4.205  -0.804  1.00  0.00    -0.459 OA
BRANCH  27  28
ATOM     28  C   UNL     1      -1.359  -4.715  -2.152  1.00  0.00     0.170 C 
ATOM     29  C   UNL     1      -2.693  -5.122  -2.775  1.00  0.00     0.052 C 
ATOM     30  C   UNL     1      -0.556  -3.762  -3.025  1.00  0.00     0.052 C 
ENDBRANCH  27  28
ENDBRANCH  25  27
ENDBRANCH  18  25
ENDBRANCH  14  17
ENDBRANCH   6  13
ENDBRANCH   1   5
BRANCH   3  31
ATOM     31  C   UNL     1      -9.467   2.021   2.831  1.00  0.00     0.117 C 
BRANCH  31  32
ATOM     32  C   UNL     1      -9.228   3.420   3.395  1.00  0.00     0.042 C 
BRANCH  32  33
ATOM     33  C   UNL     1      -9.887   4.457   2.509  1.00  0.00     0.118 C 
BRANCH  33  34
ATOM     34  N   UNL     1     -11.346   4.292   2.492  1.00  0.00    -0.352 N 
ATOM     35  C   UNL     1     -12.284   4.923   1.705  1.00  0.00     0.251 C 
ATOM     36  H   UNL     1     -11.705   3.638   3.134  1.00  0.00     0.163 HD
ATOM     37  O   UNL     1     -13.473   4.903   1.998  1.00  0.00    -0.269 OA
BRANCH  35  38
ATOM     38  C   UNL     1     -11.819   5.625   0.503  1.00  0.00     0.039 A 
ATOM     39  C   UNL     1     -12.293   6.897   0.185  1.00  0.00     0.014 A 
ATOM     40  C   UNL     1     -10.831   5.007  -0.260  1.00  0.00     0.014 A 
ATOM     41  C   UNL     1     -11.693   7.578  -0.866  1.00  0.00     0.010 A 
ATOM     42  C   UNL     1     -10.115   5.749  -1.157  1.00  0.00     0.010 A 
ATOM     43  C   UNL     1     -10.582   7.005  -1.511  1.00  0.00    -0.014 A 
BRANCH  43  44
ATOM     44  C   UNL     1      -9.798   7.772  -2.465  1.00  0.00     0.031 A 
ATOM     45  C   UNL     1      -9.312   9.063  -1.917  1.00  0.00     0.074 A 
ATOM     46  C   UNL     1      -9.382   7.279  -3.651  1.00  0.00     0.049 A 
ATOM     47  N   UNL     1      -9.765  10.235  -2.204  1.00  0.00    -0.248 NA
ATOM     48  C   UNL     1      -8.362   9.050  -0.791  1.00  0.00     0.031 C 
ATOM     49  C   UNL     1      -9.514   5.915  -4.174  1.00  0.00     0.029 A 
ATOM     50  N   UNL     1      -8.640   7.887  -4.613  1.00  0.00    -0.354 N 
ATOM     51  C   UNL     1      -8.990  11.130  -1.479  1.00  0.00     0.074 A 
ATOM     52  C   UNL     1      -8.309  10.348  -0.479  1.00  0.00     0.031 C 
ATOM     53  C   UNL     1      -8.665   5.745  -5.213  1.00  0.00     0.029 A 
ATOM     54  C   UNL     1      -8.055   7.023  -5.532  1.00  0.00     0.049 A 
ATOM     55  H   UNL     1      -8.526   8.864  -4.656  1.00  0.00     0.167 HD
ATOM     56  C   UNL     1      -8.753  12.382  -1.960  1.00  0.00     0.031 A 
ATOM     57  C   UNL     1      -7.110   7.337  -6.456  1.00  0.00     0.031 A 
ATOM     58  C   UNL     1      -9.639  12.694  -3.059  1.00  0.00     0.049 A 
ATOM     59  C   UNL     1      -7.140   8.810  -6.635  1.00  0.00     0.074 A 
ATOM     60  C   UNL     1     -11.011  12.718  -3.220  1.00  0.00     0.029 A 
ATOM     61  N   UNL     1      -9.111  12.602  -4.327  1.00  0.00    -0.354 N 
ATOM     62  N   UNL     1      -8.137   9.437  -7.191  1.00  0.00    -0.248 NA
ATOM     63  C   UNL     1      -6.312   9.615  -5.749  1.00  0.00     0.031 C 
ATOM     64  C   UNL     1     -11.237  12.136  -4.503  1.00  0.00     0.029 A 
ATOM     65  C   UNL     1      -9.998  11.896  -5.098  1.00  0.00     0.049 A 
ATOM     66  H   UNL     1      -8.251  12.976  -4.627  1.00  0.00     0.167 HD
ATOM     67  C   UNL     1      -8.352  10.538  -6.375  1.00  0.00     0.074 A 
ATOM     68  C   UNL     1      -7.141  10.646  -5.557  1.00  0.00     0.031 C 
ATOM     69  C   UNL     1      -9.602  11.068  -6.215  1.00  0.00     0.031 A 
BRANCH  56  70
ATOM     70  C   UNL     1      -7.445  13.113  -1.773  1.00  0.00    -0.014 A 
ATOM     71  C   UNL     1      -7.309  14.389  -2.351  1.00  0.00     0.009 A 
ATOM     72  C   UNL     1      -6.262  12.493  -1.329  1.00  0.00     0.009 A 
ATOM     73  C   UNL     1      -6.051  14.961  -2.567  1.00  0.00     0.001 A 
ATOM     74  C   UNL     1      -5.007  13.080  -1.504  1.00  0.00     0.001 A 
ATOM     75  C   UNL     1      -4.899  14.300  -2.154  1.00  0.00     0.000 A 
ENDBRANCH  56  70
BRANCH  57  76
ATOM     76  C   UNL     1      -6.011   6.503  -6.997  1.00  0.00    -0.014 A 
ATOM     77  C   UNL     1      -5.287   6.909  -8.132  1.00  0.00     0.009 A 
ATOM     78  C   UNL     1      -5.484   5.442  -6.238  1.00  0.00     0.009 A 
ATOM     79  C   UNL     1      -4.064   6.306  -8.466  1.00  0.00     0.001 A 
ATOM     80  C   UNL     1      -4.266   4.838  -6.573  1.00  0.00     0.001 A 
ATOM     81  C   UNL     1      -3.547   5.282  -7.677  1.00  0.00     0.000 A 
ENDBRANCH  57  76
BRANCH  69  82
ATOM     82  C   UNL     1     -10.708  10.594  -7.129  1.00  0.00    -0.014 A 
ATOM     83  C   UNL     1     -11.094   9.248  -7.266  1.00  0.00     0.009 A 
ATOM     84  C   UNL     1     -11.482  11.570  -7.775  1.00  0.00     0.009 A 
ATOM     85  C   UNL     1     -12.192   8.894  -8.059  1.00  0.00     0.001 A 
ATOM     86  C   UNL     1     -12.591  11.220  -8.545  1.00  0.00     0.001 A 
ATOM     87  C   UNL     1     -12.940   9.881  -8.697  1.00  0.00     0.000 A 
ENDBRANCH  69  82
ENDBRANCH  43  44
ENDBRANCH  35  38
ENDBRANCH  33  34
ENDBRANCH  32  33
ENDBRANCH  31  32
ENDBRANCH   3  31
TORSDOF 15
