REMARK SMILES Cc1cccc(Cn2c(=O)c3sccc3n(CC(=O)NCCCNC(=O)c3ccc(-c4c5nc(c(-c6ccccc6)c6ccc([nH]6)c(-c6ccccc6)c6nc(c(-c7ccccc7)c7ccc4[nH]7)C=C6)C=C5)cc3)c2=O)c1
REMARK SMILES IDX 21 1 20 2 18 3 19 4 17 6 16 7 8 8 9 9 75 10 10 11 11 12
REMARK SMILES IDX 76 13 12 14 15 15 13 16 14 17 7 18 6 19 1 20 2 21 3 22 77 23
REMARK SMILES IDX 4 24 5 25 22 26 23 27 24 28 25 29 26 31 27 32 28 33 74 34
REMARK SMILES IDX 29 35 73 36 30 37 31 38 32 39 67 40 33 41 72 42 66 43 68 44
REMARK SMILES IDX 34 45 71 46 65 47 64 48 35 50 57 51 42 52 56 53 43 54 46 55
REMARK SMILES IDX 55 56 69 57 44 58 45 59 54 61 70 62 47 63 36 64 37 65 41 66
REMARK SMILES IDX 38 67 40 68 39 69 58 70 59 71 63 72 60 73 62 74 61 75 48 76
REMARK SMILES IDX 49 77 53 78 50 79 52 80 51 81
REMARK H PARENT 20 5 24 30 68 49 46 60
REMARK Flexibility Score: inf
ROOT
ATOM      1  C   UNL     1      -6.857   1.883  -0.351  1.00  0.00     0.117 C 
ENDROOT
BRANCH   1   2
ATOM      2  N   UNL     1      -7.431   1.947  -1.686  1.00  0.00    -0.354 N 
ATOM      3  C   UNL     1      -6.941   1.479  -2.872  1.00  0.00     0.240 C 
ATOM      4  O   UNL     1      -7.670   1.567  -3.865  1.00  0.00    -0.273 OA
ATOM      5  H   UNL     1      -8.306   2.396  -1.743  1.00  0.00     0.163 HD
BRANCH   3   6
ATOM      6  C   UNL     1      -5.559   0.824  -2.981  1.00  0.00     0.227 C 
BRANCH   6   7
ATOM      7  N   UNL     1      -4.430   1.730  -2.740  1.00  0.00    -0.283 N 
ATOM      8  N   UNL     1      -2.610   2.402  -1.326  1.00  0.00    -0.254 N 
ATOM      9  C   UNL     1      -2.277   3.513  -2.118  1.00  0.00     0.274 A 
ATOM     10  C   UNL     1      -3.684   1.546  -1.575  1.00  0.00     0.332 A 
ATOM     11  O   UNL     1      -1.399   4.305  -1.817  1.00  0.00    -0.268 OA
ATOM     12  C   UNL     1      -3.117   3.649  -3.285  1.00  0.00     0.116 A 
ATOM     13  O   UNL     1      -4.041   0.697  -0.755  1.00  0.00    -0.247 OA
ATOM     14  S   UNL     1      -2.968   4.928  -4.394  1.00  0.00    -0.136 S 
ATOM     15  C   UNL     1      -4.140   2.794  -3.592  1.00  0.00     0.070 A 
ATOM     16  C   UNL     1      -4.279   4.336  -5.325  1.00  0.00     0.068 A 
ATOM     17  C   UNL     1      -4.808   3.179  -4.791  1.00  0.00     0.039 A 
BRANCH   8  18
ATOM     18  C   UNL     1      -1.901   2.245  -0.052  1.00  0.00     0.166 C 
BRANCH  18  19
ATOM     19  C   UNL     1      -1.003   1.023   0.022  1.00  0.00    -0.028 A 
ATOM     20  C   UNL     1       2.698   0.105  -0.177  1.00  0.00     0.044 C 
ATOM     21  C   UNL     1       1.206  -0.004  -0.073  1.00  0.00    -0.051 A 
ATOM     22  C   UNL     1       0.629  -1.265   0.121  1.00  0.00     0.003 A 
ATOM     23  C   UNL     1       0.383   1.132  -0.157  1.00  0.00     0.009 A 
ATOM     24  C   UNL     1      -0.740  -1.384   0.314  1.00  0.00     0.001 A 
ATOM     25  C   UNL     1      -1.538  -0.245   0.304  1.00  0.00     0.005 A 
ENDBRANCH  18  19
ENDBRANCH   8  18
ENDBRANCH   6   7
ENDBRANCH   3   6
ENDBRANCH   1   2
BRANCH   1  26
ATOM     26  C   UNL     1      -5.937   3.063  -0.060  1.00  0.00     0.042 C 
BRANCH  26  27
ATOM     27  C   UNL     1      -6.669   4.301   0.411  1.00  0.00     0.118 C 
BRANCH  27  28
ATOM     28  N   UNL     1      -6.765   4.427   1.859  1.00  0.00    -0.352 N 
ATOM     29  C   UNL     1      -7.308   5.445   2.621  1.00  0.00     0.251 C 
ATOM     30  H   UNL     1      -6.387   3.676   2.371  1.00  0.00     0.163 HD
ATOM     31  O   UNL     1      -7.208   5.402   3.844  1.00  0.00    -0.269 OA
BRANCH  29  32
ATOM     32  C   UNL     1      -8.176   6.471   1.987  1.00  0.00     0.039 A 
ATOM     33  C   UNL     1      -9.376   6.756   2.651  1.00  0.00     0.014 A 
ATOM     34  C   UNL     1      -8.028   6.791   0.645  1.00  0.00     0.014 A 
ATOM     35  C   UNL     1     -10.515   6.999   1.901  1.00  0.00     0.010 A 
ATOM     36  C   UNL     1      -9.164   6.865  -0.115  1.00  0.00     0.010 A 
ATOM     37  C   UNL     1     -10.404   6.895   0.521  1.00  0.00    -0.014 A 
BRANCH  37  38
ATOM     38  C   UNL     1     -11.525   6.875  -0.388  1.00  0.00     0.031 A 
ATOM     39  C   UNL     1     -11.928   8.165  -0.951  1.00  0.00     0.074 A 
ATOM     40  C   UNL     1     -12.021   5.682  -0.774  1.00  0.00     0.049 A 
ATOM     41  N   UNL     1     -13.092   8.415  -1.423  1.00  0.00    -0.248 NA
ATOM     42  C   UNL     1     -11.037   9.325  -0.963  1.00  0.00     0.031 C 
ATOM     43  C   UNL     1     -12.938   5.377  -1.864  1.00  0.00     0.029 A 
ATOM     44  N   UNL     1     -11.921   4.484  -0.070  1.00  0.00    -0.354 N 
ATOM     45  C   UNL     1     -13.006   9.621  -2.080  1.00  0.00     0.074 A 
ATOM     46  C   UNL     1     -11.755  10.201  -1.668  1.00  0.00     0.031 C 
ATOM     47  C   UNL     1     -13.531   4.194  -1.613  1.00  0.00     0.029 A 
ATOM     48  C   UNL     1     -13.116   3.776  -0.281  1.00  0.00     0.049 A 
ATOM     49  H   UNL     1     -11.156   4.189   0.475  1.00  0.00     0.167 HD
ATOM     50  C   UNL     1     -13.934   9.899  -3.033  1.00  0.00     0.031 A 
ATOM     51  C   UNL     1     -13.965   3.581   0.773  1.00  0.00     0.031 A 
ATOM     52  C   UNL     1     -14.936   8.836  -3.084  1.00  0.00     0.049 A 
ATOM     53  C   UNL     1     -15.250   4.369   0.617  1.00  0.00     0.074 A 
ATOM     54  C   UNL     1     -15.053   7.708  -3.881  1.00  0.00     0.029 A 
ATOM     55  N   UNL     1     -15.731   8.613  -1.965  1.00  0.00    -0.354 N 
ATOM     56  N   UNL     1     -15.375   5.432  -0.133  1.00  0.00    -0.248 NA
ATOM     57  C   UNL     1     -16.506   3.985   1.252  1.00  0.00     0.031 C 
ATOM     58  C   UNL     1     -15.855   6.764  -3.180  1.00  0.00     0.029 A 
ATOM     59  C   UNL     1     -16.253   7.333  -1.982  1.00  0.00     0.049 A 
ATOM     60  H   UNL     1     -15.899   9.277  -1.258  1.00  0.00     0.167 HD
ATOM     61  C   UNL     1     -16.685   5.836  -0.147  1.00  0.00     0.074 A 
ATOM     62  C   UNL     1     -17.351   4.900   0.744  1.00  0.00     0.031 C 
ATOM     63  C   UNL     1     -17.129   6.888  -0.902  1.00  0.00     0.031 A 
BRANCH  50  64
ATOM     64  C   UNL     1     -13.762  10.951  -4.098  1.00  0.00    -0.014 A 
ATOM     65  C   UNL     1     -14.455  10.807  -5.313  1.00  0.00     0.009 A 
ATOM     66  C   UNL     1     -12.914  12.068  -4.001  1.00  0.00     0.009 A 
ATOM     67  C   UNL     1     -14.270  11.688  -6.385  1.00  0.00     0.001 A 
ATOM     68  C   UNL     1     -12.702  12.940  -5.079  1.00  0.00     0.001 A 
ATOM     69  C   UNL     1     -13.379  12.747  -6.274  1.00  0.00     0.000 A 
ENDBRANCH  50  64
BRANCH  51  70
ATOM     70  C   UNL     1     -13.219   3.325   2.048  1.00  0.00    -0.014 A 
ATOM     71  C   UNL     1     -12.421   2.158   2.095  1.00  0.00     0.009 A 
ATOM     72  C   UNL     1     -12.908   4.375   2.923  1.00  0.00     0.009 A 
ATOM     73  C   UNL     1     -11.233   2.129   2.832  1.00  0.00     0.001 A 
ATOM     74  C   UNL     1     -11.732   4.323   3.689  1.00  0.00     0.001 A 
ATOM     75  C   UNL     1     -10.866   3.233   3.594  1.00  0.00     0.000 A 
ENDBRANCH  51  70
BRANCH  63  76
ATOM     76  C   UNL     1     -18.468   7.583  -0.763  1.00  0.00    -0.014 A 
ATOM     77  C   UNL     1     -19.335   7.430   0.323  1.00  0.00     0.009 A 
ATOM     78  C   UNL     1     -18.833   8.564  -1.718  1.00  0.00     0.009 A 
ATOM     79  C   UNL     1     -20.521   8.171   0.424  1.00  0.00     0.001 A 
ATOM     80  C   UNL     1     -19.976   9.354  -1.586  1.00  0.00     0.001 A 
ATOM     81  C   UNL     1     -20.832   9.143  -0.520  1.00  0.00     0.000 A 
ENDBRANCH  63  76
ENDBRANCH  37  38
ENDBRANCH  29  32
ENDBRANCH  27  28
ENDBRANCH  26  27
ENDBRANCH   1  26
TORSDOF 13
