REMARK SMILES Cc1ccc2cc(C[N@H+]3CC[NH2+][C@H](C(=O)NCCCNC(=O)c4ccc(-c5c6nc(c(-c7ccccc7)c7ccc([nH]7)c(-c7ccccc7)c7nc(c(-c8ccccc8)c8ccc5[nH]8)C=C7)C=C6)cc4)C3)c(N3CCOCC3)nc2c1
REMARK SMILES IDX 17 1 16 2 14 3 15 4 13 6 9 7 10 8 71 9 11 11 12 12 8 15 7 16
REMARK SMILES IDX 1 17 2 18 3 19 81 20 4 21 80 22 5 23 79 24 6 25 72 26 73 27
REMARK SMILES IDX 74 28 78 29 75 30 77 31 76 32 18 33 19 34 20 35 21 36 22 38
REMARK SMILES IDX 23 39 24 40 70 41 25 42 69 43 26 44 27 45 28 46 63 47 29 48
REMARK SMILES IDX 68 49 62 50 64 51 30 52 67 53 61 54 60 55 31 57 53 58 38 59
REMARK SMILES IDX 52 60 39 61 42 62 51 63 65 64 40 65 41 66 50 68 66 69 43 70
REMARK SMILES IDX 32 71 33 72 37 73 34 74 36 75 35 76 54 77 55 78 59 79 56 80
REMARK SMILES IDX 58 81 57 82 44 83 45 84 49 85 46 86 48 87 47 88
REMARK H PARENT 16 5 9 10 12 13 12 14 20 37 64 56 42 67
REMARK Flexibility Score: inf
ROOT
ATOM      1  C   UNL     1      -3.713   2.602   0.525  1.00  0.00     0.118 C 
ENDROOT
BRANCH   1   2
ATOM      2  N   UNL     1      -3.875   3.100   1.880  1.00  0.00    -0.351 N 
ATOM      3  C   UNL     1      -3.548   4.318   2.408  1.00  0.00     0.284 C 
ATOM      4  O   UNL     1      -3.850   4.520   3.588  1.00  0.00    -0.268 OA
ATOM      5  H   UNL     1      -4.281   2.465   2.514  1.00  0.00     0.163 HD
BRANCH   3   6
ATOM      6  C   UNL     1      -2.726   5.326   1.591  1.00  0.00     0.328 C 
ATOM      7  N   UNL     1      -1.661   7.645   1.749  1.00  0.00    -0.321 N 
ATOM      8  C   UNL     1      -2.021   7.808   0.331  1.00  0.00     0.324 C 
ATOM      9  C   UNL     1      -2.467   6.612   2.422  1.00  0.00     0.339 C 
ATOM     10  H   UNL     1      -1.929   8.526   2.189  1.00  0.00     0.348 HD
ATOM     11  C   UNL     1      -2.414   6.524  -0.439  1.00  0.00     0.323 C 
ATOM     12  N   UNL     1      -3.376   5.685   0.302  1.00  0.00    -0.327 N 
ATOM     13  H   UNL     1      -3.591   4.842  -0.230  1.00  0.00     0.347 HD
ATOM     14  H   UNL     1      -4.252   6.183   0.460  1.00  0.00     0.347 HD
BRANCH   7  15
ATOM     15  C   UNL     1      -0.217   7.605   2.039  1.00  0.00     0.303 C 
BRANCH  15  16
ATOM     16  C   UNL     1       0.545   6.378   1.587  1.00  0.00     0.049 A 
ATOM     17  C   UNL     1       1.529   0.189   0.003  1.00  0.00     0.044 C 
ATOM     18  C   UNL     1       1.350   1.515   0.681  1.00  0.00    -0.049 A 
ATOM     19  C   UNL     1       0.929   1.580   2.009  1.00  0.00     0.004 A 
ATOM     20  C   UNL     1       1.589   2.713  -0.021  1.00  0.00     0.032 A 
ATOM     21  C   UNL     1       0.696   2.818   2.599  1.00  0.00     0.010 A 
ATOM     22  C   UNL     1       1.354   3.968   0.539  1.00  0.00     0.073 A 
ATOM     23  C   UNL     1       0.881   3.999   1.861  1.00  0.00     0.001 A 
ATOM     24  N   UNL     1       1.534   5.096  -0.186  1.00  0.00    -0.230 NA
ATOM     25  C   UNL     1       0.512   5.232   2.390  1.00  0.00     0.023 A 
ATOM     26  C   UNL     1       1.170   6.293   0.335  1.00  0.00     0.138 A 
BRANCH  26  27
ATOM     27  N   UNL     1       1.384   7.441  -0.407  1.00  0.00    -0.352 N 
ATOM     28  C   UNL     1       2.363   8.411   0.108  1.00  0.00     0.146 C 
ATOM     29  C   UNL     1       1.358   7.385  -1.869  1.00  0.00     0.146 C 
ATOM     30  C   UNL     1       1.998   9.795  -0.451  1.00  0.00     0.181 C 
ATOM     31  C   UNL     1       1.052   8.807  -2.389  1.00  0.00     0.181 C 
ATOM     32  O   UNL     1       1.987   9.785  -1.890  1.00  0.00    -0.378 OA
ENDBRANCH  26  27
ENDBRANCH  15  16
ENDBRANCH   7  15
ENDBRANCH   3   6
ENDBRANCH   1   2
BRANCH   1  33
ATOM     33  C   UNL     1      -2.544   1.642   0.373  1.00  0.00     0.042 C 
BRANCH  33  34
ATOM     34  C   UNL     1      -2.658   0.380   1.217  1.00  0.00     0.118 C 
BRANCH  34  35
ATOM     35  N   UNL     1      -3.785  -0.459   0.826  1.00  0.00    -0.352 N 
ATOM     36  C   UNL     1      -3.808  -1.766   0.403  1.00  0.00     0.251 C 
ATOM     37  H   UNL     1      -4.666  -0.021   0.873  1.00  0.00     0.163 HD
ATOM     38  O   UNL     1      -4.833  -2.242  -0.069  1.00  0.00    -0.269 OA
BRANCH  36  39
ATOM     39  C   UNL     1      -2.587  -2.595   0.500  1.00  0.00     0.039 A 
ATOM     40  C   UNL     1      -1.781  -2.543   1.637  1.00  0.00     0.014 A 
ATOM     41  C   UNL     1      -2.251  -3.447  -0.557  1.00  0.00     0.014 A 
ATOM     42  C   UNL     1      -0.560  -3.207   1.648  1.00  0.00     0.010 A 
ATOM     43  C   UNL     1      -1.068  -4.191  -0.502  1.00  0.00     0.010 A 
ATOM     44  C   UNL     1      -0.190  -4.043   0.582  1.00  0.00    -0.014 A 
BRANCH  44  45
ATOM     45  C   UNL     1       1.111  -4.762   0.642  1.00  0.00     0.031 A 
ATOM     46  C   UNL     1       2.197  -4.484  -0.361  1.00  0.00     0.074 A 
ATOM     47  C   UNL     1       1.333  -5.627   1.652  1.00  0.00     0.049 A 
ATOM     48  N   UNL     1       3.412  -4.972  -0.409  1.00  0.00    -0.248 NA
ATOM     49  C   UNL     1       1.890  -3.543  -1.450  1.00  0.00     0.031 C 
ATOM     50  C   UNL     1       0.361  -5.971   2.692  1.00  0.00     0.029 A 
ATOM     51  N   UNL     1       2.452  -6.345   1.994  1.00  0.00    -0.354 N 
ATOM     52  C   UNL     1       4.005  -4.411  -1.533  1.00  0.00     0.074 A 
ATOM     53  C   UNL     1       3.010  -3.572  -2.161  1.00  0.00     0.031 C 
ATOM     54  C   UNL     1       0.947  -6.772   3.592  1.00  0.00     0.029 A 
ATOM     55  C   UNL     1       2.309  -7.063   3.157  1.00  0.00     0.049 A 
ATOM     56  H   UNL     1       3.278  -6.346   1.458  1.00  0.00     0.167 HD
ATOM     57  C   UNL     1       5.270  -4.570  -1.989  1.00  0.00     0.031 A 
ATOM     58  C   UNL     1       3.169  -7.872   3.806  1.00  0.00     0.031 A 
ATOM     59  C   UNL     1       6.261  -5.402  -1.357  1.00  0.00     0.049 A 
ATOM     60  C   UNL     1       4.550  -8.069   3.250  1.00  0.00     0.074 A 
ATOM     61  C   UNL     1       7.576  -5.606  -1.739  1.00  0.00     0.029 A 
ATOM     62  N   UNL     1       6.052  -6.163  -0.218  1.00  0.00    -0.354 N 
ATOM     63  N   UNL     1       5.101  -7.509   2.200  1.00  0.00    -0.248 NA
ATOM     64  C   UNL     1       5.430  -9.004   3.965  1.00  0.00     0.031 C 
ATOM     65  C   UNL     1       8.140  -6.545  -0.875  1.00  0.00     0.029 A 
ATOM     66  C   UNL     1       7.206  -6.861   0.098  1.00  0.00     0.049 A 
ATOM     67  H   UNL     1       5.210  -6.202   0.291  1.00  0.00     0.167 HD
ATOM     68  C   UNL     1       6.396  -8.005   2.141  1.00  0.00     0.074 A 
ATOM     69  C   UNL     1       6.556  -8.897   3.271  1.00  0.00     0.031 C 
ATOM     70  C   UNL     1       7.361  -7.743   1.227  1.00  0.00     0.031 A 
BRANCH  57  71
ATOM     71  C   UNL     1       5.675  -3.838  -3.241  1.00  0.00    -0.014 A 
ATOM     72  C   UNL     1       5.991  -4.564  -4.402  1.00  0.00     0.009 A 
ATOM     73  C   UNL     1       5.856  -2.447  -3.243  1.00  0.00     0.009 A 
ATOM     74  C   UNL     1       6.501  -3.917  -5.529  1.00  0.00     0.001 A 
ATOM     75  C   UNL     1       6.336  -1.797  -4.383  1.00  0.00     0.001 A 
ATOM     76  C   UNL     1       6.670  -2.534  -5.520  1.00  0.00     0.000 A 
ENDBRANCH  57  71
BRANCH  58  77
ATOM     77  C   UNL     1       2.736  -8.536   5.066  1.00  0.00    -0.014 A 
ATOM     78  C   UNL     1       1.708  -9.494   5.052  1.00  0.00     0.009 A 
ATOM     79  C   UNL     1       3.304  -8.173   6.296  1.00  0.00     0.009 A 
ATOM     80  C   UNL     1       1.233 -10.046   6.243  1.00  0.00     0.001 A 
ATOM     81  C   UNL     1       2.852  -8.755   7.484  1.00  0.00     0.001 A 
ATOM     82  C   UNL     1       1.809  -9.680   7.457  1.00  0.00     0.000 A 
ENDBRANCH  58  77
BRANCH  70  83
ATOM     83  C   UNL     1       8.702  -8.404   1.402  1.00  0.00    -0.014 A 
ATOM     84  C   UNL     1       9.830  -7.618   1.690  1.00  0.00     0.009 A 
ATOM     85  C   UNL     1       8.874  -9.775   1.162  1.00  0.00     0.009 A 
ATOM     86  C   UNL     1      11.105  -8.185   1.709  1.00  0.00     0.001 A 
ATOM     87  C   UNL     1      10.147 -10.347   1.216  1.00  0.00     0.001 A 
ATOM     88  C   UNL     1      11.262  -9.550   1.476  1.00  0.00     0.000 A 
ENDBRANCH  70  83
ENDBRANCH  44  45
ENDBRANCH  36  39
ENDBRANCH  34  35
ENDBRANCH  33  34
ENDBRANCH   1  33
TORSDOF 13
