REMARK SMILES C[C@@H](C(=O)NCCCNC(=O)c1ccc(-c2c3nc(c(-c4ccccc4)c4ccc([nH]4)c(-c4ccccc4)c4nc(c(-c5ccccc5)c5ccc2[nH]5)C=C4)C=C3)cc1)N(C)C(=O)NC[C@H]1C[N@H+]2CCC[C@@H]2CO1
REMARK SMILES IDX 6 1 5 2 3 3 4 4 2 6 1 7 60 8 61 9 62 10 63 11 64 12 65 14
REMARK SMILES IDX 66 15 67 16 74 17 68 18 73 19 69 20 72 21 70 23 71 24 7 25
REMARK SMILES IDX 8 26 9 27 10 28 11 30 12 31 13 32 59 33 14 34 58 35 15 36
REMARK SMILES IDX 16 37 17 38 52 39 18 40 57 41 51 42 53 43 19 44 56 45 50 46
REMARK SMILES IDX 49 47 20 49 42 50 27 51 41 52 28 53 31 54 40 55 54 56 29 57
REMARK SMILES IDX 30 58 39 60 55 61 32 62 21 63 22 64 26 65 23 66 25 67 24 68
REMARK SMILES IDX 43 69 44 70 48 71 45 72 47 73 46 74 33 75 34 76 38 77 35 78
REMARK SMILES IDX 37 79 36 80
REMARK H PARENT 5 5 64 13 68 22 9 29 53 48 31 59
REMARK Flexibility Score: inf
ROOT
ATOM      1  C   UNL     1       3.388  -1.922  -0.480  1.00  0.00     0.117 C 
ENDROOT
BRANCH   1   2
ATOM      2  N   UNL     1       2.361  -2.649   0.231  1.00  0.00    -0.354 N 
ATOM      3  C   UNL     1       1.012  -2.457   0.283  1.00  0.00     0.242 C 
ATOM      4  O   UNL     1       0.370  -3.349   0.843  1.00  0.00    -0.273 OA
ATOM      5  H   UNL     1       2.690  -3.408   0.766  1.00  0.00     0.163 HD
BRANCH   3   6
ATOM      6  C   UNL     1       0.359  -1.225  -0.407  1.00  0.00     0.172 C 
ATOM      7  C   UNL     1       0.784   0.132   0.155  1.00  0.00     0.042 C 
BRANCH   6   8
ATOM      8  N   UNL     1      -1.111  -1.392  -0.459  1.00  0.00    -0.316 N 
ATOM      9  C   UNL     1      -1.614  -1.947  -1.704  1.00  0.00     0.149 C 
BRANCH   8  10
ATOM     10  C   UNL     1      -1.819  -1.258   0.710  1.00  0.00     0.317 C 
ATOM     11  O   UNL     1      -1.272  -1.031   1.793  1.00  0.00    -0.249 OA
ATOM     12  N   UNL     1      -3.166  -1.332   0.754  1.00  0.00    -0.335 N 
ATOM     13  H   UNL     1      -3.513  -1.549   1.649  1.00  0.00     0.165 HD
BRANCH  12  14
ATOM     14  C   UNL     1      -4.210  -1.160  -0.240  1.00  0.00     0.155 C 
BRANCH  14  15
ATOM     15  C   UNL     1      -5.148  -2.377  -0.401  1.00  0.00     0.192 C 
ATOM     16  C   UNL     1      -6.157  -2.055  -1.547  1.00  0.00     0.296 C 
ATOM     17  O   UNL     1      -4.366  -3.561  -0.676  1.00  0.00    -0.364 OA
ATOM     18  N   UNL     1      -6.920  -3.238  -1.944  1.00  0.00    -0.328 N 
ATOM     19  C   UNL     1      -5.191  -4.689  -1.012  1.00  0.00     0.225 C 
ATOM     20  C   UNL     1      -7.746  -3.083  -3.138  1.00  0.00     0.262 C 
ATOM     21  C   UNL     1      -5.985  -4.331  -2.260  1.00  0.00     0.210 C 
ATOM     22  H   UNL     1      -7.536  -3.419  -1.152  1.00  0.00     0.348 HD
ATOM     23  C   UNL     1      -7.856  -4.509  -3.694  1.00  0.00     0.068 C 
ATOM     24  C   UNL     1      -6.939  -5.364  -2.815  1.00  0.00     0.073 C 
ENDBRANCH  14  15
ENDBRANCH  12  14
ENDBRANCH   8  10
ENDBRANCH   6   8
ENDBRANCH   3   6
ENDBRANCH   1   2
BRANCH   1  25
ATOM     25  C   UNL     1       4.255  -1.085   0.453  1.00  0.00     0.042 C 
BRANCH  25  26
ATOM     26  C   UNL     1       4.991  -1.887   1.522  1.00  0.00     0.118 C 
BRANCH  26  27
ATOM     27  N   UNL     1       5.939  -2.838   0.965  1.00  0.00    -0.352 N 
ATOM     28  C   UNL     1       7.278  -2.999   1.205  1.00  0.00     0.251 C 
ATOM     29  H   UNL     1       5.558  -3.466   0.309  1.00  0.00     0.163 HD
ATOM     30  O   UNL     1       7.928  -3.767   0.494  1.00  0.00    -0.269 OA
BRANCH  28  31
ATOM     31  C   UNL     1       7.960  -2.262   2.293  1.00  0.00     0.039 A 
ATOM     32  C   UNL     1       9.265  -1.809   2.074  1.00  0.00     0.014 A 
ATOM     33  C   UNL     1       7.360  -2.070   3.541  1.00  0.00     0.014 A 
ATOM     34  C   UNL     1       9.952  -1.139   3.089  1.00  0.00     0.010 A 
ATOM     35  C   UNL     1       8.015  -1.333   4.526  1.00  0.00     0.010 A 
ATOM     36  C   UNL     1       9.327  -0.882   4.319  1.00  0.00    -0.014 A 
BRANCH  36  37
ATOM     37  C   UNL     1      10.054  -0.190   5.413  1.00  0.00     0.031 A 
ATOM     38  C   UNL     1      10.375  -0.922   6.688  1.00  0.00     0.074 A 
ATOM     39  C   UNL     1      10.400   1.104   5.276  1.00  0.00     0.049 A 
ATOM     40  N   UNL     1      10.988  -0.486   7.760  1.00  0.00    -0.248 NA
ATOM     41  C   UNL     1       9.926  -2.321   6.782  1.00  0.00     0.031 C 
ATOM     42  C   UNL     1      10.110   1.941   4.110  1.00  0.00     0.029 A 
ATOM     43  N   UNL     1      11.070   1.942   6.130  1.00  0.00    -0.354 N 
ATOM     44  C   UNL     1      10.982  -1.548   8.656  1.00  0.00     0.074 A 
ATOM     45  C   UNL     1      10.259  -2.630   8.025  1.00  0.00     0.031 C 
ATOM     46  C   UNL     1      10.623   3.166   4.312  1.00  0.00     0.029 A 
ATOM     47  C   UNL     1      11.252   3.207   5.629  1.00  0.00     0.049 A 
ATOM     48  H   UNL     1      11.391   1.663   7.019  1.00  0.00     0.167 HD
ATOM     49  C   UNL     1      11.547  -1.629   9.885  1.00  0.00     0.031 A 
ATOM     50  C   UNL     1      11.861   4.280   6.167  1.00  0.00     0.031 A 
ATOM     51  C   UNL     1      12.277  -0.560  10.511  1.00  0.00     0.049 A 
ATOM     52  C   UNL     1      12.499   4.163   7.522  1.00  0.00     0.074 A 
ATOM     53  C   UNL     1      12.922  -0.556  11.736  1.00  0.00     0.029 A 
ATOM     54  N   UNL     1      12.463   0.696   9.956  1.00  0.00    -0.354 N 
ATOM     55  N   UNL     1      12.536   3.133   8.332  1.00  0.00    -0.248 NA
ATOM     56  C   UNL     1      13.198   5.353   8.028  1.00  0.00     0.031 C 
ATOM     57  C   UNL     1      13.469   0.717  11.937  1.00  0.00     0.029 A 
ATOM     58  C   UNL     1      13.206   1.487  10.816  1.00  0.00     0.049 A 
ATOM     59  H   UNL     1      12.118   0.984   9.080  1.00  0.00     0.167 HD
ATOM     60  C   UNL     1      13.284   3.539   9.428  1.00  0.00     0.074 A 
ATOM     61  C   UNL     1      13.695   4.905   9.173  1.00  0.00     0.031 C 
ATOM     62  C   UNL     1      13.605   2.844  10.546  1.00  0.00     0.031 A 
BRANCH  49  63
ATOM     63  C   UNL     1      11.389  -2.926  10.628  1.00  0.00    -0.014 A 
ATOM     64  C   UNL     1      12.058  -4.088  10.208  1.00  0.00     0.009 A 
ATOM     65  C   UNL     1      10.572  -2.988  11.767  1.00  0.00     0.009 A 
ATOM     66  C   UNL     1      11.877  -5.295  10.887  1.00  0.00     0.001 A 
ATOM     67  C   UNL     1      10.416  -4.190  12.462  1.00  0.00     0.001 A 
ATOM     68  C   UNL     1      11.059  -5.343  12.015  1.00  0.00     0.000 A 
ENDBRANCH  49  63
BRANCH  50  69
ATOM     69  C   UNL     1      11.926   5.553   5.404  1.00  0.00    -0.014 A 
ATOM     70  C   UNL     1      13.135   5.981   4.834  1.00  0.00     0.009 A 
ATOM     71  C   UNL     1      10.778   6.343   5.236  1.00  0.00     0.009 A 
ATOM     72  C   UNL     1      13.198   7.187   4.133  1.00  0.00     0.001 A 
ATOM     73  C   UNL     1      10.839   7.535   4.512  1.00  0.00     0.001 A 
ATOM     74  C   UNL     1      12.050   7.960   3.968  1.00  0.00     0.000 A 
ENDBRANCH  50  69
BRANCH  62  75
ATOM     75  C   UNL     1      14.473   3.537  11.558  1.00  0.00    -0.014 A 
ATOM     76  C   UNL     1      13.969   4.564  12.370  1.00  0.00     0.009 A 
ATOM     77  C   UNL     1      15.807   3.131  11.720  1.00  0.00     0.009 A 
ATOM     78  C   UNL     1      14.796   5.198  13.299  1.00  0.00     0.001 A 
ATOM     79  C   UNL     1      16.623   3.748  12.669  1.00  0.00     0.001 A 
ATOM     80  C   UNL     1      16.121   4.787  13.450  1.00  0.00     0.000 A 
ENDBRANCH  62  75
ENDBRANCH  36  37
ENDBRANCH  28  31
ENDBRANCH  26  27
ENDBRANCH  25  26
ENDBRANCH   1  25
TORSDOF 14
