REMARK SMILES C[C@@](NC(=O)CCOC1CC[NH2+]CC1)(C(=O)NCCCNC(=O)c1ccc(-c2c3nc(c(-c4ccccc4)c4ccc([nH]4)c(-c4ccccc4)c4nc(c(-c5ccccc5)c5ccc2[nH]5)C=C4)C=C3)cc1)C(F)(F)F
REMARK SMILES IDX 15 1 16 2 17 3 2 5 1 6 3 7 4 8 5 10 6 11 7 12 8 13 9 14
REMARK SMILES IDX 10 15 14 16 11 17 13 18 12 19 72 22 73 23 74 24 75 25 18 26
REMARK SMILES IDX 19 27 20 28 21 29 22 30 23 32 24 33 25 34 71 35 26 36 70 37
REMARK SMILES IDX 27 38 28 39 29 40 64 41 30 42 69 43 63 44 65 45 31 46 68 47
REMARK SMILES IDX 62 48 61 49 32 51 54 52 39 53 53 54 40 55 43 56 52 57 66 58
REMARK SMILES IDX 41 59 42 60 51 62 67 63 44 64 33 65 34 66 38 67 35 68 37 69
REMARK SMILES IDX 36 70 55 71 56 72 60 73 57 74 59 75 58 76 45 77 46 78 50 79
REMARK SMILES IDX 47 80 49 81 48 82
REMARK H PARENT 17 4 3 9 12 20 12 21 21 31 65 50 43 61
REMARK Flexibility Score: inf
ROOT
ATOM      1  C   UNL     1      -1.931   0.844  -0.845  1.00  0.00     0.254 C 
ATOM      2  O   UNL     1      -2.897   1.467  -1.294  1.00  0.00    -0.272 OA
ATOM      3  N   UNL     1      -2.142   0.311   0.398  1.00  0.00    -0.354 N 
ATOM      4  H   UNL     1      -2.990   0.597   0.807  1.00  0.00     0.163 HD
ENDROOT
BRANCH   1   5
ATOM      5  C   UNL     1      -0.623   0.649  -1.650  1.00  0.00     0.212 C 
ATOM      6  C   UNL     1       0.615   1.108  -0.850  1.00  0.00     0.056 C 
BRANCH   5   7
ATOM      7  N   UNL     1      -0.503  -0.806  -1.844  1.00  0.00    -0.334 N 
ATOM      8  C   UNL     1      -1.336  -1.575  -2.615  1.00  0.00     0.223 C 
ATOM      9  H   UNL     1       0.235  -1.264  -1.381  1.00  0.00     0.164 HD
ATOM     10  O   UNL     1      -1.756  -1.249  -3.714  1.00  0.00    -0.275 OA
BRANCH   8  11
ATOM     11  C   UNL     1      -1.861  -2.784  -1.853  1.00  0.00     0.128 C 
BRANCH  11  12
ATOM     12  C   UNL     1      -0.792  -3.606  -1.129  1.00  0.00     0.170 C 
BRANCH  12  13
ATOM     13  O   UNL     1       0.059  -2.771  -0.343  1.00  0.00    -0.377 OA
BRANCH  13  14
ATOM     14  C   UNL     1       1.428  -3.125  -0.113  1.00  0.00     0.129 C 
ATOM     15  C   UNL     1       2.353  -2.657  -1.237  1.00  0.00     0.093 C 
ATOM     16  C   UNL     1       1.680  -4.576   0.272  1.00  0.00     0.093 C 
ATOM     17  C   UNL     1       2.345  -3.615  -2.416  1.00  0.00     0.263 C 
ATOM     18  C   UNL     1       1.845  -5.505  -0.930  1.00  0.00     0.263 C 
ATOM     19  N   UNL     1       2.700  -4.965  -1.985  1.00  0.00    -0.346 N 
ATOM     20  H   UNL     1       3.660  -4.948  -1.640  1.00  0.00     0.346 HD
ATOM     21  H   UNL     1       2.580  -5.571  -2.796  1.00  0.00     0.346 HD
ENDBRANCH  13  14
ENDBRANCH  12  13
ENDBRANCH  11  12
ENDBRANCH   8  11
ENDBRANCH   5   7
BRANCH   5  22
ATOM     22  C   UNL     1      -0.702   1.555  -2.901  1.00  0.00     0.420 C 
ATOM     23  F   UNL     1      -0.758   2.864  -2.528  1.00  0.00    -0.168 F 
ATOM     24  F   UNL     1       0.434   1.437  -3.642  1.00  0.00    -0.168 F 
ATOM     25  F   UNL     1      -1.738   1.329  -3.725  1.00  0.00    -0.168 F 
ENDBRANCH   5  22
ENDBRANCH   1   5
BRANCH   3  26
ATOM     26  C   UNL     1      -1.372  -0.592   1.238  1.00  0.00     0.117 C 
BRANCH  26  27
ATOM     27  C   UNL     1      -1.831  -0.608   2.685  1.00  0.00     0.042 C 
BRANCH  27  28
ATOM     28  C   UNL     1      -3.214  -1.206   2.892  1.00  0.00     0.118 C 
BRANCH  28  29
ATOM     29  N   UNL     1      -3.307  -2.647   2.686  1.00  0.00    -0.352 N 
ATOM     30  C   UNL     1      -3.958  -3.599   3.453  1.00  0.00     0.251 C 
ATOM     31  H   UNL     1      -2.842  -2.991   1.890  1.00  0.00     0.163 HD
ATOM     32  O   UNL     1      -3.910  -4.778   3.144  1.00  0.00    -0.269 OA
BRANCH  30  33
ATOM     33  C   UNL     1      -4.650  -3.178   4.697  1.00  0.00     0.039 A 
ATOM     34  C   UNL     1      -4.430  -3.895   5.875  1.00  0.00     0.014 A 
ATOM     35  C   UNL     1      -5.409  -2.010   4.726  1.00  0.00     0.014 A 
ATOM     36  C   UNL     1      -4.860  -3.364   7.095  1.00  0.00     0.010 A 
ATOM     37  C   UNL     1      -5.694  -1.413   5.947  1.00  0.00     0.010 A 
ATOM     38  C   UNL     1      -5.426  -2.078   7.151  1.00  0.00    -0.014 A 
BRANCH  38  39
ATOM     39  C   UNL     1      -5.732  -1.411   8.448  1.00  0.00     0.031 A 
ATOM     40  C   UNL     1      -7.120  -0.893   8.730  1.00  0.00     0.074 A 
ATOM     41  C   UNL     1      -4.745  -1.192   9.343  1.00  0.00     0.049 A 
ATOM     42  N   UNL     1      -7.562  -0.241   9.777  1.00  0.00    -0.248 NA
ATOM     43  C   UNL     1      -8.133  -1.083   7.678  1.00  0.00     0.031 C 
ATOM     44  C   UNL     1      -3.334  -1.547   9.165  1.00  0.00     0.029 A 
ATOM     45  N   UNL     1      -4.781  -0.619  10.591  1.00  0.00    -0.354 N 
ATOM     46  C   UNL     1      -8.882   0.085   9.488  1.00  0.00     0.074 A 
ATOM     47  C   UNL     1      -9.145  -0.368   8.142  1.00  0.00     0.031 C 
ATOM     48  C   UNL     1      -2.656  -1.246  10.285  1.00  0.00     0.029 A 
ATOM     49  C   UNL     1      -3.571  -0.642  11.245  1.00  0.00     0.049 A 
ATOM     50  H   UNL     1      -5.596  -0.228  10.980  1.00  0.00     0.167 HD
ATOM     51  C   UNL     1      -9.812   0.670  10.280  1.00  0.00     0.031 A 
ATOM     52  C   UNL     1      -3.240  -0.241  12.488  1.00  0.00     0.031 A 
ATOM     53  C   UNL     1      -9.573   1.071  11.638  1.00  0.00     0.049 A 
ATOM     54  C   UNL     1      -4.305   0.336  13.378  1.00  0.00     0.074 A 
ATOM     55  C   UNL     1     -10.468   1.594  12.555  1.00  0.00     0.029 A 
ATOM     56  N   UNL     1      -8.348   0.977  12.280  1.00  0.00    -0.354 N 
ATOM     57  N   UNL     1      -5.571   0.555  13.117  1.00  0.00    -0.248 NA
ATOM     58  C   UNL     1      -3.898   0.701  14.742  1.00  0.00     0.031 C 
ATOM     59  C   UNL     1      -9.774   1.847  13.744  1.00  0.00     0.029 A 
ATOM     60  C   UNL     1      -8.461   1.437  13.580  1.00  0.00     0.049 A 
ATOM     61  H   UNL     1      -7.521   0.633  11.871  1.00  0.00     0.167 HD
ATOM     62  C   UNL     1      -6.117   1.057  14.291  1.00  0.00     0.074 A 
ATOM     63  C   UNL     1      -5.050   1.088  15.270  1.00  0.00     0.031 C 
ATOM     64  C   UNL     1      -7.388   1.458  14.538  1.00  0.00     0.031 A 
BRANCH  51  65
ATOM     65  C   UNL     1     -11.180   0.885   9.691  1.00  0.00    -0.014 A 
ATOM     66  C   UNL     1     -12.020  -0.200   9.391  1.00  0.00     0.009 A 
ATOM     67  C   UNL     1     -11.637   2.186   9.434  1.00  0.00     0.009 A 
ATOM     68  C   UNL     1     -13.267   0.010   8.799  1.00  0.00     0.001 A 
ATOM     69  C   UNL     1     -12.899   2.395   8.873  1.00  0.00     0.001 A 
ATOM     70  C   UNL     1     -13.707   1.307   8.544  1.00  0.00     0.000 A 
ENDBRANCH  51  65
BRANCH  52  71
ATOM     71  C   UNL     1      -1.854  -0.430  12.993  1.00  0.00    -0.014 A 
ATOM     72  C   UNL     1      -1.583  -1.407  13.965  1.00  0.00     0.009 A 
ATOM     73  C   UNL     1      -0.800   0.365  12.520  1.00  0.00     0.009 A 
ATOM     74  C   UNL     1      -0.292  -1.561  14.476  1.00  0.00     0.001 A 
ATOM     75  C   UNL     1       0.496   0.189  13.013  1.00  0.00     0.001 A 
ATOM     76  C   UNL     1       0.747  -0.766  13.997  1.00  0.00     0.000 A 
ENDBRANCH  52  71
BRANCH  64  77
ATOM     77  C   UNL     1      -7.697   1.929  15.930  1.00  0.00    -0.014 A 
ATOM     78  C   UNL     1      -7.222   3.162  16.404  1.00  0.00     0.009 A 
ATOM     79  C   UNL     1      -8.497   1.138  16.768  1.00  0.00     0.009 A 
ATOM     80  C   UNL     1      -7.509   3.573  17.707  1.00  0.00     0.001 A 
ATOM     81  C   UNL     1      -8.807   1.565  18.059  1.00  0.00     0.001 A 
ATOM     82  C   UNL     1      -8.304   2.776  18.531  1.00  0.00     0.000 A 
ENDBRANCH  64  77
ENDBRANCH  38  39
ENDBRANCH  30  33
ENDBRANCH  28  29
ENDBRANCH  27  28
ENDBRANCH  26  27
ENDBRANCH   3  26
TORSDOF 16
