REMARK SMILES O=C(NCCCNC(=O)c1sccc1S(=O)(=O)Nc1ccccc1N1CCCCC1)c1ccc(-c2c3nc(c(-c4ccccc4)c4ccc([nH]4)c(-c4ccccc4)c4nc(c(-c5ccccc5)c5ccc2[nH]5)C=C4)C=C3)cc1
REMARK SMILES IDX 6 1 5 2 4 3 3 4 1 5 2 6 31 8 32 9 78 10 33 11 77 12 34 13
REMARK SMILES IDX 35 14 36 15 71 16 37 17 76 18 70 19 72 20 38 21 75 22 69 23
REMARK SMILES IDX 68 24 39 26 61 27 46 28 60 29 47 30 50 31 59 32 73 33 48 34
REMARK SMILES IDX 49 35 58 37 74 38 51 39 40 40 41 41 45 42 42 43 44 44 43 45
REMARK SMILES IDX 62 46 63 47 67 48 64 49 66 50 65 51 52 52 53 53 57 54 54 55
REMARK SMILES IDX 56 56 55 57 7 58 8 59 9 61 10 62 11 63 14 64 12 65 13 66
REMARK SMILES IDX 15 67 16 68 17 69 18 70 19 72 20 73 24 74 21 75 23 76 22 77
REMARK SMILES IDX 25 78 26 79 30 80 27 81 29 82 28 83
REMARK H PARENT 3 7 72 25 50 36 7 60 18 71
REMARK Flexibility Score: inf
ROOT
ATOM      1  C   UNL     1       5.289   1.072   3.007  1.00  0.00     0.118 C 
ENDROOT
BRANCH   1   2
ATOM      2  C   UNL     1       5.349   1.276   1.509  1.00  0.00     0.042 C 
BRANCH   2   3
ATOM      3  C   UNL     1       4.803   0.069   0.760  1.00  0.00     0.118 C 
BRANCH   3   4
ATOM      4  N   UNL     1       3.350  -0.055   0.847  1.00  0.00    -0.352 N 
ATOM      5  O   UNL     1       1.210  -0.033   0.111  1.00  0.00    -0.269 OA
ATOM      6  C   UNL     1       2.401   0.032  -0.146  1.00  0.00     0.251 C 
ATOM      7  H   UNL     1       2.997  -0.226   1.750  1.00  0.00     0.163 HD
BRANCH   6   8
ATOM      8  C   UNL     1       2.866   0.273  -1.521  1.00  0.00     0.039 A 
ATOM      9  C   UNL     1       3.862  -0.537  -2.062  1.00  0.00     0.014 A 
ATOM     10  C   UNL     1       2.411   1.407  -2.195  1.00  0.00     0.014 A 
ATOM     11  C   UNL     1       4.563  -0.087  -3.168  1.00  0.00     0.010 A 
ATOM     12  C   UNL     1       3.036   1.787  -3.382  1.00  0.00     0.010 A 
ATOM     13  C   UNL     1       4.152   1.074  -3.846  1.00  0.00    -0.014 A 
BRANCH  13  14
ATOM     14  C   UNL     1       4.878   1.492  -5.067  1.00  0.00     0.031 A 
ATOM     15  C   UNL     1       5.577   2.819  -5.151  1.00  0.00     0.074 A 
ATOM     16  C   UNL     1       4.908   0.637  -6.107  1.00  0.00     0.049 A 
ATOM     17  N   UNL     1       6.213   3.348  -6.166  1.00  0.00    -0.248 NA
ATOM     18  C   UNL     1       5.552   3.670  -3.950  1.00  0.00     0.031 C 
ATOM     19  C   UNL     1       4.261  -0.679  -6.134  1.00  0.00     0.029 A 
ATOM     20  N   UNL     1       5.513   0.735  -7.330  1.00  0.00    -0.354 N 
ATOM     21  C   UNL     1       6.626   4.605  -5.744  1.00  0.00     0.074 A 
ATOM     22  C   UNL     1       6.164   4.766  -4.382  1.00  0.00     0.031 C 
ATOM     23  C   UNL     1       4.543  -1.283  -7.294  1.00  0.00     0.029 A 
ATOM     24  C   UNL     1       5.311  -0.366  -8.124  1.00  0.00     0.049 A 
ATOM     25  H   UNL     1       6.039   1.518  -7.613  1.00  0.00     0.167 HD
ATOM     26  C   UNL     1       7.321   5.540  -6.436  1.00  0.00     0.031 A 
ATOM     27  C   UNL     1       5.668  -0.604  -9.397  1.00  0.00     0.031 A 
ATOM     28  C   UNL     1       7.787   5.362  -7.787  1.00  0.00     0.049 A 
ATOM     29  C   UNL     1       6.421   0.450 -10.144  1.00  0.00     0.074 A 
ATOM     30  C   UNL     1       8.538   6.228  -8.563  1.00  0.00     0.029 A 
ATOM     31  N   UNL     1       7.541   4.240  -8.565  1.00  0.00    -0.354 N 
ATOM     32  N   UNL     1       6.818   1.627  -9.724  1.00  0.00    -0.248 NA
ATOM     33  C   UNL     1       6.769   0.149 -11.536  1.00  0.00     0.031 C 
ATOM     34  C   UNL     1       8.704   5.651  -9.827  1.00  0.00     0.029 A 
ATOM     35  C   UNL     1       8.101   4.403  -9.822  1.00  0.00     0.049 A 
ATOM     36  H   UNL     1       7.043   3.444  -8.268  1.00  0.00     0.167 HD
ATOM     37  C   UNL     1       7.466   2.211 -10.802  1.00  0.00     0.074 A 
ATOM     38  C   UNL     1       7.429   1.246 -11.884  1.00  0.00     0.031 C 
ATOM     39  C   UNL     1       8.036   3.437 -10.888  1.00  0.00     0.031 A 
BRANCH  26  40
ATOM     40  C   UNL     1       7.582   6.858  -5.760  1.00  0.00    -0.014 A 
ATOM     41  C   UNL     1       8.512   6.981  -4.715  1.00  0.00     0.009 A 
ATOM     42  C   UNL     1       6.909   8.008  -6.204  1.00  0.00     0.009 A 
ATOM     43  C   UNL     1       8.735   8.220  -4.108  1.00  0.00     0.001 A 
ATOM     44  C   UNL     1       7.152   9.249  -5.612  1.00  0.00     0.001 A 
ATOM     45  C   UNL     1       8.058   9.353  -4.558  1.00  0.00     0.000 A 
ENDBRANCH  26  40
BRANCH  27  46
ATOM     46  C   UNL     1       5.263  -1.883 -10.030  1.00  0.00    -0.014 A 
ATOM     47  C   UNL     1       6.205  -2.891 -10.272  1.00  0.00     0.009 A 
ATOM     48  C   UNL     1       3.909  -2.129 -10.316  1.00  0.00     0.009 A 
ATOM     49  C   UNL     1       5.798  -4.122 -10.791  1.00  0.00     0.001 A 
ATOM     50  C   UNL     1       3.503  -3.369 -10.808  1.00  0.00     0.001 A 
ATOM     51  C   UNL     1       4.449  -4.364 -11.049  1.00  0.00     0.000 A 
ENDBRANCH  27  46
BRANCH  39  52
ATOM     52  C   UNL     1       8.674   3.791 -12.198  1.00  0.00    -0.014 A 
ATOM     53  C   UNL     1       7.893   4.128 -13.313  1.00  0.00     0.009 A 
ATOM     54  C   UNL     1      10.072   3.812 -12.308  1.00  0.00     0.009 A 
ATOM     55  C   UNL     1       8.502   4.454 -14.526  1.00  0.00     0.001 A 
ATOM     56  C   UNL     1      10.679   4.161 -13.515  1.00  0.00     0.001 A 
ATOM     57  C   UNL     1       9.894   4.474 -14.624  1.00  0.00     0.000 A 
ENDBRANCH  39  52
ENDBRANCH  13  14
ENDBRANCH   6   8
ENDBRANCH   3   4
ENDBRANCH   2   3
ENDBRANCH   1   2
BRANCH   1  58
ATOM     58  N   UNL     1       6.191   0.039   3.456  1.00  0.00    -0.351 N 
ATOM     59  C   UNL     1       6.690  -0.186   4.707  1.00  0.00     0.262 C 
ATOM     60  H   UNL     1       6.489  -0.593   2.763  1.00  0.00     0.163 HD
ATOM     61  O   UNL     1       7.554  -1.060   4.798  1.00  0.00    -0.268 OA
BRANCH  59  62
ATOM     62  C   UNL     1       6.288   0.651   5.813  1.00  0.00     0.112 A 
ATOM     63  S   UNL     1       7.620   1.386   6.646  1.00  0.00    -0.137 S 
ATOM     64  C   UNL     1       5.080   0.981   6.409  1.00  0.00     0.111 A 
ATOM     65  C   UNL     1       6.604   2.187   7.742  1.00  0.00     0.067 A 
ATOM     66  C   UNL     1       5.283   1.899   7.506  1.00  0.00     0.035 A 
BRANCH  64  67
ATOM     67  S   UNL     1       3.450   0.548   5.990  1.00  0.00     0.263 S 
ATOM     68  O   UNL     1       2.742   0.618   7.254  1.00  0.00    -0.201 OA
ATOM     69  O   UNL     1       3.118   1.544   4.988  1.00  0.00    -0.201 OA
BRANCH  67  70
ATOM     70  N   UNL     1       3.044  -0.919   5.309  1.00  0.00    -0.277 N 
ATOM     71  H   UNL     1       2.091  -1.073   5.114  1.00  0.00     0.180 HD
BRANCH  70  72
ATOM     72  C   UNL     1       3.949  -1.968   4.985  1.00  0.00     0.072 A 
ATOM     73  C   UNL     1       3.908  -2.440   3.662  1.00  0.00     0.029 A 
ATOM     74  C   UNL     1       4.810  -2.559   5.933  1.00  0.00     0.061 A 
ATOM     75  C   UNL     1       4.788  -3.428   3.230  1.00  0.00     0.002 A 
ATOM     76  C   UNL     1       5.698  -3.544   5.464  1.00  0.00     0.028 A 
ATOM     77  C   UNL     1       5.699  -3.966   4.129  1.00  0.00     0.002 A 
BRANCH  74  78
ATOM     78  N   UNL     1       4.766  -2.243   7.281  1.00  0.00    -0.370 N 
ATOM     79  C   UNL     1       5.980  -1.970   8.047  1.00  0.00     0.116 C 
ATOM     80  C   UNL     1       3.501  -2.389   8.006  1.00  0.00     0.116 C 
ATOM     81  C   UNL     1       6.119  -2.927   9.225  1.00  0.00     0.021 C 
ATOM     82  C   UNL     1       3.661  -3.371   9.163  1.00  0.00     0.021 C 
ATOM     83  C   UNL     1       4.836  -2.971  10.050  1.00  0.00     0.004 C 
ENDBRANCH  74  78
ENDBRANCH  70  72
ENDBRANCH  67  70
ENDBRANCH  64  67
ENDBRANCH  59  62
ENDBRANCH   1  58
TORSDOF 14
