REMARK SMILES O=C(NCCCNC(=O)c1cccc(Nc2nc(-c3ccc(F)cc3F)cs2)c1)c1ccc(-c2c3nc(c(-c4ccccc4)c4ccc([nH]4)c(-c4ccccc4)c4nc(c(-c5ccccc5)c5ccc2[nH]5)C=C4)C=C3)cc1
REMARK SMILES IDX 5 1 4 2 3 3 1 4 2 5 30 7 31 8 77 9 32 10 76 11 33 12 34 13
REMARK SMILES IDX 35 14 70 15 36 16 75 17 69 18 71 19 37 20 74 21 68 22 67 23
REMARK SMILES IDX 38 25 60 26 45 27 59 28 46 29 49 30 58 31 72 32 47 33 48 34
REMARK SMILES IDX 57 36 73 37 50 38 39 39 40 40 44 41 41 42 43 43 42 44 61 45
REMARK SMILES IDX 62 46 66 47 63 48 65 49 64 50 51 51 52 52 56 53 53 54 55 55
REMARK SMILES IDX 54 56 6 57 7 58 8 59 9 61 10 62 11 63 29 64 12 65 14 66
REMARK SMILES IDX 13 67 15 68 16 70 17 71 28 72 18 73 27 74 19 75 20 76 25 77
REMARK SMILES IDX 21 78 24 79 26 80 22 81 23 82
REMARK H PARENT 3 6 71 24 49 35 7 60 15 69
REMARK Flexibility Score: inf
ROOT
ATOM      1  C   UNL     1       4.821   0.436  -2.530  1.00  0.00     0.042 C 
ENDROOT
BRANCH   1   2
ATOM      2  C   UNL     1       4.506   0.885  -1.111  1.00  0.00     0.118 C 
BRANCH   2   3
ATOM      3  N   UNL     1       3.089   0.784  -0.780  1.00  0.00    -0.352 N 
ATOM      4  O   UNL     1       1.203  -0.074   0.103  1.00  0.00    -0.269 OA
ATOM      5  C   UNL     1       2.431  -0.040   0.102  1.00  0.00     0.251 C 
ATOM      6  H   UNL     1       2.507   1.409  -1.270  1.00  0.00     0.163 HD
BRANCH   5   7
ATOM      7  C   UNL     1       3.190  -0.901   1.036  1.00  0.00     0.039 A 
ATOM      8  C   UNL     1       4.335  -0.424   1.669  1.00  0.00     0.014 A 
ATOM      9  C   UNL     1       2.738  -2.198   1.302  1.00  0.00     0.014 A 
ATOM     10  C   UNL     1       5.130  -1.292   2.403  1.00  0.00     0.010 A 
ATOM     11  C   UNL     1       3.477  -3.037   2.146  1.00  0.00     0.010 A 
ATOM     12  C   UNL     1       4.701  -2.603   2.674  1.00  0.00    -0.014 A 
BRANCH  12  13
ATOM     13  C   UNL     1       5.534  -3.443   3.573  1.00  0.00     0.031 A 
ATOM     14  C   UNL     1       6.186  -4.709   3.094  1.00  0.00     0.074 A 
ATOM     15  C   UNL     1       5.769  -2.993   4.823  1.00  0.00     0.049 A 
ATOM     16  N   UNL     1       7.033  -5.484   3.727  1.00  0.00    -0.248 NA
ATOM     17  C   UNL     1       5.846  -5.175   1.741  1.00  0.00     0.031 C 
ATOM     18  C   UNL     1       5.175  -1.787   5.409  1.00  0.00     0.029 A 
ATOM     19  N   UNL     1       6.601  -3.462   5.805  1.00  0.00    -0.354 N 
ATOM     20  C   UNL     1       7.317  -6.530   2.859  1.00  0.00     0.074 A 
ATOM     21  C   UNL     1       6.530  -6.310   1.664  1.00  0.00     0.031 C 
ATOM     22  C   UNL     1       5.725  -1.564   6.610  1.00  0.00     0.029 A 
ATOM     23  C   UNL     1       6.653  -2.647   6.910  1.00  0.00     0.049 A 
ATOM     24  H   UNL     1       7.113  -4.300   5.727  1.00  0.00     0.167 HD
ATOM     25  C   UNL     1       8.161  -7.575   3.038  1.00  0.00     0.031 A 
ATOM     26  C   UNL     1       7.363  -2.755   8.047  1.00  0.00     0.031 A 
ATOM     27  C   UNL     1       8.941  -7.795   4.229  1.00  0.00     0.049 A 
ATOM     28  C   UNL     1       8.287  -3.923   8.217  1.00  0.00     0.074 A 
ATOM     29  C   UNL     1       9.827  -8.824   4.503  1.00  0.00     0.029 A 
ATOM     30  N   UNL     1       8.931  -6.972   5.345  1.00  0.00    -0.354 N 
ATOM     31  N   UNL     1       8.553  -4.891   7.375  1.00  0.00    -0.248 NA
ATOM     32  C   UNL     1       9.006  -4.012   9.494  1.00  0.00     0.031 C 
ATOM     33  C   UNL     1      10.321  -8.645   5.800  1.00  0.00     0.029 A 
ATOM     34  C   UNL     1       9.783  -7.477   6.314  1.00  0.00     0.049 A 
ATOM     35  H   UNL     1       8.398  -6.149   5.435  1.00  0.00     0.167 HD
ATOM     36  C   UNL     1       9.472  -5.706   8.020  1.00  0.00     0.074 A 
ATOM     37  C   UNL     1       9.746  -5.095   9.305  1.00  0.00     0.031 C 
ATOM     38  C   UNL     1      10.029  -6.865   7.593  1.00  0.00     0.031 A 
BRANCH  25  39
ATOM     39  C   UNL     1       8.277  -8.577   1.923  1.00  0.00    -0.014 A 
ATOM     40  C   UNL     1       8.965  -8.269   0.739  1.00  0.00     0.009 A 
ATOM     41  C   UNL     1       7.745  -9.866   2.082  1.00  0.00     0.009 A 
ATOM     42  C   UNL     1       9.097  -9.225  -0.273  1.00  0.00     0.001 A 
ATOM     43  C   UNL     1       7.898 -10.827   1.080  1.00  0.00     0.001 A 
ATOM     44  C   UNL     1       8.569 -10.503  -0.099  1.00  0.00     0.000 A 
ENDBRANCH  25  39
BRANCH  26  45
ATOM     45  C   UNL     1       7.205  -1.738   9.118  1.00  0.00    -0.014 A 
ATOM     46  C   UNL     1       8.250  -0.858   9.437  1.00  0.00     0.009 A 
ATOM     47  C   UNL     1       5.994  -1.639   9.822  1.00  0.00     0.009 A 
ATOM     48  C   UNL     1       8.092   0.084  10.456  1.00  0.00     0.001 A 
ATOM     49  C   UNL     1       5.828  -0.674  10.817  1.00  0.00     0.001 A 
ATOM     50  C   UNL     1       6.880   0.179  11.140  1.00  0.00     0.000 A 
ENDBRANCH  26  45
BRANCH  38  51
ATOM     51  C   UNL     1      10.994  -7.532   8.530  1.00  0.00    -0.014 A 
ATOM     52  C   UNL     1      10.545  -8.170   9.697  1.00  0.00     0.009 A 
ATOM     53  C   UNL     1      12.367  -7.519   8.245  1.00  0.00     0.009 A 
ATOM     54  C   UNL     1      11.458  -8.744  10.583  1.00  0.00     0.001 A 
ATOM     55  C   UNL     1      13.275  -8.118   9.118  1.00  0.00     0.001 A 
ATOM     56  C   UNL     1      12.821  -8.719  10.292  1.00  0.00     0.000 A 
ENDBRANCH  38  51
ENDBRANCH  12  13
ENDBRANCH   5   7
ENDBRANCH   2   3
ENDBRANCH   1   2
BRANCH   1  57
ATOM     57  C   UNL     1       4.214   1.329  -3.601  1.00  0.00     0.118 C 
BRANCH  57  58
ATOM     58  N   UNL     1       4.731   2.690  -3.538  1.00  0.00    -0.352 N 
ATOM     59  C   UNL     1       5.718   3.292  -4.277  1.00  0.00     0.251 C 
ATOM     60  H   UNL     1       4.308   3.265  -2.860  1.00  0.00     0.163 HD
ATOM     61  O   UNL     1       6.185   4.367  -3.914  1.00  0.00    -0.269 OA
BRANCH  59  62
ATOM     62  C   UNL     1       6.227   2.646  -5.503  1.00  0.00     0.041 A 
ATOM     63  C   UNL     1       7.605   2.555  -5.697  1.00  0.00     0.014 A 
ATOM     64  C   UNL     1       5.343   2.176  -6.481  1.00  0.00     0.040 A 
ATOM     65  C   UNL     1       8.091   1.911  -6.831  1.00  0.00     0.003 A 
ATOM     66  C   UNL     1       5.816   1.518  -7.623  1.00  0.00     0.041 A 
ATOM     67  C   UNL     1       7.201   1.371  -7.766  1.00  0.00     0.026 A 
BRANCH  66  68
ATOM     68  N   UNL     1       4.880   1.004  -8.536  1.00  0.00    -0.332 N 
ATOM     69  H   UNL     1       3.963   1.355  -8.458  1.00  0.00     0.169 HD
BRANCH  68  70
ATOM     70  C   UNL     1       5.083   0.087  -9.509  1.00  0.00     0.187 A 
ATOM     71  N   UNL     1       6.033  -0.822  -9.557  1.00  0.00    -0.220 NA
ATOM     72  S   UNL     1       3.982   0.042 -10.843  1.00  0.00    -0.105 S 
ATOM     73  C   UNL     1       5.896  -1.603 -10.686  1.00  0.00     0.086 A 
ATOM     74  C   UNL     1       4.875  -1.240 -11.539  1.00  0.00     0.097 A 
BRANCH  73  75
ATOM     75  C   UNL     1       6.764  -2.731 -10.944  1.00  0.00     0.037 A 
ATOM     76  C   UNL     1       7.735  -2.665 -11.952  1.00  0.00     0.016 A 
ATOM     77  C   UNL     1       6.618  -3.913 -10.209  1.00  0.00     0.135 A 
ATOM     78  C   UNL     1       8.535  -3.779 -12.220  1.00  0.00     0.040 A 
ATOM     79  C   UNL     1       7.412  -5.024 -10.473  1.00  0.00     0.079 A 
ATOM     80  F   UNL     1       5.682  -4.012  -9.253  1.00  0.00    -0.206 F 
ATOM     81  C   UNL     1       8.363  -4.946 -11.481  1.00  0.00     0.126 A 
ATOM     82  F   UNL     1       9.123  -6.014 -11.753  1.00  0.00    -0.207 F 
ENDBRANCH  73  75
ENDBRANCH  68  70
ENDBRANCH  66  68
ENDBRANCH  59  62
ENDBRANCH  57  58
ENDBRANCH   1  57
TORSDOF 13
