REMARK SMILES Cc1ccc(Cl)c(Nc2ccccc2C(=O)NCC(=O)NCCCNC(=O)c2ccc(-c3c4nc(c(-c5ccccc5)c5ccc([nH]5)c(-c5ccccc5)c5nc(c(-c6ccccc6)c6ccc3[nH]6)C=C5)C=C4)cc2)c1Cl
REMARK SMILES IDX 22 1 21 2 19 3 20 4 18 6 17 7 15 8 16 9 14 11 9 12 10 13
REMARK SMILES IDX 11 14 13 15 12 16 8 17 7 19 1 20 2 21 3 22 76 23 4 24 77 25
REMARK SMILES IDX 5 26 6 27 23 28 24 29 25 30 26 31 27 33 28 34 29 35 75 36
REMARK SMILES IDX 30 37 74 38 31 39 32 40 33 41 68 42 34 43 73 44 67 45 69 46
REMARK SMILES IDX 35 47 72 48 66 49 65 50 36 52 58 53 43 54 57 55 44 56 47 57
REMARK SMILES IDX 56 58 70 59 45 60 46 61 55 63 71 64 48 65 37 66 38 67 42 68
REMARK SMILES IDX 39 69 41 70 40 71 59 72 60 73 64 74 61 75 63 76 62 77 49 78
REMARK SMILES IDX 50 79 54 80 51 81 53 82 52 83
REMARK H PARENT 21 5 17 10 8 18 25 32 69 51 47 62
REMARK Flexibility Score: inf
ROOT
ATOM      1  C   UNL     1      -1.757  -3.592   2.280  1.00  0.00     0.117 C 
ENDROOT
BRANCH   1   2
ATOM      2  N   UNL     1      -2.615  -2.433   2.323  1.00  0.00    -0.355 N 
ATOM      3  C   UNL     1      -2.223  -1.128   2.349  1.00  0.00     0.239 C 
ATOM      4  O   UNL     1      -3.074  -0.262   2.561  1.00  0.00    -0.273 OA
ATOM      5  H   UNL     1      -3.585  -2.602   2.336  1.00  0.00     0.163 HD
BRANCH   3   6
ATOM      6  C   UNL     1      -0.825  -0.773   1.856  1.00  0.00     0.216 C 
BRANCH   6   7
ATOM      7  N   UNL     1       0.402  -1.279   2.429  1.00  0.00    -0.343 N 
ATOM      8  C   UNL     1       1.493  -1.907   1.873  1.00  0.00     0.253 C 
ATOM      9  O   UNL     1       2.544  -1.756   2.508  1.00  0.00    -0.269 OA
ATOM     10  H   UNL     1       0.471  -1.149   3.402  1.00  0.00     0.164 HD
BRANCH   8  11
ATOM     11  C   UNL     1       1.495  -2.902   0.735  1.00  0.00     0.063 A 
ATOM     12  C   UNL     1       0.796  -2.935  -0.496  1.00  0.00     0.051 A 
ATOM     13  C   UNL     1       0.923  -4.097  -1.307  1.00  0.00     0.027 A 
ATOM     14  C   UNL     1       1.763  -5.159  -0.980  1.00  0.00     0.002 A 
ATOM     15  C   UNL     1       2.356  -3.997   1.029  1.00  0.00     0.016 A 
ATOM     16  C   UNL     1       2.503  -5.098   0.184  1.00  0.00     0.001 A 
BRANCH  12  17
ATOM     17  N   UNL     1       0.071  -1.902  -1.129  1.00  0.00    -0.352 N 
ATOM     18  H   UNL     1      -0.695  -2.231  -1.654  1.00  0.00     0.167 HD
BRANCH  17  19
ATOM     19  C   UNL     1       0.212  -0.492  -1.168  1.00  0.00     0.077 A 
ATOM     20  C   UNL     1       2.683   2.237  -0.130  1.00  0.00     0.046 C 
ATOM     21  C   UNL     1       1.420   1.546  -0.563  1.00  0.00    -0.030 A 
ATOM     22  C   UNL     1       0.212   2.260  -0.566  1.00  0.00     0.006 A 
ATOM     23  C   UNL     1       1.420   0.181  -0.909  1.00  0.00     0.069 A 
ATOM     24  C   UNL     1      -0.974   1.643  -0.952  1.00  0.00     0.023 A 
ATOM     25  Cl  UNL     1       2.945  -0.631  -1.112  1.00  0.00    -0.082 Cl
ATOM     26  C   UNL     1      -0.971   0.286  -1.263  1.00  0.00     0.066 A 
ATOM     27  Cl  UNL     1      -2.496  -0.464  -1.621  1.00  0.00    -0.082 Cl
ENDBRANCH  17  19
ENDBRANCH  12  17
ENDBRANCH   8  11
ENDBRANCH   6   7
ENDBRANCH   3   6
ENDBRANCH   1   2
BRANCH   1  28
ATOM     28  C   UNL     1      -1.249  -3.922   3.674  1.00  0.00     0.042 C 
BRANCH  28  29
ATOM     29  C   UNL     1      -2.393  -4.241   4.623  1.00  0.00     0.118 C 
BRANCH  29  30
ATOM     30  N   UNL     1      -3.103  -5.449   4.227  1.00  0.00    -0.352 N 
ATOM     31  C   UNL     1      -3.408  -6.546   4.988  1.00  0.00     0.251 C 
ATOM     32  H   UNL     1      -3.403  -5.480   3.290  1.00  0.00     0.163 HD
ATOM     33  O   UNL     1      -3.811  -7.575   4.464  1.00  0.00    -0.269 OA
BRANCH  31  34
ATOM     34  C   UNL     1      -3.222  -6.469   6.449  1.00  0.00     0.039 A 
ATOM     35  C   UNL     1      -2.595  -7.527   7.105  1.00  0.00     0.014 A 
ATOM     36  C   UNL     1      -3.645  -5.338   7.155  1.00  0.00     0.014 A 
ATOM     37  C   UNL     1      -2.353  -7.431   8.474  1.00  0.00     0.010 A 
ATOM     38  C   UNL     1      -3.318  -5.205   8.496  1.00  0.00     0.010 A 
ATOM     39  C   UNL     1      -2.688  -6.258   9.173  1.00  0.00    -0.014 A 
BRANCH  39  40
ATOM     40  C   UNL     1      -2.408  -6.127  10.621  1.00  0.00     0.031 A 
ATOM     41  C   UNL     1      -3.546  -5.968  11.591  1.00  0.00     0.074 A 
ATOM     42  C   UNL     1      -1.133  -6.104  11.052  1.00  0.00     0.049 A 
ATOM     43  N   UNL     1      -3.505  -5.812  12.890  1.00  0.00    -0.248 NA
ATOM     44  C   UNL     1      -4.906  -5.955  11.028  1.00  0.00     0.031 C 
ATOM     45  C   UNL     1       0.054  -6.204  10.200  1.00  0.00     0.029 A 
ATOM     46  N   UNL     1      -0.624  -5.990  12.320  1.00  0.00    -0.354 N 
ATOM     47  C   UNL     1      -4.827  -5.668  13.292  1.00  0.00     0.074 A 
ATOM     48  C   UNL     1      -5.641  -5.692  12.098  1.00  0.00     0.031 C 
ATOM     49  C   UNL     1       1.151  -6.186  10.973  1.00  0.00     0.029 A 
ATOM     50  C   UNL     1       0.748  -6.029  12.366  1.00  0.00     0.049 A 
ATOM     51  H   UNL     1      -1.188  -5.890  13.121  1.00  0.00     0.167 HD
ATOM     52  C   UNL     1      -5.322  -5.549  14.546  1.00  0.00     0.031 A 
ATOM     53  C   UNL     1       1.587  -5.945  13.415  1.00  0.00     0.031 A 
ATOM     54  C   UNL     1      -4.509  -5.534  15.732  1.00  0.00     0.049 A 
ATOM     55  C   UNL     1       1.012  -5.797  14.797  1.00  0.00     0.074 A 
ATOM     56  C   UNL     1      -4.914  -5.473  17.053  1.00  0.00     0.029 A 
ATOM     57  N   UNL     1      -3.123  -5.575  15.736  1.00  0.00    -0.354 N 
ATOM     58  N   UNL     1      -0.244  -5.737  15.168  1.00  0.00    -0.248 NA
ATOM     59  C   UNL     1       1.973  -5.719  15.905  1.00  0.00     0.031 C 
ATOM     60  C   UNL     1      -3.770  -5.419  17.856  1.00  0.00     0.029 A 
ATOM     61  C   UNL     1      -2.655  -5.514  17.038  1.00  0.00     0.049 A 
ATOM     62  H   UNL     1      -2.556  -5.639  14.934  1.00  0.00     0.167 HD
ATOM     63  C   UNL     1      -0.225  -5.644  16.554  1.00  0.00     0.074 A 
ATOM     64  C   UNL     1       1.166  -5.675  16.956  1.00  0.00     0.031 C 
ATOM     65  C   UNL     1      -1.266  -5.544  17.417  1.00  0.00     0.031 A 
BRANCH  52  66
ATOM     66  C   UNL     1      -6.813  -5.420  14.692  1.00  0.00    -0.014 A 
ATOM     67  C   UNL     1      -7.672  -6.492  14.398  1.00  0.00     0.009 A 
ATOM     68  C   UNL     1      -7.367  -4.217  15.157  1.00  0.00     0.009 A 
ATOM     69  C   UNL     1      -9.055  -6.349  14.528  1.00  0.00     0.001 A 
ATOM     70  C   UNL     1      -8.748  -4.087  15.318  1.00  0.00     0.001 A 
ATOM     71  C   UNL     1      -9.591  -5.149  14.993  1.00  0.00     0.000 A 
ENDBRANCH  52  66
BRANCH  53  72
ATOM     72  C   UNL     1       3.056  -6.015  13.204  1.00  0.00    -0.014 A 
ATOM     73  C   UNL     1       3.788  -7.128  13.647  1.00  0.00     0.009 A 
ATOM     74  C   UNL     1       3.738  -4.968  12.564  1.00  0.00     0.009 A 
ATOM     75  C   UNL     1       5.174  -7.176  13.481  1.00  0.00     0.001 A 
ATOM     76  C   UNL     1       5.119  -5.033  12.371  1.00  0.00     0.001 A 
ATOM     77  C   UNL     1       5.838  -6.132  12.840  1.00  0.00     0.000 A 
ENDBRANCH  53  72
BRANCH  65  78
ATOM     78  C   UNL     1      -0.939  -5.498  18.883  1.00  0.00    -0.014 A 
ATOM     79  C   UNL     1      -0.336  -4.372  19.464  1.00  0.00     0.009 A 
ATOM     80  C   UNL     1      -1.276  -6.588  19.701  1.00  0.00     0.009 A 
ATOM     81  C   UNL     1      -0.045  -4.354  20.830  1.00  0.00     0.001 A 
ATOM     82  C   UNL     1      -1.015  -6.553  21.071  1.00  0.00     0.001 A 
ATOM     83  C   UNL     1      -0.389  -5.441  21.632  1.00  0.00     0.000 A 
ENDBRANCH  65  78
ENDBRANCH  39  40
ENDBRANCH  31  34
ENDBRANCH  29  30
ENDBRANCH  28  29
ENDBRANCH   1  28
TORSDOF 14
