REMARK SMILES O=C(CCCN1C(=O)C(=O)/C(=C(/[O-])c2ccc(Cl)cc2)[C@@H]1c1ccccc1[N+](=O)[O-])NCCCNC(=O)c1ccc(-c2c3nc(c(-c4ccccc4)c4ccc([nH]4)c(-c4ccccc4)c4nc(c(-c5ccccc5)c5ccc2[nH]5)C=C4)C=C3)cc1
REMARK SMILES IDX 1 1 2 2 31 3 3 5 4 6 5 7 6 8 7 9 21 10 8 11 9 12 11 13 10 14
REMARK SMILES IDX 12 15 13 16 22 17 23 18 27 19 24 20 26 21 25 22 28 23 29 24
REMARK SMILES IDX 30 25 14 26 15 27 20 28 16 29 19 30 17 31 18 32 32 33 33 34
REMARK SMILES IDX 34 35 35 36 36 37 37 39 38 40 39 41 85 42 40 43 84 44 41 45
REMARK SMILES IDX 42 46 43 47 78 48 44 49 83 50 77 51 79 52 45 53 82 54 76 55
REMARK SMILES IDX 75 56 46 58 68 59 53 60 67 61 54 62 57 63 66 64 80 65 55 66
REMARK SMILES IDX 56 67 65 69 81 70 58 71 47 72 48 73 52 74 49 75 51 76 50 77
REMARK SMILES IDX 69 78 70 79 74 80 71 81 73 82 72 83 59 84 60 85 64 86 61 87
REMARK SMILES IDX 63 88 62 89
REMARK H PARENT 31 4 35 38 79 57 57 68
REMARK Flexibility Score: inf
ROOT
ATOM      1  O   UNL     1       1.228  -1.470   0.270  1.00  0.00    -0.275 OA
ATOM      2  C   UNL     1       1.911  -0.474   0.054  1.00  0.00     0.220 C 
ATOM      3  N   UNL     1       1.852   0.255  -1.127  1.00  0.00    -0.356 N 
ATOM      4  H   UNL     1       2.268   1.147  -1.160  1.00  0.00     0.163 HD
ENDROOT
BRANCH   2   5
ATOM      5  C   UNL     1       2.888   0.093   1.084  1.00  0.00     0.102 C 
BRANCH   5   6
ATOM      6  C   UNL     1       3.890  -0.895   1.737  1.00  0.00     0.031 C 
BRANCH   6   7
ATOM      7  C   UNL     1       5.370  -1.064   1.232  1.00  0.00     0.121 C 
BRANCH   7   8
ATOM      8  N   UNL     1       5.937   0.028   0.447  1.00  0.00    -0.324 N 
ATOM      9  C   UNL     1       5.753   1.331   0.879  1.00  0.00     0.295 C 
ATOM     10  C   UNL     1       7.061  -0.058  -0.539  1.00  0.00     0.157 C 
ATOM     11  O   UNL     1       5.298   1.748   1.917  1.00  0.00    -0.265 OA
ATOM     12  C   UNL     1       6.255   2.209  -0.242  1.00  0.00     0.248 C 
ATOM     13  C   UNL     1       7.297   1.411  -0.928  1.00  0.00     0.025 C 
ATOM     14  O   UNL     1       5.803   3.295  -0.515  1.00  0.00    -0.283 OA
ATOM     15  C   UNL     1       8.329   2.036  -1.522  1.00  0.00    -0.092 C 
ATOM     16  O   UNL     1       9.456   1.348  -1.912  1.00  0.00    -0.872 OA
BRANCH  10  17
ATOM     17  C   UNL     1       6.984  -1.044  -1.726  1.00  0.00     0.057 A 
ATOM     18  C   UNL     1       8.153  -1.330  -2.462  1.00  0.00     0.013 A 
ATOM     19  C   UNL     1       5.849  -1.721  -2.200  1.00  0.00     0.275 A 
ATOM     20  C   UNL     1       8.159  -2.169  -3.594  1.00  0.00     0.001 A 
ATOM     21  C   UNL     1       5.850  -2.639  -3.268  1.00  0.00     0.086 A 
ATOM     22  C   UNL     1       7.011  -2.839  -3.988  1.00  0.00     0.007 A 
BRANCH  19  23
ATOM     23  N   UNL     1       4.556  -1.366  -1.721  1.00  0.00     0.063 N 
ATOM     24  O   UNL     1       3.794  -2.281  -1.390  1.00  0.00    -0.258 OA
ATOM     25  O   UNL     1       4.319  -0.152  -1.701  1.00  0.00    -0.258 OA
ENDBRANCH  19  23
ENDBRANCH  10  17
BRANCH  15  26
ATOM     26  C   UNL     1       8.426   3.495  -1.723  1.00  0.00    -0.033 A 
ATOM     27  C   UNL     1       8.709   4.348  -0.646  1.00  0.00     0.009 A 
ATOM     28  C   UNL     1       8.237   4.041  -3.001  1.00  0.00     0.009 A 
ATOM     29  C   UNL     1       8.775   5.730  -0.840  1.00  0.00     0.021 A 
ATOM     30  C   UNL     1       8.311   5.425  -3.195  1.00  0.00     0.021 A 
ATOM     31  C   UNL     1       8.575   6.263  -2.112  1.00  0.00     0.041 A 
ATOM     32  Cl  UNL     1       8.657   7.965  -2.346  1.00  0.00    -0.084 Cl
ENDBRANCH  15  26
ENDBRANCH   7   8
ENDBRANCH   6   7
ENDBRANCH   5   6
ENDBRANCH   2   5
BRANCH   3  33
ATOM     33  C   UNL     1       1.195  -0.260  -2.316  1.00  0.00     0.117 C 
BRANCH  33  34
ATOM     34  C   UNL     1       1.417   0.572  -3.591  1.00  0.00     0.042 C 
BRANCH  34  35
ATOM     35  C   UNL     1       2.797   0.530  -4.266  1.00  0.00     0.118 C 
BRANCH  35  36
ATOM     36  N   UNL     1       3.212  -0.782  -4.751  1.00  0.00    -0.352 N 
ATOM     37  C   UNL     1       4.093  -1.102  -5.765  1.00  0.00     0.251 C 
ATOM     38  H   UNL     1       2.805  -1.550  -4.288  1.00  0.00     0.163 HD
ATOM     39  O   UNL     1       4.252  -2.278  -6.087  1.00  0.00    -0.269 OA
BRANCH  37  40
ATOM     40  C   UNL     1       4.814  -0.044  -6.514  1.00  0.00     0.039 A 
ATOM     41  C   UNL     1       4.838  -0.120  -7.913  1.00  0.00     0.014 A 
ATOM     42  C   UNL     1       5.436   1.028  -5.871  1.00  0.00     0.014 A 
ATOM     43  C   UNL     1       5.350   0.942  -8.665  1.00  0.00     0.010 A 
ATOM     44  C   UNL     1       5.906   2.110  -6.621  1.00  0.00     0.010 A 
ATOM     45  C   UNL     1       5.816   2.100  -8.022  1.00  0.00    -0.014 A 
BRANCH  45  46
ATOM     46  C   UNL     1       6.049   3.357  -8.782  1.00  0.00     0.031 A 
ATOM     47  C   UNL     1       7.415   3.963  -8.905  1.00  0.00     0.074 A 
ATOM     48  C   UNL     1       4.979   4.013  -9.278  1.00  0.00     0.049 A 
ATOM     49  N   UNL     1       7.764   5.102  -9.450  1.00  0.00    -0.248 NA
ATOM     50  C   UNL     1       8.533   3.201  -8.331  1.00  0.00     0.031 C 
ATOM     51  C   UNL     1       3.591   3.551  -9.194  1.00  0.00     0.029 A 
ATOM     52  N   UNL     1       4.887   5.217  -9.933  1.00  0.00    -0.354 N 
ATOM     53  C   UNL     1       9.138   5.200  -9.280  1.00  0.00     0.074 A 
ATOM     54  C   UNL     1       9.555   4.018  -8.553  1.00  0.00     0.031 C 
ATOM     55  C   UNL     1       2.790   4.452  -9.783  1.00  0.00     0.029 A 
ATOM     56  C   UNL     1       3.597   5.574 -10.247  1.00  0.00     0.049 A 
ATOM     57  H   UNL     1       5.669   5.771 -10.157  1.00  0.00     0.167 HD
ATOM     58  C   UNL     1       9.975   6.181  -9.698  1.00  0.00     0.031 A 
ATOM     59  C   UNL     1       3.109   6.687 -10.827  1.00  0.00     0.031 A 
ATOM     60  C   UNL     1       9.560   7.362 -10.411  1.00  0.00     0.049 A 
ATOM     61  C   UNL     1       4.055   7.773 -11.250  1.00  0.00     0.074 A 
ATOM     62  C   UNL     1      10.345   8.391 -10.905  1.00  0.00     0.029 A 
ATOM     63  N   UNL     1       8.247   7.679 -10.722  1.00  0.00    -0.354 N 
ATOM     64  N   UNL     1       5.359   7.818 -11.137  1.00  0.00    -0.248 NA
ATOM     65  C   UNL     1       3.462   8.956 -11.890  1.00  0.00     0.031 C 
ATOM     66  C   UNL     1       9.502   9.351 -11.476  1.00  0.00     0.029 A 
ATOM     67  C   UNL     1       8.197   8.896 -11.382  1.00  0.00     0.049 A 
ATOM     68  H   UNL     1       7.465   7.121 -10.506  1.00  0.00     0.167 HD
ATOM     69  C   UNL     1       5.747   9.017 -11.720  1.00  0.00     0.074 A 
ATOM     70  C   UNL     1       4.541   9.666 -12.191  1.00  0.00     0.031 C 
ATOM     71  C   UNL     1       6.994   9.528 -11.856  1.00  0.00     0.031 A 
BRANCH  58  72
ATOM     72  C   UNL     1      11.436   6.025  -9.380  1.00  0.00    -0.014 A 
ATOM     73  C   UNL     1      12.226   5.077 -10.050  1.00  0.00     0.009 A 
ATOM     74  C   UNL     1      12.042   6.867  -8.435  1.00  0.00     0.009 A 
ATOM     75  C   UNL     1      13.586   4.952  -9.752  1.00  0.00     0.001 A 
ATOM     76  C   UNL     1      13.406   6.758  -8.158  1.00  0.00     0.001 A 
ATOM     77  C   UNL     1      14.175   5.795  -8.810  1.00  0.00     0.000 A 
ENDBRANCH  58  72
BRANCH  59  78
ATOM     78  C   UNL     1       1.646   6.824 -11.052  1.00  0.00    -0.014 A 
ATOM     79  C   UNL     1       1.116   6.739 -12.348  1.00  0.00     0.009 A 
ATOM     80  C   UNL     1       0.773   7.034  -9.973  1.00  0.00     0.009 A 
ATOM     81  C   UNL     1      -0.257   6.882 -12.562  1.00  0.00     0.001 A 
ATOM     82  C   UNL     1      -0.602   7.150 -10.187  1.00  0.00     0.001 A 
ATOM     83  C   UNL     1      -1.115   7.082 -11.481  1.00  0.00     0.000 A 
ENDBRANCH  59  78
BRANCH  71  84
ATOM     84  C   UNL     1       7.127  10.833 -12.588  1.00  0.00    -0.014 A 
ATOM     85  C   UNL     1       6.759  12.047 -11.991  1.00  0.00     0.009 A 
ATOM     86  C   UNL     1       7.677  10.847 -13.880  1.00  0.00     0.009 A 
ATOM     87  C   UNL     1       6.919  13.250 -12.683  1.00  0.00     0.001 A 
ATOM     88  C   UNL     1       7.858  12.052 -14.559  1.00  0.00     0.001 A 
ATOM     89  C   UNL     1       7.473  13.252 -13.963  1.00  0.00     0.000 A 
ENDBRANCH  71  84
ENDBRANCH  45  46
ENDBRANCH  37  40
ENDBRANCH  35  36
ENDBRANCH  34  35
ENDBRANCH  33  34
ENDBRANCH   3  33
TORSDOF 16
