REMARK SMILES Cc1onc2c(=O)n(C)nc(C(=O)NCCCNC(=O)c3ccc(-c4c5nc(c(-c6ccccc6)c6ccc([nH]6)c(-c6ccccc6)c6nc(c(-c7ccccc7)c7ccc4[nH]7)C=C6)C=C5)cc3)c12
REMARK SMILES IDX 17 1 16 2 15 3 14 4 12 5 13 6 11 8 1 9 2 10 3 11 69 12 4 13
REMARK SMILES IDX 5 14 6 15 10 16 7 17 8 18 9 19 18 20 19 21 20 23 21 24 22 25
REMARK SMILES IDX 68 26 23 27 67 28 24 29 25 30 26 31 61 32 27 33 66 34 60 35
REMARK SMILES IDX 62 36 28 37 65 38 59 39 58 40 29 42 51 43 36 44 50 45 37 46
REMARK SMILES IDX 40 47 49 48 63 49 38 50 39 51 48 53 64 54 41 55 30 56 31 57
REMARK SMILES IDX 35 58 32 59 34 60 33 61 52 62 53 63 57 64 54 65 56 66 55 67
REMARK SMILES IDX 42 68 43 69 47 70 44 71 46 72 45 73
REMARK H PARENT 14 7 18 22 62 41 40 52
REMARK Flexibility Score: inf
ROOT
ATOM      1  C   UNL     1       1.436   6.291   3.608  1.00  0.00     0.118 C 
ENDROOT
BRANCH   1   2
ATOM      2  C   UNL     1       0.988   6.161   2.139  1.00  0.00     0.042 C 
BRANCH   2   3
ATOM      3  C   UNL     1       1.917   5.360   1.213  1.00  0.00     0.118 C 
BRANCH   3   4
ATOM      4  N   UNL     1       1.889   3.927   1.466  1.00  0.00    -0.351 N 
ATOM      5  C   UNL     1       1.599   2.836   0.671  1.00  0.00     0.272 C 
ATOM      6  O   UNL     1       1.796   1.726   1.157  1.00  0.00    -0.267 OA
ATOM      7  H   UNL     1       2.123   3.687   2.392  1.00  0.00     0.163 HD
BRANCH   5   8
ATOM      8  C   UNL     1       1.056   2.934  -0.768  1.00  0.00     0.161 A 
ATOM      9  C   UNL     1       0.677  -0.494  -0.171  1.00  0.00     0.091 C 
ATOM     10  C   UNL     1       0.429   0.441  -1.285  1.00  0.00     0.144 A 
ATOM     11  O   UNL     1      -0.083  -0.149  -2.406  1.00  0.00    -0.360 OA
ATOM     12  C   UNL     1       0.576   1.791  -1.522  1.00  0.00     0.083 A 
ATOM     13  N   UNL     1      -0.284   0.799  -3.390  1.00  0.00    -0.074 NA
ATOM     14  C   UNL     1       0.114   1.952  -2.845  1.00  0.00     0.183 A 
ATOM     15  C   UNL     1       0.091   3.241  -3.496  1.00  0.00     0.296 A 
ATOM     16  N   UNL     1       1.036   4.102  -1.356  1.00  0.00    -0.164 NA
ATOM     17  O   UNL     1      -0.306   3.425  -4.650  1.00  0.00    -0.265 OA
ATOM     18  N   UNL     1       0.568   4.269  -2.666  1.00  0.00    -0.230 N 
ATOM     19  C   UNL     1       0.596   5.616  -3.199  1.00  0.00     0.178 C 
ENDBRANCH   5   8
ENDBRANCH   3   4
ENDBRANCH   2   3
ENDBRANCH   1   2
BRANCH   1  20
ATOM     20  N   UNL     1       2.706   6.992   3.724  1.00  0.00    -0.352 N 
ATOM     21  C   UNL     1       3.131   8.051   4.479  1.00  0.00     0.251 C 
ATOM     22  H   UNL     1       3.405   6.628   3.134  1.00  0.00     0.163 HD
ATOM     23  O   UNL     1       4.189   8.587   4.145  1.00  0.00    -0.269 OA
BRANCH  21  24
ATOM     24  C   UNL     1       2.426   8.577   5.674  1.00  0.00     0.039 A 
ATOM     25  C   UNL     1       2.541   9.954   5.928  1.00  0.00     0.014 A 
ATOM     26  C   UNL     1       1.832   7.760   6.638  1.00  0.00     0.014 A 
ATOM     27  C   UNL     1       2.048  10.514   7.111  1.00  0.00     0.010 A 
ATOM     28  C   UNL     1       1.336   8.326   7.827  1.00  0.00     0.010 A 
ATOM     29  C   UNL     1       1.428   9.708   8.071  1.00  0.00    -0.014 A 
BRANCH  29  30
ATOM     30  C   UNL     1       0.738  10.377   9.203  1.00  0.00     0.031 A 
ATOM     31  C   UNL     1      -0.647   9.886   9.468  1.00  0.00     0.074 A 
ATOM     32  C   UNL     1       1.357  11.011  10.225  1.00  0.00     0.049 A 
ATOM     33  N   UNL     1      -0.883   8.819  10.175  1.00  0.00    -0.248 NA
ATOM     34  C   UNL     1      -1.816  10.399   8.757  1.00  0.00     0.031 C 
ATOM     35  C   UNL     1       2.660  10.609  10.764  1.00  0.00     0.029 A 
ATOM     36  N   UNL     1       0.881  11.926  11.142  1.00  0.00    -0.354 N 
ATOM     37  C   UNL     1      -2.205   8.476   9.966  1.00  0.00     0.074 A 
ATOM     38  C   UNL     1      -2.749   9.495   9.094  1.00  0.00     0.031 C 
ATOM     39  C   UNL     1       2.793  11.131  12.003  1.00  0.00     0.029 A 
ATOM     40  C   UNL     1       1.681  12.039  12.279  1.00  0.00     0.049 A 
ATOM     41  H   UNL     1       0.057  12.448  11.007  1.00  0.00     0.167 HD
ATOM     42  C   UNL     1      -2.772   7.368  10.510  1.00  0.00     0.031 A 
ATOM     43  C   UNL     1       1.234  12.351  13.529  1.00  0.00     0.031 A 
ATOM     44  C   UNL     1      -1.921   6.580  11.351  1.00  0.00     0.049 A 
ATOM     45  C   UNL     1       0.457  11.112  13.888  1.00  0.00     0.074 A 
ATOM     46  C   UNL     1      -1.110   5.471  11.230  1.00  0.00     0.029 A 
ATOM     47  N   UNL     1      -1.753   6.984  12.653  1.00  0.00    -0.354 N 
ATOM     48  N   UNL     1       0.945   9.977  14.306  1.00  0.00    -0.248 NA
ATOM     49  C   UNL     1      -0.933  11.052  13.430  1.00  0.00     0.031 C 
ATOM     50  C   UNL     1      -0.169   5.568  12.304  1.00  0.00     0.029 A 
ATOM     51  C   UNL     1      -0.440   6.760  12.973  1.00  0.00     0.049 A 
ATOM     52  H   UNL     1      -2.445   7.361  13.244  1.00  0.00     0.167 HD
ATOM     53  C   UNL     1       0.036   9.008  13.880  1.00  0.00     0.074 A 
ATOM     54  C   UNL     1      -1.107   9.740  13.370  1.00  0.00     0.031 C 
ATOM     55  C   UNL     1       0.333   7.679  13.780  1.00  0.00     0.031 A 
BRANCH  42  56
ATOM     56  C   UNL     1      -4.204   7.026  10.405  1.00  0.00    -0.014 A 
ATOM     57  C   UNL     1      -5.026   7.289  11.512  1.00  0.00     0.009 A 
ATOM     58  C   UNL     1      -4.709   6.272   9.341  1.00  0.00     0.009 A 
ATOM     59  C   UNL     1      -6.316   6.767  11.580  1.00  0.00     0.001 A 
ATOM     60  C   UNL     1      -6.009   5.760   9.406  1.00  0.00     0.001 A 
ATOM     61  C   UNL     1      -6.803   5.994  10.531  1.00  0.00     0.000 A 
ENDBRANCH  42  56
BRANCH  43  62
ATOM     62  C   UNL     1       0.666  13.726  13.739  1.00  0.00    -0.014 A 
ATOM     63  C   UNL     1       1.404  14.834  13.280  1.00  0.00     0.009 A 
ATOM     64  C   UNL     1      -0.539  13.999  14.408  1.00  0.00     0.009 A 
ATOM     65  C   UNL     1       0.910  16.140  13.385  1.00  0.00     0.001 A 
ATOM     66  C   UNL     1      -1.053  15.302  14.483  1.00  0.00     0.001 A 
ATOM     67  C   UNL     1      -0.335  16.370  13.959  1.00  0.00     0.000 A 
ENDBRANCH  43  62
BRANCH  55  68
ATOM     68  C   UNL     1       1.655   7.242  14.323  1.00  0.00    -0.014 A 
ATOM     69  C   UNL     1       1.880   7.224  15.705  1.00  0.00     0.009 A 
ATOM     70  C   UNL     1       2.666   6.778  13.466  1.00  0.00     0.009 A 
ATOM     71  C   UNL     1       3.075   6.715  16.220  1.00  0.00     0.001 A 
ATOM     72  C   UNL     1       3.852   6.253  13.981  1.00  0.00     0.001 A 
ATOM     73  C   UNL     1       4.052   6.216  15.359  1.00  0.00     0.000 A 
ENDBRANCH  55  68
ENDBRANCH  29  30
ENDBRANCH  21  24
ENDBRANCH   1  20
TORSDOF 10
