REMARK SMILES C=CC[N@@H+](CC(=O)NCCCNC(=O)c1ccc(-c2c3nc(c(-c4ccccc4)c4ccc([nH]4)c(-c4ccccc4)c4nc(c(-c5ccccc5)c5ccc2[nH]5)C=C4)C=C3)cc1)C1CCCCC1
REMARK SMILES IDX 9 1 8 2 6 3 7 4 5 6 4 7 3 9 2 10 1 11 63 12 64 13 68 14
REMARK SMILES IDX 65 15 67 16 66 17 10 18 11 19 12 20 13 21 14 23 15 24 16 25
REMARK SMILES IDX 62 26 17 27 61 28 18 29 19 30 20 31 55 32 21 33 60 34 54 35
REMARK SMILES IDX 56 36 22 37 59 38 53 39 52 40 23 42 45 43 30 44 44 45 31 46
REMARK SMILES IDX 34 47 43 48 57 49 32 50 33 51 42 53 58 54 35 55 24 56 25 57
REMARK SMILES IDX 29 58 26 59 28 60 27 61 46 62 47 63 51 64 48 65 50 66 49 67
REMARK SMILES IDX 36 68 37 69 41 70 38 71 40 72 39 73
REMARK H PARENT 8 5 4 8 12 22 56 41 34 52
REMARK Flexibility Score: inf
ROOT
ATOM      1  C   UNL     1      -3.103  -1.316   0.398  1.00  0.00     0.118 C 
ENDROOT
BRANCH   1   2
ATOM      2  N   UNL     1      -3.751  -0.055   0.090  1.00  0.00    -0.351 N 
ATOM      3  C   UNL     1      -3.729   0.718  -1.034  1.00  0.00     0.275 C 
ATOM      4  O   UNL     1      -4.425   1.739  -1.010  1.00  0.00    -0.269 OA
ATOM      5  H   UNL     1      -4.303   0.307   0.821  1.00  0.00     0.163 HD
BRANCH   3   6
ATOM      6  C   UNL     1      -2.930   0.337  -2.285  1.00  0.00     0.364 C 
BRANCH   6   7
ATOM      7  N   UNL     1      -1.507   0.731  -2.320  1.00  0.00    -0.321 N 
ATOM      8  H   UNL     1      -1.341   0.850  -3.319  1.00  0.00     0.349 HD
BRANCH   7   9
ATOM      9  C   UNL     1      -0.601  -0.340  -1.930  1.00  0.00     0.291 C 
BRANCH   9  10
ATOM     10  C   UNL     1       0.867  -0.051  -2.050  1.00  0.00     0.025 C 
ATOM     11  C   UNL     1       1.710  -0.021  -1.007  1.00  0.00     0.010 C 
ENDBRANCH   9  10
ENDBRANCH   7   9
BRANCH   7  12
ATOM     12  C   UNL     1      -1.130   2.114  -1.990  1.00  0.00     0.184 C 
ATOM     13  C   UNL     1      -1.881   3.147  -2.854  1.00  0.00     0.065 C 
ATOM     14  C   UNL     1      -1.176   2.500  -0.497  1.00  0.00     0.065 C 
ATOM     15  C   UNL     1      -1.348   4.561  -2.614  1.00  0.00     0.006 C 
ATOM     16  C   UNL     1      -0.674   3.927  -0.267  1.00  0.00     0.006 C 
ATOM     17  C   UNL     1      -1.412   4.939  -1.138  1.00  0.00     0.000 C 
ENDBRANCH   7  12
ENDBRANCH   6   7
ENDBRANCH   3   6
ENDBRANCH   1   2
BRANCH   1  18
ATOM     18  C   UNL     1      -1.907  -1.135   1.334  1.00  0.00     0.042 C 
BRANCH  18  19
ATOM     19  C   UNL     1      -2.264  -0.765   2.767  1.00  0.00     0.118 C 
BRANCH  19  20
ATOM     20  N   UNL     1      -2.662  -1.913   3.562  1.00  0.00    -0.352 N 
ATOM     21  C   UNL     1      -1.991  -2.638   4.517  1.00  0.00     0.251 C 
ATOM     22  H   UNL     1      -3.577  -2.229   3.384  1.00  0.00     0.163 HD
ATOM     23  O   UNL     1      -2.493  -3.690   4.910  1.00  0.00    -0.269 OA
BRANCH  21  24
ATOM     24  C   UNL     1      -0.681  -2.212   5.078  1.00  0.00     0.039 A 
ATOM     25  C   UNL     1       0.233  -3.208   5.448  1.00  0.00     0.014 A 
ATOM     26  C   UNL     1      -0.366  -0.877   5.341  1.00  0.00     0.014 A 
ATOM     27  C   UNL     1       1.458  -2.867   6.035  1.00  0.00     0.010 A 
ATOM     28  C   UNL     1       0.891  -0.531   5.844  1.00  0.00     0.010 A 
ATOM     29  C   UNL     1       1.810  -1.522   6.219  1.00  0.00    -0.014 A 
BRANCH  29  30
ATOM     30  C   UNL     1       3.105  -1.141   6.845  1.00  0.00     0.031 A 
ATOM     31  C   UNL     1       3.129  -0.413   8.165  1.00  0.00     0.074 A 
ATOM     32  C   UNL     1       4.266  -1.411   6.218  1.00  0.00     0.049 A 
ATOM     33  N   UNL     1       4.155   0.041   8.842  1.00  0.00    -0.248 NA
ATOM     34  C   UNL     1       1.828  -0.140   8.796  1.00  0.00     0.031 C 
ATOM     35  C   UNL     1       4.397  -2.087   4.927  1.00  0.00     0.029 A 
ATOM     36  N   UNL     1       5.562  -1.148   6.589  1.00  0.00    -0.354 N 
ATOM     37  C   UNL     1       3.622   0.674   9.959  1.00  0.00     0.074 A 
ATOM     38  C   UNL     1       2.183   0.583   9.847  1.00  0.00     0.031 C 
ATOM     39  C   UNL     1       5.701  -2.217   4.630  1.00  0.00     0.029 A 
ATOM     40  C   UNL     1       6.495  -1.603   5.689  1.00  0.00     0.049 A 
ATOM     41  H   UNL     1       5.800  -0.679   7.421  1.00  0.00     0.167 HD
ATOM     42  C   UNL     1       4.266   1.262  10.996  1.00  0.00     0.031 A 
ATOM     43  C   UNL     1       7.840  -1.535   5.712  1.00  0.00     0.031 A 
ATOM     44  C   UNL     1       5.696   1.335  11.132  1.00  0.00     0.049 A 
ATOM     45  C   UNL     1       8.534  -0.875   6.869  1.00  0.00     0.074 A 
ATOM     46  C   UNL     1       6.438   1.861  12.177  1.00  0.00     0.029 A 
ATOM     47  N   UNL     1       6.601   0.865  10.195  1.00  0.00    -0.354 N 
ATOM     48  N   UNL     1       8.014  -0.323   7.937  1.00  0.00    -0.248 NA
ATOM     49  C   UNL     1      10.003  -0.839   6.824  1.00  0.00     0.031 C 
ATOM     50  C   UNL     1       7.794   1.742  11.853  1.00  0.00     0.029 A 
ATOM     51  C   UNL     1       7.895   1.104  10.627  1.00  0.00     0.049 A 
ATOM     52  H   UNL     1       6.361   0.426   9.347  1.00  0.00     0.167 HD
ATOM     53  C   UNL     1       9.091   0.104   8.704  1.00  0.00     0.074 A 
ATOM     54  C   UNL     1      10.293  -0.261   7.982  1.00  0.00     0.031 C 
ATOM     55  C   UNL     1       9.082   0.740   9.900  1.00  0.00     0.031 A 
BRANCH  42  56
ATOM     56  C   UNL     1       3.414   1.883  12.068  1.00  0.00    -0.014 A 
ATOM     57  C   UNL     1       2.679   1.090  12.964  1.00  0.00     0.009 A 
ATOM     58  C   UNL     1       3.353   3.280  12.190  1.00  0.00     0.009 A 
ATOM     59  C   UNL     1       1.866   1.684  13.931  1.00  0.00     0.001 A 
ATOM     60  C   UNL     1       2.561   3.871  13.176  1.00  0.00     0.001 A 
ATOM     61  C   UNL     1       1.809   3.073  14.037  1.00  0.00     0.000 A 
ENDBRANCH  42  56
BRANCH  43  62
ATOM     62  C   UNL     1       8.627  -2.143   4.608  1.00  0.00    -0.014 A 
ATOM     63  C   UNL     1       9.316  -3.347   4.814  1.00  0.00     0.009 A 
ATOM     64  C   UNL     1       8.686  -1.530   3.348  1.00  0.00     0.009 A 
ATOM     65  C   UNL     1      10.062  -3.920   3.783  1.00  0.00     0.001 A 
ATOM     66  C   UNL     1       9.415  -2.117   2.311  1.00  0.00     0.001 A 
ATOM     67  C   UNL     1      10.107  -3.307   2.531  1.00  0.00     0.000 A 
ENDBRANCH  43  62
BRANCH  55  68
ATOM     68  C   UNL     1      10.414   1.054  10.519  1.00  0.00    -0.014 A 
ATOM     69  C   UNL     1      11.212   2.100  10.034  1.00  0.00     0.009 A 
ATOM     70  C   UNL     1      10.858   0.313  11.626  1.00  0.00     0.009 A 
ATOM     71  C   UNL     1      12.445   2.380  10.628  1.00  0.00     0.001 A 
ATOM     72  C   UNL     1      12.079   0.610  12.232  1.00  0.00     0.001 A 
ATOM     73  C   UNL     1      12.875   1.638  11.727  1.00  0.00     0.000 A 
ENDBRANCH  55  68
ENDBRANCH  29  30
ENDBRANCH  21  24
ENDBRANCH  19  20
ENDBRANCH  18  19
ENDBRANCH   1  18
TORSDOF 14
