REMARK SMILES C[C@@H](C(=O)NCCCNC(=O)c1ccc(-c2c3nc(c(-c4ccccc4)c4ccc([nH]4)c(-c4ccccc4)c4nc(c(-c5ccccc5)c5ccc2[nH]5)C=C4)C=C3)cc1)c1ccc(OC2CCCC2)cc1F
REMARK SMILES IDX 6 1 5 2 3 3 4 4 2 6 1 7 60 8 61 9 71 10 62 11 70 12 72 13
REMARK SMILES IDX 63 14 64 15 65 16 66 17 69 18 67 19 68 20 7 21 8 22 9 23
REMARK SMILES IDX 10 24 11 26 12 27 13 28 59 29 14 30 58 31 15 32 16 33 17 34
REMARK SMILES IDX 52 35 18 36 57 37 51 38 53 39 19 40 56 41 50 42 49 43 20 45
REMARK SMILES IDX 42 46 27 47 41 48 28 49 31 50 40 51 54 52 29 53 30 54 39 56
REMARK SMILES IDX 55 57 32 58 21 59 22 60 26 61 23 62 25 63 24 64 43 65 44 66
REMARK SMILES IDX 48 67 45 68 47 69 46 70 33 71 34 72 38 73 35 74 37 75 36 76
REMARK H PARENT 5 5 9 25 53 44 31 55
REMARK Flexibility Score: inf
ROOT
ATOM      1  C   UNL     1       3.484   2.280  -0.400  1.00  0.00     0.117 C 
ENDROOT
BRANCH   1   2
ATOM      2  N   UNL     1       2.340   2.545  -1.253  1.00  0.00    -0.356 N 
ATOM      3  C   UNL     1       1.054   2.088  -1.187  1.00  0.00     0.227 C 
ATOM      4  O   UNL     1       0.321   2.380  -2.135  1.00  0.00    -0.274 OA
ATOM      5  H   UNL     1       2.520   3.155  -2.005  1.00  0.00     0.163 HD
BRANCH   3   6
ATOM      6  C   UNL     1       0.566   1.295   0.042  1.00  0.00     0.108 C 
ATOM      7  C   UNL     1       1.228  -0.086   0.075  1.00  0.00     0.023 C 
BRANCH   6   8
ATOM      8  C   UNL     1      -0.963   1.256   0.133  1.00  0.00     0.000 A 
ATOM      9  C   UNL     1      -1.688   2.459   0.212  1.00  0.00     0.011 A 
ATOM     10  C   UNL     1      -1.707   0.072   0.155  1.00  0.00     0.130 A 
ATOM     11  C   UNL     1      -3.090   2.456   0.273  1.00  0.00     0.047 A 
ATOM     12  C   UNL     1      -3.096   0.068   0.249  1.00  0.00     0.086 A 
ATOM     13  F   UNL     1      -1.118  -1.129   0.082  1.00  0.00    -0.207 F 
ATOM     14  C   UNL     1      -3.806   1.258   0.277  1.00  0.00     0.122 A 
BRANCH  14  15
ATOM     15  O   UNL     1      -5.163   1.388   0.306  1.00  0.00    -0.490 OA
BRANCH  15  16
ATOM     16  C   UNL     1      -6.037   0.276   0.121  1.00  0.00     0.173 C 
ATOM     17  C   UNL     1      -5.874  -0.521  -1.173  1.00  0.00     0.045 C 
ATOM     18  C   UNL     1      -6.070  -0.726   1.277  1.00  0.00     0.045 C 
ATOM     19  C   UNL     1      -6.491  -1.874  -0.854  1.00  0.00     0.004 C 
ATOM     20  C   UNL     1      -6.268  -2.099   0.639  1.00  0.00     0.004 C 
ENDBRANCH  15  16
ENDBRANCH  14  15
ENDBRANCH   6   8
ENDBRANCH   3   6
ENDBRANCH   1   2
BRANCH   1  21
ATOM     21  C   UNL     1       4.404   1.221  -1.010  1.00  0.00     0.042 C 
BRANCH  21  22
ATOM     22  C   UNL     1       5.108   1.666  -2.289  1.00  0.00     0.118 C 
BRANCH  22  23
ATOM     23  N   UNL     1       6.095   2.709  -2.048  1.00  0.00    -0.352 N 
ATOM     24  C   UNL     1       7.457   2.691  -2.203  1.00  0.00     0.251 C 
ATOM     25  H   UNL     1       5.726   3.561  -1.722  1.00  0.00     0.163 HD
ATOM     26  O   UNL     1       8.130   3.615  -1.745  1.00  0.00    -0.269 OA
BRANCH  24  27
ATOM     27  C   UNL     1       8.132   1.567  -2.888  1.00  0.00     0.039 A 
ATOM     28  C   UNL     1       9.311   1.056  -2.335  1.00  0.00     0.014 A 
ATOM     29  C   UNL     1       7.633   1.031  -4.078  1.00  0.00     0.014 A 
ATOM     30  C   UNL     1       9.941  -0.041  -2.929  1.00  0.00     0.010 A 
ATOM     31  C   UNL     1       8.226  -0.102  -4.635  1.00  0.00     0.010 A 
ATOM     32  C   UNL     1       9.377  -0.659  -4.057  1.00  0.00    -0.014 A 
BRANCH  32  33
ATOM     33  C   UNL     1       9.941  -1.920  -4.602  1.00  0.00     0.031 A 
ATOM     34  C   UNL     1      10.536  -1.966  -5.982  1.00  0.00     0.074 A 
ATOM     35  C   UNL     1       9.842  -3.050  -3.873  1.00  0.00     0.049 A 
ATOM     36  N   UNL     1      11.004  -2.997  -6.641  1.00  0.00    -0.248 NA
ATOM     37  C   UNL     1      10.600  -0.698  -6.725  1.00  0.00     0.031 C 
ATOM     38  C   UNL     1       9.250  -3.148  -2.537  1.00  0.00     0.029 A 
ATOM     39  N   UNL     1      10.224  -4.338  -4.160  1.00  0.00    -0.354 N 
ATOM     40  C   UNL     1      11.402  -2.506  -7.879  1.00  0.00     0.074 A 
ATOM     41  C   UNL     1      11.093  -1.093  -7.892  1.00  0.00     0.031 C 
ATOM     42  C   UNL     1       9.321  -4.421  -2.116  1.00  0.00     0.029 A 
ATOM     43  C   UNL     1       9.920  -5.237  -3.166  1.00  0.00     0.049 A 
ATOM     44  H   UNL     1      10.673  -4.593  -4.999  1.00  0.00     0.167 HD
ATOM     45  C   UNL     1      11.980  -3.173  -8.906  1.00  0.00     0.031 A 
ATOM     46  C   UNL     1      10.084  -6.572  -3.112  1.00  0.00     0.031 A 
ATOM     47  C   UNL     1      12.301  -4.576  -8.889  1.00  0.00     0.049 A 
ATOM     48  C   UNL     1      10.702  -7.286  -4.280  1.00  0.00     0.074 A 
ATOM     49  C   UNL     1      12.963  -5.318  -9.853  1.00  0.00     0.029 A 
ATOM     50  N   UNL     1      11.976  -5.449  -7.865  1.00  0.00    -0.354 N 
ATOM     51  N   UNL     1      11.154  -6.790  -5.406  1.00  0.00    -0.248 NA
ATOM     52  C   UNL     1      10.834  -8.746  -4.169  1.00  0.00     0.031 C 
ATOM     53  C   UNL     1      12.986  -6.653  -9.438  1.00  0.00     0.029 A 
ATOM     54  C   UNL     1      12.386  -6.731  -8.192  1.00  0.00     0.049 A 
ATOM     55  H   UNL     1      11.522  -5.197  -7.029  1.00  0.00     0.167 HD
ATOM     56  C   UNL     1      11.639  -7.872  -6.128  1.00  0.00     0.074 A 
ATOM     57  C   UNL     1      11.449  -9.047  -5.303  1.00  0.00     0.031 C 
ATOM     58  C   UNL     1      12.187  -7.892  -7.366  1.00  0.00     0.031 A 
BRANCH  45  59
ATOM     59  C   UNL     1      12.306  -2.400 -10.152  1.00  0.00    -0.014 A 
ATOM     60  C   UNL     1      13.383  -1.501 -10.190  1.00  0.00     0.009 A 
ATOM     61  C   UNL     1      11.580  -2.642 -11.330  1.00  0.00     0.009 A 
ATOM     62  C   UNL     1      13.715  -0.846 -11.378  1.00  0.00     0.001 A 
ATOM     63  C   UNL     1      11.929  -2.003 -12.521  1.00  0.00     0.001 A 
ATOM     64  C   UNL     1      12.993  -1.103 -12.543  1.00  0.00     0.000 A 
ENDBRANCH  45  59
BRANCH  46  65
ATOM     65  C   UNL     1       9.635  -7.335  -1.918  1.00  0.00    -0.014 A 
ATOM     66  C   UNL     1      10.570  -7.940  -1.064  1.00  0.00     0.009 A 
ATOM     67  C   UNL     1       8.267  -7.493  -1.646  1.00  0.00     0.009 A 
ATOM     68  C   UNL     1      10.143  -8.716   0.016  1.00  0.00     0.001 A 
ATOM     69  C   UNL     1       7.844  -8.243  -0.547  1.00  0.00     0.001 A 
ATOM     70  C   UNL     1       8.781  -8.864   0.275  1.00  0.00     0.000 A 
ENDBRANCH  46  65
BRANCH  58  71
ATOM     71  C   UNL     1      12.634  -9.223  -7.896  1.00  0.00    -0.014 A 
ATOM     72  C   UNL     1      11.701 -10.185  -8.315  1.00  0.00     0.009 A 
ATOM     73  C   UNL     1      14.003  -9.506  -8.012  1.00  0.00     0.009 A 
ATOM     74  C   UNL     1      12.133 -11.417  -8.811  1.00  0.00     0.001 A 
ATOM     75  C   UNL     1      14.432 -10.727  -8.534  1.00  0.00     0.001 A 
ATOM     76  C   UNL     1      13.497 -11.684  -8.925  1.00  0.00     0.000 A 
ENDBRANCH  58  71
ENDBRANCH  32  33
ENDBRANCH  24  27
ENDBRANCH  22  23
ENDBRANCH  21  22
ENDBRANCH   1  21
TORSDOF 13
