REMARK SMILES CC(=O)N[C@H](C(=O)NC1(CC(=O)NCCCNC(=O)c2ccc(-c3c4nc(c(-c5ccccc5)c5ccc([nH]5)c(-c5ccccc5)c5nc(c(-c6ccccc6)c6ccc3[nH]6)C=C5)C=C4)cc2)CCC1)C(C)C
REMARK SMILES IDX 14 1 13 2 11 3 12 4 10 6 9 7 68 8 70 9 69 10 8 11 6 12 7 13
REMARK SMILES IDX 5 15 4 16 1 17 2 18 3 19 71 21 72 22 73 23 15 24 16 25 17 26
REMARK SMILES IDX 18 27 19 29 20 30 21 31 67 32 22 33 66 34 23 35 24 36 25 37
REMARK SMILES IDX 60 38 26 39 65 40 59 41 61 42 27 43 64 44 58 45 57 46 28 48
REMARK SMILES IDX 50 49 35 50 49 51 36 52 39 53 48 54 62 55 37 56 38 57 47 59
REMARK SMILES IDX 63 60 40 61 29 62 30 63 34 64 31 65 33 66 32 67 51 68 52 69
REMARK SMILES IDX 56 70 53 71 55 72 54 73 41 74 42 75 46 76 43 77 45 78 44 79
REMARK H PARENT 13 5 8 14 4 20 17 28 61 47 39 58
REMARK Flexibility Score: inf
ROOT
ATOM      1  C   UNL     1       5.582  -1.710  -2.414  1.00  0.00     0.117 C 
ENDROOT
BRANCH   1   2
ATOM      2  N   UNL     1       4.419  -0.933  -2.011  1.00  0.00    -0.356 N 
ATOM      3  C   UNL     1       3.818  -0.744  -0.805  1.00  0.00     0.222 C 
ATOM      4  O   UNL     1       2.975   0.155  -0.734  1.00  0.00    -0.275 OA
ATOM      5  H   UNL     1       3.985  -0.453  -2.753  1.00  0.00     0.163 HD
BRANCH   3   6
ATOM      6  C   UNL     1       4.125  -1.592   0.397  1.00  0.00     0.128 C 
BRANCH   6   7
ATOM      7  C   UNL     1       3.266  -2.849   0.621  1.00  0.00     0.049 C 
ATOM      8  C   UNL     1       3.639  -3.509   2.021  1.00  0.00     0.029 C 
ATOM      9  C   UNL     1       3.789  -4.197   0.033  1.00  0.00     0.029 C 
ATOM     10  C   UNL     1       4.663  -4.380   1.284  1.00  0.00     0.005 C 
BRANCH   7  11
ATOM     11  N   UNL     1       1.790  -2.601   0.626  1.00  0.00    -0.348 N 
ATOM     12  C   UNL     1       0.806  -2.423  -0.320  1.00  0.00     0.243 C 
ATOM     13  O   UNL     1      -0.332  -2.236   0.122  1.00  0.00    -0.273 OA
ATOM     14  H   UNL     1       1.431  -2.553   1.541  1.00  0.00     0.164 HD
BRANCH  12  15
ATOM     15  C   UNL     1       1.110  -2.331  -1.833  1.00  0.00     0.173 C 
BRANCH  15  16
ATOM     16  N   UNL     1       2.022  -3.388  -2.249  1.00  0.00    -0.344 N 
ATOM     17  C   UNL     1       0.671  -5.344  -1.566  1.00  0.00     0.114 C 
ATOM     18  C   UNL     1       1.809  -4.729  -2.333  1.00  0.00     0.217 C 
ATOM     19  O   UNL     1       2.608  -5.407  -2.979  1.00  0.00    -0.275 OA
ATOM     20  H   UNL     1       2.924  -3.088  -2.507  1.00  0.00     0.164 HD
ENDBRANCH  15  16
BRANCH  15  21
ATOM     21  C   UNL     1      -0.060  -2.202  -2.852  1.00  0.00     0.015 C 
ATOM     22  C   UNL     1      -1.036  -1.061  -2.560  1.00  0.00     0.010 C 
ATOM     23  C   UNL     1       0.507  -1.973  -4.272  1.00  0.00     0.010 C 
ENDBRANCH  15  21
ENDBRANCH  12  15
ENDBRANCH   7  11
ENDBRANCH   6   7
ENDBRANCH   3   6
ENDBRANCH   1   2
BRANCH   1  24
ATOM     24  C   UNL     1       5.300  -2.795  -3.461  1.00  0.00     0.042 C 
BRANCH  24  25
ATOM     25  C   UNL     1       4.428  -2.389  -4.654  1.00  0.00     0.118 C 
BRANCH  25  26
ATOM     26  N   UNL     1       5.197  -1.873  -5.770  1.00  0.00    -0.352 N 
ATOM     27  C   UNL     1       5.186  -2.283  -7.083  1.00  0.00     0.251 C 
ATOM     28  H   UNL     1       5.808  -1.131  -5.560  1.00  0.00     0.163 HD
ATOM     29  O   UNL     1       6.024  -1.844  -7.864  1.00  0.00    -0.269 OA
BRANCH  27  30
ATOM     30  C   UNL     1       4.182  -3.262  -7.569  1.00  0.00     0.039 A 
ATOM     31  C   UNL     1       4.624  -4.359  -8.315  1.00  0.00     0.014 A 
ATOM     32  C   UNL     1       2.812  -3.072  -7.360  1.00  0.00     0.014 A 
ATOM     33  C   UNL     1       3.701  -5.280  -8.824  1.00  0.00     0.010 A 
ATOM     34  C   UNL     1       1.893  -4.015  -7.838  1.00  0.00     0.010 A 
ATOM     35  C   UNL     1       2.326  -5.125  -8.582  1.00  0.00    -0.014 A 
BRANCH  35  36
ATOM     36  C   UNL     1       1.344  -6.111  -9.117  1.00  0.00     0.031 A 
ATOM     37  C   UNL     1       0.379  -5.720 -10.205  1.00  0.00     0.074 A 
ATOM     38  C   UNL     1       1.301  -7.361  -8.615  1.00  0.00     0.049 A 
ATOM     39  N   UNL     1      -0.558  -6.438 -10.777  1.00  0.00    -0.248 NA
ATOM     40  C   UNL     1       0.470  -4.342 -10.710  1.00  0.00     0.031 C 
ATOM     41  C   UNL     1       2.165  -7.878  -7.554  1.00  0.00     0.029 A 
ATOM     42  N   UNL     1       0.490  -8.426  -8.933  1.00  0.00    -0.354 N 
ATOM     43  C   UNL     1      -1.173  -5.598 -11.697  1.00  0.00     0.074 A 
ATOM     44  C   UNL     1      -0.528  -4.307 -11.583  1.00  0.00     0.031 C 
ATOM     45  C   UNL     1       1.852  -9.163  -7.321  1.00  0.00     0.029 A 
ATOM     46  C   UNL     1       0.740  -9.551  -8.185  1.00  0.00     0.049 A 
ATOM     47  H   UNL     1      -0.203  -8.385  -9.630  1.00  0.00     0.167 HD
ATOM     48  C   UNL     1      -2.173  -5.875 -12.569  1.00  0.00     0.031 A 
ATOM     49  C   UNL     1       0.136 -10.756  -8.181  1.00  0.00     0.031 A 
ATOM     50  C   UNL     1      -2.819  -7.156 -12.695  1.00  0.00     0.049 A 
ATOM     51  C   UNL     1      -1.003 -11.024  -9.127  1.00  0.00     0.074 A 
ATOM     52  C   UNL     1      -3.810  -7.536 -13.585  1.00  0.00     0.029 A 
ATOM     53  N   UNL     1      -2.546  -8.261 -11.906  1.00  0.00    -0.354 N 
ATOM     54  N   UNL     1      -1.529 -10.236 -10.031  1.00  0.00    -0.248 NA
ATOM     55  C   UNL     1      -1.627 -12.355  -9.054  1.00  0.00     0.031 C 
ATOM     56  C   UNL     1      -4.176  -8.855 -13.298  1.00  0.00     0.029 A 
ATOM     57  C   UNL     1      -3.371  -9.314 -12.269  1.00  0.00     0.049 A 
ATOM     58  H   UNL     1      -1.868  -8.294 -11.194  1.00  0.00     0.167 HD
ATOM     59  C   UNL     1      -2.522 -10.984 -10.654  1.00  0.00     0.074 A 
ATOM     60  C   UNL     1      -2.517 -12.291 -10.034  1.00  0.00     0.031 C 
ATOM     61  C   UNL     1      -3.359 -10.616 -11.654  1.00  0.00     0.031 A 
BRANCH  48  62
ATOM     62  C   UNL     1      -2.651  -4.759 -13.457  1.00  0.00    -0.014 A 
ATOM     63  C   UNL     1      -1.864  -4.286 -14.519  1.00  0.00     0.009 A 
ATOM     64  C   UNL     1      -3.931  -4.215 -13.266  1.00  0.00     0.009 A 
ATOM     65  C   UNL     1      -2.336  -3.267 -15.349  1.00  0.00     0.001 A 
ATOM     66  C   UNL     1      -4.412  -3.216 -14.114  1.00  0.00     0.001 A 
ATOM     67  C   UNL     1      -3.611  -2.737 -15.150  1.00  0.00     0.000 A 
ENDBRANCH  48  62
BRANCH  49  68
ATOM     68  C   UNL     1       0.591 -11.814  -7.238  1.00  0.00    -0.014 A 
ATOM     69  C   UNL     1       1.241 -12.963  -7.713  1.00  0.00     0.009 A 
ATOM     70  C   UNL     1       0.355 -11.688  -5.860  1.00  0.00     0.009 A 
ATOM     71  C   UNL     1       1.620 -13.977  -6.830  1.00  0.00     0.001 A 
ATOM     72  C   UNL     1       0.762 -12.690  -4.977  1.00  0.00     0.001 A 
ATOM     73  C   UNL     1       1.384 -13.838  -5.463  1.00  0.00     0.000 A 
ENDBRANCH  49  68
BRANCH  61  74
ATOM     74  C   UNL     1      -4.318 -11.650 -12.176  1.00  0.00    -0.014 A 
ATOM     75  C   UNL     1      -5.437 -12.052 -11.431  1.00  0.00     0.009 A 
ATOM     76  C   UNL     1      -4.127 -12.188 -13.459  1.00  0.00     0.009 A 
ATOM     77  C   UNL     1      -6.331 -12.992 -11.951  1.00  0.00     0.001 A 
ATOM     78  C   UNL     1      -5.036 -13.105 -13.987  1.00  0.00     0.001 A 
ATOM     79  C   UNL     1      -6.133 -13.512 -13.230  1.00  0.00     0.000 A 
ENDBRANCH  61  74
ENDBRANCH  35  36
ENDBRANCH  27  30
ENDBRANCH  25  26
ENDBRANCH  24  25
ENDBRANCH   1  24
TORSDOF 15
