REMARK SMILES O=C(NCCCNC(=O)[C@H]1CCc2[nH]nc(C(F)(F)F)c2C1)c1ccc(-c2c3nc(c(-c4ccccc4)c4ccc([nH]4)c(-c4ccccc4)c4nc(c(-c5ccccc5)c5ccc2[nH]5)C=C4)C=C3)cc1
REMARK SMILES IDX 4 1 3 2 1 3 2 4 23 6 24 7 70 8 25 9 69 10 26 11 27 12 28 13
REMARK SMILES IDX 63 14 29 15 68 16 62 17 64 18 30 19 67 20 61 21 60 22 31 24
REMARK SMILES IDX 53 25 38 26 52 27 39 28 42 29 51 30 65 31 40 32 41 33 50 35
REMARK SMILES IDX 66 36 43 37 32 38 33 39 37 40 34 41 36 42 35 43 54 44 55 45
REMARK SMILES IDX 59 46 56 47 58 48 57 49 44 50 45 51 49 52 46 53 48 54 47 55
REMARK SMILES IDX 5 56 6 57 7 58 8 59 9 61 10 62 11 63 22 64 12 65 21 66 13 67
REMARK SMILES IDX 16 68 14 69 15 70 17 72 18 73 19 74 20 75
REMARK H PARENT 3 5 64 23 42 34 7 60 14 71
REMARK Flexibility Score: inf
ROOT
ATOM      1  C   UNL     1       2.126   2.198   3.266  1.00  0.00     0.118 C 
ENDROOT
BRANCH   1   2
ATOM      2  N   UNL     1       2.142   3.617   2.944  1.00  0.00    -0.352 N 
ATOM      3  O   UNL     1       1.753   5.481   1.732  1.00  0.00    -0.269 OA
ATOM      4  C   UNL     1       1.498   4.298   1.938  1.00  0.00     0.251 C 
ATOM      5  H   UNL     1       2.698   4.174   3.536  1.00  0.00     0.163 HD
BRANCH   4   6
ATOM      6  C   UNL     1       0.524   3.592   1.077  1.00  0.00     0.039 A 
ATOM      7  C   UNL     1      -0.418   2.726   1.633  1.00  0.00     0.014 A 
ATOM      8  C   UNL     1       0.559   3.790  -0.306  1.00  0.00     0.014 A 
ATOM      9  C   UNL     1      -1.178   1.912   0.806  1.00  0.00     0.010 A 
ATOM     10  C   UNL     1      -0.299   3.060  -1.133  1.00  0.00     0.010 A 
ATOM     11  C   UNL     1      -1.147   2.085  -0.587  1.00  0.00    -0.014 A 
BRANCH  11  12
ATOM     12  C   UNL     1      -2.069   1.285  -1.431  1.00  0.00     0.031 A 
ATOM     13  C   UNL     1      -1.555   0.328  -2.469  1.00  0.00     0.074 A 
ATOM     14  C   UNL     1      -3.395   1.411  -1.225  1.00  0.00     0.049 A 
ATOM     15  N   UNL     1      -2.234  -0.448  -3.276  1.00  0.00    -0.248 NA
ATOM     16  C   UNL     1      -0.096   0.233  -2.633  1.00  0.00     0.031 C 
ATOM     17  C   UNL     1      -4.014   2.317  -0.252  1.00  0.00     0.029 A 
ATOM     18  N   UNL     1      -4.458   0.765  -1.798  1.00  0.00    -0.354 N 
ATOM     19  C   UNL     1      -1.292  -1.097  -4.064  1.00  0.00     0.074 A 
ATOM     20  C   UNL     1       0.008  -0.614  -3.649  1.00  0.00     0.031 C 
ATOM     21  C   UNL     1      -5.340   2.125  -0.254  1.00  0.00     0.029 A 
ATOM     22  C   UNL     1      -5.671   1.144  -1.279  1.00  0.00     0.049 A 
ATOM     23  H   UNL     1      -4.362   0.094  -2.512  1.00  0.00     0.167 HD
ATOM     24  C   UNL     1      -1.494  -2.009  -5.046  1.00  0.00     0.031 A 
ATOM     25  C   UNL     1      -6.920   0.767  -1.602  1.00  0.00     0.031 A 
ATOM     26  C   UNL     1      -2.789  -2.494  -5.449  1.00  0.00     0.049 A 
ATOM     27  C   UNL     1      -7.115  -0.235  -2.697  1.00  0.00     0.074 A 
ATOM     28  C   UNL     1      -3.094  -3.448  -6.405  1.00  0.00     0.029 A 
ATOM     29  N   UNL     1      -3.995  -2.060  -4.919  1.00  0.00    -0.354 N 
ATOM     30  N   UNL     1      -6.210  -0.856  -3.413  1.00  0.00    -0.248 NA
ATOM     31  C   UNL     1      -8.501  -0.584  -3.032  1.00  0.00     0.031 C 
ATOM     32  C   UNL     1      -4.487  -3.556  -6.487  1.00  0.00     0.029 A 
ATOM     33  C   UNL     1      -5.047  -2.706  -5.548  1.00  0.00     0.049 A 
ATOM     34  H   UNL     1      -4.090  -1.392  -4.202  1.00  0.00     0.167 HD
ATOM     35  C   UNL     1      -6.915  -1.672  -4.285  1.00  0.00     0.074 A 
ATOM     36  C   UNL     1      -8.322  -1.486  -3.987  1.00  0.00     0.031 C 
ATOM     37  C   UNL     1      -6.440  -2.496  -5.249  1.00  0.00     0.031 A 
BRANCH  24  38
ATOM     38  C   UNL     1      -0.285  -2.517  -5.781  1.00  0.00    -0.014 A 
ATOM     39  C   UNL     1       0.615  -3.413  -5.183  1.00  0.00     0.009 A 
ATOM     40  C   UNL     1      -0.066  -2.122  -7.111  1.00  0.00     0.009 A 
ATOM     41  C   UNL     1       1.728  -3.875  -5.891  1.00  0.00     0.001 A 
ATOM     42  C   UNL     1       1.033  -2.604  -7.824  1.00  0.00     0.001 A 
ATOM     43  C   UNL     1       1.934  -3.474  -7.211  1.00  0.00     0.000 A 
ENDBRANCH  24  38
BRANCH  25  44
ATOM     44  C   UNL     1      -8.072   1.375  -0.891  1.00  0.00    -0.014 A 
ATOM     45  C   UNL     1      -8.823   0.627   0.027  1.00  0.00     0.009 A 
ATOM     46  C   UNL     1      -8.394   2.727  -1.093  1.00  0.00     0.009 A 
ATOM     47  C   UNL     1      -9.880   1.221   0.722  1.00  0.00     0.001 A 
ATOM     48  C   UNL     1      -9.431   3.325  -0.377  1.00  0.00     0.001 A 
ATOM     49  C   UNL     1     -10.177   2.569   0.526  1.00  0.00     0.000 A 
ENDBRANCH  25  44
BRANCH  37  50
ATOM     50  C   UNL     1      -7.457  -3.263  -6.042  1.00  0.00    -0.014 A 
ATOM     51  C   UNL     1      -8.237  -2.630  -7.021  1.00  0.00     0.009 A 
ATOM     52  C   UNL     1      -7.622  -4.639  -5.819  1.00  0.00     0.009 A 
ATOM     53  C   UNL     1      -9.186  -3.355  -7.743  1.00  0.00     0.001 A 
ATOM     54  C   UNL     1      -8.554  -5.366  -6.559  1.00  0.00     0.001 A 
ATOM     55  C   UNL     1      -9.341  -4.722  -7.514  1.00  0.00     0.000 A 
ENDBRANCH  37  50
ENDBRANCH  11  12
ENDBRANCH   4   6
ENDBRANCH   1   2
BRANCH   1  56
ATOM     56  C   UNL     1       3.418   1.480   2.903  1.00  0.00     0.042 C 
BRANCH  56  57
ATOM     57  C   UNL     1       4.593   1.798   3.811  1.00  0.00     0.117 C 
BRANCH  57  58
ATOM     58  N   UNL     1       4.305   1.505   5.197  1.00  0.00    -0.356 N 
ATOM     59  C   UNL     1       5.081   1.040   6.201  1.00  0.00     0.223 C 
ATOM     60  H   UNL     1       3.371   1.675   5.458  1.00  0.00     0.163 HD
ATOM     61  O   UNL     1       4.489   0.800   7.257  1.00  0.00    -0.275 OA
BRANCH  59  62
ATOM     62  C   UNL     1       6.575   0.755   6.019  1.00  0.00     0.083 C 
ATOM     63  C   UNL     1       7.395   1.861   5.300  1.00  0.00     0.020 C 
ATOM     64  C   UNL     1       7.190   0.535   7.437  1.00  0.00     0.053 C 
ATOM     65  C   UNL     1       7.281   3.236   5.984  1.00  0.00     0.057 C 
ATOM     66  C   UNL     1       7.318   1.854   8.135  1.00  0.00     0.006 A 
ATOM     67  C   UNL     1       7.364   3.048   7.450  1.00  0.00     0.039 A 
ATOM     68  C   UNL     1       7.351   2.214   9.510  1.00  0.00     0.169 A 
ATOM     69  N   UNL     1       7.408   4.032   8.384  1.00  0.00    -0.282 N 
ATOM     70  N   UNL     1       7.426   3.560   9.641  1.00  0.00    -0.171 NA
ATOM     71  H   UNL     1       7.425   4.991   8.163  1.00  0.00     0.190 HD
BRANCH  68  72
ATOM     72  C   UNL     1       7.300   1.295  10.704  1.00  0.00     0.435 C 
ATOM     73  F   UNL     1       8.327   1.515  11.570  1.00  0.00    -0.164 F 
ATOM     74  F   UNL     1       6.149   1.425  11.416  1.00  0.00    -0.164 F 
ATOM     75  F   UNL     1       7.386  -0.019  10.351  1.00  0.00    -0.164 F 
ENDBRANCH  68  72
ENDBRANCH  59  62
ENDBRANCH  57  58
ENDBRANCH  56  57
ENDBRANCH   1  56
TORSDOF 11
