REMARK SMILES O=C(NCCCNC(=O)[C@@H](NC(=O)c1ccc(C[NH+]2CCCCC2)cc1)c1ccccc1F)c1ccc(-c2c3nc(c(-c4ccccc4)c4ccc([nH]4)c(-c4ccccc4)c4nc(c(-c5ccccc5)c5ccc2[nH]5)C=C4)C=C3)cc1
REMARK SMILES IDX 6 1 5 2 4 3 3 4 1 5 2 6 34 8 35 9 81 10 36 11 80 12 37 13
REMARK SMILES IDX 38 14 39 15 74 16 40 17 79 18 73 19 75 20 41 21 78 22 72 23
REMARK SMILES IDX 71 24 42 26 64 27 49 28 63 29 50 30 53 31 62 32 76 33 51 34
REMARK SMILES IDX 52 35 61 37 77 38 54 39 43 40 44 41 48 42 45 43 47 44 46 45
REMARK SMILES IDX 65 46 66 47 70 48 67 49 69 50 68 51 55 52 56 53 60 54 57 55
REMARK SMILES IDX 59 56 58 57 7 58 8 59 9 61 10 62 11 63 12 64 13 66 14 67
REMARK SMILES IDX 15 68 26 69 16 70 25 71 17 72 18 73 19 74 20 75 24 76 21 78
REMARK SMILES IDX 23 79 22 80 27 81 28 82 32 83 29 84 31 85 33 86 30 87
REMARK H PARENT 3 7 75 25 53 36 7 60 11 65 19 77
REMARK Flexibility Score: inf
ROOT
ATOM      1  C   UNL     1       4.448   0.376  -3.777  1.00  0.00     0.117 C 
ENDROOT
BRANCH   1   2
ATOM      2  C   UNL     1       4.804  -0.453  -2.561  1.00  0.00     0.042 C 
BRANCH   2   3
ATOM      3  C   UNL     1       4.508   0.281  -1.272  1.00  0.00     0.118 C 
BRANCH   3   4
ATOM      4  N   UNL     1       3.075   0.416  -1.031  1.00  0.00    -0.352 N 
ATOM      5  O   UNL     1       1.124   0.041   0.040  1.00  0.00    -0.269 OA
ATOM      6  C   UNL     1       2.343   0.020   0.065  1.00  0.00     0.251 C 
ATOM      7  H   UNL     1       2.562   0.850  -1.751  1.00  0.00     0.163 HD
BRANCH   6   8
ATOM      8  C   UNL     1       3.066  -0.454   1.264  1.00  0.00     0.039 A 
ATOM      9  C   UNL     1       4.208   0.220   1.694  1.00  0.00     0.014 A 
ATOM     10  C   UNL     1       2.625  -1.599   1.930  1.00  0.00     0.014 A 
ATOM     11  C   UNL     1       5.014  -0.353   2.663  1.00  0.00     0.010 A 
ATOM     12  C   UNL     1       3.370  -2.101   3.000  1.00  0.00     0.010 A 
ATOM     13  C   UNL     1       4.588  -1.499   3.354  1.00  0.00    -0.014 A 
BRANCH  13  14
ATOM     14  C   UNL     1       5.406  -1.974   4.495  1.00  0.00     0.031 A 
ATOM     15  C   UNL     1       6.046  -3.333   4.496  1.00  0.00     0.074 A 
ATOM     16  C   UNL     1       5.615  -1.121   5.518  1.00  0.00     0.049 A 
ATOM     17  N   UNL     1       6.829  -3.867   5.400  1.00  0.00    -0.248 NA
ATOM     18  C   UNL     1       5.772  -4.210   3.347  1.00  0.00     0.031 C 
ATOM     19  C   UNL     1       5.038   0.224   5.625  1.00  0.00     0.029 A 
ATOM     20  N   UNL     1       6.392  -1.236   6.640  1.00  0.00    -0.354 N 
ATOM     21  C   UNL     1       7.134  -5.140   4.937  1.00  0.00     0.074 A 
ATOM     22  C   UNL     1       6.422  -5.315   3.688  1.00  0.00     0.031 C 
ATOM     23  C   UNL     1       5.533   0.832   6.711  1.00  0.00     0.029 A 
ATOM     24  C   UNL     1       6.390  -0.106   7.421  1.00  0.00     0.049 A 
ATOM     25  H   UNL     1       6.901  -2.048   6.864  1.00  0.00     0.167 HD
ATOM     26  C   UNL     1       7.941  -6.073   5.498  1.00  0.00     0.031 A 
ATOM     27  C   UNL     1       6.992   0.145   8.597  1.00  0.00     0.031 A 
ATOM     28  C   UNL     1       8.636  -5.896   6.748  1.00  0.00     0.049 A 
ATOM     29  C   UNL     1       7.838  -0.927   9.215  1.00  0.00     0.074 A 
ATOM     30  C   UNL     1       9.478  -6.781   7.400  1.00  0.00     0.029 A 
ATOM     31  N   UNL     1       8.571  -4.756   7.535  1.00  0.00    -0.354 N 
ATOM     32  N   UNL     1       8.129  -2.118   8.752  1.00  0.00    -0.248 NA
ATOM     33  C   UNL     1       8.441  -0.617  10.516  1.00  0.00     0.031 C 
ATOM     34  C   UNL     1       9.878  -6.198   8.607  1.00  0.00     0.029 A 
ATOM     35  C   UNL     1       9.340  -4.923   8.676  1.00  0.00     0.049 A 
ATOM     36  H   UNL     1       8.054  -3.947   7.316  1.00  0.00     0.167 HD
ATOM     37  C   UNL     1       8.964  -2.695   9.698  1.00  0.00     0.074 A 
ATOM     38  C   UNL     1       9.158  -1.708  10.741  1.00  0.00     0.031 C 
ATOM     39  C   UNL     1       9.516  -3.932   9.707  1.00  0.00     0.031 A 
BRANCH  26  40
ATOM     40  C   UNL     1       8.105  -7.382   4.773  1.00  0.00    -0.014 A 
ATOM     41  C   UNL     1       8.828  -7.464   3.572  1.00  0.00     0.009 A 
ATOM     42  C   UNL     1       7.578  -8.560   5.327  1.00  0.00     0.009 A 
ATOM     43  C   UNL     1       8.995  -8.693   2.928  1.00  0.00     0.001 A 
ATOM     44  C   UNL     1       7.772  -9.791   4.696  1.00  0.00     0.001 A 
ATOM     45  C   UNL     1       8.473  -9.855   3.493  1.00  0.00     0.000 A 
ENDBRANCH  26  40
BRANCH  27  46
ATOM     46  C   UNL     1       6.777   1.447   9.279  1.00  0.00    -0.014 A 
ATOM     47  C   UNL     1       7.834   2.351   9.460  1.00  0.00     0.009 A 
ATOM     48  C   UNL     1       5.503   1.788   9.764  1.00  0.00     0.009 A 
ATOM     49  C   UNL     1       7.626   3.552  10.143  1.00  0.00     0.001 A 
ATOM     50  C   UNL     1       5.290   3.005  10.411  1.00  0.00     0.001 A 
ATOM     51  C   UNL     1       6.355   3.880  10.614  1.00  0.00     0.000 A 
ENDBRANCH  27  46
BRANCH  39  52
ATOM     52  C   UNL     1      10.409  -4.265  10.869  1.00  0.00    -0.014 A 
ATOM     53  C   UNL     1       9.891  -4.447  12.161  1.00  0.00     0.009 A 
ATOM     54  C   UNL     1      11.791  -4.400  10.665  1.00  0.00     0.009 A 
ATOM     55  C   UNL     1      10.745  -4.711  13.233  1.00  0.00     0.001 A 
ATOM     56  C   UNL     1      12.638  -4.699  11.732  1.00  0.00     0.001 A 
ATOM     57  C   UNL     1      12.117  -4.840  13.017  1.00  0.00     0.000 A 
ENDBRANCH  39  52
ENDBRANCH  13  14
ENDBRANCH   6   8
ENDBRANCH   3   4
ENDBRANCH   2   3
ENDBRANCH   1   2
BRANCH   1  58
ATOM     58  N   UNL     1       5.385   1.474  -3.949  1.00  0.00    -0.354 N 
ATOM     59  C   UNL     1       6.230   1.713  -5.004  1.00  0.00     0.247 C 
ATOM     60  H   UNL     1       5.417   2.130  -3.216  1.00  0.00     0.163 HD
ATOM     61  O   UNL     1       6.956   2.708  -4.950  1.00  0.00    -0.272 OA
BRANCH  59  62
ATOM     62  C   UNL     1       6.213   0.767  -6.249  1.00  0.00     0.205 C 
BRANCH  62  63
ATOM     63  N   UNL     1       6.859  -0.487  -5.728  1.00  0.00    -0.336 N 
ATOM     64  C   UNL     1       6.659  -1.827  -5.537  1.00  0.00     0.252 C 
ATOM     65  H   UNL     1       7.760  -0.259  -5.403  1.00  0.00     0.165 HD
ATOM     66  O   UNL     1       7.462  -2.445  -4.837  1.00  0.00    -0.269 OA
BRANCH  64  67
ATOM     67  C   UNL     1       5.540  -2.586  -6.104  1.00  0.00     0.039 A 
ATOM     68  C   UNL     1       4.449  -2.923  -5.306  1.00  0.00     0.014 A 
ATOM     69  C   UNL     1       5.598  -3.046  -7.416  1.00  0.00     0.014 A 
ATOM     70  C   UNL     1       3.298  -3.448  -5.893  1.00  0.00     0.010 A 
ATOM     71  C   UNL     1       4.441  -3.555  -8.012  1.00  0.00     0.010 A 
ATOM     72  C   UNL     1       3.252  -3.671  -7.275  1.00  0.00     0.006 A 
BRANCH  72  73
ATOM     73  C   UNL     1       1.921  -3.904  -7.968  1.00  0.00     0.299 C 
BRANCH  73  74
ATOM     74  N   UNL     1       1.526  -5.285  -8.255  1.00  0.00    -0.331 N 
ATOM     75  C   UNL     1       2.395  -5.922  -9.245  1.00  0.00     0.262 C 
ATOM     76  C   UNL     1       1.319  -6.070  -7.037  1.00  0.00     0.262 C 
ATOM     77  H   UNL     1       0.609  -5.248  -8.700  1.00  0.00     0.348 HD
ATOM     78  C   UNL     1       1.963  -7.349  -9.569  1.00  0.00     0.062 C 
ATOM     79  C   UNL     1       0.876  -7.500  -7.342  1.00  0.00     0.062 C 
ATOM     80  C   UNL     1       1.857  -8.173  -8.293  1.00  0.00     0.012 C 
ENDBRANCH  73  74
ENDBRANCH  72  73
ENDBRANCH  64  67
ENDBRANCH  62  63
BRANCH  62  81
ATOM     81  C   UNL     1       4.851   0.824  -6.915  1.00  0.00     0.020 A 
ATOM     82  C   UNL     1       3.935   1.867  -6.644  1.00  0.00     0.009 A 
ATOM     83  C   UNL     1       4.444  -0.084  -7.871  1.00  0.00     0.129 A 
ATOM     84  C   UNL     1       2.597   1.788  -7.032  1.00  0.00     0.001 A 
ATOM     85  C   UNL     1       3.101  -0.220  -8.223  1.00  0.00     0.039 A 
ATOM     86  F   UNL     1       5.364  -0.798  -8.525  1.00  0.00    -0.207 F 
ATOM     87  C   UNL     1       2.159   0.685  -7.748  1.00  0.00     0.003 A 
ENDBRANCH  62  81
ENDBRANCH  59  62
ENDBRANCH   1  58
TORSDOF 15
