REMARK SMILES CC(=O)Nc1cnc(N2CC=C(c3ccccc3C)CC2)c(C(=O)NCCCNC(=O)c2ccc(-c3c4nc(c(-c5ccccc5)c5ccc([nH]5)c(-c5ccccc5)c5nc(c(-c6ccccc6)c6ccc3[nH]6)C=C5)C=C4)cc2)c1
REMARK SMILES IDX 27 1 26 2 25 3 23 4 24 5 22 7 5 8 6 9 80 10 7 11 8 12 4 13
REMARK SMILES IDX 1 14 2 15 3 16 9 18 10 19 21 20 11 21 20 22 12 23 13 24
REMARK SMILES IDX 14 25 18 26 15 27 17 28 19 29 16 30 28 31 29 32 30 33 31 35
REMARK SMILES IDX 32 36 33 37 79 38 34 39 78 40 35 41 36 42 37 43 72 44 38 45
REMARK SMILES IDX 77 46 71 47 73 48 39 49 76 50 70 51 69 52 40 54 62 55 47 56
REMARK SMILES IDX 61 57 48 58 51 59 60 60 74 61 49 62 50 63 59 65 75 66 52 67
REMARK SMILES IDX 41 68 42 69 46 70 43 71 45 72 44 73 63 74 64 75 68 76 65 77
REMARK SMILES IDX 67 78 66 79 53 80 54 81 58 82 55 83 57 84 56 85
REMARK H PARENT 25 6 4 17 29 34 73 53 51 64
REMARK Flexibility Score: inf
ROOT
ATOM      1  C   UNL     1       4.564   0.417  -0.259  1.00  0.00     0.042 C 
ENDROOT
BRANCH   1   2
ATOM      2  C   UNL     1       4.298  -1.087  -0.189  1.00  0.00     0.118 C 
BRANCH   2   3
ATOM      3  N   UNL     1       5.005  -1.705   0.921  1.00  0.00    -0.352 N 
ATOM      4  C   UNL     1       4.773  -1.885   2.268  1.00  0.00     0.255 C 
ATOM      5  O   UNL     1       5.649  -2.560   2.808  1.00  0.00    -0.269 OA
ATOM      6  H   UNL     1       5.866  -2.093   0.640  1.00  0.00     0.163 HD
BRANCH   4   7
ATOM      7  C   UNL     1       3.594  -1.341   3.043  1.00  0.00     0.084 A 
ATOM      8  C   UNL     1       1.556   0.026   3.119  1.00  0.00     0.060 A 
ATOM      9  C   UNL     1       1.393  -0.392   4.421  1.00  0.00     0.139 A 
ATOM     10  C   UNL     1       2.688  -0.437   2.456  1.00  0.00     0.045 A 
ATOM     11  N   UNL     1       2.229  -1.250   5.038  1.00  0.00    -0.236 NA
ATOM     12  C   UNL     1       3.326  -1.722   4.379  1.00  0.00     0.141 A 
BRANCH   8  13
ATOM     13  N   UNL     1       0.632   0.931   2.567  1.00  0.00    -0.325 N 
ATOM     14  C   UNL     1       0.664   0.252   0.165  1.00  0.00     0.114 C 
ATOM     15  C   UNL     1       0.289   1.199   1.272  1.00  0.00     0.221 C 
ATOM     16  O   UNL     1      -0.387   2.201   1.031  1.00  0.00    -0.275 OA
ATOM     17  H   UNL     1       0.144   1.467   3.233  1.00  0.00     0.169 HD
ENDBRANCH   8  13
BRANCH  12  18
ATOM     18  N   UNL     1       4.096  -2.558   5.149  1.00  0.00    -0.352 N 
ATOM     19  C   UNL     1       3.482  -3.752   5.708  1.00  0.00     0.146 C 
ATOM     20  C   UNL     1       5.464  -2.214   5.521  1.00  0.00     0.123 C 
ATOM     21  C   UNL     1       4.072  -4.118   7.043  1.00  0.00    -0.002 C 
ATOM     22  C   UNL     1       5.609  -2.175   7.047  1.00  0.00     0.057 C 
ATOM     23  C   UNL     1       5.027  -3.413   7.676  1.00  0.00    -0.041 C 
BRANCH  23  24
ATOM     24  C   UNL     1       5.561  -3.859   8.977  1.00  0.00    -0.020 A 
ATOM     25  C   UNL     1       6.269  -5.073   9.018  1.00  0.00     0.008 A 
ATOM     26  C   UNL     1       5.397  -3.120  10.165  1.00  0.00    -0.044 A 
ATOM     27  C   UNL     1       6.821  -5.544  10.209  1.00  0.00     0.001 A 
ATOM     28  C   UNL     1       5.974  -3.600  11.355  1.00  0.00     0.004 A 
ATOM     29  C   UNL     1       4.644  -1.819  10.206  1.00  0.00     0.045 C 
ATOM     30  C   UNL     1       6.677  -4.804  11.377  1.00  0.00     0.000 A 
ENDBRANCH  23  24
ENDBRANCH  12  18
ENDBRANCH   4   7
ENDBRANCH   2   3
ENDBRANCH   1   2
BRANCH   1  31
ATOM     31  C   UNL     1       5.694   0.788  -1.201  1.00  0.00     0.118 C 
BRANCH  31  32
ATOM     32  N   UNL     1       5.254   1.062  -2.567  1.00  0.00    -0.352 N 
ATOM     33  C   UNL     1       6.040   1.304  -3.683  1.00  0.00     0.251 C 
ATOM     34  H   UNL     1       4.281   1.078  -2.713  1.00  0.00     0.163 HD
ATOM     35  O   UNL     1       5.543   1.498  -4.778  1.00  0.00    -0.269 OA
BRANCH  33  36
ATOM     36  C   UNL     1       7.507   1.196  -3.525  1.00  0.00     0.039 A 
ATOM     37  C   UNL     1       8.164   0.223  -4.281  1.00  0.00     0.014 A 
ATOM     38  C   UNL     1       8.135   1.821  -2.448  1.00  0.00     0.014 A 
ATOM     39  C   UNL     1       9.355  -0.306  -3.799  1.00  0.00     0.010 A 
ATOM     40  C   UNL     1       9.266   1.232  -1.920  1.00  0.00     0.010 A 
ATOM     41  C   UNL     1       9.828   0.120  -2.558  1.00  0.00    -0.014 A 
BRANCH  41  42
ATOM     42  C   UNL     1      10.825  -0.629  -1.805  1.00  0.00     0.031 A 
ATOM     43  C   UNL     1      12.216  -0.151  -1.738  1.00  0.00     0.074 A 
ATOM     44  C   UNL     1      10.480  -1.777  -1.180  1.00  0.00     0.049 A 
ATOM     45  N   UNL     1      13.230  -0.922  -1.526  1.00  0.00    -0.248 NA
ATOM     46  C   UNL     1      12.591   1.234  -2.011  1.00  0.00     0.031 C 
ATOM     47  C   UNL     1      11.265  -2.531  -0.206  1.00  0.00     0.029 A 
ATOM     48  N   UNL     1       9.419  -2.626  -1.505  1.00  0.00    -0.354 N 
ATOM     49  C   UNL     1      14.315  -0.110  -1.312  1.00  0.00     0.074 A 
ATOM     50  C   UNL     1      13.907   1.189  -1.786  1.00  0.00     0.031 C 
ATOM     51  C   UNL     1      10.835  -3.802  -0.195  1.00  0.00     0.029 A 
ATOM     52  C   UNL     1       9.861  -3.940  -1.264  1.00  0.00     0.049 A 
ATOM     53  H   UNL     1       8.533  -2.356  -1.839  1.00  0.00     0.167 HD
ATOM     54  C   UNL     1      15.370  -0.593  -0.601  1.00  0.00     0.031 A 
ATOM     55  C   UNL     1       9.928  -4.865  -2.265  1.00  0.00     0.031 A 
ATOM     56  C   UNL     1      15.287  -2.043  -0.415  1.00  0.00     0.049 A 
ATOM     57  C   UNL     1      11.315  -5.423  -2.497  1.00  0.00     0.074 A 
ATOM     58  C   UNL     1      15.023  -2.851   0.678  1.00  0.00     0.029 A 
ATOM     59  N   UNL     1      15.243  -2.869  -1.534  1.00  0.00    -0.354 N 
ATOM     60  N   UNL     1      12.409  -4.876  -2.047  1.00  0.00    -0.248 NA
ATOM     61  C   UNL     1      11.579  -6.614  -3.301  1.00  0.00     0.031 C 
ATOM     62  C   UNL     1      14.749  -4.161   0.199  1.00  0.00     0.029 A 
ATOM     63  C   UNL     1      14.886  -4.155  -1.179  1.00  0.00     0.049 A 
ATOM     64  H   UNL     1      15.440  -2.577  -2.453  1.00  0.00     0.167 HD
ATOM     65  C   UNL     1      13.496  -5.586  -2.489  1.00  0.00     0.074 A 
ATOM     66  C   UNL     1      12.922  -6.678  -3.254  1.00  0.00     0.031 C 
ATOM     67  C   UNL     1      14.773  -5.193  -2.198  1.00  0.00     0.031 A 
BRANCH  54  68
ATOM     68  C   UNL     1      16.356   0.283   0.147  1.00  0.00    -0.014 A 
ATOM     69  C   UNL     1      17.301  -0.314   1.003  1.00  0.00     0.009 A 
ATOM     70  C   UNL     1      16.335   1.691   0.159  1.00  0.00     0.009 A 
ATOM     71  C   UNL     1      18.139   0.445   1.835  1.00  0.00     0.001 A 
ATOM     72  C   UNL     1      17.184   2.458   0.968  1.00  0.00     0.001 A 
ATOM     73  C   UNL     1      18.080   1.833   1.818  1.00  0.00     0.000 A 
ENDBRANCH  54  68
BRANCH  55  74
ATOM     74  C   UNL     1       8.904  -4.680  -3.328  1.00  0.00    -0.014 A 
ATOM     75  C   UNL     1       7.550  -4.887  -2.998  1.00  0.00     0.009 A 
ATOM     76  C   UNL     1       9.208  -3.985  -4.506  1.00  0.00     0.009 A 
ATOM     77  C   UNL     1       6.530  -4.317  -3.766  1.00  0.00     0.001 A 
ATOM     78  C   UNL     1       8.183  -3.423  -5.277  1.00  0.00     0.001 A 
ATOM     79  C   UNL     1       6.850  -3.560  -4.890  1.00  0.00     0.000 A 
ENDBRANCH  55  74
BRANCH  67  80
ATOM     80  C   UNL     1      16.051  -5.755  -2.785  1.00  0.00    -0.014 A 
ATOM     81  C   UNL     1      16.130  -6.541  -3.942  1.00  0.00     0.009 A 
ATOM     82  C   UNL     1      17.285  -5.380  -2.203  1.00  0.00     0.009 A 
ATOM     83  C   UNL     1      17.365  -6.963  -4.461  1.00  0.00     0.001 A 
ATOM     84  C   UNL     1      18.518  -5.758  -2.741  1.00  0.00     0.001 A 
ATOM     85  C   UNL     1      18.557  -6.564  -3.868  1.00  0.00     0.000 A 
ENDBRANCH  67  80
ENDBRANCH  41  42
ENDBRANCH  33  36
ENDBRANCH  31  32
ENDBRANCH   1  31
TORSDOF 13
