REMARK SMILES O=C(NCCCNC(=O)[C@@H]1[C@H](C(=O)Nc2ccc(Cn3cncn3)cc2)[C@@H]2C=C[C@H]1CC2)c1ccc(-c2c3nc(c(-c4ccccc4)c4ccc([nH]4)c(-c4ccccc4)c4nc(c(-c5ccccc5)c5ccc2[nH]5)C=C4)C=C3)cc1
REMARK SMILES IDX 6 1 5 2 4 3 3 4 1 5 2 6 33 8 34 9 80 10 35 11 79 12 36 13
REMARK SMILES IDX 37 14 38 15 73 16 39 17 78 18 72 19 74 20 40 21 77 22 71 23
REMARK SMILES IDX 70 24 41 26 63 27 48 28 62 29 49 30 52 31 61 32 75 33 50 34
REMARK SMILES IDX 51 35 60 37 76 38 53 39 42 40 43 41 47 42 44 43 46 44 45 45
REMARK SMILES IDX 64 46 65 47 69 48 66 49 68 50 67 51 54 52 55 53 59 54 56 55
REMARK SMILES IDX 58 56 57 57 7 58 8 59 9 61 10 62 11 63 30 64 27 65 29 66
REMARK SMILES IDX 31 67 28 68 32 69 12 70 13 71 14 72 15 74 16 75 26 76 17 77
REMARK SMILES IDX 25 78 18 79 19 80 20 81 21 82 24 83 22 84 23 85
REMARK H PARENT 3 7 74 25 52 36 7 60 14 73
REMARK Flexibility Score: inf
ROOT
ATOM      1  C   UNL     1       4.108   3.669   0.812  1.00  0.00     0.117 C 
ENDROOT
BRANCH   1   2
ATOM      2  C   UNL     1       4.761   2.472   0.096  1.00  0.00     0.042 C 
BRANCH   2   3
ATOM      3  C   UNL     1       4.589   1.109   0.774  1.00  0.00     0.118 C 
BRANCH   3   4
ATOM      4  N   UNL     1       3.219   0.666   0.963  1.00  0.00    -0.352 N 
ATOM      5  O   UNL     1       1.238  -0.290   0.727  1.00  0.00    -0.269 OA
ATOM      6  C   UNL     1       2.272   0.091   0.166  1.00  0.00     0.251 C 
ATOM      7  H   UNL     1       2.898   0.816   1.882  1.00  0.00     0.163 HD
BRANCH   6   8
ATOM      8  C   UNL     1       2.358  -0.037  -1.311  1.00  0.00     0.039 A 
ATOM      9  C   UNL     1       3.534  -0.040  -2.062  1.00  0.00     0.014 A 
ATOM     10  C   UNL     1       1.129  -0.178  -1.983  1.00  0.00     0.014 A 
ATOM     11  C   UNL     1       3.476  -0.086  -3.456  1.00  0.00     0.010 A 
ATOM     12  C   UNL     1       1.066  -0.241  -3.370  1.00  0.00     0.010 A 
ATOM     13  C   UNL     1       2.240  -0.158  -4.111  1.00  0.00    -0.014 A 
BRANCH  13  14
ATOM     14  C   UNL     1       2.222  -0.303  -5.567  1.00  0.00     0.031 A 
ATOM     15  C   UNL     1       2.827  -1.566  -6.088  1.00  0.00     0.074 A 
ATOM     16  C   UNL     1       1.567   0.532  -6.400  1.00  0.00     0.049 A 
ATOM     17  N   UNL     1       3.796  -1.702  -6.934  1.00  0.00    -0.248 NA
ATOM     18  C   UNL     1       2.325  -2.839  -5.544  1.00  0.00     0.031 C 
ATOM     19  C   UNL     1       0.667   1.636  -6.056  1.00  0.00     0.029 A 
ATOM     20  N   UNL     1       1.493   0.491  -7.762  1.00  0.00    -0.354 N 
ATOM     21  C   UNL     1       3.947  -3.073  -7.139  1.00  0.00     0.074 A 
ATOM     22  C   UNL     1       3.082  -3.727  -6.189  1.00  0.00     0.031 C 
ATOM     23  C   UNL     1      -0.028   2.007  -7.157  1.00  0.00     0.029 A 
ATOM     24  C   UNL     1       0.477   1.270  -8.304  1.00  0.00     0.049 A 
ATOM     25  H   UNL     1       2.106  -0.045  -8.314  1.00  0.00     0.167 HD
ATOM     26  C   UNL     1       4.650  -3.586  -8.187  1.00  0.00     0.031 A 
ATOM     27  C   UNL     1       0.051   1.273  -9.592  1.00  0.00     0.031 A 
ATOM     28  C   UNL     1       5.528  -2.617  -8.780  1.00  0.00     0.049 A 
ATOM     29  C   UNL     1       1.116   0.674 -10.424  1.00  0.00     0.074 A 
ATOM     30  C   UNL     1       6.622  -1.901  -8.339  1.00  0.00     0.029 A 
ATOM     31  N   UNL     1       5.108  -1.988  -9.925  1.00  0.00    -0.354 N 
ATOM     32  N   UNL     1       2.266   1.240 -10.637  1.00  0.00    -0.248 NA
ATOM     33  C   UNL     1       1.062  -0.755 -10.684  1.00  0.00     0.031 C 
ATOM     34  C   UNL     1       6.481  -0.615  -8.940  1.00  0.00     0.029 A 
ATOM     35  C   UNL     1       5.348  -0.649  -9.754  1.00  0.00     0.049 A 
ATOM     36  H   UNL     1       4.710  -2.417 -10.718  1.00  0.00     0.167 HD
ATOM     37  C   UNL     1       3.178   0.197 -10.624  1.00  0.00     0.074 A 
ATOM     38  C   UNL     1       2.370  -1.014 -10.755  1.00  0.00     0.031 C 
ATOM     39  C   UNL     1       4.471   0.396 -10.232  1.00  0.00     0.031 A 
BRANCH  26  40
ATOM     40  C   UNL     1       4.296  -4.877  -8.878  1.00  0.00    -0.014 A 
ATOM     41  C   UNL     1       5.149  -5.380  -9.878  1.00  0.00     0.009 A 
ATOM     42  C   UNL     1       3.024  -5.471  -8.773  1.00  0.00     0.009 A 
ATOM     43  C   UNL     1       4.727  -6.386 -10.758  1.00  0.00     0.001 A 
ATOM     44  C   UNL     1       2.614  -6.500  -9.625  1.00  0.00     0.001 A 
ATOM     45  C   UNL     1       3.457  -6.941 -10.634  1.00  0.00     0.000 A 
ENDBRANCH  26  40
BRANCH  27  46
ATOM     46  C   UNL     1      -1.309   1.501 -10.125  1.00  0.00    -0.014 A 
ATOM     47  C   UNL     1      -1.513   1.820 -11.478  1.00  0.00     0.009 A 
ATOM     48  C   UNL     1      -2.430   1.117  -9.368  1.00  0.00     0.009 A 
ATOM     49  C   UNL     1      -2.785   1.722 -12.058  1.00  0.00     0.001 A 
ATOM     50  C   UNL     1      -3.700   1.019  -9.946  1.00  0.00     0.001 A 
ATOM     51  C   UNL     1      -3.875   1.307 -11.296  1.00  0.00     0.000 A 
ENDBRANCH  27  46
BRANCH  39  52
ATOM     52  C   UNL     1       4.930   1.819 -10.014  1.00  0.00    -0.014 A 
ATOM     53  C   UNL     1       4.334   2.681  -9.075  1.00  0.00     0.009 A 
ATOM     54  C   UNL     1       6.089   2.256 -10.672  1.00  0.00     0.009 A 
ATOM     55  C   UNL     1       4.862   3.954  -8.831  1.00  0.00     0.001 A 
ATOM     56  C   UNL     1       6.629   3.518 -10.411  1.00  0.00     0.001 A 
ATOM     57  C   UNL     1       6.013   4.369  -9.496  1.00  0.00     0.000 A 
ENDBRANCH  39  52
ENDBRANCH  13  14
ENDBRANCH   6   8
ENDBRANCH   3   4
ENDBRANCH   2   3
ENDBRANCH   1   2
BRANCH   1  58
ATOM     58  N   UNL     1       4.523   3.805   2.199  1.00  0.00    -0.356 N 
ATOM     59  C   UNL     1       5.823   4.062   2.532  1.00  0.00     0.224 C 
ATOM     60  H   UNL     1       3.852   3.710   2.913  1.00  0.00     0.163 HD
ATOM     61  O   UNL     1       6.483   3.101   2.922  1.00  0.00    -0.275 OA
BRANCH  59  62
ATOM     62  C   UNL     1       6.401   5.450   2.287  1.00  0.00     0.098 C 
ATOM     63  C   UNL     1       7.884   5.619   2.711  1.00  0.00     0.098 C 
ATOM     64  C   UNL     1       5.598   6.712   2.764  1.00  0.00     0.025 C 
ATOM     65  C   UNL     1       8.157   7.104   3.093  1.00  0.00     0.025 C 
ATOM     66  C   UNL     1       6.013   7.224   4.135  1.00  0.00    -0.027 C 
ATOM     67  C   UNL     1       6.059   7.881   1.849  1.00  0.00     0.009 C 
ATOM     68  C   UNL     1       7.327   7.450   4.298  1.00  0.00    -0.027 C 
ATOM     69  C   UNL     1       7.608   8.027   1.961  1.00  0.00     0.009 C 
BRANCH  63  70
ATOM     70  C   UNL     1       8.592   4.599   3.635  1.00  0.00     0.228 C 
ATOM     71  O   UNL     1       9.616   4.053   3.185  1.00  0.00    -0.274 OA
ATOM     72  N   UNL     1       8.333   4.324   4.947  1.00  0.00    -0.326 N 
ATOM     73  H   UNL     1       8.971   3.683   5.336  1.00  0.00     0.169 HD
BRANCH  72  74
ATOM     74  C   UNL     1       7.362   4.749   5.860  1.00  0.00     0.041 A 
ATOM     75  C   UNL     1       7.812   5.331   7.045  1.00  0.00     0.026 A 
ATOM     76  C   UNL     1       5.992   4.584   5.685  1.00  0.00     0.026 A 
ATOM     77  C   UNL     1       6.909   5.959   7.907  1.00  0.00     0.008 A 
ATOM     78  C   UNL     1       5.078   5.190   6.552  1.00  0.00     0.008 A 
ATOM     79  C   UNL     1       5.536   5.957   7.625  1.00  0.00    -0.026 A 
BRANCH  79  80
ATOM     80  C   UNL     1       4.571   6.779   8.436  1.00  0.00     0.181 C 
BRANCH  80  81
ATOM     81  N   UNL     1       3.980   6.020   9.515  1.00  0.00    -0.249 N 
ATOM     82  C   UNL     1       4.609   5.486  10.597  1.00  0.00     0.220 A 
ATOM     83  N   UNL     1       2.646   5.845   9.595  1.00  0.00    -0.160 NA
ATOM     84  N   UNL     1       3.721   4.938  11.393  1.00  0.00    -0.224 NA
ATOM     85  C   UNL     1       2.542   5.173  10.745  1.00  0.00     0.246 A 
ENDBRANCH  80  81
ENDBRANCH  79  80
ENDBRANCH  72  74
ENDBRANCH  63  70
ENDBRANCH  59  62
ENDBRANCH   1  58
TORSDOF 14
