REMARK SMILES CCc1ccc2[nH]c(C(=O)c3cc(C)ccn3)c(CC(=O)NCCCNC(=O)c3ccc(-c4c5nc(c(-c6ccccc6)c6ccc([nH]6)c(-c6ccccc6)c6nc(c(-c7ccccc7)c7ccc4[nH]7)C=C6)C=C5)cc3)c2c1
REMARK SMILES IDX 23 1 22 2 20 3 21 4 19 6 18 7 3 8 4 9 78 10 5 11 77 12 6 13
REMARK SMILES IDX 7 14 8 15 2 17 1 18 9 19 10 20 11 21 12 22 17 23 13 24 16 25
REMARK SMILES IDX 14 26 15 27 24 28 25 29 26 30 27 31 28 33 29 34 30 35 76 36
REMARK SMILES IDX 31 37 75 38 32 39 33 40 34 41 69 42 35 43 74 44 68 45 70 46
REMARK SMILES IDX 36 47 73 48 67 49 66 50 37 52 59 53 44 54 58 55 45 56 48 57
REMARK SMILES IDX 57 58 71 59 46 60 47 61 56 63 72 64 49 65 38 66 39 67 43 68
REMARK SMILES IDX 40 69 42 70 41 71 60 72 61 73 65 74 62 75 64 76 63 77 50 78
REMARK SMILES IDX 51 79 55 80 52 81 54 82 53 83
REMARK H PARENT 22 5 7 16 26 32 70 51 48 62
REMARK Flexibility Score: inf
ROOT
ATOM      1  C   UNL     1       4.925   0.921  -4.494  1.00  0.00     0.117 C 
ENDROOT
BRANCH   1   2
ATOM      2  N   UNL     1       5.037   1.198  -5.911  1.00  0.00    -0.356 N 
ATOM      3  C   UNL     1       4.061   1.377  -6.848  1.00  0.00     0.224 C 
ATOM      4  O   UNL     1       4.422   1.813  -7.944  1.00  0.00    -0.275 OA
ATOM      5  H   UNL     1       5.959   1.268  -6.250  1.00  0.00     0.163 HD
BRANCH   3   6
ATOM      6  C   UNL     1       2.588   1.177  -6.511  1.00  0.00     0.138 C 
BRANCH   6   7
ATOM      7  C   UNL     1       2.218  -0.208  -6.045  1.00  0.00    -0.002 A 
ATOM      8  C   UNL     1       0.852  -0.418  -2.450  1.00  0.00    -0.048 A 
ATOM      9  C   UNL     1       0.704  -1.809  -2.453  1.00  0.00     0.006 A 
ATOM     10  C   UNL     1       1.331   0.219  -3.609  1.00  0.00     0.014 A 
ATOM     11  C   UNL     1       1.044  -2.582  -3.569  1.00  0.00     0.027 A 
ATOM     12  C   UNL     1       1.684  -0.535  -4.751  1.00  0.00     0.004 A 
ATOM     13  C   UNL     1       1.528  -1.915  -4.699  1.00  0.00     0.046 A 
ATOM     14  N   UNL     1       1.929  -2.410  -5.914  1.00  0.00    -0.352 N 
ATOM     15  C   UNL     1       2.260  -1.392  -6.785  1.00  0.00     0.093 A 
ATOM     16  H   UNL     1       1.973  -3.368  -6.136  1.00  0.00     0.167 HD
BRANCH   8  17
ATOM     17  C   UNL     1       0.458   0.412  -1.250  1.00  0.00     0.032 C 
ATOM     18  C   UNL     1       1.092  -0.048   0.056  1.00  0.00     0.009 C 
ENDBRANCH   8  17
BRANCH  15  19
ATOM     19  C   UNL     1       2.593  -1.575  -8.194  1.00  0.00     0.227 C 
ATOM     20  O   UNL     1       2.844  -0.643  -8.957  1.00  0.00    -0.285 OA
BRANCH  19  21
ATOM     21  C   UNL     1       2.567  -2.945  -8.770  1.00  0.00     0.113 A 
ATOM     22  C   UNL     1       1.355  -3.622  -8.886  1.00  0.00     0.036 A 
ATOM     23  N   UNL     1       3.761  -3.457  -9.160  1.00  0.00    -0.253 NA
ATOM     24  C   UNL     1       1.364  -4.906  -9.435  1.00  0.00    -0.047 A 
ATOM     25  C   UNL     1       3.735  -4.681  -9.723  1.00  0.00     0.112 A 
ATOM     26  C   UNL     1       0.100  -5.698  -9.584  1.00  0.00     0.044 C 
ATOM     27  C   UNL     1       2.581  -5.435  -9.875  1.00  0.00     0.023 A 
ENDBRANCH  19  21
ENDBRANCH  15  19
ENDBRANCH   6   7
ENDBRANCH   3   6
ENDBRANCH   1   2
BRANCH   1  28
ATOM     28  C   UNL     1       5.266  -0.523  -4.140  1.00  0.00     0.042 C 
BRANCH  28  29
ATOM     29  C   UNL     1       6.718  -0.913  -4.406  1.00  0.00     0.118 C 
BRANCH  29  30
ATOM     30  N   UNL     1       7.666  -0.171  -3.586  1.00  0.00    -0.352 N 
ATOM     31  C   UNL     1       8.623  -0.607  -2.705  1.00  0.00     0.251 C 
ATOM     32  H   UNL     1       7.610   0.808  -3.680  1.00  0.00     0.163 HD
ATOM     33  O   UNL     1       9.205   0.210  -1.996  1.00  0.00    -0.269 OA
BRANCH  31  34
ATOM     34  C   UNL     1       8.954  -2.044  -2.578  1.00  0.00     0.039 A 
ATOM     35  C   UNL     1       9.193  -2.562  -1.300  1.00  0.00     0.014 A 
ATOM     36  C   UNL     1       9.086  -2.871  -3.697  1.00  0.00     0.014 A 
ATOM     37  C   UNL     1       9.500  -3.916  -1.139  1.00  0.00     0.010 A 
ATOM     38  C   UNL     1       9.331  -4.234  -3.532  1.00  0.00     0.010 A 
ATOM     39  C   UNL     1       9.539  -4.770  -2.252  1.00  0.00    -0.014 A 
BRANCH  39  40
ATOM     40  C   UNL     1       9.782  -6.226  -2.093  1.00  0.00     0.031 A 
ATOM     41  C   UNL     1      11.028  -6.858  -2.648  1.00  0.00     0.074 A 
ATOM     42  C   UNL     1       8.846  -6.996  -1.504  1.00  0.00     0.049 A 
ATOM     43  N   UNL     1      11.374  -8.121  -2.668  1.00  0.00    -0.248 NA
ATOM     44  C   UNL     1      12.003  -5.957  -3.282  1.00  0.00     0.031 C 
ATOM     45  C   UNL     1       7.578  -6.515  -0.951  1.00  0.00     0.029 A 
ATOM     46  N   UNL     1       8.814  -8.350  -1.280  1.00  0.00    -0.354 N 
ATOM     47  C   UNL     1      12.592  -8.168  -3.333  1.00  0.00     0.074 A 
ATOM     48  C   UNL     1      12.909  -6.813  -3.731  1.00  0.00     0.031 C 
ATOM     49  C   UNL     1       6.903  -7.554  -0.434  1.00  0.00     0.029 A 
ATOM     50  C   UNL     1       7.670  -8.776  -0.651  1.00  0.00     0.049 A 
ATOM     51  H   UNL     1       9.543  -8.957  -1.545  1.00  0.00     0.167 HD
ATOM     52  C   UNL     1      13.383  -9.240  -3.581  1.00  0.00     0.031 A 
ATOM     53  C   UNL     1       7.277 -10.013  -0.295  1.00  0.00     0.031 A 
ATOM     54  C   UNL     1      13.082 -10.586  -3.174  1.00  0.00     0.049 A 
ATOM     55  C   UNL     1       8.172 -11.185  -0.582  1.00  0.00     0.074 A 
ATOM     56  C   UNL     1      13.850 -11.727  -3.331  1.00  0.00     0.029 A 
ATOM     57  N   UNL     1      11.919 -10.973  -2.527  1.00  0.00    -0.354 N 
ATOM     58  N   UNL     1       9.345 -11.204  -1.165  1.00  0.00    -0.248 NA
ATOM     59  C   UNL     1       7.689 -12.506  -0.152  1.00  0.00     0.031 C 
ATOM     60  C   UNL     1      13.134 -12.812  -2.812  1.00  0.00     0.029 A 
ATOM     61  C   UNL     1      11.940 -12.338  -2.295  1.00  0.00     0.049 A 
ATOM     62  H   UNL     1      11.187 -10.367  -2.271  1.00  0.00     0.167 HD
ATOM     63  C   UNL     1       9.752 -12.531  -1.151  1.00  0.00     0.074 A 
ATOM     64  C   UNL     1       8.706 -13.286  -0.493  1.00  0.00     0.031 C 
ATOM     65  C   UNL     1      10.892 -13.075  -1.640  1.00  0.00     0.031 A 
BRANCH  52  66
ATOM     66  C   UNL     1      14.657  -8.996  -4.340  1.00  0.00    -0.014 A 
ATOM     67  C   UNL     1      15.749  -8.352  -3.738  1.00  0.00     0.009 A 
ATOM     68  C   UNL     1      14.779  -9.449  -5.663  1.00  0.00     0.009 A 
ATOM     69  C   UNL     1      16.926  -8.136  -4.457  1.00  0.00     0.001 A 
ATOM     70  C   UNL     1      15.966  -9.253  -6.372  1.00  0.00     0.001 A 
ATOM     71  C   UNL     1      17.035  -8.589  -5.771  1.00  0.00     0.000 A 
ENDBRANCH  52  66
BRANCH  53  72
ATOM     72  C   UNL     1       5.975 -10.207   0.390  1.00  0.00    -0.014 A 
ATOM     73  C   UNL     1       5.932 -10.509   1.760  1.00  0.00     0.009 A 
ATOM     74  C   UNL     1       4.770 -10.092  -0.320  1.00  0.00     0.009 A 
ATOM     75  C   UNL     1       4.709 -10.712   2.401  1.00  0.00     0.001 A 
ATOM     76  C   UNL     1       3.547 -10.272   0.329  1.00  0.00     0.001 A 
ATOM     77  C   UNL     1       3.518 -10.590   1.686  1.00  0.00     0.000 A 
ENDBRANCH  53  72
BRANCH  65  78
ATOM     78  C   UNL     1      11.082 -14.552  -1.452  1.00  0.00    -0.014 A 
ATOM     79  C   UNL     1      10.378 -15.479  -2.236  1.00  0.00     0.009 A 
ATOM     80  C   UNL     1      12.005 -15.020  -0.505  1.00  0.00     0.009 A 
ATOM     81  C   UNL     1      10.576 -16.849  -2.054  1.00  0.00     0.001 A 
ATOM     82  C   UNL     1      12.218 -16.389  -0.341  1.00  0.00     0.001 A 
ATOM     83  C   UNL     1      11.498 -17.302  -1.110  1.00  0.00     0.000 A 
ENDBRANCH  65  78
ENDBRANCH  39  40
ENDBRANCH  31  34
ENDBRANCH  29  30
ENDBRANCH  28  29
ENDBRANCH   1  28
TORSDOF 14
