REMARK SMILES Cc1ncccc1Oc1ccc(C(=O)NCCCNC(=O)c2ccc(-c3c4nc(c(-c5ccccc5)c5ccc([nH]5)c(-c5ccccc5)c5nc(c(-c6ccccc6)c6ccc3[nH]6)C=C5)C=C4)cc2)cc1Cl
REMARK SMILES IDX 17 1 16 2 15 3 13 4 14 5 12 7 9 8 10 9 71 10 11 11 70 12
REMARK SMILES IDX 72 13 8 14 7 15 1 16 2 17 3 18 4 19 6 20 5 21 18 22 19 23
REMARK SMILES IDX 20 24 21 26 22 27 23 28 69 29 24 30 68 31 25 32 26 33 27 34
REMARK SMILES IDX 62 35 28 36 67 37 61 38 63 39 29 40 66 41 60 42 59 43 30 45
REMARK SMILES IDX 52 46 37 47 51 48 38 49 41 50 50 51 64 52 39 53 40 54 49 56
REMARK SMILES IDX 65 57 42 58 31 59 32 60 36 61 33 62 35 63 34 64 53 65 54 66
REMARK SMILES IDX 58 67 55 68 57 69 56 70 43 71 44 72 48 73 45 74 47 75 46 76
REMARK H PARENT 15 6 19 25 63 44 41 55
REMARK Flexibility Score: inf
ROOT
ATOM      1  C   UNL     1       6.904  -1.498   3.351  1.00  0.00     0.042 C 
ENDROOT
BRANCH   1   2
ATOM      2  C   UNL     1       6.745  -1.067   1.894  1.00  0.00     0.118 C 
BRANCH   2   3
ATOM      3  N   UNL     1       7.100  -2.146   0.987  1.00  0.00    -0.352 N 
ATOM      4  C   UNL     1       6.336  -3.005   0.241  1.00  0.00     0.251 C 
ATOM      5  O   UNL     1       6.906  -3.804  -0.499  1.00  0.00    -0.269 OA
ATOM      6  H   UNL     1       8.070  -2.285   0.890  1.00  0.00     0.163 HD
BRANCH   4   7
ATOM      7  C   UNL     1       4.853  -2.950   0.237  1.00  0.00     0.041 A 
ATOM      8  C   UNL     1       2.083  -2.659   0.021  1.00  0.00     0.146 A 
ATOM      9  C   UNL     1       2.828  -3.043  -1.095  1.00  0.00     0.049 A 
ATOM     10  C   UNL     1       2.697  -2.564   1.273  1.00  0.00     0.084 A 
ATOM     11  C   UNL     1       4.212  -3.171  -0.990  1.00  0.00     0.018 A 
ATOM     12  C   UNL     1       4.082  -2.717   1.380  1.00  0.00     0.038 A 
ATOM     13  Cl  UNL     1       1.799  -2.231   2.708  1.00  0.00    -0.080 Cl
BRANCH   8  14
ATOM     14  O   UNL     1       0.744  -2.463  -0.172  1.00  0.00    -0.454 OA
BRANCH  14  15
ATOM     15  C   UNL     1       0.216  -1.190  -0.131  1.00  0.00     0.148 A 
ATOM     16  C   UNL     1       2.303   0.276  -0.513  1.00  0.00     0.071 C 
ATOM     17  C   UNL     1       0.840   0.056  -0.283  1.00  0.00     0.080 A 
ATOM     18  N   UNL     1       0.135   1.225  -0.232  1.00  0.00    -0.258 NA
ATOM     19  C   UNL     1      -1.200   1.167  -0.057  1.00  0.00     0.111 A 
ATOM     20  C   UNL     1      -1.176  -1.201   0.036  1.00  0.00     0.050 A 
ATOM     21  C   UNL     1      -1.898  -0.014   0.075  1.00  0.00     0.024 A 
ENDBRANCH  14  15
ENDBRANCH   8  14
ENDBRANCH   4   7
ENDBRANCH   2   3
ENDBRANCH   1   2
BRANCH   1  22
ATOM     22  C   UNL     1       8.357  -1.681   3.782  1.00  0.00     0.118 C 
BRANCH  22  23
ATOM     23  N   UNL     1       9.066  -0.416   3.883  1.00  0.00    -0.352 N 
ATOM     24  C   UNL     1       9.782   0.119   4.923  1.00  0.00     0.251 C 
ATOM     25  H   UNL     1       9.025   0.147   3.076  1.00  0.00     0.163 HD
ATOM     26  O   UNL     1      10.138   1.293   4.861  1.00  0.00    -0.269 OA
BRANCH  24  27
ATOM     27  C   UNL     1      10.122  -0.684   6.122  1.00  0.00     0.039 A 
ATOM     28  C   UNL     1      10.113  -0.047   7.367  1.00  0.00     0.014 A 
ATOM     29  C   UNL     1      10.513  -2.023   6.033  1.00  0.00     0.014 A 
ATOM     30  C   UNL     1      10.461  -0.756   8.518  1.00  0.00     0.010 A 
ATOM     31  C   UNL     1      10.793  -2.750   7.192  1.00  0.00     0.010 A 
ATOM     32  C   UNL     1      10.785  -2.121   8.444  1.00  0.00    -0.014 A 
BRANCH  32  33
ATOM     33  C   UNL     1      11.122  -2.881   9.675  1.00  0.00     0.031 A 
ATOM     34  C   UNL     1      12.508  -3.429   9.886  1.00  0.00     0.074 A 
ATOM     35  C   UNL     1      10.169  -3.095  10.603  1.00  0.00     0.049 A 
ATOM     36  N   UNL     1      12.990  -4.078  10.917  1.00  0.00    -0.248 NA
ATOM     37  C   UNL     1      13.473  -3.242   8.791  1.00  0.00     0.031 C 
ATOM     38  C   UNL     1       8.774  -2.663  10.498  1.00  0.00     0.029 A 
ATOM     39  N   UNL     1      10.233  -3.722  11.822  1.00  0.00    -0.354 N 
ATOM     40  C   UNL     1      14.305  -4.387  10.590  1.00  0.00     0.074 A 
ATOM     41  C   UNL     1      14.531  -3.897   9.247  1.00  0.00     0.031 C 
ATOM     42  C   UNL     1       8.124  -3.001  11.624  1.00  0.00     0.029 A 
ATOM     43  C   UNL     1       9.048  -3.695  12.515  1.00  0.00     0.049 A 
ATOM     44  H   UNL     1      11.050  -4.151  12.166  1.00  0.00     0.167 HD
ATOM     45  C   UNL     1      15.247  -5.003  11.344  1.00  0.00     0.031 A 
ATOM     46  C   UNL     1       8.741  -4.164  13.739  1.00  0.00     0.031 A 
ATOM     47  C   UNL     1      15.030  -5.481  12.684  1.00  0.00     0.049 A 
ATOM     48  C   UNL     1       9.809  -4.822  14.565  1.00  0.00     0.074 A 
ATOM     49  C   UNL     1      15.937  -6.072  13.548  1.00  0.00     0.029 A 
ATOM     50  N   UNL     1      13.819  -5.423  13.355  1.00  0.00    -0.354 N 
ATOM     51  N   UNL     1      11.067  -5.039  14.268  1.00  0.00    -0.248 NA
ATOM     52  C   UNL     1       9.416  -5.278  15.906  1.00  0.00     0.031 C 
ATOM     53  C   UNL     1      15.263  -6.407  14.728  1.00  0.00     0.029 A 
ATOM     54  C   UNL     1      13.950  -5.980  14.616  1.00  0.00     0.049 A 
ATOM     55  H   UNL     1      12.988  -5.042  12.989  1.00  0.00     0.167 HD
ATOM     56  C   UNL     1      11.622  -5.635  15.393  1.00  0.00     0.074 A 
ATOM     57  C   UNL     1      10.569  -5.725  16.384  1.00  0.00     0.031 C 
ATOM     58  C   UNL     1      12.891  -6.069  15.588  1.00  0.00     0.031 A 
BRANCH  45  59
ATOM     59  C   UNL     1      16.605  -5.197  10.728  1.00  0.00    -0.014 A 
ATOM     60  C   UNL     1      17.467  -4.109  10.513  1.00  0.00     0.009 A 
ATOM     61  C   UNL     1      17.042  -6.486  10.386  1.00  0.00     0.009 A 
ATOM     62  C   UNL     1      18.722  -4.305   9.933  1.00  0.00     0.001 A 
ATOM     63  C   UNL     1      18.309  -6.682   9.832  1.00  0.00     0.001 A 
ATOM     64  C   UNL     1      19.143  -5.590   9.597  1.00  0.00     0.000 A 
ENDBRANCH  45  59
BRANCH  46  65
ATOM     65  C   UNL     1       7.367  -3.989  14.277  1.00  0.00    -0.014 A 
ATOM     66  C   UNL     1       7.120  -3.067  15.306  1.00  0.00     0.009 A 
ATOM     67  C   UNL     1       6.299  -4.743  13.768  1.00  0.00     0.009 A 
ATOM     68  C   UNL     1       5.835  -2.922  15.832  1.00  0.00     0.001 A 
ATOM     69  C   UNL     1       5.010  -4.576  14.277  1.00  0.00     0.001 A 
ATOM     70  C   UNL     1       4.780  -3.673  15.315  1.00  0.00     0.000 A 
ENDBRANCH  46  65
BRANCH  58  71
ATOM     71  C   UNL     1      13.211  -6.653  16.935  1.00  0.00    -0.014 A 
ATOM     72  C   UNL     1      12.724  -7.913  17.317  1.00  0.00     0.009 A 
ATOM     73  C   UNL     1      14.019  -5.935  17.829  1.00  0.00     0.009 A 
ATOM     74  C   UNL     1      13.005  -8.422  18.586  1.00  0.00     0.001 A 
ATOM     75  C   UNL     1      14.322  -6.459  19.087  1.00  0.00     0.001 A 
ATOM     76  C   UNL     1      13.805  -7.696  19.468  1.00  0.00     0.000 A 
ENDBRANCH  58  71
ENDBRANCH  32  33
ENDBRANCH  24  27
ENDBRANCH  22  23
ENDBRANCH   1  22
TORSDOF 12
