REMARK SMILES CC(C)n1cncc1[C@@H](NC(=O)OC(C)(C)C)C(=O)NCCCNC(=O)c1ccc(-c2c3nc(c(-c4ccccc4)c4ccc([nH]4)c(-c4ccccc4)c4nc(c(-c5ccccc5)c5ccc2[nH]5)C=C4)C=C3)cc1
REMARK SMILES IDX 21 1 20 2 18 3 19 4 9 6 8 7 4 8 5 9 6 10 7 11 2 12 1 13 3 14
REMARK SMILES IDX 10 15 11 16 12 18 13 19 14 20 15 21 16 22 17 23 22 24 23 25
REMARK SMILES IDX 24 26 25 27 26 29 27 30 28 31 74 32 29 33 73 34 30 35 31 36
REMARK SMILES IDX 32 37 67 38 33 39 72 40 66 41 68 42 34 43 71 44 65 45 64 46
REMARK SMILES IDX 35 48 57 49 42 50 56 51 43 52 46 53 55 54 69 55 44 56 45 57
REMARK SMILES IDX 54 59 70 60 47 61 36 62 37 63 41 64 38 65 40 66 39 67 58 68
REMARK SMILES IDX 59 69 63 70 60 71 62 72 61 73 48 74 49 75 53 76 50 77 52 78
REMARK SMILES IDX 51 79
REMARK H PARENT 20 5 10 17 24 28 68 47 46 58
REMARK Flexibility Score: inf
ROOT
ATOM      1  C   UNL     1      -4.369   3.617   1.781  1.00  0.00     0.117 C 
ENDROOT
BRANCH   1   2
ATOM      2  N   UNL     1      -3.212   3.717   2.651  1.00  0.00    -0.354 N 
ATOM      3  C   UNL     1      -1.883   3.766   2.326  1.00  0.00     0.248 C 
ATOM      4  O   UNL     1      -1.079   3.853   3.265  1.00  0.00    -0.272 OA
ATOM      5  H   UNL     1      -3.412   3.757   3.615  1.00  0.00     0.163 HD
BRANCH   3   6
ATOM      6  C   UNL     1      -1.363   3.534   0.867  1.00  0.00     0.223 C 
BRANCH   6   7
ATOM      7  C   UNL     1      -1.480   2.039   0.624  1.00  0.00     0.070 A 
ATOM      8  N   UNL     1      -0.599   1.032   0.977  1.00  0.00    -0.330 N 
ATOM      9  C   UNL     1      -1.347  -0.126   1.061  1.00  0.00     0.199 A 
ATOM     10  N   UNL     1      -2.523   0.013   0.508  1.00  0.00    -0.245 NA
ATOM     11  C   UNL     1      -2.589   1.332   0.175  1.00  0.00     0.137 A 
BRANCH   8  12
ATOM     12  C   UNL     1       0.860   0.965   1.071  1.00  0.00     0.082 C 
ATOM     13  C   UNL     1       1.402   0.052  -0.048  1.00  0.00     0.031 C 
ATOM     14  C   UNL     1       1.625   2.282   1.033  1.00  0.00     0.031 C 
ENDBRANCH   8  12
ENDBRANCH   6   7
BRANCH   6  15
ATOM     15  N   UNL     1      -2.015   4.220  -0.241  1.00  0.00    -0.304 N 
ATOM     16  C   UNL     1      -2.466   5.509  -0.280  1.00  0.00     0.408 C 
ATOM     17  H   UNL     1      -2.147   3.691  -1.061  1.00  0.00     0.168 HD
ATOM     18  O   UNL     1      -2.710   6.048  -1.355  1.00  0.00    -0.225 OA
BRANCH  16  19
ATOM     19  O   UNL     1      -2.728   6.035   0.937  1.00  0.00    -0.444 OA
BRANCH  19  20
ATOM     20  C   UNL     1      -3.550   7.229   1.095  1.00  0.00     0.106 C 
ATOM     21  C   UNL     1      -2.830   8.471   0.568  1.00  0.00     0.056 C 
ATOM     22  C   UNL     1      -4.939   7.085   0.449  1.00  0.00     0.056 C 
ATOM     23  C   UNL     1      -3.747   7.383   2.615  1.00  0.00     0.056 C 
ENDBRANCH  19  20
ENDBRANCH  16  19
ENDBRANCH   6  15
ENDBRANCH   3   6
ENDBRANCH   1   2
BRANCH   1  24
ATOM     24  C   UNL     1      -5.224   2.380   2.038  1.00  0.00     0.042 C 
BRANCH  24  25
ATOM     25  C   UNL     1      -6.309   2.650   3.064  1.00  0.00     0.118 C 
BRANCH  25  26
ATOM     26  N   UNL     1      -7.293   3.632   2.587  1.00  0.00    -0.352 N 
ATOM     27  C   UNL     1      -8.200   4.370   3.322  1.00  0.00     0.251 C 
ATOM     28  H   UNL     1      -7.307   3.785   1.615  1.00  0.00     0.163 HD
ATOM     29  O   UNL     1      -9.169   4.904   2.799  1.00  0.00    -0.269 OA
BRANCH  27  30
ATOM     30  C   UNL     1      -7.958   4.508   4.763  1.00  0.00     0.039 A 
ATOM     31  C   UNL     1      -8.963   4.258   5.700  1.00  0.00     0.014 A 
ATOM     32  C   UNL     1      -6.649   4.771   5.151  1.00  0.00     0.014 A 
ATOM     33  C   UNL     1      -8.607   4.168   7.043  1.00  0.00     0.010 A 
ATOM     34  C   UNL     1      -6.276   4.495   6.436  1.00  0.00     0.010 A 
ATOM     35  C   UNL     1      -7.252   4.255   7.397  1.00  0.00    -0.014 A 
BRANCH  35  36
ATOM     36  C   UNL     1      -6.803   3.968   8.752  1.00  0.00     0.031 A 
ATOM     37  C   UNL     1      -7.215   2.639   9.270  1.00  0.00     0.074 A 
ATOM     38  C   UNL     1      -5.883   4.721   9.392  1.00  0.00     0.049 A 
ATOM     39  N   UNL     1      -8.138   2.389  10.137  1.00  0.00    -0.248 NA
ATOM     40  C   UNL     1      -6.648   1.435   8.639  1.00  0.00     0.031 C 
ATOM     41  C   UNL     1      -5.128   5.868   8.870  1.00  0.00     0.029 A 
ATOM     42  N   UNL     1      -5.330   4.537  10.619  1.00  0.00    -0.354 N 
ATOM     43  C   UNL     1      -8.090   1.016  10.352  1.00  0.00     0.074 A 
ATOM     44  C   UNL     1      -7.343   0.471   9.247  1.00  0.00     0.031 C 
ATOM     45  C   UNL     1      -4.064   6.111   9.666  1.00  0.00     0.029 A 
ATOM     46  C   UNL     1      -4.171   5.269  10.842  1.00  0.00     0.049 A 
ATOM     47  H   UNL     1      -5.719   3.934  11.294  1.00  0.00     0.167 HD
ATOM     48  C   UNL     1      -8.377   0.493  11.579  1.00  0.00     0.031 A 
ATOM     49  C   UNL     1      -3.345   5.178  11.912  1.00  0.00     0.031 A 
ATOM     50  C   UNL     1      -9.002   1.481  12.433  1.00  0.00     0.049 A 
ATOM     51  C   UNL     1      -4.112   4.539  13.004  1.00  0.00     0.074 A 
ATOM     52  C   UNL     1     -10.120   2.289  12.353  1.00  0.00     0.029 A 
ATOM     53  N   UNL     1      -8.205   2.041  13.404  1.00  0.00    -0.354 N 
ATOM     54  N   UNL     1      -5.120   5.110  13.599  1.00  0.00    -0.248 NA
ATOM     55  C   UNL     1      -4.048   3.093  13.135  1.00  0.00     0.031 C 
ATOM     56  C   UNL     1      -9.719   3.532  12.932  1.00  0.00     0.029 A 
ATOM     57  C   UNL     1      -8.413   3.392  13.406  1.00  0.00     0.049 A 
ATOM     58  H   UNL     1      -7.589   1.552  13.997  1.00  0.00     0.167 HD
ATOM     59  C   UNL     1      -6.048   4.092  13.765  1.00  0.00     0.074 A 
ATOM     60  C   UNL     1      -5.285   2.857  13.582  1.00  0.00     0.031 C 
ATOM     61  C   UNL     1      -7.388   4.357  13.737  1.00  0.00     0.031 A 
BRANCH  48  62
ATOM     62  C   UNL     1      -7.648  -0.698  12.176  1.00  0.00    -0.014 A 
ATOM     63  C   UNL     1      -7.959  -1.067  13.500  1.00  0.00     0.009 A 
ATOM     64  C   UNL     1      -6.477  -1.258  11.634  1.00  0.00     0.009 A 
ATOM     65  C   UNL     1      -7.074  -1.822  14.278  1.00  0.00     0.001 A 
ATOM     66  C   UNL     1      -5.612  -2.052  12.393  1.00  0.00     0.001 A 
ATOM     67  C   UNL     1      -5.890  -2.299  13.728  1.00  0.00     0.000 A 
ENDBRANCH  48  62
BRANCH  49  68
ATOM     68  C   UNL     1      -1.888   5.402  11.999  1.00  0.00    -0.014 A 
ATOM     69  C   UNL     1      -1.266   5.574  13.246  1.00  0.00     0.009 A 
ATOM     70  C   UNL     1      -1.065   5.164  10.884  1.00  0.00     0.009 A 
ATOM     71  C   UNL     1       0.124   5.460  13.380  1.00  0.00     0.001 A 
ATOM     72  C   UNL     1       0.324   5.055  11.017  1.00  0.00     0.001 A 
ATOM     73  C   UNL     1       0.916   5.183  12.269  1.00  0.00     0.000 A 
ENDBRANCH  49  68
BRANCH  61  74
ATOM     74  C   UNL     1      -7.824   5.800  13.819  1.00  0.00    -0.014 A 
ATOM     75  C   UNL     1      -7.466   6.775  12.871  1.00  0.00     0.009 A 
ATOM     76  C   UNL     1      -8.738   6.154  14.822  1.00  0.00     0.009 A 
ATOM     77  C   UNL     1      -7.978   8.075  12.951  1.00  0.00     0.001 A 
ATOM     78  C   UNL     1      -9.267   7.444  14.889  1.00  0.00     0.001 A 
ATOM     79  C   UNL     1      -8.881   8.407  13.959  1.00  0.00     0.000 A 
ENDBRANCH  61  74
ENDBRANCH  35  36
ENDBRANCH  27  30
ENDBRANCH  25  26
ENDBRANCH  24  25
ENDBRANCH   1  24
TORSDOF 15
