REMARK SMILES COC(=O)[C@@H]1CN(C(=O)OC(C)(C)C)C[C@@H]1C(=O)NCCCNC(=O)c1ccc(-c2c3nc(c(-c4ccccc4)c4ccc([nH]4)c(-c4ccccc4)c4nc(c(-c5ccccc5)c5ccc2[nH]5)C=C4)C=C3)cc1
REMARK SMILES IDX 20 1 19 2 17 3 18 4 16 6 5 7 6 8 7 9 15 10 3 11 4 12 2 13
REMARK SMILES IDX 1 14 8 15 9 16 10 17 11 18 12 19 13 20 14 21 21 22 22 23
REMARK SMILES IDX 23 24 24 25 25 27 26 28 27 29 73 30 28 31 72 32 29 33 30 34
REMARK SMILES IDX 31 35 66 36 32 37 71 38 65 39 67 40 33 41 70 42 64 43 63 44
REMARK SMILES IDX 34 46 56 47 41 48 55 49 42 50 45 51 54 52 68 53 43 54 44 55
REMARK SMILES IDX 53 57 69 58 46 59 35 60 36 61 40 62 37 63 39 64 38 65 57 66
REMARK SMILES IDX 58 67 62 68 59 69 61 70 60 71 47 72 48 73 52 74 49 75 51 76
REMARK SMILES IDX 50 77
REMARK H PARENT 19 5 23 26 67 45 45 56
REMARK Flexibility Score: inf
ROOT
ATOM      1  C   UNL     1       2.566  -1.654  -2.639  1.00  0.00     0.117 C 
ENDROOT
BRANCH   1   2
ATOM      2  N   UNL     1       2.580  -2.860  -3.422  1.00  0.00    -0.356 N 
ATOM      3  C   UNL     1       1.663  -3.779  -3.766  1.00  0.00     0.225 C 
ATOM      4  O   UNL     1       2.038  -4.506  -4.700  1.00  0.00    -0.275 OA
ATOM      5  H   UNL     1       3.471  -3.059  -3.793  1.00  0.00     0.163 HD
BRANCH   3   6
ATOM      6  C   UNL     1       0.247  -3.965  -3.210  1.00  0.00     0.114 C 
ATOM      7  C   UNL     1      -0.284  -3.544  -1.832  1.00  0.00     0.133 C 
ATOM      8  C   UNL     1       0.372  -4.516  -0.873  1.00  0.00     0.139 C 
ATOM      9  N   UNL     1       0.279  -5.757  -1.629  1.00  0.00    -0.306 N 
ATOM     10  C   UNL     1       0.092  -5.499  -3.055  1.00  0.00     0.137 C 
BRANCH   7  11
ATOM     11  C   UNL     1      -0.360  -2.085  -1.508  1.00  0.00     0.311 C 
ATOM     12  O   UNL     1      -0.852  -1.272  -2.282  1.00  0.00    -0.252 OA
BRANCH  11  13
ATOM     13  O   UNL     1       0.150  -1.789  -0.286  1.00  0.00    -0.469 OA
ATOM     14  C   UNL     1       0.123  -0.404   0.096  1.00  0.00     0.282 C 
ENDBRANCH  11  13
ENDBRANCH   7  11
BRANCH   9  15
ATOM     15  C   UNL     1       0.120  -7.027  -1.135  1.00  0.00     0.410 C 
ATOM     16  O   UNL     1      -0.102  -7.991  -1.862  1.00  0.00    -0.224 OA
BRANCH  15  17
ATOM     17  O   UNL     1       0.176  -7.075   0.219  1.00  0.00    -0.444 OA
BRANCH  17  18
ATOM     18  C   UNL     1      -0.184  -8.306   0.904  1.00  0.00     0.106 C 
ATOM     19  C   UNL     1      -1.670  -8.623   0.687  1.00  0.00     0.056 C 
ATOM     20  C   UNL     1       0.715  -9.484   0.507  1.00  0.00     0.056 C 
ATOM     21  C   UNL     1       0.037  -8.017   2.397  1.00  0.00     0.056 C 
ENDBRANCH  17  18
ENDBRANCH  15  17
ENDBRANCH   9  15
ENDBRANCH   3   6
ENDBRANCH   1   2
BRANCH   1  22
ATOM     22  C   UNL     1       3.348  -1.810  -1.342  1.00  0.00     0.042 C 
BRANCH  22  23
ATOM     23  C   UNL     1       4.732  -1.173  -1.401  1.00  0.00     0.118 C 
BRANCH  23  24
ATOM     24  N   UNL     1       4.676   0.261  -1.669  1.00  0.00    -0.352 N 
ATOM     25  C   UNL     1       5.167   1.343  -0.988  1.00  0.00     0.251 C 
ATOM     26  H   UNL     1       4.195   0.494  -2.495  1.00  0.00     0.163 HD
ATOM     27  O   UNL     1       4.837   2.469  -1.354  1.00  0.00    -0.269 OA
BRANCH  25  28
ATOM     28  C   UNL     1       6.056   1.188   0.183  1.00  0.00     0.039 A 
ATOM     29  C   UNL     1       5.985   2.147   1.199  1.00  0.00     0.014 A 
ATOM     30  C   UNL     1       6.982   0.149   0.280  1.00  0.00     0.014 A 
ATOM     31  C   UNL     1       6.792   2.025   2.330  1.00  0.00     0.010 A 
ATOM     32  C   UNL     1       7.703  -0.036   1.455  1.00  0.00     0.010 A 
ATOM     33  C   UNL     1       7.627   0.907   2.487  1.00  0.00    -0.014 A 
BRANCH  33  34
ATOM     34  C   UNL     1       8.430   0.725   3.721  1.00  0.00     0.031 A 
ATOM     35  C   UNL     1       9.933   0.676   3.652  1.00  0.00     0.074 A 
ATOM     36  C   UNL     1       7.798   0.568   4.901  1.00  0.00     0.049 A 
ATOM     37  N   UNL     1      10.798   0.511   4.621  1.00  0.00    -0.248 NA
ATOM     38  C   UNL     1      10.548   0.798   2.319  1.00  0.00     0.031 C 
ATOM     39  C   UNL     1       6.345   0.539   5.091  1.00  0.00     0.029 A 
ATOM     40  N   UNL     1       8.299   0.414   6.169  1.00  0.00    -0.354 N 
ATOM     41  C   UNL     1      12.048   0.497   4.014  1.00  0.00     0.074 A 
ATOM     42  C   UNL     1      11.830   0.606   2.590  1.00  0.00     0.031 C 
ATOM     43  C   UNL     1       6.073   0.429   6.401  1.00  0.00     0.029 A 
ATOM     44  C   UNL     1       7.327   0.341   7.138  1.00  0.00     0.049 A 
ATOM     45  H   UNL     1       9.262   0.361   6.366  1.00  0.00     0.167 HD
ATOM     46  C   UNL     1      13.271   0.432   4.592  1.00  0.00     0.031 A 
ATOM     47  C   UNL     1       7.437   0.224   8.474  1.00  0.00     0.031 A 
ATOM     48  C   UNL     1      13.489   0.349   6.010  1.00  0.00     0.049 A 
ATOM     49  C   UNL     1       8.808   0.169   9.088  1.00  0.00     0.074 A 
ATOM     50  C   UNL     1      14.688   0.320   6.700  1.00  0.00     0.029 A 
ATOM     51  N   UNL     1      12.479   0.291   6.958  1.00  0.00    -0.354 N 
ATOM     52  N   UNL     1       9.979   0.219   8.501  1.00  0.00    -0.248 NA
ATOM     53  C   UNL     1       8.869   0.059  10.551  1.00  0.00     0.031 C 
ATOM     54  C   UNL     1      14.403   0.210   8.065  1.00  0.00     0.029 A 
ATOM     55  C   UNL     1      13.027   0.218   8.226  1.00  0.00     0.049 A 
ATOM     56  H   UNL     1      11.515   0.301   6.758  1.00  0.00     0.167 HD
ATOM     57  C   UNL     1      10.915   0.172   9.525  1.00  0.00     0.074 A 
ATOM     58  C   UNL     1      10.174   0.118  10.768  1.00  0.00     0.031 C 
ATOM     59  C   UNL     1      12.268   0.166   9.447  1.00  0.00     0.031 A 
BRANCH  46  60
ATOM     60  C   UNL     1      14.469   0.470   3.684  1.00  0.00    -0.014 A 
ATOM     61  C   UNL     1      14.828   1.649   3.011  1.00  0.00     0.009 A 
ATOM     62  C   UNL     1      15.274  -0.669   3.532  1.00  0.00     0.009 A 
ATOM     63  C   UNL     1      15.950   1.678   2.181  1.00  0.00     0.001 A 
ATOM     64  C   UNL     1      16.412  -0.630   2.724  1.00  0.00     0.001 A 
ATOM     65  C   UNL     1      16.744   0.541   2.043  1.00  0.00     0.000 A 
ENDBRANCH  46  60
BRANCH  47  66
ATOM     66  C   UNL     1       6.223   0.178   9.331  1.00  0.00    -0.014 A 
ATOM     67  C   UNL     1       5.917   1.246  10.189  1.00  0.00     0.009 A 
ATOM     68  C   UNL     1       5.381  -0.944   9.320  1.00  0.00     0.009 A 
ATOM     69  C   UNL     1       4.818   1.173  11.048  1.00  0.00     0.001 A 
ATOM     70  C   UNL     1       4.265  -1.001  10.157  1.00  0.00     0.001 A 
ATOM     71  C   UNL     1       3.992   0.051  11.030  1.00  0.00     0.000 A 
ENDBRANCH  47  66
BRANCH  59  72
ATOM     72  C   UNL     1      13.020   0.132  10.746  1.00  0.00    -0.014 A 
ATOM     73  C   UNL     1      13.052  -1.027  11.538  1.00  0.00     0.009 A 
ATOM     74  C   UNL     1      13.713   1.273  11.178  1.00  0.00     0.009 A 
ATOM     75  C   UNL     1      13.726  -1.027  12.760  1.00  0.00     0.001 A 
ATOM     76  C   UNL     1      14.412   1.260  12.386  1.00  0.00     0.001 A 
ATOM     77  C   UNL     1      14.406   0.115  13.181  1.00  0.00     0.000 A 
ENDBRANCH  59  72
ENDBRANCH  33  34
ENDBRANCH  25  28
ENDBRANCH  23  24
ENDBRANCH  22  23
ENDBRANCH   1  22
TORSDOF 15
