REMARK SMILES CS(=O)(=O)c1ccc(/C=C(/C(=O)NCCCNC(=O)c2ccc(-c3c4nc(c(-c5ccccc5)c5ccc([nH]5)c(-c5ccccc5)c5nc(c(-c6ccccc6)c6ccc3[nH]6)C=C5)C=C4)cc2)c2ccc(-c3ccc(S(C)(=O)=O)cc3)cc2)cc1
REMARK SMILES IDX 14 1 13 2 11 3 12 4 10 6 9 7 8 8 5 9 6 10 85 11 7 12 84 13
REMARK SMILES IDX 2 14 1 15 3 16 4 17 68 18 69 19 83 20 70 21 82 22 71 23
REMARK SMILES IDX 72 24 73 25 81 26 74 27 80 28 75 29 76 30 77 31 78 32 79 33
REMARK SMILES IDX 15 34 16 35 17 36 18 37 19 39 20 40 21 41 67 42 22 43 66 44
REMARK SMILES IDX 23 45 24 46 25 47 60 48 26 49 65 50 59 51 61 52 27 53 64 54
REMARK SMILES IDX 58 55 57 56 28 58 50 59 35 60 49 61 36 62 39 63 48 64 62 65
REMARK SMILES IDX 37 66 38 67 47 69 63 70 40 71 29 72 30 73 34 74 31 75 33 76
REMARK SMILES IDX 32 77 51 78 52 79 56 80 53 81 55 82 54 83 41 84 42 85 46 86
REMARK SMILES IDX 43 87 45 88 44 89
REMARK H PARENT 13 5 17 38 61 57 39 68
REMARK Flexibility Score: inf
ROOT
ATOM      1  C   UNL     1       2.021   2.573  -8.741  1.00  0.00     0.118 C 
ENDROOT
BRANCH   1   2
ATOM      2  N   UNL     1       2.846   1.540  -9.334  1.00  0.00    -0.352 N 
ATOM      3  C   UNL     1       3.365   0.369  -8.883  1.00  0.00     0.251 C 
ATOM      4  O   UNL     1       4.103  -0.225  -9.673  1.00  0.00    -0.269 OA
ATOM      5  H   UNL     1       3.084   1.729 -10.270  1.00  0.00     0.163 HD
BRANCH   3   6
ATOM      6  C   UNL     1       3.012  -0.243  -7.545  1.00  0.00     0.047 C 
ATOM      7  C   UNL     1       2.805   0.515  -6.443  1.00  0.00     0.022 C 
BRANCH   7   8
ATOM      8  C   UNL     1       2.331   0.119  -5.096  1.00  0.00    -0.025 A 
ATOM      9  C   UNL     1       1.166  -0.598  -2.643  1.00  0.00     0.067 A 
ATOM     10  C   UNL     1       2.170  -1.394  -3.194  1.00  0.00     0.021 A 
ATOM     11  C   UNL     1       0.762   0.574  -3.280  1.00  0.00     0.021 A 
ATOM     12  C   UNL     1       2.771  -1.013  -4.399  1.00  0.00     0.009 A 
ATOM     13  C   UNL     1       1.348   0.929  -4.499  1.00  0.00     0.009 A 
BRANCH   9  14
ATOM     14  S   UNL     1       0.339  -1.106  -1.155  1.00  0.00     0.175 S 
ATOM     15  C   UNL     1       1.027  -0.041   0.083  1.00  0.00     0.163 C 
ATOM     16  O   UNL     1       0.759  -2.464  -0.857  1.00  0.00    -0.224 OA
ATOM     17  O   UNL     1      -1.063  -0.778  -1.311  1.00  0.00    -0.224 OA
ENDBRANCH   9  14
ENDBRANCH   7   8
BRANCH   6  18
ATOM     18  C   UNL     1       3.096  -1.722  -7.452  1.00  0.00    -0.013 A 
ATOM     19  C   UNL     1       4.352  -2.322  -7.615  1.00  0.00     0.009 A 
ATOM     20  C   UNL     1       2.005  -2.530  -7.118  1.00  0.00     0.009 A 
ATOM     21  C   UNL     1       4.527  -3.687  -7.399  1.00  0.00     0.009 A 
ATOM     22  C   UNL     1       2.193  -3.899  -6.870  1.00  0.00     0.009 A 
ATOM     23  C   UNL     1       3.461  -4.497  -6.984  1.00  0.00    -0.018 A 
BRANCH  23  24
ATOM     24  C   UNL     1       3.693  -5.917  -6.654  1.00  0.00    -0.018 A 
ATOM     25  C   UNL     1       4.823  -6.302  -5.904  1.00  0.00     0.010 A 
ATOM     26  C   UNL     1       2.808  -6.925  -7.073  1.00  0.00     0.010 A 
ATOM     27  C   UNL     1       5.075  -7.641  -5.600  1.00  0.00     0.021 A 
ATOM     28  C   UNL     1       3.050  -8.270  -6.774  1.00  0.00     0.021 A 
ATOM     29  C   UNL     1       4.191  -8.619  -6.052  1.00  0.00     0.067 A 
BRANCH  29  30
ATOM     30  S   UNL     1       4.529 -10.322  -5.679  1.00  0.00     0.175 S 
ATOM     31  C   UNL     1       5.986 -10.676  -6.628  1.00  0.00     0.163 C 
ATOM     32  O   UNL     1       4.874 -10.389  -4.272  1.00  0.00    -0.224 OA
ATOM     33  O   UNL     1       3.446 -11.119  -6.224  1.00  0.00    -0.224 OA
ENDBRANCH  29  30
ENDBRANCH  23  24
ENDBRANCH   6  18
ENDBRANCH   3   6
ENDBRANCH   1   2
BRANCH   1  34
ATOM     34  C   UNL     1       2.883   3.764  -8.321  1.00  0.00     0.042 C 
BRANCH  34  35
ATOM     35  C   UNL     1       3.491   4.518  -9.505  1.00  0.00     0.118 C 
BRANCH  35  36
ATOM     36  N   UNL     1       2.475   5.183 -10.308  1.00  0.00    -0.352 N 
ATOM     37  C   UNL     1       2.301   6.516 -10.581  1.00  0.00     0.251 C 
ATOM     38  H   UNL     1       1.810   4.584 -10.718  1.00  0.00     0.163 HD
ATOM     39  O   UNL     1       1.245   6.901 -11.075  1.00  0.00    -0.269 OA
BRANCH  37  40
ATOM     40  C   UNL     1       3.371   7.491 -10.283  1.00  0.00     0.039 A 
ATOM     41  C   UNL     1       3.018   8.739  -9.760  1.00  0.00     0.014 A 
ATOM     42  C   UNL     1       4.709   7.202 -10.563  1.00  0.00     0.014 A 
ATOM     43  C   UNL     1       4.012   9.677  -9.474  1.00  0.00     0.010 A 
ATOM     44  C   UNL     1       5.704   8.109 -10.209  1.00  0.00     0.010 A 
ATOM     45  C   UNL     1       5.366   9.360  -9.671  1.00  0.00    -0.014 A 
BRANCH  45  46
ATOM     46  C   UNL     1       6.440  10.325  -9.330  1.00  0.00     0.031 A 
ATOM     47  C   UNL     1       7.331  10.878 -10.409  1.00  0.00     0.074 A 
ATOM     48  C   UNL     1       6.652  10.659  -8.042  1.00  0.00     0.049 A 
ATOM     49  N   UNL     1       8.361  11.679 -10.300  1.00  0.00    -0.248 NA
ATOM     50  C   UNL     1       7.044  10.455 -11.789  1.00  0.00     0.031 C 
ATOM     51  C   UNL     1       5.879  10.167  -6.900  1.00  0.00     0.029 A 
ATOM     52  N   UNL     1       7.588  11.488  -7.477  1.00  0.00    -0.354 N 
ATOM     53  C   UNL     1       8.853  11.840 -11.589  1.00  0.00     0.074 A 
ATOM     54  C   UNL     1       8.042  11.015 -12.457  1.00  0.00     0.031 C 
ATOM     55  C   UNL     1       6.355  10.724  -5.775  1.00  0.00     0.029 A 
ATOM     56  C   UNL     1       7.492  11.575  -6.109  1.00  0.00     0.049 A 
ATOM     57  H   UNL     1       8.265  11.974  -8.002  1.00  0.00     0.167 HD
ATOM     58  C   UNL     1       9.876  12.618 -12.016  1.00  0.00     0.031 A 
ATOM     59  C   UNL     1       8.240  12.257  -5.222  1.00  0.00     0.031 A 
ATOM     60  C   UNL     1      10.677  13.445 -11.153  1.00  0.00     0.049 A 
ATOM     61  C   UNL     1       9.382  13.099  -5.720  1.00  0.00     0.074 A 
ATOM     62  C   UNL     1      11.702  14.310 -11.496  1.00  0.00     0.029 A 
ATOM     63  N   UNL     1      10.543  13.508  -9.775  1.00  0.00    -0.354 N 
ATOM     64  N   UNL     1       9.794  13.289  -6.950  1.00  0.00    -0.248 NA
ATOM     65  C   UNL     1      10.154  13.830  -4.705  1.00  0.00     0.031 C 
ATOM     66  C   UNL     1      12.224  14.855 -10.319  1.00  0.00     0.029 A 
ATOM     67  C   UNL     1      11.483  14.379  -9.250  1.00  0.00     0.049 A 
ATOM     68  H   UNL     1       9.878  13.009  -9.248  1.00  0.00     0.167 HD
ATOM     69  C   UNL     1      10.851  14.185  -6.861  1.00  0.00     0.074 A 
ATOM     70  C   UNL     1      11.007  14.511  -5.458  1.00  0.00     0.031 C 
ATOM     71  C   UNL     1      11.623  14.694  -7.851  1.00  0.00     0.031 A 
BRANCH  58  72
ATOM     72  C   UNL     1      10.194  12.601 -13.487  1.00  0.00    -0.014 A 
ATOM     73  C   UNL     1       9.319  13.167 -14.429  1.00  0.00     0.009 A 
ATOM     74  C   UNL     1      11.401  12.042 -13.935  1.00  0.00     0.009 A 
ATOM     75  C   UNL     1       9.628  13.139 -15.790  1.00  0.00     0.001 A 
ATOM     76  C   UNL     1      11.722  12.043 -15.294  1.00  0.00     0.001 A 
ATOM     77  C   UNL     1      10.831  12.581 -16.221  1.00  0.00     0.000 A 
ENDBRANCH  58  72
BRANCH  59  78
ATOM     78  C   UNL     1       7.926  12.186  -3.771  1.00  0.00    -0.014 A 
ATOM     79  C   UNL     1       7.409  13.303  -3.098  1.00  0.00     0.009 A 
ATOM     80  C   UNL     1       8.151  11.003  -3.048  1.00  0.00     0.009 A 
ATOM     81  C   UNL     1       7.151  13.248  -1.726  1.00  0.00     0.001 A 
ATOM     82  C   UNL     1       7.862  10.941  -1.683  1.00  0.00     0.001 A 
ATOM     83  C   UNL     1       7.373  12.066  -1.021  1.00  0.00     0.000 A 
ENDBRANCH  59  78
BRANCH  71  84
ATOM     84  C   UNL     1      12.679  15.690  -7.459  1.00  0.00    -0.014 A 
ATOM     85  C   UNL     1      13.834  15.298  -6.765  1.00  0.00     0.009 A 
ATOM     86  C   UNL     1      12.530  17.037  -7.827  1.00  0.00     0.009 A 
ATOM     87  C   UNL     1      14.802  16.243  -6.418  1.00  0.00     0.001 A 
ATOM     88  C   UNL     1      13.514  17.972  -7.506  1.00  0.00     0.001 A 
ATOM     89  C   UNL     1      14.644  17.576  -6.794  1.00  0.00     0.000 A 
ENDBRANCH  71  84
ENDBRANCH  45  46
ENDBRANCH  37  40
ENDBRANCH  35  36
ENDBRANCH  34  35
ENDBRANCH   1  34
TORSDOF 15
