REMARK SMILES CC(C)CN(C)c1cc2c(cc1Cl)C=C(C(=O)NCCCNC(=O)c1ccc(-c3c4nc(c(-c5ccccc5)c5ccc([nH]5)c(-c5ccccc5)c5nc(c(-c6ccccc6)c6ccc3[nH]6)C=C5)C=C4)cc1)[C@@H](C(F)(F)F)O2
REMARK SMILES IDX 19 1 18 2 16 3 17 4 15 6 7 7 8 8 12 9 9 10 11 11 13 12 10 13
REMARK SMILES IDX 78 14 14 15 73 16 5 17 6 18 4 19 2 20 1 21 3 22 74 23 75 24
REMARK SMILES IDX 76 25 77 26 20 27 21 28 22 29 23 30 24 32 25 33 26 34 72 35
REMARK SMILES IDX 27 36 71 37 28 38 29 39 30 40 65 41 31 42 70 43 64 44 66 45
REMARK SMILES IDX 32 46 69 47 63 48 62 49 33 51 55 52 40 53 54 54 41 55 44 56
REMARK SMILES IDX 53 57 67 58 42 59 43 60 52 62 68 63 45 64 34 65 35 66 39 67
REMARK SMILES IDX 36 68 38 69 37 70 56 71 57 72 61 73 58 74 60 75 59 76 46 77
REMARK SMILES IDX 47 78 51 79 48 80 50 81 49 82
REMARK H PARENT 18 5 22 31 66 50 44 61
REMARK Flexibility Score: inf
ROOT
ATOM      1  C   UNL     1      -2.865  -8.484   1.460  1.00  0.00     0.118 C 
ENDROOT
BRANCH   1   2
ATOM      2  N   UNL     1      -1.518  -8.293   0.950  1.00  0.00    -0.352 N 
ATOM      3  C   UNL     1      -0.679  -7.255   0.745  1.00  0.00     0.251 C 
ATOM      4  O   UNL     1       0.418  -7.553   0.263  1.00  0.00    -0.270 OA
ATOM      5  H   UNL     1      -1.108  -9.147   0.682  1.00  0.00     0.163 HD
BRANCH   3   6
ATOM      6  C   UNL     1      -0.989  -5.835   1.052  1.00  0.00     0.067 C 
ATOM      7  C   UNL     1      -0.787  -0.838   1.639  1.00  0.00     0.059 A 
ATOM      8  C   UNL     1      -1.794  -1.740   1.256  1.00  0.00     0.074 A 
ATOM      9  C   UNL     1       0.496  -1.366   1.920  1.00  0.00     0.065 A 
ATOM     10  C   UNL     1      -1.514  -3.098   1.131  1.00  0.00     0.130 A 
ATOM     11  C   UNL     1       0.794  -2.713   1.688  1.00  0.00     0.034 A 
ATOM     12  Cl  UNL     1       1.760  -0.398   2.599  1.00  0.00    -0.082 Cl
ATOM     13  C   UNL     1      -0.212  -3.579   1.279  1.00  0.00     0.019 A 
ATOM     14  O   UNL     1      -2.562  -3.946   0.871  1.00  0.00    -0.475 OA
ATOM     15  C   UNL     1       0.053  -4.985   1.003  1.00  0.00     0.025 C 
ATOM     16  C   UNL     1      -2.349  -5.294   1.394  1.00  0.00     0.314 C 
BRANCH   7  17
ATOM     17  N   UNL     1      -1.058   0.538   1.708  1.00  0.00    -0.373 N 
ATOM     18  C   UNL     1      -2.127   0.917   2.630  1.00  0.00     0.143 C 
BRANCH  17  19
ATOM     19  C   UNL     1      -0.994   1.283   0.432  1.00  0.00     0.119 C 
BRANCH  19  20
ATOM     20  C   UNL     1       0.453   1.551  -0.031  1.00  0.00     0.002 C 
ATOM     21  C   UNL     1       0.959   0.483  -1.007  1.00  0.00     0.009 C 
ATOM     22  C   UNL     1       0.575   2.925  -0.695  1.00  0.00     0.009 C 
ENDBRANCH  19  20
ENDBRANCH  17  19
ENDBRANCH   7  17
BRANCH  16  23
ATOM     23  C   UNL     1      -2.635  -5.348   2.915  1.00  0.00     0.429 C 
ATOM     24  F   UNL     1      -3.970  -5.280   3.147  1.00  0.00    -0.167 F 
ATOM     25  F   UNL     1      -2.205  -6.506   3.477  1.00  0.00    -0.167 F 
ATOM     26  F   UNL     1      -2.053  -4.348   3.611  1.00  0.00    -0.167 F 
ENDBRANCH  16  23
ENDBRANCH   3   6
ENDBRANCH   1   2
BRANCH   1  27
ATOM     27  C   UNL     1      -3.817  -8.920   0.358  1.00  0.00     0.042 C 
BRANCH  27  28
ATOM     28  C   UNL     1      -3.602 -10.370  -0.049  1.00  0.00     0.118 C 
BRANCH  28  29
ATOM     29  N   UNL     1      -4.029 -11.303   0.991  1.00  0.00    -0.352 N 
ATOM     30  C   UNL     1      -5.114 -12.149   1.034  1.00  0.00     0.251 C 
ATOM     31  H   UNL     1      -3.450 -11.331   1.787  1.00  0.00     0.163 HD
ATOM     32  O   UNL     1      -5.434 -12.688   2.083  1.00  0.00    -0.269 OA
BRANCH  30  33
ATOM     33  C   UNL     1      -5.906 -12.380  -0.192  1.00  0.00     0.039 A 
ATOM     34  C   UNL     1      -5.265 -12.562  -1.416  1.00  0.00     0.014 A 
ATOM     35  C   UNL     1      -7.302 -12.394  -0.121  1.00  0.00     0.014 A 
ATOM     36  C   UNL     1      -6.006 -12.540  -2.587  1.00  0.00     0.010 A 
ATOM     37  C   UNL     1      -8.053 -12.491  -1.296  1.00  0.00     0.010 A 
ATOM     38  C   UNL     1      -7.410 -12.506  -2.543  1.00  0.00    -0.014 A 
BRANCH  38  39
ATOM     39  C   UNL     1      -8.167 -12.484  -3.821  1.00  0.00     0.031 A 
ATOM     40  C   UNL     1      -9.025 -11.303  -4.188  1.00  0.00     0.074 A 
ATOM     41  C   UNL     1      -8.002 -13.497  -4.693  1.00  0.00     0.049 A 
ATOM     42  N   UNL     1      -9.714 -11.100  -5.283  1.00  0.00    -0.248 NA
ATOM     43  C   UNL     1      -9.127 -10.210  -3.208  1.00  0.00     0.031 C 
ATOM     44  C   UNL     1      -7.166 -14.678  -4.462  1.00  0.00     0.029 A 
ATOM     45  N   UNL     1      -8.482 -13.676  -5.965  1.00  0.00    -0.354 N 
ATOM     46  C   UNL     1     -10.345  -9.873  -5.114  1.00  0.00     0.074 A 
ATOM     47  C   UNL     1      -9.980  -9.387  -3.803  1.00  0.00     0.031 C 
ATOM     48  C   UNL     1      -7.121 -15.410  -5.582  1.00  0.00     0.029 A 
ATOM     49  C   UNL     1      -7.991 -14.801  -6.582  1.00  0.00     0.049 A 
ATOM     50  H   UNL     1      -9.118 -13.058  -6.395  1.00  0.00     0.167 HD
ATOM     51  C   UNL     1     -11.147  -9.209  -5.980  1.00  0.00     0.031 A 
ATOM     52  C   UNL     1      -8.217 -15.299  -7.812  1.00  0.00     0.031 A 
ATOM     53  C   UNL     1     -11.497  -9.691  -7.290  1.00  0.00     0.049 A 
ATOM     54  C   UNL     1      -9.154 -14.572  -8.729  1.00  0.00     0.074 A 
ATOM     55  C   UNL     1     -12.308  -9.091  -8.237  1.00  0.00     0.029 A 
ATOM     56  N   UNL     1     -11.051 -10.883  -7.839  1.00  0.00    -0.354 N 
ATOM     57  N   UNL     1      -9.765 -13.427  -8.541  1.00  0.00    -0.248 NA
ATOM     58  C   UNL     1      -9.446 -15.208 -10.021  1.00  0.00     0.031 C 
ATOM     59  C   UNL     1     -12.395  -9.945  -9.339  1.00  0.00     0.029 A 
ATOM     60  C   UNL     1     -11.588 -11.046  -9.105  1.00  0.00     0.049 A 
ATOM     61  H   UNL     1     -10.444 -11.519  -7.396  1.00  0.00     0.167 HD
ATOM     62  C   UNL     1     -10.509 -13.202  -9.689  1.00  0.00     0.074 A 
ATOM     63  C   UNL     1     -10.256 -14.317 -10.579  1.00  0.00     0.031 C 
ATOM     64  C   UNL     1     -11.334 -12.166  -9.975  1.00  0.00     0.031 A 
BRANCH  51  65
ATOM     65  C   UNL     1     -11.723  -7.891  -5.540  1.00  0.00    -0.014 A 
ATOM     66  C   UNL     1     -13.100  -7.782  -5.288  1.00  0.00     0.009 A 
ATOM     67  C   UNL     1     -10.925  -6.740  -5.455  1.00  0.00     0.009 A 
ATOM     68  C   UNL     1     -13.669  -6.547  -4.972  1.00  0.00     0.001 A 
ATOM     69  C   UNL     1     -11.492  -5.510  -5.112  1.00  0.00     0.001 A 
ATOM     70  C   UNL     1     -12.864  -5.413  -4.880  1.00  0.00     0.000 A 
ENDBRANCH  51  65
BRANCH  52  71
ATOM     71  C   UNL     1      -7.534 -16.552  -8.226  1.00  0.00    -0.014 A 
ATOM     72  C   UNL     1      -7.846 -17.773  -7.606  1.00  0.00     0.009 A 
ATOM     73  C   UNL     1      -6.517 -16.521  -9.191  1.00  0.00     0.009 A 
ATOM     74  C   UNL     1      -7.129 -18.930  -7.916  1.00  0.00     0.001 A 
ATOM     75  C   UNL     1      -5.822 -17.688  -9.522  1.00  0.00     0.001 A 
ATOM     76  C   UNL     1      -6.120 -18.887  -8.876  1.00  0.00     0.000 A 
ENDBRANCH  52  71
BRANCH  64  77
ATOM     77  C   UNL     1     -12.027 -12.174 -11.307  1.00  0.00    -0.014 A 
ATOM     78  C   UNL     1     -11.655 -11.245 -12.291  1.00  0.00     0.009 A 
ATOM     79  C   UNL     1     -13.110 -13.030 -11.550  1.00  0.00     0.009 A 
ATOM     80  C   UNL     1     -12.366 -11.162 -13.489  1.00  0.00     0.001 A 
ATOM     81  C   UNL     1     -13.802 -12.963 -12.761  1.00  0.00     0.001 A 
ATOM     82  C   UNL     1     -13.436 -12.024 -13.724  1.00  0.00     0.000 A 
ENDBRANCH  64  77
ENDBRANCH  38  39
ENDBRANCH  30  33
ENDBRANCH  28  29
ENDBRANCH  27  28
ENDBRANCH   1  27
TORSDOF 14
