REMARK SMILES O=C(NCCCNC(=O)c1sccc1S(=O)(=O)Nc1ccc(-c2nc3ccccc3n2C(F)F)cc1)c1ccc(-c2c3nc(c(-c4ccccc4)c4ccc([nH]4)c(-c4ccccc4)c4nc(c(-c5ccccc5)c5ccc2[nH]5)C=C4)C=C3)cc1
REMARK SMILES IDX 7 1 8 2 9 3 6 5 5 6 4 7 3 8 1 9 2 10 37 12 38 13 84 14 39 15
REMARK SMILES IDX 83 16 40 17 41 18 42 19 77 20 43 21 82 22 76 23 78 24 44 25
REMARK SMILES IDX 81 26 75 27 74 28 45 30 67 31 52 32 66 33 53 34 56 35 65 36
REMARK SMILES IDX 79 37 54 38 55 39 64 41 80 42 57 43 46 44 47 45 51 46 48 47
REMARK SMILES IDX 50 48 49 49 68 50 69 51 73 52 70 53 72 54 71 55 58 56 59 57
REMARK SMILES IDX 63 58 60 59 62 60 61 61 10 62 11 63 14 64 12 65 13 66 15 67
REMARK SMILES IDX 16 68 17 69 18 70 19 72 20 73 36 74 21 75 35 76 22 77 23 78
REMARK SMILES IDX 24 79 31 80 25 81 30 82 26 83 29 84 27 85 28 86 32 87 33 88
REMARK SMILES IDX 34 89
REMARK H PARENT 7 4 3 11 78 29 56 40 18 71
REMARK Flexibility Score: inf
ROOT
ATOM      1  N   UNL     1       5.817   2.136  -2.884  1.00  0.00    -0.351 N 
ATOM      2  C   UNL     1       6.576   2.767  -3.825  1.00  0.00     0.262 C 
ATOM      3  O   UNL     1       7.416   3.560  -3.395  1.00  0.00    -0.268 OA
ATOM      4  H   UNL     1       5.890   2.510  -1.976  1.00  0.00     0.163 HD
ENDROOT
BRANCH   1   5
ATOM      5  C   UNL     1       4.923   1.007  -3.004  1.00  0.00     0.118 C 
BRANCH   5   6
ATOM      6  C   UNL     1       5.094   0.055  -1.834  1.00  0.00     0.042 C 
BRANCH   6   7
ATOM      7  C   UNL     1       4.699   0.653  -0.478  1.00  0.00     0.118 C 
BRANCH   7   8
ATOM      8  N   UNL     1       3.286   0.928  -0.318  1.00  0.00    -0.352 N 
ATOM      9  O   UNL     1       1.189   0.777   0.364  1.00  0.00    -0.269 OA
ATOM     10  C   UNL     1       2.224   0.167   0.085  1.00  0.00     0.251 C 
ATOM     11  H   UNL     1       3.040   1.853  -0.547  1.00  0.00     0.163 HD
BRANCH  10  12
ATOM     12  C   UNL     1       2.212  -1.320   0.112  1.00  0.00     0.039 A 
ATOM     13  C   UNL     1       3.312  -2.144  -0.128  1.00  0.00     0.014 A 
ATOM     14  C   UNL     1       0.955  -1.919   0.306  1.00  0.00     0.014 A 
ATOM     15  C   UNL     1       3.143  -3.505  -0.335  1.00  0.00     0.010 A 
ATOM     16  C   UNL     1       0.783  -3.287   0.146  1.00  0.00     0.010 A 
ATOM     17  C   UNL     1       1.871  -4.067  -0.232  1.00  0.00    -0.014 A 
BRANCH  17  18
ATOM     18  C   UNL     1       1.763  -5.515  -0.344  1.00  0.00     0.031 A 
ATOM     19  C   UNL     1       2.501  -6.256   0.720  1.00  0.00     0.074 A 
ATOM     20  C   UNL     1       0.961  -6.132  -1.233  1.00  0.00     0.049 A 
ATOM     21  N   UNL     1       3.452  -7.120   0.580  1.00  0.00    -0.248 NA
ATOM     22  C   UNL     1       2.228  -5.887   2.120  1.00  0.00     0.031 C 
ATOM     23  C   UNL     1      -0.015  -5.523  -2.141  1.00  0.00     0.029 A 
ATOM     24  N   UNL     1       0.762  -7.466  -1.424  1.00  0.00    -0.354 N 
ATOM     25  C   UNL     1       3.778  -7.543   1.868  1.00  0.00     0.074 A 
ATOM     26  C   UNL     1       3.101  -6.652   2.774  1.00  0.00     0.031 C 
ATOM     27  C   UNL     1      -0.863  -6.478  -2.587  1.00  0.00     0.029 A 
ATOM     28  C   UNL     1      -0.408  -7.773  -2.109  1.00  0.00     0.049 A 
ATOM     29  H   UNL     1       1.391  -8.153  -1.105  1.00  0.00     0.167 HD
ATOM     30  C   UNL     1       4.384  -8.741   2.095  1.00  0.00     0.031 A 
ATOM     31  C   UNL     1      -0.996  -8.992  -2.212  1.00  0.00     0.031 A 
ATOM     32  C   UNL     1       5.029  -9.245   0.911  1.00  0.00     0.049 A 
ATOM     33  C   UNL     1       0.020 -10.013  -1.873  1.00  0.00     0.074 A 
ATOM     34  C   UNL     1       6.044  -8.804   0.086  1.00  0.00     0.029 A 
ATOM     35  N   UNL     1       4.372 -10.225   0.207  1.00  0.00    -0.354 N 
ATOM     36  N   UNL     1       1.055 -10.269  -2.619  1.00  0.00    -0.248 NA
ATOM     37  C   UNL     1       0.126 -10.435  -0.486  1.00  0.00     0.031 C 
ATOM     38  C   UNL     1       5.637  -9.184  -1.228  1.00  0.00     0.029 A 
ATOM     39  C   UNL     1       4.438  -9.890  -1.118  1.00  0.00     0.049 A 
ATOM     40  H   UNL     1       3.935 -11.021   0.586  1.00  0.00     0.167 HD
ATOM     41  C   UNL     1       2.093 -10.459  -1.720  1.00  0.00     0.074 A 
ATOM     42  C   UNL     1       1.444 -10.647  -0.423  1.00  0.00     0.031 C 
ATOM     43  C   UNL     1       3.381 -10.161  -2.063  1.00  0.00     0.031 A 
BRANCH  30  44
ATOM     44  C   UNL     1       3.987  -9.655   3.234  1.00  0.00    -0.014 A 
ATOM     45  C   UNL     1       4.593 -10.923   3.316  1.00  0.00     0.009 A 
ATOM     46  C   UNL     1       2.835  -9.458   4.020  1.00  0.00     0.009 A 
ATOM     47  C   UNL     1       4.006 -11.967   4.041  1.00  0.00     0.001 A 
ATOM     48  C   UNL     1       2.270 -10.486   4.779  1.00  0.00     0.001 A 
ATOM     49  C   UNL     1       2.835 -11.752   4.758  1.00  0.00     0.000 A 
ENDBRANCH  30  44
BRANCH  31  50
ATOM     50  C   UNL     1      -2.437  -9.323  -2.281  1.00  0.00    -0.014 A 
ATOM     51  C   UNL     1      -2.868 -10.591  -2.707  1.00  0.00     0.009 A 
ATOM     52  C   UNL     1      -3.382  -8.488  -1.658  1.00  0.00     0.009 A 
ATOM     53  C   UNL     1      -4.186 -11.016  -2.485  1.00  0.00     0.001 A 
ATOM     54  C   UNL     1      -4.697  -8.912  -1.438  1.00  0.00     0.001 A 
ATOM     55  C   UNL     1      -5.095 -10.182  -1.839  1.00  0.00     0.000 A 
ENDBRANCH  31  50
BRANCH  43  56
ATOM     56  C   UNL     1       3.674  -9.841  -3.507  1.00  0.00    -0.014 A 
ATOM     57  C   UNL     1       3.098  -8.753  -4.186  1.00  0.00     0.009 A 
ATOM     58  C   UNL     1       4.680 -10.573  -4.154  1.00  0.00     0.009 A 
ATOM     59  C   UNL     1       3.499  -8.429  -5.487  1.00  0.00     0.001 A 
ATOM     60  C   UNL     1       5.095 -10.236  -5.443  1.00  0.00     0.001 A 
ATOM     61  C   UNL     1       4.500  -9.168  -6.112  1.00  0.00     0.000 A 
ENDBRANCH  43  56
ENDBRANCH  17  18
ENDBRANCH  10  12
ENDBRANCH   7   8
ENDBRANCH   6   7
ENDBRANCH   5   6
ENDBRANCH   1   5
BRANCH   2  62
ATOM     62  C   UNL     1       6.419   2.448  -5.223  1.00  0.00     0.112 A 
ATOM     63  S   UNL     1       7.899   2.117  -6.054  1.00  0.00    -0.137 S 
ATOM     64  C   UNL     1       5.338   2.392  -6.088  1.00  0.00     0.111 A 
ATOM     65  C   UNL     1       7.099   1.783  -7.516  1.00  0.00     0.067 A 
ATOM     66  C   UNL     1       5.742   1.956  -7.401  1.00  0.00     0.035 A 
BRANCH  64  67
ATOM     67  S   UNL     1       3.661   2.770  -5.817  1.00  0.00     0.263 S 
ATOM     68  O   UNL     1       3.365   3.734  -6.848  1.00  0.00    -0.201 OA
ATOM     69  O   UNL     1       3.041   1.456  -5.836  1.00  0.00    -0.201 OA
BRANCH  67  70
ATOM     70  N   UNL     1       3.238   3.429  -4.352  1.00  0.00    -0.280 N 
ATOM     71  H   UNL     1       2.467   3.031  -3.887  1.00  0.00     0.180 HD
BRANCH  70  72
ATOM     72  C   UNL     1       3.888   4.510  -3.716  1.00  0.00     0.049 A 
ATOM     73  C   UNL     1       3.792   4.551  -2.321  1.00  0.00     0.027 A 
ATOM     74  C   UNL     1       4.727   5.394  -4.370  1.00  0.00     0.027 A 
ATOM     75  C   UNL     1       4.686   5.324  -1.569  1.00  0.00     0.014 A 
ATOM     76  C   UNL     1       5.608   6.169  -3.614  1.00  0.00     0.014 A 
ATOM     77  C   UNL     1       5.663   6.090  -2.205  1.00  0.00     0.018 A 
BRANCH  77  78
ATOM     78  C   UNL     1       6.798   6.771  -1.548  1.00  0.00     0.145 A 
ATOM     79  N   UNL     1       7.482   7.716  -2.177  1.00  0.00    -0.228 NA
ATOM     80  N   UNL     1       7.418   6.497  -0.338  1.00  0.00    -0.266 N 
ATOM     81  C   UNL     1       8.611   7.948  -1.454  1.00  0.00     0.089 A 
ATOM     82  C   UNL     1       8.624   7.179  -0.299  1.00  0.00     0.074 A 
ATOM     83  C   UNL     1       9.680   8.805  -1.743  1.00  0.00     0.030 A 
ATOM     84  C   UNL     1       9.699   7.214   0.604  1.00  0.00     0.029 A 
ATOM     85  C   UNL     1      10.754   8.863  -0.851  1.00  0.00     0.002 A 
ATOM     86  C   UNL     1      10.762   8.075   0.300  1.00  0.00     0.002 A 
BRANCH  80  87
ATOM     87  C   UNL     1       6.926   5.680   0.747  1.00  0.00     0.451 C 
ATOM     88  F   UNL     1       5.729   6.136   1.208  1.00  0.00    -0.185 F 
ATOM     89  F   UNL     1       6.741   4.383   0.381  1.00  0.00    -0.185 F 
ENDBRANCH  80  87
ENDBRANCH  77  78
ENDBRANCH  70  72
ENDBRANCH  67  70
ENDBRANCH  64  67
ENDBRANCH   2  62
TORSDOF 15
