REMARK SMILES COc1ccc(OC)c(/C=C2\S/C(=[NH+]\c3ccc(C(=O)NCCCNC(=O)c4ccc(-c5c6nc(c(-c7ccccc7)c7ccc([nH]7)c(-c7ccccc7)c7nc(c(-c8ccccc8)c8ccc5[nH]8)C=C7)C=C6)cc4)cc3)N(C)C2=O)c1
REMARK SMILES IDX 22 1 21 2 19 3 20 4 18 6 15 7 16 8 77 9 17 10 76 11 14 12
REMARK SMILES IDX 10 13 11 14 12 15 80 16 13 17 78 18 81 19 79 20 9 22 3 23
REMARK SMILES IDX 4 24 82 25 5 26 6 27 2 28 1 29 7 30 8 31 23 32 24 33 25 34
REMARK SMILES IDX 26 35 27 37 28 38 29 39 75 40 30 41 74 42 31 43 32 44 33 45
REMARK SMILES IDX 68 46 34 47 73 48 67 49 69 50 35 51 72 52 66 53 65 54 36 56
REMARK SMILES IDX 58 57 43 58 57 59 44 60 47 61 56 62 70 63 45 64 46 65 55 67
REMARK SMILES IDX 71 68 48 69 37 70 38 71 42 72 39 73 41 74 40 75 59 76 60 77
REMARK SMILES IDX 64 78 61 79 63 80 62 81 49 82 50 83 54 84 51 85 53 86 52 87
REMARK H PARENT 21 5 14 21 25 36 69 55 47 66
REMARK Flexibility Score: inf
ROOT
ATOM      1  C   UNL     1      -1.913  -7.666   6.203  1.00  0.00     0.118 C 
ENDROOT
BRANCH   1   2
ATOM      2  N   UNL     1      -1.778  -7.006   7.490  1.00  0.00    -0.352 N 
ATOM      3  C   UNL     1      -0.699  -6.532   8.191  1.00  0.00     0.251 C 
ATOM      4  O   UNL     1      -0.934  -5.947   9.250  1.00  0.00    -0.269 OA
ATOM      5  H   UNL     1      -2.637  -6.873   7.954  1.00  0.00     0.163 HD
BRANCH   3   6
ATOM      6  C   UNL     1       0.715  -6.647   7.731  1.00  0.00     0.040 A 
ATOM      7  C   UNL     1       3.412  -6.636   6.883  1.00  0.00     0.125 A 
ATOM      8  C   UNL     1       2.967  -5.695   7.810  1.00  0.00     0.052 A 
ATOM      9  C   UNL     1       2.529  -7.637   6.465  1.00  0.00     0.052 A 
ATOM     10  C   UNL     1       1.625  -5.688   8.212  1.00  0.00     0.018 A 
ATOM     11  C   UNL     1       1.199  -7.657   6.899  1.00  0.00     0.018 A 
BRANCH   7  12
ATOM     12  N   UNL     1       4.692  -6.602   6.301  1.00  0.00    -0.234 N 
ATOM     13  C   UNL     1       3.954  -3.945   2.253  1.00  0.00     0.036 C 
ATOM     14  C   UNL     1       4.584  -4.318   3.376  1.00  0.00     0.110 C 
ATOM     15  S   UNL     1       3.936  -4.336   4.963  1.00  0.00     0.007 SA
ATOM     16  C   UNL     1       5.891  -5.035   3.377  1.00  0.00     0.348 C 
ATOM     17  C   UNL     1       4.928  -5.709   5.393  1.00  0.00     0.324 C 
ATOM     18  N   UNL     1       6.000  -5.777   4.539  1.00  0.00    -0.189 N 
ATOM     19  O   UNL     1       6.658  -5.046   2.423  1.00  0.00    -0.240 OA
ATOM     20  C   UNL     1       7.045  -6.762   4.704  1.00  0.00     0.301 C 
ATOM     21  H   UNL     1       5.389  -7.239   6.577  1.00  0.00     0.313 HD
BRANCH  13  22
ATOM     22  C   UNL     1       2.553  -3.484   2.199  1.00  0.00     0.022 A 
ATOM     23  C   UNL     1       1.031  -1.651   1.709  1.00  0.00     0.119 A 
ATOM     24  C   UNL     1      -0.025  -2.362   2.269  1.00  0.00     0.050 A 
ATOM     25  C   UNL     1       2.318  -2.195   1.692  1.00  0.00     0.058 A 
ATOM     26  C   UNL     1       0.185  -3.654   2.743  1.00  0.00     0.051 A 
ATOM     27  C   UNL     1       1.454  -4.236   2.671  1.00  0.00     0.126 A 
BRANCH  23  28
ATOM     28  O   UNL     1       0.748  -0.384   1.275  1.00  0.00    -0.497 OA
ATOM     29  C   UNL     1       1.198  -0.143  -0.056  1.00  0.00     0.278 C 
ENDBRANCH  23  28
BRANCH  27  30
ATOM     30  O   UNL     1       1.515  -5.505   3.190  1.00  0.00    -0.496 OA
ATOM     31  C   UNL     1       2.125  -6.470   2.339  1.00  0.00     0.278 C 
ENDBRANCH  27  30
ENDBRANCH  13  22
ENDBRANCH   7  12
ENDBRANCH   3   6
ENDBRANCH   1   2
BRANCH   1  32
ATOM     32  C   UNL     1      -2.104  -9.175   6.369  1.00  0.00     0.042 C 
BRANCH  32  33
ATOM     33  C   UNL     1      -3.490  -9.569   6.880  1.00  0.00     0.118 C 
BRANCH  33  34
ATOM     34  N   UNL     1      -4.528  -9.349   5.883  1.00  0.00    -0.352 N 
ATOM     35  C   UNL     1      -5.464 -10.207   5.364  1.00  0.00     0.251 C 
ATOM     36  H   UNL     1      -4.564  -8.434   5.522  1.00  0.00     0.163 HD
ATOM     37  O   UNL     1      -6.113  -9.858   4.381  1.00  0.00    -0.269 OA
BRANCH  35  38
ATOM     38  C   UNL     1      -5.704 -11.544   5.957  1.00  0.00     0.039 A 
ATOM     39  C   UNL     1      -6.007 -12.607   5.098  1.00  0.00     0.014 A 
ATOM     40  C   UNL     1      -5.713 -11.749   7.339  1.00  0.00     0.014 A 
ATOM     41  C   UNL     1      -6.281 -13.874   5.618  1.00  0.00     0.010 A 
ATOM     42  C   UNL     1      -5.919 -13.029   7.855  1.00  0.00     0.010 A 
ATOM     43  C   UNL     1      -6.219 -14.102   7.002  1.00  0.00    -0.014 A 
BRANCH  43  44
ATOM     44  C   UNL     1      -6.483 -15.451   7.565  1.00  0.00     0.031 A 
ATOM     45  C   UNL     1      -7.682 -15.692   8.442  1.00  0.00     0.074 A 
ATOM     46  C   UNL     1      -5.624 -16.458   7.314  1.00  0.00     0.049 A 
ATOM     47  N   UNL     1      -8.069 -16.797   9.028  1.00  0.00    -0.248 NA
ATOM     48  C   UNL     1      -8.549 -14.534   8.712  1.00  0.00     0.031 C 
ATOM     49  C   UNL     1      -4.411 -16.352   6.503  1.00  0.00     0.029 A 
ATOM     50  N   UNL     1      -5.645 -17.770   7.714  1.00  0.00    -0.354 N 
ATOM     51  C   UNL     1      -9.212 -16.465   9.745  1.00  0.00     0.074 A 
ATOM     52  C   UNL     1      -9.425 -15.046   9.563  1.00  0.00     0.031 C 
ATOM     53  C   UNL     1      -3.825 -17.558   6.431  1.00  0.00     0.029 A 
ATOM     54  C   UNL     1      -4.598 -18.511   7.222  1.00  0.00     0.049 A 
ATOM     55  H   UNL     1      -6.344 -18.145   8.297  1.00  0.00     0.167 HD
ATOM     56  C   UNL     1     -10.025 -17.270  10.472  1.00  0.00     0.031 A 
ATOM     57  C   UNL     1      -4.296 -19.812   7.384  1.00  0.00     0.031 A 
ATOM     58  C   UNL     1      -9.816 -18.682  10.654  1.00  0.00     0.049 A 
ATOM     59  C   UNL     1      -5.195 -20.680   8.218  1.00  0.00     0.074 A 
ATOM     60  C   UNL     1     -10.606 -19.592  11.336  1.00  0.00     0.029 A 
ATOM     61  N   UNL     1      -8.732 -19.389  10.155  1.00  0.00    -0.354 N 
ATOM     62  N   UNL     1      -6.305 -20.363   8.839  1.00  0.00    -0.248 NA
ATOM     63  C   UNL     1      -4.804 -22.089   8.361  1.00  0.00     0.031 C 
ATOM     64  C   UNL     1      -9.975 -20.840  11.289  1.00  0.00     0.029 A 
ATOM     65  C   UNL     1      -8.821 -20.718  10.532  1.00  0.00     0.049 A 
ATOM     66  H   UNL     1      -8.008 -19.002   9.612  1.00  0.00     0.167 HD
ATOM     67  C   UNL     1      -6.761 -21.538   9.423  1.00  0.00     0.074 A 
ATOM     68  C   UNL     1      -5.813 -22.576   9.071  1.00  0.00     0.031 C 
ATOM     69  C   UNL     1      -7.868 -21.739  10.179  1.00  0.00     0.031 A 
BRANCH  56  70
ATOM     70  C   UNL     1     -11.212 -16.626  11.137  1.00  0.00    -0.014 A 
ATOM     71  C   UNL     1     -12.291 -16.135  10.383  1.00  0.00     0.009 A 
ATOM     72  C   UNL     1     -11.258 -16.516  12.535  1.00  0.00     0.009 A 
ATOM     73  C   UNL     1     -13.366 -15.503  11.012  1.00  0.00     0.001 A 
ATOM     74  C   UNL     1     -12.350 -15.912  13.163  1.00  0.00     0.001 A 
ATOM     75  C   UNL     1     -13.396 -15.395  12.401  1.00  0.00     0.000 A 
ENDBRANCH  56  70
BRANCH  57  76
ATOM     76  C   UNL     1      -3.103 -20.384   6.707  1.00  0.00    -0.014 A 
ATOM     77  C   UNL     1      -3.259 -21.249   5.614  1.00  0.00     0.009 A 
ATOM     78  C   UNL     1      -1.808 -20.059   7.138  1.00  0.00     0.009 A 
ATOM     79  C   UNL     1      -2.142 -21.793   4.976  1.00  0.00     0.001 A 
ATOM     80  C   UNL     1      -0.692 -20.584   6.482  1.00  0.00     0.001 A 
ATOM     81  C   UNL     1      -0.860 -21.456   5.407  1.00  0.00     0.000 A 
ENDBRANCH  57  76
BRANCH  69  82
ATOM     82  C   UNL     1      -8.133 -23.143  10.647  1.00  0.00    -0.014 A 
ATOM     83  C   UNL     1      -7.359 -23.734  11.658  1.00  0.00     0.009 A 
ATOM     84  C   UNL     1      -9.197 -23.869  10.091  1.00  0.00     0.009 A 
ATOM     85  C   UNL     1      -7.627 -25.038  12.079  1.00  0.00     0.001 A 
ATOM     86  C   UNL     1      -9.480 -25.162  10.534  1.00  0.00     0.001 A 
ATOM     87  C   UNL     1      -8.690 -25.749  11.521  1.00  0.00     0.000 A 
ENDBRANCH  69  82
ENDBRANCH  43  44
ENDBRANCH  35  38
ENDBRANCH  33  34
ENDBRANCH  32  33
ENDBRANCH   1  32
TORSDOF 14
