REMARK SMILES C[N@@H+]1CC[N@@H+](C)[C@H](C[NH2+]Cc2ccc(C(=O)NCCCNC(=O)c3ccc(-c4c5nc(c(-c6ccccc6)c6ccc([nH]6)c(-c6ccccc6)c6nc(c(-c7ccccc7)c7ccc4[nH]7)C=C6)C=C5)cc3)cn2)C1
REMARK SMILES IDX 18 1 17 2 15 3 16 4 14 6 11 7 12 8 73 9 13 10 72 11 10 12
REMARK SMILES IDX 9 13 8 16 7 17 1 18 2 19 3 20 74 21 4 23 5 24 6 25 19 27
REMARK SMILES IDX 20 28 21 29 22 30 23 32 24 33 25 34 71 35 26 36 70 37 27 38
REMARK SMILES IDX 28 39 29 40 64 41 30 42 69 43 63 44 65 45 31 46 68 47 62 48
REMARK SMILES IDX 61 49 32 51 54 52 39 53 53 54 40 55 43 56 52 57 66 58 41 59
REMARK SMILES IDX 42 60 51 62 67 63 44 64 33 65 34 66 38 67 35 68 37 69 36 70
REMARK SMILES IDX 55 71 56 72 60 73 57 74 59 75 58 76 45 77 46 78 50 79 47 80
REMARK SMILES IDX 49 81 48 82
REMARK H PARENT 17 5 9 14 9 15 2 22 5 26 21 31 65 50 43 61
REMARK Flexibility Score: inf
ROOT
ATOM      1  C   UNL     1      -2.539   5.656  -7.181  1.00  0.00     0.118 C 
ENDROOT
BRANCH   1   2
ATOM      2  N   UNL     1      -2.007   6.651  -6.268  1.00  0.00    -0.352 N 
ATOM      3  C   UNL     1      -2.055   6.776  -4.903  1.00  0.00     0.252 C 
ATOM      4  O   UNL     1      -1.510   7.763  -4.409  1.00  0.00    -0.269 OA
ATOM      5  H   UNL     1      -1.515   7.377  -6.716  1.00  0.00     0.163 HD
BRANCH   3   6
ATOM      6  C   UNL     1      -2.662   5.764  -4.007  1.00  0.00     0.058 A 
ATOM      7  C   UNL     1      -3.386   3.800  -2.213  1.00  0.00     0.094 A 
ATOM      8  C   UNL     1      -3.989   3.827  -3.464  1.00  0.00     0.030 A 
ATOM      9  N   UNL     1      -2.543   4.776  -1.792  1.00  0.00    -0.255 NA
ATOM     10  C   UNL     1      -3.638   4.835  -4.355  1.00  0.00     0.017 A 
ATOM     11  C   UNL     1      -2.192   5.719  -2.699  1.00  0.00     0.125 A 
BRANCH   7  12
ATOM     12  C   UNL     1      -3.551   2.577  -1.342  1.00  0.00     0.318 C 
BRANCH  12  13
ATOM     13  N   UNL     1      -2.307   1.803  -1.288  1.00  0.00    -0.336 N 
ATOM     14  H   UNL     1      -2.534   0.809  -1.265  1.00  0.00     0.346 HD
ATOM     15  H   UNL     1      -1.752   2.026  -2.114  1.00  0.00     0.346 HD
BRANCH  13  16
ATOM     16  C   UNL     1      -1.517   2.144  -0.090  1.00  0.00     0.332 C 
BRANCH  16  17
ATOM     17  C   UNL     1      -0.726   0.909   0.447  1.00  0.00     0.295 C 
ATOM     18  C   UNL     1       2.894  -0.106  -0.198  1.00  0.00     0.333 C 
ATOM     19  N   UNL     1       1.530  -0.194   0.309  1.00  0.00    -0.328 N 
ATOM     20  C   UNL     1       0.864  -1.420  -0.156  1.00  0.00     0.324 C 
ATOM     21  C   UNL     1       0.721   0.960  -0.131  1.00  0.00     0.334 C 
ATOM     22  H   UNL     1       1.598  -0.203   1.327  1.00  0.00     0.348 HD
ATOM     23  C   UNL     1      -0.555  -1.534   0.440  1.00  0.00     0.324 C 
ATOM     24  N   UNL     1      -1.435  -0.382   0.146  1.00  0.00    -0.321 N 
ATOM     25  C   UNL     1      -2.674  -0.521   0.921  1.00  0.00     0.333 C 
ATOM     26  H   UNL     1      -1.673  -0.366  -0.846  1.00  0.00     0.348 HD
ENDBRANCH  16  17
ENDBRANCH  13  16
ENDBRANCH  12  13
ENDBRANCH   7  12
ENDBRANCH   3   6
ENDBRANCH   1   2
BRANCH   1  27
ATOM     27  C   UNL     1      -3.944   6.039  -7.644  1.00  0.00     0.042 C 
BRANCH  27  28
ATOM     28  C   UNL     1      -3.958   7.242  -8.579  1.00  0.00     0.118 C 
BRANCH  28  29
ATOM     29  N   UNL     1      -3.385   6.923  -9.876  1.00  0.00    -0.352 N 
ATOM     30  C   UNL     1      -3.951   6.982 -11.123  1.00  0.00     0.251 C 
ATOM     31  H   UNL     1      -2.450   6.618  -9.856  1.00  0.00     0.163 HD
ATOM     32  O   UNL     1      -3.391   6.439 -12.069  1.00  0.00    -0.269 OA
BRANCH  30  33
ATOM     33  C   UNL     1      -5.232   7.692 -11.336  1.00  0.00     0.039 A 
ATOM     34  C   UNL     1      -6.158   7.148 -12.231  1.00  0.00     0.014 A 
ATOM     35  C   UNL     1      -5.498   8.914 -10.712  1.00  0.00     0.014 A 
ATOM     36  C   UNL     1      -7.364   7.809 -12.471  1.00  0.00     0.010 A 
ATOM     37  C   UNL     1      -6.730   9.536 -10.896  1.00  0.00     0.010 A 
ATOM     38  C   UNL     1      -7.667   8.998 -11.790  1.00  0.00    -0.014 A 
BRANCH  38  39
ATOM     39  C   UNL     1      -8.951   9.705 -12.016  1.00  0.00     0.031 A 
ATOM     40  C   UNL     1      -8.960  11.072 -12.644  1.00  0.00     0.074 A 
ATOM     41  C   UNL     1     -10.103   9.141 -11.606  1.00  0.00     0.049 A 
ATOM     42  N   UNL     1      -9.973  11.869 -12.871  1.00  0.00    -0.248 NA
ATOM     43  C   UNL     1      -7.657  11.625 -13.049  1.00  0.00     0.031 C 
ATOM     44  C   UNL     1     -10.222   7.836 -10.951  1.00  0.00     0.029 A 
ATOM     45  N   UNL     1     -11.394   9.598 -11.674  1.00  0.00    -0.354 N 
ATOM     46  C   UNL     1      -9.428  13.023 -13.422  1.00  0.00     0.074 A 
ATOM     47  C   UNL     1      -7.994  12.840 -13.456  1.00  0.00     0.031 C 
ATOM     48  C   UNL     1     -11.517   7.587 -10.701  1.00  0.00     0.029 A 
ATOM     49  C   UNL     1     -12.313   8.728 -11.142  1.00  0.00     0.049 A 
ATOM     50  H   UNL     1     -11.638  10.467 -12.066  1.00  0.00     0.167 HD
ATOM     51  C   UNL     1     -10.066  14.128 -13.877  1.00  0.00     0.031 A 
ATOM     52  C   UNL     1     -13.649   8.838 -11.020  1.00  0.00     0.031 A 
ATOM     53  C   UNL     1     -11.493  14.303 -13.857  1.00  0.00     0.049 A 
ATOM     54  C   UNL     1     -14.333  10.075 -11.530  1.00  0.00     0.074 A 
ATOM     55  C   UNL     1     -12.240  15.362 -14.344  1.00  0.00     0.029 A 
ATOM     56  N   UNL     1     -12.390  13.392 -13.322  1.00  0.00    -0.354 N 
ATOM     57  N   UNL     1     -13.809  11.130 -12.104  1.00  0.00    -0.248 NA
ATOM     58  C   UNL     1     -15.794  10.128 -11.386  1.00  0.00     0.031 C 
ATOM     59  C   UNL     1     -13.587  15.110 -14.063  1.00  0.00     0.029 A 
ATOM     60  C   UNL     1     -13.682  13.872 -13.448  1.00  0.00     0.049 A 
ATOM     61  H   UNL     1     -12.145  12.531 -12.912  1.00  0.00     0.167 HD
ATOM     62  C   UNL     1     -14.877  11.962 -12.414  1.00  0.00     0.074 A 
ATOM     63  C   UNL     1     -16.079  11.280 -11.978  1.00  0.00     0.031 C 
ATOM     64  C   UNL     1     -14.865  13.180 -13.007  1.00  0.00     0.031 A 
BRANCH  51  65
ATOM     65  C   UNL     1      -9.215  15.239 -14.428  1.00  0.00    -0.014 A 
ATOM     66  C   UNL     1      -8.541  15.101 -15.652  1.00  0.00     0.009 A 
ATOM     67  C   UNL     1      -9.107  16.450 -13.727  1.00  0.00     0.009 A 
ATOM     68  C   UNL     1      -7.747  16.139 -16.144  1.00  0.00     0.001 A 
ATOM     69  C   UNL     1      -8.335  17.497 -14.235  1.00  0.00     0.001 A 
ATOM     70  C   UNL     1      -7.647  17.337 -15.437  1.00  0.00     0.000 A 
ENDBRANCH  51  65
BRANCH  52  71
ATOM     71  C   UNL     1     -14.432   7.735 -10.405  1.00  0.00    -0.014 A 
ATOM     72  C   UNL     1     -15.258   6.924 -11.198  1.00  0.00     0.009 A 
ATOM     73  C   UNL     1     -14.356   7.486  -9.026  1.00  0.00     0.009 A 
ATOM     74  C   UNL     1     -16.012   5.902 -10.618  1.00  0.00     0.001 A 
ATOM     75  C   UNL     1     -15.091   6.446  -8.453  1.00  0.00     0.001 A 
ATOM     76  C   UNL     1     -15.924   5.661  -9.248  1.00  0.00     0.000 A 
ENDBRANCH  52  71
BRANCH  64  77
ATOM     77  C   UNL     1     -16.194  13.836 -13.247  1.00  0.00    -0.014 A 
ATOM     78  C   UNL     1     -16.936  14.387 -12.191  1.00  0.00     0.009 A 
ATOM     79  C   UNL     1     -16.693  13.933 -14.556  1.00  0.00     0.009 A 
ATOM     80  C   UNL     1     -18.169  14.994 -12.438  1.00  0.00     0.001 A 
ATOM     81  C   UNL     1     -17.913  14.564 -14.802  1.00  0.00     0.001 A 
ATOM     82  C   UNL     1     -18.654  15.085 -13.743  1.00  0.00     0.000 A 
ENDBRANCH  64  77
ENDBRANCH  38  39
ENDBRANCH  30  33
ENDBRANCH  28  29
ENDBRANCH  27  28
ENDBRANCH   1  27
TORSDOF 14
