REMARK SMILES NC(=O)[C@H]1CC(C(=O)NCCCNC(=O)c2ccc(-c3c4nc(c(-c5ccccc5)c5ccc([nH]5)c(-c5ccccc5)c5nc(c(-c6ccccc6)c6ccc3[nH]6)C=C5)C=C4)cc2)=NN1c1ccc(F)cc1
REMARK SMILES IDX 11 1 10 2 9 3 7 4 8 5 6 7 4 8 5 9 65 10 64 11 2 12 1 13 3 16
REMARK SMILES IDX 66 17 67 18 72 19 68 20 71 21 69 22 70 23 12 24 13 25 14 26
REMARK SMILES IDX 15 28 16 29 17 30 63 31 18 32 62 33 19 34 20 35 21 36 56 37
REMARK SMILES IDX 22 38 61 39 55 40 57 41 23 42 60 43 54 44 53 45 24 47 46 48
REMARK SMILES IDX 31 49 45 50 32 51 35 52 44 53 58 54 33 55 34 56 43 58 59 59
REMARK SMILES IDX 36 60 25 61 26 62 30 63 27 64 29 65 28 66 47 67 48 68 52 69
REMARK SMILES IDX 49 70 51 71 50 72 37 73 38 74 42 75 39 76 41 77 40 78
REMARK H PARENT 9 6 1 14 1 15 13 27 57 46 35 57
REMARK Flexibility Score: inf
ROOT
ATOM      1  C   UNL     1       1.112  -3.225   5.323  1.00  0.00     0.042 C 
ENDROOT
BRANCH   1   2
ATOM      2  C   UNL     1       2.235  -3.520   4.338  1.00  0.00     0.118 C 
BRANCH   2   3
ATOM      3  N   UNL     1       2.069  -4.813   3.701  1.00  0.00    -0.351 N 
ATOM      4  C   UNL     1       1.630  -5.228   2.469  1.00  0.00     0.267 C 
ATOM      5  O   UNL     1       1.547  -6.438   2.276  1.00  0.00    -0.268 OA
ATOM      6  H   UNL     1       2.331  -5.562   4.284  1.00  0.00     0.163 HD
BRANCH   4   7
ATOM      7  C   UNL     1       1.297  -4.281   1.327  1.00  0.00     0.128 C 
ATOM      8  C   UNL     1       1.330  -2.446  -0.088  1.00  0.00     0.203 C 
ATOM      9  C   UNL     1       1.621  -2.827   1.353  1.00  0.00     0.101 C 
ATOM     10  N   UNL     1       0.723  -3.650  -0.637  1.00  0.00    -0.252 N 
ATOM     11  N   UNL     1       0.762  -4.711   0.223  1.00  0.00    -0.171 NA
BRANCH   8  12
ATOM     12  C   UNL     1       0.376  -1.248  -0.111  1.00  0.00     0.242 C 
ATOM     13  N   UNL     1       0.976  -0.026  -0.281  1.00  0.00    -0.368 N 
ATOM     14  H   UNL     1       0.428   0.791  -0.306  1.00  0.00     0.159 HD
ATOM     15  H   UNL     1       1.954   0.033  -0.377  1.00  0.00     0.159 HD
ATOM     16  O   UNL     1      -0.833  -1.298   0.090  1.00  0.00    -0.273 OA
ENDBRANCH   8  12
BRANCH  10  17
ATOM     17  C   UNL     1       0.469  -3.862  -1.988  1.00  0.00     0.061 A 
ATOM     18  C   UNL     1      -0.517  -4.781  -2.385  1.00  0.00     0.031 A 
ATOM     19  C   UNL     1       1.182  -3.196  -2.999  1.00  0.00     0.031 A 
ATOM     20  C   UNL     1      -0.801  -5.008  -3.735  1.00  0.00     0.041 A 
ATOM     21  C   UNL     1       0.923  -3.440  -4.351  1.00  0.00     0.041 A 
ATOM     22  C   UNL     1      -0.073  -4.337  -4.705  1.00  0.00     0.123 A 
ATOM     23  F   UNL     1      -0.329  -4.559  -6.001  1.00  0.00    -0.207 F 
ENDBRANCH  10  17
ENDBRANCH   4   7
ENDBRANCH   2   3
ENDBRANCH   1   2
BRANCH   1  24
ATOM     24  C   UNL     1       1.216  -4.044   6.605  1.00  0.00     0.118 C 
BRANCH  24  25
ATOM     25  N   UNL     1       2.414  -3.713   7.370  1.00  0.00    -0.352 N 
ATOM     26  C   UNL     1       2.554  -3.081   8.579  1.00  0.00     0.251 C 
ATOM     27  H   UNL     1       3.261  -3.989   6.949  1.00  0.00     0.163 HD
ATOM     28  O   UNL     1       3.664  -2.675   8.923  1.00  0.00    -0.269 OA
BRANCH  26  29
ATOM     29  C   UNL     1       1.392  -2.881   9.466  1.00  0.00     0.039 A 
ATOM     30  C   UNL     1       1.287  -1.690  10.193  1.00  0.00     0.014 A 
ATOM     31  C   UNL     1       0.427  -3.879   9.620  1.00  0.00     0.014 A 
ATOM     32  C   UNL     1       0.184  -1.478  11.022  1.00  0.00     0.010 A 
ATOM     33  C   UNL     1      -0.713  -3.631  10.375  1.00  0.00     0.010 A 
ATOM     34  C   UNL     1      -0.842  -2.434  11.092  1.00  0.00    -0.014 A 
BRANCH  34  35
ATOM     35  C   UNL     1      -2.054  -2.212  11.917  1.00  0.00     0.031 A 
ATOM     36  C   UNL     1      -2.358  -3.122  13.074  1.00  0.00     0.074 A 
ATOM     37  C   UNL     1      -2.921  -1.239  11.577  1.00  0.00     0.049 A 
ATOM     38  N   UNL     1      -3.400  -3.132  13.867  1.00  0.00    -0.248 NA
ATOM     39  C   UNL     1      -1.375  -4.179  13.360  1.00  0.00     0.031 C 
ATOM     40  C   UNL     1      -2.760  -0.312  10.455  1.00  0.00     0.029 A 
ATOM     41  N   UNL     1      -4.115  -0.872  12.143  1.00  0.00    -0.354 N 
ATOM     42  C   UNL     1      -3.211  -4.209  14.723  1.00  0.00     0.074 A 
ATOM     43  C   UNL     1      -1.982  -4.858  14.322  1.00  0.00     0.031 C 
ATOM     44  C   UNL     1      -3.794   0.543  10.441  1.00  0.00     0.029 A 
ATOM     45  C   UNL     1      -4.711   0.197  11.522  1.00  0.00     0.049 A 
ATOM     46  H   UNL     1      -4.506  -1.332  12.921  1.00  0.00     0.167 HD
ATOM     47  C   UNL     1      -3.980  -4.614  15.762  1.00  0.00     0.031 A 
ATOM     48  C   UNL     1      -5.867   0.829  11.794  1.00  0.00     0.031 A 
ATOM     49  C   UNL     1      -5.194  -3.960  16.170  1.00  0.00     0.049 A 
ATOM     50  C   UNL     1      -6.713   0.353  12.939  1.00  0.00     0.074 A 
ATOM     51  C   UNL     1      -6.010  -4.248  17.250  1.00  0.00     0.029 A 
ATOM     52  N   UNL     1      -5.770  -2.886  15.507  1.00  0.00    -0.354 N 
ATOM     53  N   UNL     1      -6.488  -0.626  13.782  1.00  0.00    -0.248 NA
ATOM     54  C   UNL     1      -7.971   1.075  13.173  1.00  0.00     0.031 C 
ATOM     55  C   UNL     1      -7.106  -3.378  17.212  1.00  0.00     0.029 A 
ATOM     56  C   UNL     1      -6.945  -2.516  16.139  1.00  0.00     0.049 A 
ATOM     57  H   UNL     1      -5.398  -2.451  14.706  1.00  0.00     0.167 HD
ATOM     58  C   UNL     1      -7.561  -0.620  14.663  1.00  0.00     0.074 A 
ATOM     59  C   UNL     1      -8.431   0.466  14.257  1.00  0.00     0.031 C 
ATOM     60  C   UNL     1      -7.802  -1.437  15.718  1.00  0.00     0.031 A 
BRANCH  47  61
ATOM     61  C   UNL     1      -3.526  -5.835  16.514  1.00  0.00    -0.014 A 
ATOM     62  C   UNL     1      -2.370  -5.815  17.311  1.00  0.00     0.009 A 
ATOM     63  C   UNL     1      -4.264  -7.025  16.421  1.00  0.00     0.009 A 
ATOM     64  C   UNL     1      -1.932  -6.975  17.954  1.00  0.00     0.001 A 
ATOM     65  C   UNL     1      -3.842  -8.175  17.091  1.00  0.00     0.001 A 
ATOM     66  C   UNL     1      -2.669  -8.153  17.845  1.00  0.00     0.000 A 
ENDBRANCH  47  61
BRANCH  48  67
ATOM     67  C   UNL     1      -6.269   2.012  10.991  1.00  0.00    -0.014 A 
ATOM     68  C   UNL     1      -6.186   3.297  11.548  1.00  0.00     0.009 A 
ATOM     69  C   UNL     1      -6.715   1.870   9.669  1.00  0.00     0.009 A 
ATOM     70  C   UNL     1      -6.559   4.417  10.802  1.00  0.00     0.001 A 
ATOM     71  C   UNL     1      -7.063   2.994   8.917  1.00  0.00     0.001 A 
ATOM     72  C   UNL     1      -6.991   4.265   9.486  1.00  0.00     0.000 A 
ENDBRANCH  48  67
BRANCH  60  73
ATOM     73  C   UNL     1      -9.039  -1.165  16.524  1.00  0.00    -0.014 A 
ATOM     74  C   UNL     1     -10.315  -1.474  16.029  1.00  0.00     0.009 A 
ATOM     75  C   UNL     1      -8.921  -0.621  17.813  1.00  0.00     0.009 A 
ATOM     76  C   UNL     1     -11.451  -1.213  16.798  1.00  0.00     0.001 A 
ATOM     77  C   UNL     1     -10.056  -0.387  18.589  1.00  0.00     0.001 A 
ATOM     78  C   UNL     1     -11.320  -0.674  18.078  1.00  0.00     0.000 A 
ENDBRANCH  60  73
ENDBRANCH  34  35
ENDBRANCH  26  29
ENDBRANCH  24  25
ENDBRANCH   1  24
TORSDOF 12
