REMARK SMILES C[C@H](NC(=O)c1cccc(NC(=O)c2ccccc2C(=O)NCCCNC(=O)c2ccc(-c3c4nc(c(-c5ccccc5)c5ccc([nH]5)c(-c5ccccc5)c5nc(c(-c6ccccc6)c6ccc3[nH]6)C=C5)C=C4)cc2)c1)c1ccccc1
REMARK SMILES IDX 20 1 21 2 22 3 19 5 14 6 15 7 16 8 18 9 17 10 12 11 11 12
REMARK SMILES IDX 13 14 10 15 6 16 7 17 77 18 8 19 9 20 4 21 3 22 5 24 2 25
REMARK SMILES IDX 1 26 78 27 79 28 83 29 80 30 82 31 81 32 23 33 24 34 25 35
REMARK SMILES IDX 26 36 27 37 28 39 29 40 30 41 76 42 31 43 75 44 32 45 33 46
REMARK SMILES IDX 34 47 69 48 35 49 74 50 68 51 70 52 36 53 73 54 67 55 66 56
REMARK SMILES IDX 37 58 59 59 44 60 58 61 45 62 48 63 57 64 71 65 46 66 47 67
REMARK SMILES IDX 56 69 72 70 49 71 38 72 39 73 43 74 40 75 42 76 41 77 60 78
REMARK SMILES IDX 61 79 65 80 62 81 64 82 63 83 50 84 51 85 55 86 52 87 54 88
REMARK SMILES IDX 53 89
REMARK H PARENT 22 4 11 13 3 23 26 38 70 57 48 68
REMARK Flexibility Score: inf
ROOT
ATOM      1  C   UNL     1      -0.146  -4.590  -4.167  1.00  0.00     0.252 C 
ATOM      2  O   UNL     1       0.863  -4.953  -3.561  1.00  0.00    -0.269 OA
ATOM      3  N   UNL     1      -1.255  -4.238  -3.438  1.00  0.00    -0.352 N 
ATOM      4  H   UNL     1      -1.157  -4.287  -2.460  1.00  0.00     0.163 HD
ENDROOT
BRANCH   1   5
ATOM      5  C   UNL     1      -0.151  -4.645  -5.653  1.00  0.00     0.052 A 
ATOM      6  C   UNL     1      -0.623  -3.658  -6.535  1.00  0.00     0.052 A 
ATOM      7  C   UNL     1      -0.657  -3.934  -7.918  1.00  0.00     0.014 A 
ATOM      8  C   UNL     1      -0.152  -5.127  -8.431  1.00  0.00     0.001 A 
ATOM      9  C   UNL     1       0.404  -5.825  -6.194  1.00  0.00     0.014 A 
ATOM     10  C   UNL     1       0.405  -6.063  -7.570  1.00  0.00     0.001 A 
BRANCH   6  11
ATOM     11  C   UNL     1      -1.205  -2.349  -6.169  1.00  0.00     0.256 C 
ATOM     12  N   UNL     1      -0.681  -1.484  -5.243  1.00  0.00    -0.322 N 
ATOM     13  H   UNL     1      -1.288  -0.743  -5.016  1.00  0.00     0.170 HD
ATOM     14  O   UNL     1      -2.289  -2.055  -6.683  1.00  0.00    -0.269 OA
BRANCH  12  15
ATOM     15  C   UNL     1       0.535  -1.433  -4.552  1.00  0.00     0.042 A 
ATOM     16  C   UNL     1       1.729  -0.601  -2.619  1.00  0.00     0.041 A 
ATOM     17  C   UNL     1       2.886  -1.261  -3.032  1.00  0.00     0.014 A 
ATOM     18  C   UNL     1       0.559  -0.670  -3.378  1.00  0.00     0.040 A 
ATOM     19  C   UNL     1       2.869  -1.991  -4.219  1.00  0.00     0.003 A 
ATOM     20  C   UNL     1       1.702  -2.062  -4.986  1.00  0.00     0.026 A 
BRANCH  16  21
ATOM     21  C   UNL     1       1.789   0.312  -1.472  1.00  0.00     0.251 C 
ATOM     22  N   UNL     1       1.357  -0.079  -0.241  1.00  0.00    -0.346 N 
ATOM     23  H   UNL     1       1.376   0.628   0.443  1.00  0.00     0.164 HD
ATOM     24  O   UNL     1       2.232   1.449  -1.647  1.00  0.00    -0.269 OA
BRANCH  22  25
ATOM     25  C   UNL     1       0.870  -1.372   0.233  1.00  0.00     0.109 C 
ATOM     26  C   UNL     1       1.853  -1.864   1.306  1.00  0.00     0.036 C 
BRANCH  25  27
ATOM     27  C   UNL     1      -0.534  -1.283   0.826  1.00  0.00    -0.026 A 
ATOM     28  C   UNL     1      -1.258  -0.080   0.878  1.00  0.00     0.006 A 
ATOM     29  C   UNL     1      -1.122  -2.428   1.395  1.00  0.00     0.006 A 
ATOM     30  C   UNL     1      -2.480  -0.005   1.550  1.00  0.00     0.000 A 
ATOM     31  C   UNL     1      -2.337  -2.349   2.079  1.00  0.00     0.000 A 
ATOM     32  C   UNL     1      -3.003  -1.131   2.175  1.00  0.00     0.000 A 
ENDBRANCH  25  27
ENDBRANCH  22  25
ENDBRANCH  16  21
ENDBRANCH  12  15
ENDBRANCH   6  11
ENDBRANCH   1   5
BRANCH   3  33
ATOM     33  C   UNL     1      -2.548  -3.805  -3.917  1.00  0.00     0.118 C 
BRANCH  33  34
ATOM     34  C   UNL     1      -3.708  -4.147  -3.011  1.00  0.00     0.042 C 
BRANCH  34  35
ATOM     35  C   UNL     1      -3.789  -3.349  -1.717  1.00  0.00     0.118 C 
BRANCH  35  36
ATOM     36  N   UNL     1      -3.727  -1.898  -1.855  1.00  0.00    -0.352 N 
ATOM     37  C   UNL     1      -4.483  -0.893  -1.290  1.00  0.00     0.251 C 
ATOM     38  H   UNL     1      -3.018  -1.579  -2.459  1.00  0.00     0.163 HD
ATOM     39  O   UNL     1      -4.239   0.276  -1.585  1.00  0.00    -0.269 OA
BRANCH  37  40
ATOM     40  C   UNL     1      -5.618  -1.194  -0.383  1.00  0.00     0.039 A 
ATOM     41  C   UNL     1      -6.749  -0.369  -0.405  1.00  0.00     0.014 A 
ATOM     42  C   UNL     1      -5.596  -2.296   0.469  1.00  0.00     0.014 A 
ATOM     43  C   UNL     1      -7.895  -0.736   0.308  1.00  0.00     0.010 A 
ATOM     44  C   UNL     1      -6.752  -2.714   1.104  1.00  0.00     0.010 A 
ATOM     45  C   UNL     1      -7.920  -1.955   1.000  1.00  0.00    -0.014 A 
BRANCH  45  46
ATOM     46  C   UNL     1      -9.163  -2.558   1.526  1.00  0.00     0.031 A 
ATOM     47  C   UNL     1      -9.289  -2.871   2.987  1.00  0.00     0.074 A 
ATOM     48  C   UNL     1     -10.058  -3.029   0.636  1.00  0.00     0.049 A 
ATOM     49  N   UNL     1     -10.204  -3.571   3.604  1.00  0.00    -0.248 NA
ATOM     50  C   UNL     1      -8.212  -2.379   3.863  1.00  0.00     0.031 C 
ATOM     51  C   UNL     1      -9.961  -2.885  -0.821  1.00  0.00     0.029 A 
ATOM     52  N   UNL     1     -11.196  -3.768   0.820  1.00  0.00    -0.354 N 
ATOM     53  C   UNL     1      -9.802  -3.627   4.932  1.00  0.00     0.074 A 
ATOM     54  C   UNL     1      -8.536  -2.933   5.022  1.00  0.00     0.031 C 
ATOM     55  C   UNL     1     -10.998  -3.514  -1.396  1.00  0.00     0.029 A 
ATOM     56  C   UNL     1     -11.812  -4.125  -0.355  1.00  0.00     0.049 A 
ATOM     57  H   UNL     1     -11.540  -4.019   1.708  1.00  0.00     0.167 HD
ATOM     58  C   UNL     1     -10.444  -4.193   5.981  1.00  0.00     0.031 A 
ATOM     59  C   UNL     1     -12.910  -4.870  -0.570  1.00  0.00     0.031 A 
ATOM     60  C   UNL     1     -11.710  -4.866   5.871  1.00  0.00     0.049 A 
ATOM     61  C   UNL     1     -13.643  -5.424   0.614  1.00  0.00     0.074 A 
ATOM     62  C   UNL     1     -12.507  -5.382   6.877  1.00  0.00     0.029 A 
ATOM     63  N   UNL     1     -12.362  -5.117   4.672  1.00  0.00    -0.354 N 
ATOM     64  N   UNL     1     -13.316  -5.367   1.883  1.00  0.00    -0.248 NA
ATOM     65  C   UNL     1     -14.905  -6.122   0.342  1.00  0.00     0.031 C 
ATOM     66  C   UNL     1     -13.628  -5.973   6.283  1.00  0.00     0.029 A 
ATOM     67  C   UNL     1     -13.546  -5.791   4.911  1.00  0.00     0.049 A 
ATOM     68  H   UNL     1     -12.031  -4.855   3.783  1.00  0.00     0.167 HD
ATOM     69  C   UNL     1     -14.345  -5.996   2.566  1.00  0.00     0.074 A 
ATOM     70  C   UNL     1     -15.310  -6.420   1.569  1.00  0.00     0.031 C 
ATOM     71  C   UNL     1     -14.483  -6.201   3.898  1.00  0.00     0.031 A 
BRANCH  58  72
ATOM     72  C   UNL     1      -9.790  -4.090   7.332  1.00  0.00    -0.014 A 
ATOM     73  C   UNL     1      -9.684  -2.854   7.992  1.00  0.00     0.009 A 
ATOM     74  C   UNL     1      -9.296  -5.240   7.965  1.00  0.00     0.009 A 
ATOM     75  C   UNL     1      -9.060  -2.767   9.239  1.00  0.00     0.001 A 
ATOM     76  C   UNL     1      -8.697  -5.154   9.225  1.00  0.00     0.001 A 
ATOM     77  C   UNL     1      -8.570  -3.917   9.855  1.00  0.00     0.000 A 
ENDBRANCH  58  72
BRANCH  59  78
ATOM     78  C   UNL     1     -13.405  -5.069  -1.954  1.00  0.00    -0.014 A 
ATOM     79  C   UNL     1     -14.504  -4.330  -2.417  1.00  0.00     0.009 A 
ATOM     80  C   UNL     1     -12.757  -5.949  -2.834  1.00  0.00     0.009 A 
ATOM     81  C   UNL     1     -14.956  -4.481  -3.730  1.00  0.00     0.001 A 
ATOM     82  C   UNL     1     -13.199  -6.082  -4.153  1.00  0.00     0.001 A 
ATOM     83  C   UNL     1     -14.300  -5.352  -4.597  1.00  0.00     0.000 A 
ENDBRANCH  59  78
BRANCH  71  84
ATOM     84  C   UNL     1     -15.738  -6.887   4.346  1.00  0.00    -0.014 A 
ATOM     85  C   UNL     1     -15.904  -8.271   4.184  1.00  0.00     0.009 A 
ATOM     86  C   UNL     1     -16.751  -6.142   4.968  1.00  0.00     0.009 A 
ATOM     87  C   UNL     1     -17.077  -8.891   4.613  1.00  0.00     0.001 A 
ATOM     88  C   UNL     1     -17.912  -6.769   5.417  1.00  0.00     0.001 A 
ATOM     89  C   UNL     1     -18.078  -8.142   5.232  1.00  0.00     0.000 A 
ENDBRANCH  71  84
ENDBRANCH  45  46
ENDBRANCH  37  40
ENDBRANCH  35  36
ENDBRANCH  34  35
ENDBRANCH  33  34
ENDBRANCH   3  33
TORSDOF 15
