REMARK SMILES COc1nc(-c2ccccc2)nc(C)c1CC(=O)NCCCNC(=O)c1ccc(-c2c3nc(c(-c4ccccc4)c4ccc([nH]4)c(-c4ccccc4)c4nc(c(-c5ccccc5)c5ccc2[nH]5)C=C4)C=C3)cc1
REMARK SMILES IDX 21 1 20 2 19 3 17 4 18 5 16 7 15 8 3 9 4 10 5 11 13 12 12 13
REMARK SMILES IDX 14 14 2 15 1 16 6 17 7 18 11 19 8 20 10 21 9 22 22 23 23 24
REMARK SMILES IDX 24 25 25 27 26 28 27 29 73 30 28 31 72 32 29 33 30 34 31 35
REMARK SMILES IDX 66 36 32 37 71 38 65 39 67 40 33 41 70 42 64 43 63 44 34 46
REMARK SMILES IDX 56 47 41 48 55 49 42 50 45 51 54 52 68 53 43 54 44 55 53 57
REMARK SMILES IDX 69 58 46 59 35 60 36 61 40 62 37 63 39 64 38 65 57 66 58 67
REMARK SMILES IDX 62 68 59 69 61 70 60 71 47 72 48 73 52 74 49 75 51 76 50 77
REMARK H PARENT 19 6 23 26 67 45 45 56
REMARK Flexibility Score: inf
ROOT
ATOM      1  C   UNL     1       1.850   0.674   4.568  1.00  0.00     0.042 C 
ENDROOT
BRANCH   1   2
ATOM      2  C   UNL     1       3.149   0.317   3.850  1.00  0.00     0.117 C 
BRANCH   2   3
ATOM      3  N   UNL     1       2.938  -0.481   2.660  1.00  0.00    -0.356 N 
ATOM      4  C   UNL     1       3.017  -0.155   1.341  1.00  0.00     0.224 C 
ATOM      5  O   UNL     1       2.918  -1.086   0.535  1.00  0.00    -0.275 OA
ATOM      6  H   UNL     1       2.695  -1.419   2.835  1.00  0.00     0.163 HD
BRANCH   4   7
ATOM      7  C   UNL     1       3.280   1.266   0.859  1.00  0.00     0.143 C 
BRANCH   7   8
ATOM      8  C   UNL     1       2.300   2.301   1.339  1.00  0.00     0.045 A 
ATOM      9  C   UNL     1       0.972   2.296   0.918  1.00  0.00     0.220 A 
ATOM     10  N   UNL     1       0.007   3.106   1.396  1.00  0.00    -0.193 NA
ATOM     11  C   UNL     1       0.413   4.018   2.289  1.00  0.00     0.163 A 
ATOM     12  C   UNL     1       2.619   3.331   2.213  1.00  0.00     0.049 A 
ATOM     13  N   UNL     1       1.685   4.175   2.694  1.00  0.00    -0.233 NA
ATOM     14  C   UNL     1       4.003   3.667   2.685  1.00  0.00     0.067 C 
BRANCH   9  15
ATOM     15  O   UNL     1       0.659   1.670  -0.267  1.00  0.00    -0.481 OA
ATOM     16  C   UNL     1       0.199   0.337  -0.103  1.00  0.00     0.280 C 
ENDBRANCH   9  15
BRANCH  11  17
ATOM     17  C   UNL     1      -0.557   4.953   2.872  1.00  0.00     0.019 A 
ATOM     18  C   UNL     1      -0.285   6.335   2.900  1.00  0.00     0.012 A 
ATOM     19  C   UNL     1      -1.739   4.507   3.485  1.00  0.00     0.012 A 
ATOM     20  C   UNL     1      -1.154   7.237   3.520  1.00  0.00     0.001 A 
ATOM     21  C   UNL     1      -2.603   5.406   4.122  1.00  0.00     0.001 A 
ATOM     22  C   UNL     1      -2.309   6.769   4.139  1.00  0.00     0.000 A 
ENDBRANCH  11  17
ENDBRANCH   7   8
ENDBRANCH   4   7
ENDBRANCH   2   3
ENDBRANCH   1   2
BRANCH   1  23
ATOM     23  C   UNL     1       1.120  -0.520   5.182  1.00  0.00     0.118 C 
BRANCH  23  24
ATOM     24  N   UNL     1       1.917  -1.213   6.189  1.00  0.00    -0.352 N 
ATOM     25  C   UNL     1       1.685  -1.428   7.520  1.00  0.00     0.251 C 
ATOM     26  H   UNL     1       2.763  -1.589   5.855  1.00  0.00     0.163 HD
ATOM     27  O   UNL     1       2.597  -1.876   8.222  1.00  0.00    -0.269 OA
BRANCH  25  28
ATOM     28  C   UNL     1       0.376  -1.131   8.136  1.00  0.00     0.039 A 
ATOM     29  C   UNL     1       0.347  -0.574   9.420  1.00  0.00     0.014 A 
ATOM     30  C   UNL     1      -0.823  -1.445   7.488  1.00  0.00     0.014 A 
ATOM     31  C   UNL     1      -0.877  -0.279  10.025  1.00  0.00     0.010 A 
ATOM     32  C   UNL     1      -2.040  -1.085   8.064  1.00  0.00     0.010 A 
ATOM     33  C   UNL     1      -2.080  -0.500   9.338  1.00  0.00    -0.014 A 
BRANCH  33  34
ATOM     34  C   UNL     1      -3.387  -0.120   9.934  1.00  0.00     0.031 A 
ATOM     35  C   UNL     1      -4.410  -1.172  10.264  1.00  0.00     0.074 A 
ATOM     36  C   UNL     1      -3.676   1.182  10.123  1.00  0.00     0.049 A 
ATOM     37  N   UNL     1      -5.624  -1.025  10.732  1.00  0.00    -0.248 NA
ATOM     38  C   UNL     1      -4.028  -2.572  10.016  1.00  0.00     0.031 C 
ATOM     39  C   UNL     1      -2.785   2.302   9.815  1.00  0.00     0.029 A 
ATOM     40  N   UNL     1      -4.807   1.783  10.616  1.00  0.00    -0.354 N 
ATOM     41  C   UNL     1      -6.155  -2.306  10.818  1.00  0.00     0.074 A 
ATOM     42  C   UNL     1      -5.148  -3.214  10.312  1.00  0.00     0.031 C 
ATOM     43  C   UNL     1      -3.390   3.451  10.153  1.00  0.00     0.029 A 
ATOM     44  C   UNL     1      -4.726   3.154  10.661  1.00  0.00     0.049 A 
ATOM     45  H   UNL     1      -5.600   1.280  10.910  1.00  0.00     0.167 HD
ATOM     46  C   UNL     1      -7.363  -2.695  11.291  1.00  0.00     0.031 A 
ATOM     47  C   UNL     1      -5.627   4.071  11.060  1.00  0.00     0.031 A 
ATOM     48  C   UNL     1      -8.362  -1.795  11.803  1.00  0.00     0.049 A 
ATOM     49  C   UNL     1      -6.968   3.614  11.562  1.00  0.00     0.074 A 
ATOM     50  C   UNL     1      -9.598  -2.097  12.349  1.00  0.00     0.029 A 
ATOM     51  N   UNL     1      -8.240  -0.414  11.829  1.00  0.00    -0.354 N 
ATOM     52  N   UNL     1      -7.431   2.395  11.689  1.00  0.00    -0.248 NA
ATOM     53  C   UNL     1      -7.906   4.664  11.984  1.00  0.00     0.031 C 
ATOM     54  C   UNL     1     -10.243  -0.896  12.662  1.00  0.00     0.029 A 
ATOM     55  C   UNL     1      -9.387   0.151  12.362  1.00  0.00     0.049 A 
ATOM     56  H   UNL     1      -7.455   0.090  11.515  1.00  0.00     0.167 HD
ATOM     57  C   UNL     1      -8.703   2.528  12.232  1.00  0.00     0.074 A 
ATOM     58  C   UNL     1      -8.930   3.946  12.424  1.00  0.00     0.031 C 
ATOM     59  C   UNL     1      -9.600   1.563  12.545  1.00  0.00     0.031 A 
BRANCH  46  60
ATOM     60  C   UNL     1      -7.672  -4.167  11.271  1.00  0.00    -0.014 A 
ATOM     61  C   UNL     1      -7.021  -5.058  12.139  1.00  0.00     0.009 A 
ATOM     62  C   UNL     1      -8.653  -4.664  10.399  1.00  0.00     0.009 A 
ATOM     63  C   UNL     1      -7.319  -6.422  12.107  1.00  0.00     0.001 A 
ATOM     64  C   UNL     1      -8.969  -6.024  10.389  1.00  0.00     0.001 A 
ATOM     65  C   UNL     1      -8.295  -6.903  11.236  1.00  0.00     0.000 A 
ENDBRANCH  46  60
BRANCH  47  66
ATOM     66  C   UNL     1      -5.286   5.516  11.019  1.00  0.00    -0.014 A 
ATOM     67  C   UNL     1      -5.078   6.229  12.210  1.00  0.00     0.009 A 
ATOM     68  C   UNL     1      -5.171   6.192   9.794  1.00  0.00     0.009 A 
ATOM     69  C   UNL     1      -4.788   7.595  12.176  1.00  0.00     0.001 A 
ATOM     70  C   UNL     1      -4.852   7.551   9.762  1.00  0.00     0.001 A 
ATOM     71  C   UNL     1      -4.671   8.253  10.953  1.00  0.00     0.000 A 
ENDBRANCH  47  66
BRANCH  59  72
ATOM     72  C   UNL     1     -10.897   2.006  13.161  1.00  0.00    -0.014 A 
ATOM     73  C   UNL     1     -11.883   2.652  12.399  1.00  0.00     0.009 A 
ATOM     74  C   UNL     1     -11.148   1.740  14.516  1.00  0.00     0.009 A 
ATOM     75  C   UNL     1     -13.082   3.054  12.993  1.00  0.00     0.001 A 
ATOM     76  C   UNL     1     -12.358   2.118  15.099  1.00  0.00     0.001 A 
ATOM     77  C   UNL     1     -13.320   2.783  14.340  1.00  0.00     0.000 A 
ENDBRANCH  59  72
ENDBRANCH  33  34
ENDBRANCH  25  28
ENDBRANCH  23  24
ENDBRANCH   1  23
TORSDOF 13
