REMARK SMILES O=C(NCCCNC(=O)c1ccc(-c2c3nc(c(-c4ccccc4)c4ccc([nH]4)c(-c4ccccc4)c4nc(c(-c5ccccc5)c5ccc2[nH]5)C=C4)C=C3)cc1)c1ccc(NC(=O)[C@@H]2CC=CC[C@@H]2C(=O)Nc2ccc(Br)cc2)cc1
REMARK SMILES IDX 4 1 3 2 1 3 2 4 58 6 59 7 82 8 60 9 81 10 61 11 62 12 63 13
REMARK SMILES IDX 64 15 65 16 66 17 70 18 67 19 69 20 68 21 71 22 72 23 73 24
REMARK SMILES IDX 74 26 75 27 80 28 76 29 79 30 77 31 78 32 5 33 6 34 7 35
REMARK SMILES IDX 8 36 9 38 10 39 11 40 57 41 12 42 56 43 13 44 14 45 15 46
REMARK SMILES IDX 50 47 16 48 55 49 49 50 51 51 17 52 54 53 48 54 47 55 18 57
REMARK SMILES IDX 40 58 25 59 39 60 26 61 29 62 38 63 52 64 27 65 28 66 37 68
REMARK SMILES IDX 53 69 30 70 19 71 20 72 24 73 21 74 23 75 22 76 41 77 42 78
REMARK SMILES IDX 46 79 43 80 45 81 44 82 31 83 32 84 36 85 33 86 35 87 34 88
REMARK H PARENT 3 5 62 14 73 25 7 37 51 56 29 67
REMARK Flexibility Score: inf
ROOT
ATOM      1  C   UNL     1       4.838   9.325   3.115  1.00  0.00     0.118 C 
ENDROOT
BRANCH   1   2
ATOM      2  N   UNL     1       5.668  10.422   2.622  1.00  0.00    -0.352 N 
ATOM      3  O   UNL     1       7.553  11.403   1.830  1.00  0.00    -0.269 OA
ATOM      4  C   UNL     1       6.925  10.382   2.052  1.00  0.00     0.251 C 
ATOM      5  H   UNL     1       5.274  11.320   2.710  1.00  0.00     0.163 HD
BRANCH   4   6
ATOM      6  C   UNL     1       7.504   9.061   1.740  1.00  0.00     0.039 A 
ATOM      7  C   UNL     1       6.736   8.142   1.041  1.00  0.00     0.016 A 
ATOM      8  C   UNL     1       8.745   8.690   2.249  1.00  0.00     0.016 A 
ATOM      9  C   UNL     1       7.097   6.802   1.057  1.00  0.00     0.027 A 
ATOM     10  C   UNL     1       9.151   7.351   2.153  1.00  0.00     0.027 A 
ATOM     11  C   UNL     1       8.311   6.378   1.586  1.00  0.00     0.041 A 
BRANCH  11  12
ATOM     12  N   UNL     1       8.766   5.044   1.603  1.00  0.00    -0.326 N 
ATOM     13  C   UNL     1       8.323   3.856   1.083  1.00  0.00     0.228 C 
ATOM     14  H   UNL     1       9.603   4.941   2.112  1.00  0.00     0.169 HD
ATOM     15  O   UNL     1       9.020   2.861   1.305  1.00  0.00    -0.274 OA
BRANCH  13  16
ATOM     16  C   UNL     1       7.052   3.743   0.269  1.00  0.00     0.095 C 
ATOM     17  C   UNL     1       6.511   2.313   0.146  1.00  0.00     0.041 C 
ATOM     18  C   UNL     1       7.078   4.443  -1.108  1.00  0.00     0.095 C 
ATOM     19  C   UNL     1       5.165   2.338  -0.534  1.00  0.00    -0.030 C 
ATOM     20  C   UNL     1       5.599   4.584  -1.577  1.00  0.00     0.041 C 
ATOM     21  C   UNL     1       4.743   3.376  -1.277  1.00  0.00    -0.030 C 
BRANCH  18  22
ATOM     22  C   UNL     1       7.854   3.764  -2.255  1.00  0.00     0.228 C 
ATOM     23  O   UNL     1       7.501   2.701  -2.763  1.00  0.00    -0.274 OA
ATOM     24  N   UNL     1       8.799   4.523  -2.909  1.00  0.00    -0.326 N 
ATOM     25  H   UNL     1       8.779   4.474  -3.892  1.00  0.00     0.169 HD
BRANCH  24  26
ATOM     26  C   UNL     1       9.786   5.357  -2.365  1.00  0.00     0.041 A 
ATOM     27  C   UNL     1      10.254   6.440  -3.111  1.00  0.00     0.027 A 
ATOM     28  C   UNL     1      10.404   5.049  -1.155  1.00  0.00     0.027 A 
ATOM     29  C   UNL     1      11.266   7.262  -2.601  1.00  0.00     0.018 A 
ATOM     30  C   UNL     1      11.420   5.859  -0.643  1.00  0.00     0.018 A 
ATOM     31  C   UNL     1      11.836   6.974  -1.362  1.00  0.00     0.018 A 
ATOM     32  Br  UNL     1      13.205   8.076  -0.667  1.00  0.00    -0.051 Br
ENDBRANCH  24  26
ENDBRANCH  18  22
ENDBRANCH  13  16
ENDBRANCH  11  12
ENDBRANCH   4   6
ENDBRANCH   1   2
BRANCH   1  33
ATOM     33  C   UNL     1       4.863   9.198   4.627  1.00  0.00     0.042 C 
BRANCH  33  34
ATOM     34  C   UNL     1       4.105  10.307   5.333  1.00  0.00     0.118 C 
BRANCH  34  35
ATOM     35  N   UNL     1       2.696  10.343   4.959  1.00  0.00    -0.352 N 
ATOM     36  C   UNL     1       1.561  10.232   5.718  1.00  0.00     0.251 C 
ATOM     37  H   UNL     1       2.533  10.469   3.996  1.00  0.00     0.163 HD
ATOM     38  O   UNL     1       0.477  10.100   5.157  1.00  0.00    -0.269 OA
BRANCH  36  39
ATOM     39  C   UNL     1       1.626  10.259   7.194  1.00  0.00     0.039 A 
ATOM     40  C   UNL     1       0.718   9.481   7.918  1.00  0.00     0.014 A 
ATOM     41  C   UNL     1       2.536  11.075   7.872  1.00  0.00     0.014 A 
ATOM     42  C   UNL     1       0.757   9.486   9.312  1.00  0.00     0.010 A 
ATOM     43  C   UNL     1       2.642  11.002   9.255  1.00  0.00     0.010 A 
ATOM     44  C   UNL     1       1.738  10.226   9.991  1.00  0.00    -0.014 A 
BRANCH  44  45
ATOM     45  C   UNL     1       1.810  10.222  11.471  1.00  0.00     0.031 A 
ATOM     46  C   UNL     1       1.579  11.492  12.243  1.00  0.00     0.074 A 
ATOM     47  C   UNL     1       2.131   9.084  12.116  1.00  0.00     0.049 A 
ATOM     48  N   UNL     1       1.609  11.686  13.538  1.00  0.00    -0.248 NA
ATOM     49  C   UNL     1       1.311  12.711  11.461  1.00  0.00     0.031 C 
ATOM     50  C   UNL     1       2.444   7.804  11.477  1.00  0.00     0.029 A 
ATOM     51  N   UNL     1       2.243   8.824  13.457  1.00  0.00    -0.354 N 
ATOM     52  C   UNL     1       1.394  13.046  13.720  1.00  0.00     0.074 A 
ATOM     53  C   UNL     1       1.282  13.639  12.406  1.00  0.00     0.031 C 
ATOM     54  C   UNL     1       2.674   6.884  12.429  1.00  0.00     0.029 A 
ATOM     55  C   UNL     1       2.548   7.515  13.738  1.00  0.00     0.049 A 
ATOM     56  H   UNL     1       2.116   9.510  14.152  1.00  0.00     0.167 HD
ATOM     57  C   UNL     1       1.276  13.739  14.877  1.00  0.00     0.031 A 
ATOM     58  C   UNL     1       2.694   6.891  14.920  1.00  0.00     0.031 A 
ATOM     59  C   UNL     1       1.350  13.146  16.184  1.00  0.00     0.049 A 
ATOM     60  C   UNL     1       2.494   7.667  16.189  1.00  0.00     0.074 A 
ATOM     61  C   UNL     1       1.172  13.749  17.417  1.00  0.00     0.029 A 
ATOM     62  N   UNL     1       1.615  11.808  16.425  1.00  0.00    -0.354 N 
ATOM     63  N   UNL     1       2.216   8.938  16.344  1.00  0.00    -0.248 NA
ATOM     64  C   UNL     1       2.607   6.914  17.446  1.00  0.00     0.031 C 
ATOM     65  C   UNL     1       1.359  12.777  18.407  1.00  0.00     0.029 A 
ATOM     66  C   UNL     1       1.614  11.565  17.787  1.00  0.00     0.049 A 
ATOM     67  H   UNL     1       1.779  11.130  15.730  1.00  0.00     0.167 HD
ATOM     68  C   UNL     1       2.100   9.135  17.713  1.00  0.00     0.074 A 
ATOM     69  C   UNL     1       2.318   7.848  18.342  1.00  0.00     0.031 C 
ATOM     70  C   UNL     1       1.837  10.278  18.391  1.00  0.00     0.031 A 
BRANCH  57  71
ATOM     71  C   UNL     1       1.050  15.220  14.771  1.00  0.00    -0.014 A 
ATOM     72  C   UNL     1      -0.181  15.738  14.338  1.00  0.00     0.009 A 
ATOM     73  C   UNL     1       2.074  16.111  15.129  1.00  0.00     0.009 A 
ATOM     74  C   UNL     1      -0.369  17.117  14.229  1.00  0.00     0.001 A 
ATOM     75  C   UNL     1       1.874  17.490  15.043  1.00  0.00     0.001 A 
ATOM     76  C   UNL     1       0.656  17.991  14.585  1.00  0.00     0.000 A 
ENDBRANCH  57  71
BRANCH  58  77
ATOM     77  C   UNL     1       3.001   5.439  14.958  1.00  0.00    -0.014 A 
ATOM     78  C   UNL     1       2.005   4.515  15.308  1.00  0.00     0.009 A 
ATOM     79  C   UNL     1       4.285   4.972  14.643  1.00  0.00     0.009 A 
ATOM     80  C   UNL     1       2.297   3.151  15.367  1.00  0.00     0.001 A 
ATOM     81  C   UNL     1       4.568   3.605  14.680  1.00  0.00     0.001 A 
ATOM     82  C   UNL     1       3.577   2.697  15.050  1.00  0.00     0.000 A 
ENDBRANCH  58  77
BRANCH  70  83
ATOM     83  C   UNL     1       1.751  10.175  19.885  1.00  0.00    -0.014 A 
ATOM     84  C   UNL     1       2.905  10.017  20.668  1.00  0.00     0.009 A 
ATOM     85  C   UNL     1       0.501  10.254  20.516  1.00  0.00     0.009 A 
ATOM     86  C   UNL     1       2.803   9.901  22.055  1.00  0.00     0.001 A 
ATOM     87  C   UNL     1       0.405  10.162  21.905  1.00  0.00     0.001 A 
ATOM     88  C   UNL     1       1.554   9.976  22.672  1.00  0.00     0.000 A 
ENDBRANCH  70  83
ENDBRANCH  44  45
ENDBRANCH  36  39
ENDBRANCH  34  35
ENDBRANCH  33  34
ENDBRANCH   1  33
TORSDOF 14
