REMARK SMILES CC[NH2+][C@@]1(C(=O)NCCCNC(=O)c2ccc(-c3c4nc(c(-c5ccccc5)c5ccc([nH]5)c(-c5ccccc5)c5nc(c(-c6ccccc6)c6ccc3[nH]6)C=C5)C=C4)cc2)CC[C@@H]([NH+]2CC[NH+](C(C)C)CC2)C1
REMARK SMILES IDX 9 1 8 2 7 3 5 4 6 5 4 7 62 8 74 9 63 10 64 11 3 12 2 15 1 16
REMARK SMILES IDX 65 17 66 18 73 19 67 21 72 22 68 23 69 25 70 26 71 27 10 28
REMARK SMILES IDX 11 29 12 30 13 32 14 33 15 34 61 35 16 36 60 37 17 38 18 39
REMARK SMILES IDX 19 40 54 41 20 42 59 43 53 44 55 45 21 46 58 47 52 48 51 49
REMARK SMILES IDX 22 51 44 52 29 53 43 54 30 55 33 56 42 57 56 58 31 59 32 60
REMARK SMILES IDX 41 62 57 63 34 64 23 65 24 66 28 67 25 68 27 69 26 70 45 71
REMARK SMILES IDX 46 72 50 73 47 74 49 75 48 76 35 77 36 78 40 79 37 80 39 81
REMARK SMILES IDX 38 82
REMARK H PARENT 7 6 3 13 3 14 65 20 68 24 11 31 55 50 33 61
REMARK Flexibility Score: inf
ROOT
ATOM      1  C   UNL     1      -2.120  -6.577  -1.302  1.00  0.00     0.042 C 
ENDROOT
BRANCH   1   2
ATOM      2  C   UNL     1      -1.736  -5.317  -2.071  1.00  0.00     0.118 C 
BRANCH   2   3
ATOM      3  N   UNL     1      -1.883  -4.143  -1.238  1.00  0.00    -0.351 N 
ATOM      4  C   UNL     1      -1.031  -3.420  -0.467  1.00  0.00     0.281 C 
ATOM      5  O   UNL     1      -1.612  -2.666   0.327  1.00  0.00    -0.268 OA
ATOM      6  H   UNL     1      -2.803  -3.792  -1.228  1.00  0.00     0.163 HD
BRANCH   4   7
ATOM      7  C   UNL     1       0.549  -3.510  -0.518  1.00  0.00     0.181 C 
ATOM      8  C   UNL     1       1.174  -3.828  -1.887  1.00  0.00     0.085 C 
ATOM      9  C   UNL     1       1.058  -4.629   0.424  1.00  0.00     0.144 C 
ATOM     10  C   UNL     1       1.786  -5.229  -1.794  1.00  0.00     0.072 C 
ATOM     11  C   UNL     1       1.286  -5.840  -0.479  1.00  0.00     0.191 C 
BRANCH   7  12
ATOM     12  N   UNL     1       1.101  -2.227   0.009  1.00  0.00    -0.334 N 
ATOM     13  H   UNL     1       0.729  -2.085   0.948  1.00  0.00     0.347 HD
ATOM     14  H   UNL     1       2.116  -2.324  -0.015  1.00  0.00     0.347 HD
BRANCH  12  15
ATOM     15  C   UNL     1       0.786  -1.042  -0.788  1.00  0.00     0.257 C 
ATOM     16  C   UNL     1       1.292   0.191  -0.055  1.00  0.00     0.071 C 
ENDBRANCH  12  15
ENDBRANCH   7  12
BRANCH  11  17
ATOM     17  N   UNL     1       1.992  -7.020   0.022  1.00  0.00    -0.323 N 
ATOM     18  C   UNL     1       3.451  -7.064  -0.096  1.00  0.00     0.324 C 
ATOM     19  C   UNL     1       1.566  -7.469   1.362  1.00  0.00     0.324 C 
ATOM     20  H   UNL     1       1.670  -7.695  -0.671  1.00  0.00     0.348 HD
ATOM     21  C   UNL     1       4.210  -6.402   1.065  1.00  0.00     0.324 C 
ATOM     22  C   UNL     1       2.397  -6.938   2.566  1.00  0.00     0.324 C 
ATOM     23  N   UNL     1       3.861  -6.918   2.394  1.00  0.00    -0.324 N 
ATOM     24  H   UNL     1       4.256  -6.243   3.048  1.00  0.00     0.348 HD
BRANCH  23  25
ATOM     25  C   UNL     1       4.562  -8.125   2.871  1.00  0.00     0.178 C 
ATOM     26  C   UNL     1       4.106  -9.479   2.317  1.00  0.00     0.075 C 
ATOM     27  C   UNL     1       6.088  -8.014   2.726  1.00  0.00     0.075 C 
ENDBRANCH  23  25
ENDBRANCH  11  17
ENDBRANCH   4   7
ENDBRANCH   2   3
ENDBRANCH   1   2
BRANCH   1  28
ATOM     28  C   UNL     1      -3.614  -6.843  -1.312  1.00  0.00     0.118 C 
BRANCH  28  29
ATOM     29  N   UNL     1      -4.079  -7.222  -2.636  1.00  0.00    -0.352 N 
ATOM     30  C   UNL     1      -4.771  -8.333  -3.040  1.00  0.00     0.251 C 
ATOM     31  H   UNL     1      -3.864  -6.582  -3.353  1.00  0.00     0.163 HD
ATOM     32  O   UNL     1      -4.862  -8.582  -4.238  1.00  0.00    -0.269 OA
BRANCH  30  33
ATOM     33  C   UNL     1      -5.410  -9.226  -2.050  1.00  0.00     0.039 A 
ATOM     34  C   UNL     1      -5.491 -10.592  -2.335  1.00  0.00     0.014 A 
ATOM     35  C   UNL     1      -5.995  -8.722  -0.884  1.00  0.00     0.014 A 
ATOM     36  C   UNL     1      -6.154 -11.446  -1.454  1.00  0.00     0.010 A 
ATOM     37  C   UNL     1      -6.564  -9.586   0.042  1.00  0.00     0.010 A 
ATOM     38  C   UNL     1      -6.693 -10.948  -0.258  1.00  0.00    -0.014 A 
BRANCH  38  39
ATOM     39  C   UNL     1      -7.480 -11.817   0.647  1.00  0.00     0.031 A 
ATOM     40  C   UNL     1      -8.943 -11.530   0.863  1.00  0.00     0.074 A 
ATOM     41  C   UNL     1      -6.878 -12.832   1.293  1.00  0.00     0.049 A 
ATOM     42  N   UNL     1      -9.800 -12.144   1.638  1.00  0.00    -0.248 NA
ATOM     43  C   UNL     1      -9.511 -10.381   0.136  1.00  0.00     0.031 C 
ATOM     44  C   UNL     1      -5.459 -13.180   1.193  1.00  0.00     0.029 A 
ATOM     45  N   UNL     1      -7.389 -13.760   2.162  1.00  0.00    -0.354 N 
ATOM     46  C   UNL     1     -10.992 -11.439   1.511  1.00  0.00     0.074 A 
ATOM     47  C   UNL     1     -10.734 -10.319   0.636  1.00  0.00     0.031 C 
ATOM     48  C   UNL     1      -5.222 -14.270   1.941  1.00  0.00     0.029 A 
ATOM     49  C   UNL     1      -6.461 -14.674   2.597  1.00  0.00     0.049 A 
ATOM     50  H   UNL     1      -8.332 -13.770   2.447  1.00  0.00     0.167 HD
ATOM     51  C   UNL     1     -12.202 -11.714   2.053  1.00  0.00     0.031 A 
ATOM     52  C   UNL     1      -6.601 -15.725   3.425  1.00  0.00     0.031 A 
ATOM     53  C   UNL     1     -12.459 -12.848   2.898  1.00  0.00     0.049 A 
ATOM     54  C   UNL     1      -7.960 -16.026   3.994  1.00  0.00     0.074 A 
ATOM     55  C   UNL     1     -13.656 -13.252   3.461  1.00  0.00     0.029 A 
ATOM     56  N   UNL     1     -11.497 -13.765   3.293  1.00  0.00    -0.354 N 
ATOM     57  N   UNL     1      -9.090 -15.383   3.821  1.00  0.00    -0.248 NA
ATOM     58  C   UNL     1      -8.065 -17.211   4.854  1.00  0.00     0.031 C 
ATOM     59  C   UNL     1     -13.410 -14.396   4.228  1.00  0.00     0.029 A 
ATOM     60  C   UNL     1     -12.072 -14.732   4.098  1.00  0.00     0.049 A 
ATOM     61  H   UNL     1     -10.547 -13.732   3.038  1.00  0.00     0.167 HD
ATOM     62  C   UNL     1     -10.047 -16.106   4.521  1.00  0.00     0.074 A 
ATOM     63  C   UNL     1      -9.365 -17.241   5.109  1.00  0.00     0.031 C 
ATOM     64  C   UNL     1     -11.372 -15.856   4.663  1.00  0.00     0.031 A 
BRANCH  51  65
ATOM     65  C   UNL     1     -13.330 -10.770   1.740  1.00  0.00    -0.014 A 
ATOM     66  C   UNL     1     -13.873 -10.686   0.447  1.00  0.00     0.009 A 
ATOM     67  C   UNL     1     -13.866  -9.960   2.752  1.00  0.00     0.009 A 
ATOM     68  C   UNL     1     -14.898  -9.780   0.165  1.00  0.00     0.001 A 
ATOM     69  C   UNL     1     -14.913  -9.078   2.476  1.00  0.00     0.001 A 
ATOM     70  C   UNL     1     -15.420  -8.980   1.181  1.00  0.00     0.000 A 
ENDBRANCH  51  65
BRANCH  52  71
ATOM     71  C   UNL     1      -5.435 -16.593   3.729  1.00  0.00    -0.014 A 
ATOM     72  C   UNL     1      -5.365 -17.895   3.208  1.00  0.00     0.009 A 
ATOM     73  C   UNL     1      -4.387 -16.129   4.537  1.00  0.00     0.009 A 
ATOM     74  C   UNL     1      -4.283 -18.724   3.516  1.00  0.00     0.001 A 
ATOM     75  C   UNL     1      -3.292 -16.949   4.820  1.00  0.00     0.001 A 
ATOM     76  C   UNL     1      -3.246 -18.249   4.318  1.00  0.00     0.000 A 
ENDBRANCH  52  71
BRANCH  64  77
ATOM     77  C   UNL     1     -12.175 -16.858   5.441  1.00  0.00    -0.014 A 
ATOM     78  C   UNL     1     -12.059 -16.967   6.835  1.00  0.00     0.009 A 
ATOM     79  C   UNL     1     -13.088 -17.683   4.765  1.00  0.00     0.009 A 
ATOM     80  C   UNL     1     -12.814 -17.911   7.532  1.00  0.00     0.001 A 
ATOM     81  C   UNL     1     -13.864 -18.605   5.469  1.00  0.00     0.001 A 
ATOM     82  C   UNL     1     -13.718 -18.726   6.850  1.00  0.00     0.000 A 
ENDBRANCH  64  77
ENDBRANCH  38  39
ENDBRANCH  30  33
ENDBRANCH  28  29
ENDBRANCH   1  28
TORSDOF 14
