REMARK SMILES O=C(NCCCNC(=O)c1sccc1S(=O)(=O)Nc1ccc(Cn2cncn2)cc1)c1ccc(-c2c3nc(c(-c4ccccc4)c4ccc([nH]4)c(-c4ccccc4)c4nc(c(-c5ccccc5)c5ccc2[nH]5)C=C4)C=C3)cc1
REMARK SMILES IDX 7 1 8 2 9 3 6 5 5 6 4 7 3 8 1 9 2 10 31 12 32 13 78 14 33 15
REMARK SMILES IDX 77 16 34 17 35 18 36 19 71 20 37 21 76 22 70 23 72 24 38 25
REMARK SMILES IDX 75 26 69 27 68 28 39 30 61 31 46 32 60 33 47 34 50 35 59 36
REMARK SMILES IDX 73 37 48 38 49 39 58 41 74 42 51 43 40 44 41 45 45 46 42 47
REMARK SMILES IDX 44 48 43 49 62 50 63 51 67 52 64 53 66 54 65 55 52 56 53 57
REMARK SMILES IDX 57 58 54 59 56 60 55 61 10 62 11 63 14 64 12 65 13 66 15 67
REMARK SMILES IDX 16 68 17 69 18 70 19 72 20 73 30 74 21 75 29 76 22 77 23 78
REMARK SMILES IDX 24 79 25 80 28 81 26 82 27 83
REMARK H PARENT 7 4 3 11 72 29 50 40 18 71
REMARK Flexibility Score: inf
ROOT
ATOM      1  N   UNL     1       5.862   1.520  -3.409  1.00  0.00    -0.351 N 
ATOM      2  C   UNL     1       6.635   1.935  -4.450  1.00  0.00     0.262 C 
ATOM      3  O   UNL     1       7.460   2.815  -4.191  1.00  0.00    -0.268 OA
ATOM      4  H   UNL     1       5.911   2.092  -2.609  1.00  0.00     0.163 HD
ENDROOT
BRANCH   1   5
ATOM      5  C   UNL     1       4.981   0.382  -3.280  1.00  0.00     0.118 C 
BRANCH   5   6
ATOM      6  C   UNL     1       5.158  -0.279  -1.922  1.00  0.00     0.042 C 
BRANCH   6   7
ATOM      7  C   UNL     1       4.805   0.624  -0.733  1.00  0.00     0.118 C 
BRANCH   7   8
ATOM      8  N   UNL     1       3.401   0.951  -0.604  1.00  0.00    -0.352 N 
ATOM      9  O   UNL     1       1.312   0.958   0.124  1.00  0.00    -0.269 OA
ATOM     10  C   UNL     1       2.341   0.300  -0.035  1.00  0.00     0.251 C 
ATOM     11  H   UNL     1       3.161   1.817  -1.006  1.00  0.00     0.163 HD
BRANCH  10  12
ATOM     12  C   UNL     1       2.331  -1.150   0.291  1.00  0.00     0.039 A 
ATOM     13  C   UNL     1       3.446  -1.990   0.277  1.00  0.00     0.014 A 
ATOM     14  C   UNL     1       1.067  -1.712   0.538  1.00  0.00     0.014 A 
ATOM     15  C   UNL     1       3.294  -3.365   0.320  1.00  0.00     0.010 A 
ATOM     16  C   UNL     1       0.912  -3.085   0.638  1.00  0.00     0.010 A 
ATOM     17  C   UNL     1       2.021  -3.908   0.464  1.00  0.00    -0.014 A 
BRANCH  17  18
ATOM     18  C   UNL     1       1.916  -5.353   0.597  1.00  0.00     0.031 A 
ATOM     19  C   UNL     1       2.578  -5.906   1.816  1.00  0.00     0.074 A 
ATOM     20  C   UNL     1       1.146  -6.088  -0.228  1.00  0.00     0.049 A 
ATOM     21  N   UNL     1       3.444  -6.863   1.904  1.00  0.00    -0.248 NA
ATOM     22  C   UNL     1       2.312  -5.224   3.097  1.00  0.00     0.031 C 
ATOM     23  C   UNL     1       0.244  -5.606  -1.278  1.00  0.00     0.029 A 
ATOM     24  N   UNL     1       0.894  -7.425  -0.199  1.00  0.00    -0.354 N 
ATOM     25  C   UNL     1       3.704  -7.021   3.266  1.00  0.00     0.074 A 
ATOM     26  C   UNL     1       3.088  -5.906   3.936  1.00  0.00     0.031 C 
ATOM     27  C   UNL     1      -0.636  -6.584  -1.589  1.00  0.00     0.029 A 
ATOM     28  C   UNL     1      -0.275  -7.787  -0.859  1.00  0.00     0.049 A 
ATOM     29  H   UNL     1       1.483  -8.075   0.248  1.00  0.00     0.167 HD
ATOM     30  C   UNL     1       4.210  -8.176   3.778  1.00  0.00     0.031 A 
ATOM     31  C   UNL     1      -0.946  -8.959  -0.736  1.00  0.00     0.031 A 
ATOM     32  C   UNL     1       4.874  -8.964   2.777  1.00  0.00     0.049 A 
ATOM     33  C   UNL     1      -0.025  -9.947  -0.130  1.00  0.00     0.074 A 
ATOM     34  C   UNL     1       5.968  -8.778   1.956  1.00  0.00     0.029 A 
ATOM     35  N   UNL     1       4.187 -10.029   2.249  1.00  0.00    -0.354 N 
ATOM     36  N   UNL     1       1.028 -10.413  -0.736  1.00  0.00    -0.248 NA
ATOM     37  C   UNL     1      -0.021 -10.074   1.319  1.00  0.00     0.031 C 
ATOM     38  C   UNL     1       5.610  -9.401   0.725  1.00  0.00     0.029 A 
ATOM     39  C   UNL     1       4.350  -9.979   0.891  1.00  0.00     0.049 A 
ATOM     40  H   UNL     1       3.674 -10.702   2.752  1.00  0.00     0.167 HD
ATOM     41  C   UNL     1       2.000 -10.484   0.251  1.00  0.00     0.074 A 
ATOM     42  C   UNL     1       1.271 -10.354   1.512  1.00  0.00     0.031 C 
ATOM     43  C   UNL     1       3.325 -10.354  -0.054  1.00  0.00     0.031 A 
BRANCH  30  44
ATOM     44  C   UNL     1       3.709  -8.781   5.070  1.00  0.00    -0.014 A 
ATOM     45  C   UNL     1       4.243 -10.014   5.488  1.00  0.00     0.009 A 
ATOM     46  C   UNL     1       2.532  -8.354   5.715  1.00  0.00     0.009 A 
ATOM     47  C   UNL     1       3.574 -10.821   6.417  1.00  0.00     0.001 A 
ATOM     48  C   UNL     1       1.884  -9.138   6.673  1.00  0.00     0.001 A 
ATOM     49  C   UNL     1       2.386 -10.388   6.997  1.00  0.00     0.000 A 
ENDBRANCH  30  44
BRANCH  31  50
ATOM     50  C   UNL     1      -2.408  -9.181  -0.795  1.00  0.00    -0.014 A 
ATOM     51  C   UNL     1      -2.938 -10.466  -0.991  1.00  0.00     0.009 A 
ATOM     52  C   UNL     1      -3.294  -8.163  -0.392  1.00  0.00     0.009 A 
ATOM     53  C   UNL     1      -4.298 -10.725  -0.766  1.00  0.00     0.001 A 
ATOM     54  C   UNL     1      -4.650  -8.421  -0.171  1.00  0.00     0.001 A 
ATOM     55  C   UNL     1      -5.150  -9.706  -0.345  1.00  0.00     0.000 A 
ENDBRANCH  31  50
BRANCH  43  56
ATOM     56  C   UNL     1       3.717 -10.331  -1.510  1.00  0.00    -0.014 A 
ATOM     57  C   UNL     1       3.285  -9.332  -2.401  1.00  0.00     0.009 A 
ATOM     58  C   UNL     1       4.681 -11.246  -1.953  1.00  0.00     0.009 A 
ATOM     59  C   UNL     1       3.785  -9.271  -3.706  1.00  0.00     0.001 A 
ATOM     60  C   UNL     1       5.195 -11.173  -3.249  1.00  0.00     0.001 A 
ATOM     61  C   UNL     1       4.744 -10.190  -4.127  1.00  0.00     0.000 A 
ENDBRANCH  43  56
ENDBRANCH  17  18
ENDBRANCH  10  12
ENDBRANCH   7   8
ENDBRANCH   6   7
ENDBRANCH   5   6
ENDBRANCH   1   5
BRANCH   2  62
ATOM     62  C   UNL     1       6.509   1.309  -5.741  1.00  0.00     0.112 A 
ATOM     63  S   UNL     1       8.009   0.794  -6.431  1.00  0.00    -0.137 S 
ATOM     64  C   UNL     1       5.452   1.060  -6.600  1.00  0.00     0.111 A 
ATOM     65  C   UNL     1       7.248   0.135  -7.798  1.00  0.00     0.067 A 
ATOM     66  C   UNL     1       5.890   0.332  -7.765  1.00  0.00     0.035 A 
BRANCH  64  67
ATOM     67  S   UNL     1       3.768   1.485  -6.487  1.00  0.00     0.263 S 
ATOM     68  O   UNL     1       3.522   2.181  -7.723  1.00  0.00    -0.201 OA
ATOM     69  O   UNL     1       3.147   0.194  -6.226  1.00  0.00    -0.201 OA
BRANCH  67  70
ATOM     70  N   UNL     1       3.261   2.453  -5.243  1.00  0.00    -0.280 N 
ATOM     71  H   UNL     1       2.429   2.187  -4.788  1.00  0.00     0.180 HD
BRANCH  70  72
ATOM     72  C   UNL     1       3.897   3.617  -4.768  1.00  0.00     0.049 A 
ATOM     73  C   UNL     1       3.723   3.874  -3.406  1.00  0.00     0.027 A 
ATOM     74  C   UNL     1       4.795   4.372  -5.512  1.00  0.00     0.027 A 
ATOM     75  C   UNL     1       4.615   4.706  -2.737  1.00  0.00     0.008 A 
ATOM     76  C   UNL     1       5.670   5.235  -4.846  1.00  0.00     0.008 A 
ATOM     77  C   UNL     1       5.647   5.336  -3.445  1.00  0.00    -0.026 A 
BRANCH  77  78
ATOM     78  C   UNL     1       6.799   5.984  -2.713  1.00  0.00     0.181 C 
BRANCH  78  79
ATOM     79  N   UNL     1       6.428   7.227  -2.073  1.00  0.00    -0.249 N 
ATOM     80  C   UNL     1       5.765   7.391  -0.895  1.00  0.00     0.220 A 
ATOM     81  N   UNL     1       6.848   8.411  -2.556  1.00  0.00    -0.160 NA
ATOM     82  N   UNL     1       5.698   8.668  -0.602  1.00  0.00    -0.224 NA
ATOM     83  C   UNL     1       6.369   9.253  -1.637  1.00  0.00     0.246 A 
ENDBRANCH  78  79
ENDBRANCH  77  78
ENDBRANCH  70  72
ENDBRANCH  67  70
ENDBRANCH  64  67
ENDBRANCH   2  62
TORSDOF 15
