REMARK SMILES O=C(NCCCNC(=O)[C@@H](NC(=O)c1cscn1)c1ccccc1C(F)(F)F)c1ccc(-c2c3nc(c(-c4ccccc4)c4ccc([nH]4)c(-c4ccccc4)c4nc(c(-c5ccccc5)c5ccc2[nH]5)C=C4)C=C3)cc1
REMARK SMILES IDX 5 1 4 2 3 3 1 4 2 5 29 7 30 8 76 9 31 10 75 11 32 12 33 13
REMARK SMILES IDX 34 14 69 15 35 16 74 17 68 18 70 19 36 20 73 21 67 22 66 23
REMARK SMILES IDX 37 25 59 26 44 27 58 28 45 29 48 30 57 31 71 32 46 33 47 34
REMARK SMILES IDX 56 36 72 37 49 38 38 39 39 40 43 41 40 42 42 43 41 44 60 45
REMARK SMILES IDX 61 46 65 47 62 48 64 49 63 50 50 51 51 52 55 53 52 54 54 55
REMARK SMILES IDX 53 56 6 57 7 58 8 59 9 61 10 62 11 63 12 64 13 66 14 67
REMARK SMILES IDX 15 68 18 69 16 70 17 71 19 72 20 73 24 74 21 75 23 76 22 77
REMARK SMILES IDX 25 78 26 79 27 80 28 81
REMARK H PARENT 3 6 70 24 48 35 7 60 11 65
REMARK Flexibility Score: inf
ROOT
ATOM      1  C   UNL     1       4.869   2.116   1.131  1.00  0.00     0.042 C 
ENDROOT
BRANCH   1   2
ATOM      2  C   UNL     1       4.542   0.652   0.875  1.00  0.00     0.118 C 
BRANCH   2   3
ATOM      3  N   UNL     1       3.102   0.405   0.868  1.00  0.00    -0.352 N 
ATOM      4  O   UNL     1       1.092  -0.018  -0.075  1.00  0.00    -0.269 OA
ATOM      5  C   UNL     1       2.315  -0.073  -0.147  1.00  0.00     0.251 C 
ATOM      6  H   UNL     1       2.632   0.611   1.709  1.00  0.00     0.163 HD
BRANCH   5   7
ATOM      7  C   UNL     1       2.968  -0.652  -1.333  1.00  0.00     0.039 A 
ATOM      8  C   UNL     1       4.035  -1.539  -1.165  1.00  0.00     0.014 A 
ATOM      9  C   UNL     1       2.525  -0.298  -2.608  1.00  0.00     0.014 A 
ATOM     10  C   UNL     1       4.752  -1.963  -2.271  1.00  0.00     0.010 A 
ATOM     11  C   UNL     1       3.185  -0.809  -3.725  1.00  0.00     0.010 A 
ATOM     12  C   UNL     1       4.311  -1.631  -3.561  1.00  0.00    -0.014 A 
BRANCH  12  13
ATOM     13  C   UNL     1       4.977  -2.258  -4.722  1.00  0.00     0.031 A 
ATOM     14  C   UNL     1       5.726  -1.439  -5.729  1.00  0.00     0.074 A 
ATOM     15  C   UNL     1       4.891  -3.597  -4.844  1.00  0.00     0.049 A 
ATOM     16  N   UNL     1       6.335  -1.839  -6.815  1.00  0.00    -0.248 NA
ATOM     17  C   UNL     1       5.798   0.012  -5.498  1.00  0.00     0.031 C 
ATOM     18  C   UNL     1       4.179  -4.484  -3.917  1.00  0.00     0.029 A 
ATOM     19  N   UNL     1       5.411  -4.448  -5.782  1.00  0.00    -0.354 N 
ATOM     20  C   UNL     1       6.834  -0.691  -7.415  1.00  0.00     0.074 A 
ATOM     21  C   UNL     1       6.453   0.425  -6.576  1.00  0.00     0.031 C 
ATOM     22  C   UNL     1       4.340  -5.754  -4.311  1.00  0.00     0.029 A 
ATOM     23  C   UNL     1       5.096  -5.765  -5.555  1.00  0.00     0.049 A 
ATOM     24  H   UNL     1       5.956  -4.145  -6.543  1.00  0.00     0.167 HD
ATOM     25  C   UNL     1       7.541  -0.587  -8.564  1.00  0.00     0.031 A 
ATOM     26  C   UNL     1       5.354  -6.862  -6.287  1.00  0.00     0.031 A 
ATOM     27  C   UNL     1       7.924  -1.710  -9.380  1.00  0.00     0.049 A 
ATOM     28  C   UNL     1       6.107  -6.706  -7.572  1.00  0.00     0.074 A 
ATOM     29  C   UNL     1       8.696  -1.716 -10.528  1.00  0.00     0.029 A 
ATOM     30  N   UNL     1       7.556  -3.024  -9.137  1.00  0.00    -0.354 N 
ATOM     31  N   UNL     1       6.614  -5.618  -8.100  1.00  0.00    -0.248 NA
ATOM     32  C   UNL     1       6.313  -7.922  -8.367  1.00  0.00     0.031 C 
ATOM     33  C   UNL     1       8.747  -3.027 -11.012  1.00  0.00     0.029 A 
ATOM     34  C   UNL     1       8.048  -3.844 -10.138  1.00  0.00     0.049 A 
ATOM     35  H   UNL     1       7.023  -3.329  -8.367  1.00  0.00     0.167 HD
ATOM     36  C   UNL     1       7.202  -6.018  -9.290  1.00  0.00     0.074 A 
ATOM     37  C   UNL     1       7.013  -7.452  -9.390  1.00  0.00     0.031 C 
ATOM     38  C   UNL     1       7.835  -5.265 -10.221  1.00  0.00     0.031 A 
BRANCH  25  39
ATOM     39  C   UNL     1       7.919   0.788  -9.037  1.00  0.00    -0.014 A 
ATOM     40  C   UNL     1       8.948   1.518  -8.423  1.00  0.00     0.009 A 
ATOM     41  C   UNL     1       7.281   1.329 -10.164  1.00  0.00     0.009 A 
ATOM     42  C   UNL     1       9.317   2.771  -8.919  1.00  0.00     0.001 A 
ATOM     43  C   UNL     1       7.665   2.572 -10.670  1.00  0.00     0.001 A 
ATOM     44  C   UNL     1       8.680   3.294 -10.044  1.00  0.00     0.000 A 
ENDBRANCH  25  39
BRANCH  26  45
ATOM     45  C   UNL     1       4.841  -8.181  -5.843  1.00  0.00    -0.014 A 
ATOM     46  C   UNL     1       5.718  -9.176  -5.388  1.00  0.00     0.009 A 
ATOM     47  C   UNL     1       3.460  -8.442  -5.849  1.00  0.00     0.009 A 
ATOM     48  C   UNL     1       5.222 -10.412  -4.965  1.00  0.00     0.001 A 
ATOM     49  C   UNL     1       2.966  -9.665  -5.397  1.00  0.00     0.001 A 
ATOM     50  C   UNL     1       3.849 -10.653  -4.964  1.00  0.00     0.000 A 
ENDBRANCH  26  45
BRANCH  38  51
ATOM     51  C   UNL     1       8.369  -5.987 -11.421  1.00  0.00    -0.014 A 
ATOM     52  C   UNL     1       7.506  -6.434 -12.434  1.00  0.00     0.009 A 
ATOM     53  C   UNL     1       9.749  -6.195 -11.554  1.00  0.00     0.009 A 
ATOM     54  C   UNL     1       8.017  -7.100 -13.548  1.00  0.00     0.001 A 
ATOM     55  C   UNL     1      10.259  -6.840 -12.681  1.00  0.00     0.001 A 
ATOM     56  C   UNL     1       9.392  -7.298 -13.673  1.00  0.00     0.000 A 
ENDBRANCH  38  51
ENDBRANCH  12  13
ENDBRANCH   5   7
ENDBRANCH   2   3
ENDBRANCH   1   2
BRANCH   1  57
ATOM     57  C   UNL     1       4.470   2.535   2.532  1.00  0.00     0.117 C 
BRANCH  57  58
ATOM     58  N   UNL     1       5.375   2.001   3.522  1.00  0.00    -0.354 N 
ATOM     59  C   UNL     1       6.071   2.634   4.503  1.00  0.00     0.247 C 
ATOM     60  H   UNL     1       5.510   1.027   3.479  1.00  0.00     0.163 HD
ATOM     61  O   UNL     1       6.877   1.947   5.141  1.00  0.00    -0.272 OA
BRANCH  59  62
ATOM     62  C   UNL     1       5.968   4.147   4.750  1.00  0.00     0.203 C 
BRANCH  62  63
ATOM     63  N   UNL     1       6.731   4.825   3.666  1.00  0.00    -0.335 N 
ATOM     64  C   UNL     1       6.381   5.273   2.414  1.00  0.00     0.271 C 
ATOM     65  H   UNL     1       7.676   4.985   3.891  1.00  0.00     0.165 HD
ATOM     66  O   UNL     1       7.144   5.009   1.484  1.00  0.00    -0.267 OA
BRANCH  64  67
ATOM     67  C   UNL     1       5.165   6.057   2.185  1.00  0.00     0.139 A 
ATOM     68  C   UNL     1       4.333   5.873   1.091  1.00  0.00     0.100 A 
ATOM     69  N   UNL     1       4.829   7.164   2.956  1.00  0.00    -0.240 NA
ATOM     70  S   UNL     1       3.019   6.971   1.135  1.00  0.00    -0.130 S 
ATOM     71  C   UNL     1       3.711   7.699   2.519  1.00  0.00     0.176 A 
ENDBRANCH  64  67
ENDBRANCH  62  63
BRANCH  62  72
ATOM     72  C   UNL     1       4.681   4.787   5.270  1.00  0.00    -0.004 A 
ATOM     73  C   UNL     1       4.807   6.166   5.571  1.00  0.00     0.007 A 
ATOM     74  C   UNL     1       3.436   4.186   5.593  1.00  0.00     0.061 A 
ATOM     75  C   UNL     1       3.729   6.960   5.963  1.00  0.00     0.000 A 
ATOM     76  C   UNL     1       2.334   5.027   5.904  1.00  0.00     0.013 A 
ATOM     77  C   UNL     1       2.473   6.398   6.074  1.00  0.00     0.001 A 
BRANCH  74  78
ATOM     78  C   UNL     1       3.124   2.707   5.739  1.00  0.00     0.416 C 
ATOM     79  F   UNL     1       2.225   2.466   6.742  1.00  0.00    -0.166 F 
ATOM     80  F   UNL     1       2.548   2.172   4.631  1.00  0.00    -0.166 F 
ATOM     81  F   UNL     1       4.189   1.929   6.048  1.00  0.00    -0.166 F 
ENDBRANCH  74  78
ENDBRANCH  62  72
ENDBRANCH  59  62
ENDBRANCH  57  58
ENDBRANCH   1  57
TORSDOF 14
