REMARK SMILES CC[C@H](C(=O)NCCCNC(=O)c1ccc(-c2c3nc(c(-c4ccccc4)c4ccc([nH]4)c(-c4ccccc4)c4nc(c(-c5ccccc5)c5ccc2[nH]5)C=C4)C=C3)cc1)N(C)C(=O)[C@H]1CC[C@@H](C[NH3+])CC1
REMARK SMILES IDX 4 1 5 2 6 3 3 5 2 6 1 7 61 8 62 9 63 10 64 11 65 12 72 13
REMARK SMILES IDX 66 14 71 15 67 16 68 17 69 18 70 19 7 23 8 24 9 25 10 26
REMARK SMILES IDX 11 27 12 29 13 30 14 31 60 32 15 33 59 34 16 35 17 36 18 37
REMARK SMILES IDX 53 38 19 39 58 40 52 41 54 42 20 43 57 44 51 45 50 46 21 48
REMARK SMILES IDX 43 49 28 50 42 51 29 52 32 53 41 54 55 55 30 56 31 57 40 59
REMARK SMILES IDX 56 60 33 61 22 62 23 63 27 64 24 65 26 66 25 67 44 68 45 69
REMARK SMILES IDX 49 70 46 71 48 72 47 73 34 74 35 75 39 76 36 77 38 78 37 79
REMARK H PARENT 6 4 70 20 70 21 70 22 10 28 54 47 32 58
REMARK Flexibility Score: inf
ROOT
ATOM      1  C   UNL     1       0.458  -1.259   0.454  1.00  0.00     0.242 C 
ATOM      2  O   UNL     1       0.209  -1.941  -0.546  1.00  0.00    -0.273 OA
ATOM      3  N   UNL     1       0.738   0.055   0.221  1.00  0.00    -0.354 N 
ATOM      4  H   UNL     1       0.565   0.359  -0.699  1.00  0.00     0.163 HD
ENDROOT
BRANCH   1   5
ATOM      5  C   UNL     1       0.625  -1.868   1.871  1.00  0.00     0.173 C 
BRANCH   5   6
ATOM      6  C   UNL     1       0.015  -1.146   3.097  1.00  0.00     0.032 C 
ATOM      7  C   UNL     1      -1.323  -0.440   2.934  1.00  0.00     0.006 C 
ENDBRANCH   5   6
BRANCH   5   8
ATOM      8  N   UNL     1       0.308  -3.318   1.892  1.00  0.00    -0.334 N 
ATOM      9  C   UNL     1       1.443  -4.223   1.970  1.00  0.00     0.147 C 
BRANCH   8  10
ATOM     10  C   UNL     1      -1.003  -3.706   1.649  1.00  0.00     0.226 C 
ATOM     11  O   UNL     1      -1.863  -2.878   1.332  1.00  0.00    -0.275 OA
BRANCH  10  12
ATOM     12  C   UNL     1      -1.473  -5.141   1.895  1.00  0.00     0.078 C 
ATOM     13  C   UNL     1      -0.826  -6.253   1.065  1.00  0.00     0.014 C 
ATOM     14  C   UNL     1      -1.514  -5.428   3.400  1.00  0.00     0.014 C 
ATOM     15  C   UNL     1      -1.404  -7.627   1.419  1.00  0.00     0.010 C 
ATOM     16  C   UNL     1      -2.110  -6.802   3.686  1.00  0.00     0.010 C 
ATOM     17  C   UNL     1      -1.380  -7.927   2.932  1.00  0.00     0.044 C 
BRANCH  17  18
ATOM     18  C   UNL     1       0.062  -8.172   3.426  1.00  0.00     0.262 C 
BRANCH  18  19
ATOM     19  N   UNL     1       0.115  -8.550   4.834  1.00  0.00    -0.357 N 
ATOM     20  H   UNL     1      -0.264  -7.793   5.404  1.00  0.00     0.344 HD
ATOM     21  H   UNL     1       1.084  -8.724   5.103  1.00  0.00     0.344 HD
ATOM     22  H   UNL     1      -0.436  -9.395   4.981  1.00  0.00     0.344 HD
ENDBRANCH  18  19
ENDBRANCH  17  18
ENDBRANCH  10  12
ENDBRANCH   8  10
ENDBRANCH   5   8
ENDBRANCH   1   5
BRANCH   3  23
ATOM     23  C   UNL     1       1.248   1.074   1.114  1.00  0.00     0.117 C 
BRANCH  23  24
ATOM     24  C   UNL     1       2.240   2.005   0.434  1.00  0.00     0.042 C 
BRANCH  24  25
ATOM     25  C   UNL     1       1.699   2.726  -0.793  1.00  0.00     0.118 C 
BRANCH  25  26
ATOM     26  N   UNL     1       0.571   3.602  -0.506  1.00  0.00    -0.352 N 
ATOM     27  C   UNL     1       0.473   4.974  -0.546  1.00  0.00     0.251 C 
ATOM     28  H   UNL     1      -0.255   3.136  -0.242  1.00  0.00     0.163 HD
ATOM     29  O   UNL     1      -0.539   5.530  -0.138  1.00  0.00    -0.269 OA
BRANCH  27  30
ATOM     30  C   UNL     1       1.611   5.783  -1.033  1.00  0.00     0.039 A 
ATOM     31  C   UNL     1       2.010   6.899  -0.293  1.00  0.00     0.014 A 
ATOM     32  C   UNL     1       2.308   5.423  -2.186  1.00  0.00     0.014 A 
ATOM     33  C   UNL     1       3.178   7.579  -0.644  1.00  0.00     0.010 A 
ATOM     34  C   UNL     1       3.523   6.033  -2.473  1.00  0.00     0.010 A 
ATOM     35  C   UNL     1       3.981   7.106  -1.695  1.00  0.00    -0.014 A 
BRANCH  35  36
ATOM     36  C   UNL     1       5.321   7.682  -1.974  1.00  0.00     0.031 A 
ATOM     37  C   UNL     1       5.624   8.288  -3.315  1.00  0.00     0.074 A 
ATOM     38  C   UNL     1       6.299   7.563  -1.054  1.00  0.00     0.049 A 
ATOM     39  N   UNL     1       6.764   8.729  -3.783  1.00  0.00    -0.248 NA
ATOM     40  C   UNL     1       4.506   8.379  -4.267  1.00  0.00     0.031 C 
ATOM     41  C   UNL     1       6.154   6.954   0.271  1.00  0.00     0.029 A 
ATOM     42  N   UNL     1       7.617   7.942  -1.100  1.00  0.00    -0.354 N 
ATOM     43  C   UNL     1       6.508   9.118  -5.091  1.00  0.00     0.074 A 
ATOM     44  C   UNL     1       5.117   8.820  -5.356  1.00  0.00     0.031 C 
ATOM     45  C   UNL     1       7.323   7.037   0.924  1.00  0.00     0.029 A 
ATOM     46  C   UNL     1       8.312   7.657   0.050  1.00  0.00     0.049 A 
ATOM     47  H   UNL     1       8.026   8.378  -1.882  1.00  0.00     0.167 HD
ATOM     48  C   UNL     1       7.348   9.689  -5.987  1.00  0.00     0.031 A 
ATOM     49  C   UNL     1       9.604   7.861   0.366  1.00  0.00     0.031 A 
ATOM     50  C   UNL     1       8.723  10.008  -5.718  1.00  0.00     0.049 A 
ATOM     51  C   UNL     1      10.520   8.483  -0.647  1.00  0.00     0.074 A 
ATOM     52  C   UNL     1       9.633  10.661  -6.532  1.00  0.00     0.029 A 
ATOM     53  N   UNL     1       9.389   9.696  -4.543  1.00  0.00    -0.354 N 
ATOM     54  N   UNL     1      10.247   8.900  -1.859  1.00  0.00    -0.248 NA
ATOM     55  C   UNL     1      11.924   8.658  -0.248  1.00  0.00     0.031 C 
ATOM     56  C   UNL     1      10.862  10.704  -5.865  1.00  0.00     0.029 A 
ATOM     57  C   UNL     1      10.706  10.116  -4.620  1.00  0.00     0.049 A 
ATOM     58  H   UNL     1       8.985   9.242  -3.769  1.00  0.00     0.167 HD
ATOM     59  C   UNL     1      11.439   9.401  -2.363  1.00  0.00     0.074 A 
ATOM     60  C   UNL     1      12.434   9.248  -1.320  1.00  0.00     0.031 C 
ATOM     61  C   UNL     1      11.686   9.942  -3.580  1.00  0.00     0.031 A 
BRANCH  48  62
ATOM     62  C   UNL     1       6.789   9.992  -7.349  1.00  0.00    -0.014 A 
ATOM     63  C   UNL     1       5.846  11.015  -7.538  1.00  0.00     0.009 A 
ATOM     64  C   UNL     1       7.212   9.244  -8.459  1.00  0.00     0.009 A 
ATOM     65  C   UNL     1       5.301  11.250  -8.802  1.00  0.00     0.001 A 
ATOM     66  C   UNL     1       6.686   9.501  -9.726  1.00  0.00     0.001 A 
ATOM     67  C   UNL     1       5.723  10.494  -9.895  1.00  0.00     0.000 A 
ENDBRANCH  48  62
BRANCH  49  68
ATOM     68  C   UNL     1      10.101   7.492   1.715  1.00  0.00    -0.014 A 
ATOM     69  C   UNL     1      10.359   8.492   2.666  1.00  0.00     0.009 A 
ATOM     70  C   UNL     1      10.297   6.149   2.069  1.00  0.00     0.009 A 
ATOM     71  C   UNL     1      10.815   8.154   3.941  1.00  0.00     0.001 A 
ATOM     72  C   UNL     1      10.733   5.813   3.353  1.00  0.00     0.001 A 
ATOM     73  C   UNL     1      10.996   6.815   4.285  1.00  0.00     0.000 A 
ENDBRANCH  49  68
BRANCH  61  74
ATOM     74  C   UNL     1      13.085  10.418  -3.845  1.00  0.00    -0.014 A 
ATOM     75  C   UNL     1      14.119   9.508  -4.108  1.00  0.00     0.009 A 
ATOM     76  C   UNL     1      13.361  11.793  -3.869  1.00  0.00     0.009 A 
ATOM     77  C   UNL     1      15.412   9.967  -4.368  1.00  0.00     0.001 A 
ATOM     78  C   UNL     1      14.649  12.250  -4.151  1.00  0.00     0.001 A 
ATOM     79  C   UNL     1      15.674  11.337  -4.394  1.00  0.00     0.000 A 
ENDBRANCH  61  74
ENDBRANCH  35  36
ENDBRANCH  27  30
ENDBRANCH  25  26
ENDBRANCH  24  25
ENDBRANCH  23  24
ENDBRANCH   3  23
TORSDOF 16
