REMARK SMILES CC(C)CCc1cc2c(cc1Cl)C=C(C(=O)NCCCNC(=O)c1ccc(-c3c4nc(c(-c5ccccc5)c5ccc([nH]5)c(-c5ccccc5)c5nc(c(-c6ccccc6)c6ccc3[nH]6)C=C5)C=C4)cc1)[C@@H](C(F)(F)F)O2
REMARK SMILES IDX 18 1 17 2 15 3 16 4 14 6 6 7 7 8 11 9 8 10 10 11 12 12 9 13
REMARK SMILES IDX 77 14 13 15 72 16 5 17 4 18 2 19 1 20 3 21 73 22 74 23 75 24
REMARK SMILES IDX 76 25 19 26 20 27 21 28 22 29 23 31 24 32 25 33 71 34 26 35
REMARK SMILES IDX 70 36 27 37 28 38 29 39 64 40 30 41 69 42 63 43 65 44 31 45
REMARK SMILES IDX 68 46 62 47 61 48 32 50 54 51 39 52 53 53 40 54 43 55 52 56
REMARK SMILES IDX 66 57 41 58 42 59 51 61 67 62 44 63 33 64 34 65 38 66 35 67
REMARK SMILES IDX 37 68 36 69 55 70 56 71 60 72 57 73 59 74 58 75 45 76 46 77
REMARK SMILES IDX 50 78 47 79 49 80 48 81
REMARK H PARENT 17 5 21 30 65 49 43 60
REMARK Flexibility Score: inf
ROOT
ATOM      1  C   UNL     1       0.082   6.788   7.591  1.00  0.00     0.118 C 
ENDROOT
BRANCH   1   2
ATOM      2  N   UNL     1       0.309   5.501   8.231  1.00  0.00    -0.352 N 
ATOM      3  C   UNL     1       0.249   4.195   7.883  1.00  0.00     0.251 C 
ATOM      4  O   UNL     1       0.527   3.399   8.786  1.00  0.00    -0.270 OA
ATOM      5  H   UNL     1       0.580   5.611   9.171  1.00  0.00     0.163 HD
BRANCH   3   6
ATOM      6  C   UNL     1      -0.125   3.682   6.535  1.00  0.00     0.067 C 
ATOM      7  C   UNL     1      -1.250   0.772   2.564  1.00  0.00    -0.026 A 
ATOM      8  C   UNL     1      -1.465   2.119   2.898  1.00  0.00     0.052 A 
ATOM      9  C   UNL     1      -0.705  -0.072   3.548  1.00  0.00     0.045 A 
ATOM     10  C   UNL     1      -1.075   2.618   4.138  1.00  0.00     0.128 A 
ATOM     11  C   UNL     1      -0.344   0.430   4.808  1.00  0.00     0.032 A 
ATOM     12  Cl  UNL     1      -0.454  -1.761   3.281  1.00  0.00    -0.084 Cl
ATOM     13  C   UNL     1      -0.516   1.783   5.101  1.00  0.00     0.019 A 
ATOM     14  O   UNL     1      -1.295   3.947   4.358  1.00  0.00    -0.475 OA
ATOM     15  C   UNL     1      -0.164   2.342   6.401  1.00  0.00     0.025 C 
ATOM     16  C   UNL     1      -0.427   4.558   5.352  1.00  0.00     0.314 C 
BRANCH   7  17
ATOM     17  C   UNL     1      -1.631   0.303   1.175  1.00  0.00     0.037 C 
BRANCH  17  18
ATOM     18  C   UNL     1      -1.045   1.152   0.030  1.00  0.00     0.008 C 
BRANCH  18  19
ATOM     19  C   UNL     1       0.494   1.250   0.007  1.00  0.00    -0.017 C 
ATOM     20  C   UNL     1       1.154  -0.107  -0.238  1.00  0.00     0.007 C 
ATOM     21  C   UNL     1       0.935   2.245  -1.070  1.00  0.00     0.007 C 
ENDBRANCH  18  19
ENDBRANCH  17  18
ENDBRANCH   7  17
BRANCH  16  22
ATOM     22  C   UNL     1       0.848   5.096   4.671  1.00  0.00     0.429 C 
ATOM     23  F   UNL     1       0.546   6.152   3.874  1.00  0.00    -0.167 F 
ATOM     24  F   UNL     1       1.764   5.540   5.565  1.00  0.00    -0.167 F 
ATOM     25  F   UNL     1       1.467   4.172   3.904  1.00  0.00    -0.167 F 
ENDBRANCH  16  22
ENDBRANCH   3   6
ENDBRANCH   1   2
BRANCH   1  26
ATOM     26  C   UNL     1      -1.257   7.391   7.988  1.00  0.00     0.042 C 
BRANCH  26  27
ATOM     27  C   UNL     1      -1.213   8.031   9.369  1.00  0.00     0.118 C 
BRANCH  27  28
ATOM     28  N   UNL     1      -0.354   9.213   9.401  1.00  0.00    -0.352 N 
ATOM     29  C   UNL     1      -0.669  10.543   9.540  1.00  0.00     0.251 C 
ATOM     30  H   UNL     1       0.608   9.026   9.308  1.00  0.00     0.163 HD
ATOM     31  O   UNL     1       0.179  11.400   9.308  1.00  0.00    -0.269 OA
BRANCH  29  32
ATOM     32  C   UNL     1      -2.030  10.942   9.949  1.00  0.00     0.039 A 
ATOM     33  C   UNL     1      -2.707  10.222  10.931  1.00  0.00     0.014 A 
ATOM     34  C   UNL     1      -2.638  12.048   9.346  1.00  0.00     0.014 A 
ATOM     35  C   UNL     1      -4.052  10.471  11.159  1.00  0.00     0.010 A 
ATOM     36  C   UNL     1      -3.960  12.371   9.665  1.00  0.00     0.010 A 
ATOM     37  C   UNL     1      -4.695  11.551  10.534  1.00  0.00    -0.014 A 
BRANCH  37  38
ATOM     38  C   UNL     1      -6.132  11.794  10.818  1.00  0.00     0.031 A 
ATOM     39  C   UNL     1      -7.162  11.696   9.725  1.00  0.00     0.074 A 
ATOM     40  C   UNL     1      -6.514  12.024  12.090  1.00  0.00     0.049 A 
ATOM     41  N   UNL     1      -8.461  11.836   9.809  1.00  0.00    -0.248 NA
ATOM     42  C   UNL     1      -6.680  11.405   8.365  1.00  0.00     0.031 C 
ATOM     43  C   UNL     1      -5.606  12.114  13.237  1.00  0.00     0.029 A 
ATOM     44  N   UNL     1      -7.760  12.178  12.642  1.00  0.00    -0.354 N 
ATOM     45  C   UNL     1      -8.945  11.676   8.517  1.00  0.00     0.074 A 
ATOM     46  C   UNL     1      -7.803  11.451   7.660  1.00  0.00     0.031 C 
ATOM     47  C   UNL     1      -6.327  12.226  14.360  1.00  0.00     0.029 A 
ATOM     48  C   UNL     1      -7.740  12.303  14.010  1.00  0.00     0.049 A 
ATOM     49  H   UNL     1      -8.587  12.197  12.109  1.00  0.00     0.167 HD
ATOM     50  C   UNL     1     -10.229  11.705   8.088  1.00  0.00     0.031 A 
ATOM     51  C   UNL     1      -8.744  12.474  14.891  1.00  0.00     0.031 A 
ATOM     52  C   UNL     1     -11.363  11.910   8.949  1.00  0.00     0.049 A 
ATOM     53  C   UNL     1     -10.153  12.547  14.382  1.00  0.00     0.074 A 
ATOM     54  C   UNL     1     -12.704  11.943   8.606  1.00  0.00     0.029 A 
ATOM     55  N   UNL     1     -11.293  12.109  10.319  1.00  0.00    -0.354 N 
ATOM     56  N   UNL     1     -10.591  12.402  13.155  1.00  0.00    -0.248 NA
ATOM     57  C   UNL     1     -11.204  12.815  15.372  1.00  0.00     0.031 C 
ATOM     58  C   UNL     1     -13.441  12.219   9.760  1.00  0.00     0.029 A 
ATOM     59  C   UNL     1     -12.566  12.291  10.832  1.00  0.00     0.049 A 
ATOM     60  H   UNL     1     -10.463  12.120  10.848  1.00  0.00     0.167 HD
ATOM     61  C   UNL     1     -11.968  12.554  13.224  1.00  0.00     0.074 A 
ATOM     62  C   UNL     1     -12.296  12.778  14.618  1.00  0.00     0.031 C 
ATOM     63  C   UNL     1     -12.876  12.518  12.220  1.00  0.00     0.031 A 
BRANCH  50  64
ATOM     64  C   UNL     1     -10.492  11.526   6.618  1.00  0.00    -0.014 A 
ATOM     65  C   UNL     1     -10.973  12.607   5.862  1.00  0.00     0.009 A 
ATOM     66  C   UNL     1     -10.363  10.272   6.002  1.00  0.00     0.009 A 
ATOM     67  C   UNL     1     -11.336  12.434   4.525  1.00  0.00     0.001 A 
ATOM     68  C   UNL     1     -10.701  10.108   4.657  1.00  0.00     0.001 A 
ATOM     69  C   UNL     1     -11.197  11.185   3.923  1.00  0.00     0.000 A 
ENDBRANCH  50  64
BRANCH  51  70
ATOM     70  C   UNL     1      -8.430  12.591  16.340  1.00  0.00    -0.014 A 
ATOM     71  C   UNL     1      -7.714  13.699  16.826  1.00  0.00     0.009 A 
ATOM     72  C   UNL     1      -8.785  11.571  17.233  1.00  0.00     0.009 A 
ATOM     73  C   UNL     1      -7.330  13.765  18.166  1.00  0.00     0.001 A 
ATOM     74  C   UNL     1      -8.428  11.656  18.581  1.00  0.00     0.001 A 
ATOM     75  C   UNL     1      -7.691  12.746  19.044  1.00  0.00     0.000 A 
ENDBRANCH  51  70
BRANCH  63  76
ATOM     76  C   UNL     1     -14.321  12.717  12.578  1.00  0.00    -0.014 A 
ATOM     77  C   UNL     1     -15.219  11.643  12.473  1.00  0.00     0.009 A 
ATOM     78  C   UNL     1     -14.813  13.987  12.913  1.00  0.00     0.009 A 
ATOM     79  C   UNL     1     -16.584  11.839  12.681  1.00  0.00     0.001 A 
ATOM     80  C   UNL     1     -16.176  14.175  13.148  1.00  0.00     0.001 A 
ATOM     81  C   UNL     1     -17.061  13.104  13.022  1.00  0.00     0.000 A 
ENDBRANCH  63  76
ENDBRANCH  37  38
ENDBRANCH  29  32
ENDBRANCH  27  28
ENDBRANCH  26  27
ENDBRANCH   1  26
TORSDOF 14
