REMARK SMILES O=C(NCCCNC(=O)c1ccc(C(F)(F)F)nc1NC[C@@H]1CCOC1)c1ccc(-c2c3nc(c(-c4ccccc4)c4ccc([nH]4)c(-c4ccccc4)c4nc(c(-c5ccccc5)c5ccc2[nH]5)C=C4)C=C3)cc1
REMARK SMILES IDX 5 1 4 2 3 3 1 4 2 5 27 7 28 8 74 9 29 10 73 11 30 12 31 13
REMARK SMILES IDX 32 14 67 15 33 16 72 17 66 18 68 19 34 20 71 21 65 22 64 23
REMARK SMILES IDX 35 25 57 26 42 27 56 28 43 29 46 30 55 31 69 32 44 33 45 34
REMARK SMILES IDX 54 36 70 37 47 38 36 39 37 40 41 41 38 42 40 43 39 44 58 45
REMARK SMILES IDX 59 46 63 47 60 48 62 49 61 50 48 51 49 52 53 53 50 54 52 55
REMARK SMILES IDX 51 56 6 57 7 58 8 59 9 61 10 62 11 63 19 64 12 65 18 66
REMARK SMILES IDX 13 67 20 68 21 70 22 71 23 72 26 73 24 74 25 75 14 76 15 77
REMARK SMILES IDX 16 78 17 79
REMARK H PARENT 3 6 68 24 46 35 7 60 20 69
REMARK Flexibility Score: inf
ROOT
ATOM      1  C   UNL     1       4.886  -1.352  -2.036  1.00  0.00     0.042 C 
ENDROOT
BRANCH   1   2
ATOM      2  C   UNL     1       4.537  -0.024  -1.379  1.00  0.00     0.118 C 
BRANCH   2   3
ATOM      3  N   UNL     1       3.108   0.128  -1.131  1.00  0.00    -0.352 N 
ATOM      4  O   UNL     1       1.175   0.099   0.019  1.00  0.00    -0.269 OA
ATOM      5  C   UNL     1       2.403   0.150   0.046  1.00  0.00     0.251 C 
ATOM      6  H   UNL     1       2.559   0.230  -1.942  1.00  0.00     0.163 HD
BRANCH   5   7
ATOM      7  C   UNL     1       3.106   0.214   1.345  1.00  0.00     0.039 A 
ATOM      8  C   UNL     1       4.218   1.039   1.517  1.00  0.00     0.014 A 
ATOM      9  C   UNL     1       2.623  -0.535   2.422  1.00  0.00     0.014 A 
ATOM     10  C   UNL     1       4.943   0.987   2.700  1.00  0.00     0.010 A 
ATOM     11  C   UNL     1       3.291  -0.504   3.650  1.00  0.00     0.010 A 
ATOM     12  C   UNL     1       4.476   0.234   3.789  1.00  0.00    -0.014 A 
BRANCH  12  13
ATOM     13  C   UNL     1       5.208   0.302   5.079  1.00  0.00     0.031 A 
ATOM     14  C   UNL     1       5.861  -0.913   5.675  1.00  0.00     0.074 A 
ATOM     15  C   UNL     1       5.303   1.494   5.701  1.00  0.00     0.049 A 
ATOM     16  N   UNL     1       6.561  -1.011   6.777  1.00  0.00    -0.248 NA
ATOM     17  C   UNL     1       5.705  -2.183   4.949  1.00  0.00     0.031 C 
ATOM     18  C   UNL     1       4.704   2.744   5.224  1.00  0.00     0.029 A 
ATOM     19  N   UNL     1       5.954   1.857   6.851  1.00  0.00    -0.354 N 
ATOM     20  C   UNL     1       6.911  -2.350   6.890  1.00  0.00     0.074 A 
ATOM     21  C   UNL     1       6.326  -3.034   5.756  1.00  0.00     0.031 C 
ATOM     22  C   UNL     1       5.059   3.743   6.043  1.00  0.00     0.029 A 
ATOM     23  C   UNL     1       5.848   3.196   7.139  1.00  0.00     0.049 A 
ATOM     24  H   UNL     1       6.449   1.220   7.415  1.00  0.00     0.167 HD
ATOM     25  C   UNL     1       7.654  -2.953   7.850  1.00  0.00     0.031 A 
ATOM     26  C   UNL     1       6.315   3.907   8.181  1.00  0.00     0.031 A 
ATOM     27  C   UNL     1       8.233  -2.268   8.977  1.00  0.00     0.049 A 
ATOM     28  C   UNL     1       7.106   3.207   9.244  1.00  0.00     0.074 A 
ATOM     29  C   UNL     1       9.033  -2.787   9.982  1.00  0.00     0.029 A 
ATOM     30  N   UNL     1       8.069  -0.919   9.254  1.00  0.00    -0.354 N 
ATOM     31  N   UNL     1       7.461   1.947   9.313  1.00  0.00    -0.248 NA
ATOM     32  C   UNL     1       7.563   4.028  10.373  1.00  0.00     0.031 C 
ATOM     33  C   UNL     1       9.303  -1.765  10.898  1.00  0.00     0.029 A 
ATOM     34  C   UNL     1       8.726  -0.595  10.431  1.00  0.00     0.049 A 
ATOM     35  H   UNL     1       7.561  -0.286   8.697  1.00  0.00     0.167 HD
ATOM     36  C   UNL     1       8.196   1.826  10.483  1.00  0.00     0.074 A 
ATOM     37  C   UNL     1       8.256   3.146  11.079  1.00  0.00     0.031 C 
ATOM     38  C   UNL     1       8.768   0.720  11.017  1.00  0.00     0.031 A 
BRANCH  25  39
ATOM     39  C   UNL     1       7.859  -4.440   7.744  1.00  0.00    -0.014 A 
ATOM     40  C   UNL     1       8.693  -4.998   6.763  1.00  0.00     0.009 A 
ATOM     41  C   UNL     1       7.249  -5.292   8.679  1.00  0.00     0.009 A 
ATOM     42  C   UNL     1       8.887  -6.381   6.702  1.00  0.00     0.001 A 
ATOM     43  C   UNL     1       7.467  -6.670   8.633  1.00  0.00     0.001 A 
ATOM     44  C   UNL     1       8.279  -7.215   7.640  1.00  0.00     0.000 A 
ENDBRANCH  25  39
BRANCH  26  45
ATOM     45  C   UNL     1       6.022   5.361   8.270  1.00  0.00    -0.014 A 
ATOM     46  C   UNL     1       7.043   6.310   8.111  1.00  0.00     0.009 A 
ATOM     47  C   UNL     1       4.709   5.806   8.495  1.00  0.00     0.009 A 
ATOM     48  C   UNL     1       6.757   7.674   8.197  1.00  0.00     0.001 A 
ATOM     49  C   UNL     1       4.421   7.170   8.548  1.00  0.00     0.001 A 
ATOM     50  C   UNL     1       5.447   8.103   8.408  1.00  0.00     0.000 A 
ENDBRANCH  26  45
BRANCH  38  51
ATOM     51  C   UNL     1       9.532   0.899  12.299  1.00  0.00    -0.014 A 
ATOM     52  C   UNL     1       8.872   1.145  13.513  1.00  0.00     0.009 A 
ATOM     53  C   UNL     1      10.931   0.794  12.293  1.00  0.00     0.009 A 
ATOM     54  C   UNL     1       9.603   1.319  14.690  1.00  0.00     0.001 A 
ATOM     55  C   UNL     1      11.657   0.938  13.476  1.00  0.00     0.001 A 
ATOM     56  C   UNL     1      10.993   1.211  14.671  1.00  0.00     0.000 A 
ENDBRANCH  38  51
ENDBRANCH  12  13
ENDBRANCH   5   7
ENDBRANCH   2   3
ENDBRANCH   1   2
BRANCH   1  57
ATOM     57  C   UNL     1       4.271  -1.539  -3.416  1.00  0.00     0.118 C 
BRANCH  57  58
ATOM     58  N   UNL     1       4.722  -0.530  -4.363  1.00  0.00    -0.352 N 
ATOM     59  C   UNL     1       5.662  -0.614  -5.360  1.00  0.00     0.255 C 
ATOM     60  H   UNL     1       4.287   0.349  -4.274  1.00  0.00     0.163 HD
ATOM     61  O   UNL     1       6.077   0.416  -5.887  1.00  0.00    -0.269 OA
BRANCH  59  62
ATOM     62  C   UNL     1       6.185  -1.924  -5.796  1.00  0.00     0.082 A 
ATOM     63  C   UNL     1       5.294  -2.957  -6.100  1.00  0.00     0.020 A 
ATOM     64  C   UNL     1       7.562  -2.119  -5.971  1.00  0.00     0.139 A 
ATOM     65  C   UNL     1       5.792  -4.202  -6.452  1.00  0.00     0.034 A 
ATOM     66  N   UNL     1       8.042  -3.337  -6.315  1.00  0.00    -0.226 NA
ATOM     67  C   UNL     1       7.172  -4.373  -6.528  1.00  0.00     0.146 A 
BRANCH  64  68
ATOM     68  N   UNL     1       8.455  -1.095  -5.714  1.00  0.00    -0.369 N 
ATOM     69  H   UNL     1       8.094  -0.247  -5.367  1.00  0.00     0.162 HD
BRANCH  68  70
ATOM     70  C   UNL     1       9.887  -1.186  -5.920  1.00  0.00     0.120 C 
BRANCH  70  71
ATOM     71  C   UNL     1      10.330  -0.400  -7.167  1.00  0.00     0.036 C 
ATOM     72  C   UNL     1      11.843  -0.416  -7.319  1.00  0.00     0.036 C 
ATOM     73  C   UNL     1      10.092   1.101  -7.055  1.00  0.00     0.165 C 
ATOM     74  C   UNL     1      12.292   0.712  -6.410  1.00  0.00     0.160 C 
ATOM     75  O   UNL     1      11.211   1.650  -6.343  1.00  0.00    -0.381 OA
ENDBRANCH  70  71
ENDBRANCH  68  70
ENDBRANCH  64  68
BRANCH  67  76
ATOM     76  C   UNL     1       7.733  -5.752  -6.854  1.00  0.00     0.433 C 
ATOM     77  F   UNL     1       8.325  -5.814  -8.080  1.00  0.00    -0.165 F 
ATOM     78  F   UNL     1       8.666  -6.181  -5.956  1.00  0.00    -0.165 F 
ATOM     79  F   UNL     1       6.774  -6.728  -6.865  1.00  0.00    -0.165 F 
ENDBRANCH  67  76
ENDBRANCH  59  62
ENDBRANCH  57  58
ENDBRANCH   1  57
TORSDOF 14
