REMARK SMILES O=C(NCCCNC(=O)c1nnn(-c2cccc(C(F)(F)F)c2)c1[C@H]1COc2ccccc2O1)c1ccc(-c2c3nc(c(-c4ccccc4)c4ccc([nH]4)c(-c4ccccc4)c4nc(c(-c5ccccc5)c5ccc2[nH]5)C=C4)C=C3)cc1
REMARK SMILES IDX 5 1 4 2 3 3 1 4 2 5 35 7 36 8 82 9 37 10 81 11 38 12 39 13
REMARK SMILES IDX 40 14 75 15 41 16 80 17 74 18 76 19 42 20 79 21 73 22 72 23
REMARK SMILES IDX 43 25 65 26 50 27 64 28 51 29 54 30 63 31 77 32 52 33 53 34
REMARK SMILES IDX 62 36 78 37 55 38 44 39 45 40 49 41 46 42 48 43 47 44 66 45
REMARK SMILES IDX 67 46 71 47 68 48 70 49 69 50 56 51 57 52 61 53 58 54 60 55
REMARK SMILES IDX 59 56 6 57 7 58 8 59 9 61 10 62 11 63 24 64 12 65 13 66
REMARK SMILES IDX 25 67 26 68 34 69 27 70 33 71 28 72 32 73 29 74 31 75 30 76
REMARK SMILES IDX 14 77 15 78 23 79 16 80 18 81 17 82 19 83 20 84 21 85 22 86
REMARK H PARENT 3 6 76 24 54 35 7 60
REMARK Flexibility Score: inf
ROOT
ATOM      1  C   UNL     1       6.436   1.738  -3.786  1.00  0.00     0.042 C 
ENDROOT
BRANCH   1   2
ATOM      2  C   UNL     1       6.350   1.232  -5.224  1.00  0.00     0.118 C 
BRANCH   2   3
ATOM      3  N   UNL     1       6.268   2.260  -6.245  1.00  0.00    -0.352 N 
ATOM      4  O   UNL     1       6.635   3.089  -8.262  1.00  0.00    -0.269 OA
ATOM      5  C   UNL     1       7.140   2.694  -7.207  1.00  0.00     0.251 C 
ATOM      6  H   UNL     1       5.411   2.745  -6.244  1.00  0.00     0.163 HD
BRANCH   5   7
ATOM      7  C   UNL     1       8.614   2.838  -7.036  1.00  0.00     0.039 A 
ATOM      8  C   UNL     1       9.365   2.405  -5.945  1.00  0.00     0.014 A 
ATOM      9  C   UNL     1       9.270   3.572  -8.049  1.00  0.00     0.014 A 
ATOM     10  C   UNL     1      10.718   2.754  -5.842  1.00  0.00     0.010 A 
ATOM     11  C   UNL     1      10.613   3.925  -7.948  1.00  0.00     0.010 A 
ATOM     12  C   UNL     1      11.335   3.544  -6.825  1.00  0.00    -0.014 A 
BRANCH  12  13
ATOM     13  C   UNL     1      12.773   3.818  -6.727  1.00  0.00     0.031 A 
ATOM     14  C   UNL     1      13.640   2.606  -6.798  1.00  0.00     0.074 A 
ATOM     15  C   UNL     1      13.344   5.044  -6.731  1.00  0.00     0.049 A 
ATOM     16  N   UNL     1      14.428   2.139  -5.885  1.00  0.00    -0.248 NA
ATOM     17  C   UNL     1      13.555   1.766  -8.002  1.00  0.00     0.031 C 
ATOM     18  C   UNL     1      12.713   6.345  -6.966  1.00  0.00     0.029 A 
ATOM     19  N   UNL     1      14.667   5.370  -6.607  1.00  0.00    -0.354 N 
ATOM     20  C   UNL     1      15.059   1.028  -6.444  1.00  0.00     0.074 A 
ATOM     21  C   UNL     1      14.405   0.781  -7.704  1.00  0.00     0.031 C 
ATOM     22  C   UNL     1      13.670   7.279  -7.183  1.00  0.00     0.029 A 
ATOM     23  C   UNL     1      14.976   6.681  -6.956  1.00  0.00     0.049 A 
ATOM     24  H   UNL     1      15.346   4.729  -6.297  1.00  0.00     0.167 HD
ATOM     25  C   UNL     1      16.197   0.501  -5.913  1.00  0.00     0.031 A 
ATOM     26  C   UNL     1      16.214   7.227  -7.079  1.00  0.00     0.031 A 
ATOM     27  C   UNL     1      16.428   0.960  -4.570  1.00  0.00     0.049 A 
ATOM     28  C   UNL     1      17.158   6.374  -6.326  1.00  0.00     0.074 A 
ATOM     29  C   UNL     1      15.751   0.858  -3.373  1.00  0.00     0.029 A 
ATOM     30  N   UNL     1      17.348   1.964  -4.398  1.00  0.00    -0.354 N 
ATOM     31  N   UNL     1      17.157   6.269  -5.030  1.00  0.00    -0.248 NA
ATOM     32  C   UNL     1      17.845   5.314  -7.044  1.00  0.00     0.031 C 
ATOM     33  C   UNL     1      15.948   2.118  -2.737  1.00  0.00     0.029 A 
ATOM     34  C   UNL     1      16.784   2.881  -3.553  1.00  0.00     0.049 A 
ATOM     35  H   UNL     1      18.243   2.014  -4.805  1.00  0.00     0.167 HD
ATOM     36  C   UNL     1      17.440   4.934  -4.790  1.00  0.00     0.074 A 
ATOM     37  C   UNL     1      17.951   4.419  -6.059  1.00  0.00     0.031 C 
ATOM     38  C   UNL     1      16.976   4.308  -3.670  1.00  0.00     0.031 A 
BRANCH  25  39
ATOM     39  C   UNL     1      17.301  -0.122  -6.730  1.00  0.00    -0.014 A 
ATOM     40  C   UNL     1      18.418  -0.659  -6.061  1.00  0.00     0.009 A 
ATOM     41  C   UNL     1      17.426   0.067  -8.118  1.00  0.00     0.009 A 
ATOM     42  C   UNL     1      19.621  -0.910  -6.732  1.00  0.00     0.001 A 
ATOM     43  C   UNL     1      18.613  -0.221  -8.799  1.00  0.00     0.001 A 
ATOM     44  C   UNL     1      19.721  -0.680  -8.100  1.00  0.00     0.000 A 
ENDBRANCH  25  39
BRANCH  26  45
ATOM     45  C   UNL     1      16.704   8.272  -8.007  1.00  0.00    -0.014 A 
ATOM     46  C   UNL     1      17.915   8.947  -7.766  1.00  0.00     0.009 A 
ATOM     47  C   UNL     1      16.138   8.388  -9.288  1.00  0.00     0.009 A 
ATOM     48  C   UNL     1      18.552   9.675  -8.782  1.00  0.00     0.001 A 
ATOM     49  C   UNL     1      16.775   9.114 -10.303  1.00  0.00     0.001 A 
ATOM     50  C   UNL     1      17.990   9.745 -10.054  1.00  0.00     0.000 A 
ENDBRANCH  26  45
BRANCH  38  51
ATOM     51  C   UNL     1      16.364   5.151  -2.580  1.00  0.00    -0.014 A 
ATOM     52  C   UNL     1      15.208   5.929  -2.767  1.00  0.00     0.009 A 
ATOM     53  C   UNL     1      16.871   5.010  -1.280  1.00  0.00     0.009 A 
ATOM     54  C   UNL     1      14.589   6.559  -1.681  1.00  0.00     0.001 A 
ATOM     55  C   UNL     1      16.241   5.621  -0.195  1.00  0.00     0.001 A 
ATOM     56  C   UNL     1      15.102   6.397  -0.396  1.00  0.00     0.000 A 
ENDBRANCH  38  51
ENDBRANCH  12  13
ENDBRANCH   5   7
ENDBRANCH   2   3
ENDBRANCH   1   2
BRANCH   1  57
ATOM     57  C   UNL     1       5.385   2.761  -3.377  1.00  0.00     0.118 C 
BRANCH  57  58
ATOM     58  N   UNL     1       4.027   2.282  -3.266  1.00  0.00    -0.351 N 
ATOM     59  C   UNL     1       3.030   2.761  -2.429  1.00  0.00     0.273 C 
ATOM     60  H   UNL     1       3.780   1.529  -3.851  1.00  0.00     0.163 HD
ATOM     61  O   UNL     1       1.904   2.300  -2.530  1.00  0.00    -0.267 OA
BRANCH  59  62
ATOM     62  C   UNL     1       3.371   3.772  -1.426  1.00  0.00     0.178 A 
ATOM     63  N   UNL     1       3.475   3.438  -0.099  1.00  0.00    -0.124 NA
ATOM     64  C   UNL     1       3.673   5.123  -1.579  1.00  0.00     0.122 A 
ATOM     65  N   UNL     1       3.884   4.506   0.567  1.00  0.00    -0.061 NA
ATOM     66  N   UNL     1       3.878   5.559  -0.277  1.00  0.00    -0.213 N 
BRANCH  64  67
ATOM     67  C   UNL     1       3.905   5.970  -2.795  1.00  0.00     0.262 C 
ATOM     68  C   UNL     1       5.409   6.208  -3.034  1.00  0.00     0.281 C 
ATOM     69  O   UNL     1       3.247   5.289  -3.861  1.00  0.00    -0.477 OA
ATOM     70  O   UNL     1       5.691   6.797  -4.302  1.00  0.00    -0.485 OA
ATOM     71  C   UNL     1       3.788   5.511  -5.091  1.00  0.00     0.162 A 
ATOM     72  C   UNL     1       4.982   6.197  -5.304  1.00  0.00     0.161 A 
ATOM     73  C   UNL     1       3.101   4.939  -6.159  1.00  0.00     0.050 A 
ATOM     74  C   UNL     1       5.504   6.291  -6.591  1.00  0.00     0.050 A 
ATOM     75  C   UNL     1       3.622   5.032  -7.447  1.00  0.00     0.004 A 
ATOM     76  C   UNL     1       4.828   5.699  -7.660  1.00  0.00     0.004 A 
ENDBRANCH  64  67
BRANCH  66  77
ATOM     77  C   UNL     1       4.206   6.857   0.175  1.00  0.00     0.067 A 
ATOM     78  C   UNL     1       5.221   7.018   1.124  1.00  0.00     0.028 A 
ATOM     79  C   UNL     1       3.572   7.978  -0.373  1.00  0.00     0.041 A 
ATOM     80  C   UNL     1       5.671   8.301   1.435  1.00  0.00     0.003 A 
ATOM     81  C   UNL     1       4.018   9.271  -0.064  1.00  0.00     0.058 A 
ATOM     82  C   UNL     1       5.087   9.419   0.831  1.00  0.00     0.013 A 
BRANCH  81  83
ATOM     83  C   UNL     1       3.375  10.480  -0.702  1.00  0.00     0.416 C 
ATOM     84  F   UNL     1       2.866  11.349   0.211  1.00  0.00    -0.166 F 
ATOM     85  F   UNL     1       4.255  11.192  -1.458  1.00  0.00    -0.166 F 
ATOM     86  F   UNL     1       2.345  10.162  -1.534  1.00  0.00    -0.166 F 
ENDBRANCH  81  83
ENDBRANCH  66  77
ENDBRANCH  59  62
ENDBRANCH  57  58
ENDBRANCH   1  57
TORSDOF 13
