REMARK SMILES CCN(CC(=O)NC(C)C)C(=O)N[C@H]1C=C[C@H](C(=O)NCCCNC(=O)c2ccc(-c3c4nc(c(-c5ccccc5)c5ccc([nH]5)c(-c5ccccc5)c5nc(c(-c6ccccc6)c6ccc3[nH]6)C=C5)C=C4)cc2)C1
REMARK SMILES IDX 18 1 19 2 20 3 17 5 14 6 15 7 75 8 16 9 13 10 11 11 12 12
REMARK SMILES IDX 3 14 2 15 1 16 4 17 5 18 6 19 7 20 8 22 9 23 10 24 21 25
REMARK SMILES IDX 22 26 23 27 24 28 25 29 26 31 27 32 28 33 74 34 29 35 73 36
REMARK SMILES IDX 30 37 31 38 32 39 67 40 33 41 72 42 66 43 68 44 34 45 71 46
REMARK SMILES IDX 65 47 64 48 35 50 57 51 42 52 56 53 43 54 46 55 55 56 69 57
REMARK SMILES IDX 44 58 45 59 54 61 70 62 47 63 36 64 37 65 41 66 38 67 40 68
REMARK SMILES IDX 39 69 58 70 59 71 63 72 60 73 62 74 61 75 48 76 49 77 53 78
REMARK SMILES IDX 50 79 52 80 51 81
REMARK H PARENT 20 4 13 13 7 21 24 30 68 49 46 60
REMARK Flexibility Score: inf
ROOT
ATOM      1  C   UNL     1       0.905   6.576   4.411  1.00  0.00     0.227 C 
ATOM      2  O   UNL     1      -0.104   5.957   4.068  1.00  0.00    -0.274 OA
ATOM      3  N   UNL     1       0.728   7.857   4.836  1.00  0.00    -0.356 N 
ATOM      4  H   UNL     1      -0.199   8.104   5.056  1.00  0.00     0.163 HD
ENDROOT
BRANCH   1   5
ATOM      5  C   UNL     1       2.307   5.955   4.399  1.00  0.00     0.103 C 
ATOM      6  C   UNL     1       1.933   3.682   3.665  1.00  0.00     0.107 C 
ATOM      7  C   UNL     1       2.253   3.720   5.126  1.00  0.00    -0.006 C 
ATOM      8  C   UNL     1       2.490   5.027   3.190  1.00  0.00     0.047 C 
ATOM      9  C   UNL     1       2.439   4.981   5.541  1.00  0.00    -0.016 C 
BRANCH   6  10
ATOM     10  N   UNL     1       2.575   2.545   3.061  1.00  0.00    -0.332 N 
ATOM     11  C   UNL     1       2.186   1.417   2.447  1.00  0.00     0.318 C 
ATOM     12  O   UNL     1       3.116   0.700   2.056  1.00  0.00    -0.249 OA
ATOM     13  H   UNL     1       3.556   2.612   3.111  1.00  0.00     0.165 HD
BRANCH  11  14
ATOM     14  N   UNL     1       0.881   1.053   2.247  1.00  0.00    -0.316 N 
BRANCH  14  15
ATOM     15  C   UNL     1       0.660  -0.115   1.383  1.00  0.00     0.118 C 
ATOM     16  C   UNL     1       0.981   0.148  -0.083  1.00  0.00     0.027 C 
ENDBRANCH  14  15
BRANCH  14  17
ATOM     17  C   UNL     1      -0.328   1.750   2.713  1.00  0.00     0.221 C 
BRANCH  17  18
ATOM     18  C   UNL     1      -0.526   1.790   4.243  1.00  0.00     0.239 C 
ATOM     19  O   UNL     1      -1.029   2.768   4.802  1.00  0.00    -0.273 OA
ATOM     20  N   UNL     1      -0.279   0.698   5.020  1.00  0.00    -0.352 N 
ATOM     21  H   UNL     1       0.050   0.870   5.931  1.00  0.00     0.163 HD
BRANCH  20  22
ATOM     22  C   UNL     1      -0.451  -0.692   4.642  1.00  0.00     0.075 C 
ATOM     23  C   UNL     1       0.778  -1.514   4.997  1.00  0.00     0.030 C 
ATOM     24  C   UNL     1      -1.706  -1.229   5.328  1.00  0.00     0.030 C 
ENDBRANCH  20  22
ENDBRANCH  17  18
ENDBRANCH  14  17
ENDBRANCH  11  14
ENDBRANCH   6  10
ENDBRANCH   1   5
BRANCH   3  25
ATOM     25  C   UNL     1       1.709   8.906   5.011  1.00  0.00     0.117 C 
BRANCH  25  26
ATOM     26  C   UNL     1       1.803   9.772   3.757  1.00  0.00     0.042 C 
BRANCH  26  27
ATOM     27  C   UNL     1       0.541  10.591   3.486  1.00  0.00     0.118 C 
BRANCH  27  28
ATOM     28  N   UNL     1       0.260  11.544   4.553  1.00  0.00    -0.352 N 
ATOM     29  C   UNL     1       0.249  12.913   4.542  1.00  0.00     0.251 C 
ATOM     30  H   UNL     1       0.043  11.137   5.423  1.00  0.00     0.163 HD
ATOM     31  O   UNL     1       0.217  13.528   5.609  1.00  0.00    -0.269 OA
BRANCH  29  32
ATOM     32  C   UNL     1       0.285  13.661   3.269  1.00  0.00     0.039 A 
ATOM     33  C   UNL     1       1.065  14.818   3.187  1.00  0.00     0.014 A 
ATOM     34  C   UNL     1      -0.476  13.252   2.171  1.00  0.00     0.014 A 
ATOM     35  C   UNL     1       1.132  15.527   1.986  1.00  0.00     0.010 A 
ATOM     36  C   UNL     1      -0.346  13.913   0.952  1.00  0.00     0.010 A 
ATOM     37  C   UNL     1       0.456  15.059   0.848  1.00  0.00    -0.014 A 
BRANCH  37  38
ATOM     38  C   UNL     1       0.586  15.748  -0.461  1.00  0.00     0.031 A 
ATOM     39  C   UNL     1      -0.617  16.366  -1.120  1.00  0.00     0.074 A 
ATOM     40  C   UNL     1       1.778  15.759  -1.090  1.00  0.00     0.049 A 
ATOM     41  N   UNL     1      -0.708  16.954  -2.286  1.00  0.00    -0.248 NA
ATOM     42  C   UNL     1      -1.889  16.293  -0.383  1.00  0.00     0.031 C 
ATOM     43  C   UNL     1       3.013  15.162  -0.577  1.00  0.00     0.029 A 
ATOM     44  N   UNL     1       2.143  16.285  -2.303  1.00  0.00    -0.354 N 
ATOM     45  C   UNL     1      -2.045  17.303  -2.430  1.00  0.00     0.074 A 
ATOM     46  C   UNL     1      -2.737  16.818  -1.256  1.00  0.00     0.031 C 
ATOM     47  C   UNL     1       4.004  15.379  -1.455  1.00  0.00     0.029 A 
ATOM     48  C   UNL     1       3.467  16.087  -2.612  1.00  0.00     0.049 A 
ATOM     49  H   UNL     1       1.517  16.760  -2.896  1.00  0.00     0.167 HD
ATOM     50  C   UNL     1      -2.642  17.980  -3.440  1.00  0.00     0.031 A 
ATOM     51  C   UNL     1       4.170  16.428  -3.709  1.00  0.00     0.031 A 
ATOM     52  C   UNL     1      -1.952  18.467  -4.606  1.00  0.00     0.049 A 
ATOM     53  C   UNL     1       3.480  17.160  -4.826  1.00  0.00     0.074 A 
ATOM     54  C   UNL     1      -2.457  19.215  -5.655  1.00  0.00     0.029 A 
ATOM     55  N   UNL     1      -0.611  18.248  -4.879  1.00  0.00    -0.354 N 
ATOM     56  N   UNL     1       2.231  17.546  -4.913  1.00  0.00    -0.248 NA
ATOM     57  C   UNL     1       4.303  17.512  -5.992  1.00  0.00     0.031 C 
ATOM     58  C   UNL     1      -1.435  19.396  -6.593  1.00  0.00     0.029 A 
ATOM     59  C   UNL     1      -0.278  18.820  -6.096  1.00  0.00     0.049 A 
ATOM     60  H   UNL     1       0.012  17.759  -4.295  1.00  0.00     0.167 HD
ATOM     61  C   UNL     1       2.124  18.212  -6.127  1.00  0.00     0.074 A 
ATOM     62  C   UNL     1       3.439  18.191  -6.733  1.00  0.00     0.031 C 
ATOM     63  C   UNL     1       1.034  18.790  -6.689  1.00  0.00     0.031 A 
BRANCH  50  64
ATOM     64  C   UNL     1      -4.122  18.224  -3.333  1.00  0.00    -0.014 A 
ATOM     65  C   UNL     1      -4.651  19.105  -2.374  1.00  0.00     0.009 A 
ATOM     66  C   UNL     1      -5.000  17.592  -4.228  1.00  0.00     0.009 A 
ATOM     67  C   UNL     1      -6.029  19.316  -2.290  1.00  0.00     0.001 A 
ATOM     68  C   UNL     1      -6.374  17.830  -4.162  1.00  0.00     0.001 A 
ATOM     69  C   UNL     1      -6.888  18.682  -3.186  1.00  0.00     0.000 A 
ENDBRANCH  50  64
BRANCH  51  70
ATOM     70  C   UNL     1       5.614  16.086  -3.803  1.00  0.00    -0.014 A 
ATOM     71  C   UNL     1       6.590  17.093  -3.757  1.00  0.00     0.009 A 
ATOM     72  C   UNL     1       6.025  14.751  -3.946  1.00  0.00     0.009 A 
ATOM     73  C   UNL     1       7.944  16.774  -3.882  1.00  0.00     0.001 A 
ATOM     74  C   UNL     1       7.381  14.431  -4.038  1.00  0.00     0.001 A 
ATOM     75  C   UNL     1       8.339  15.443  -4.017  1.00  0.00     0.000 A 
ENDBRANCH  51  70
BRANCH  63  76
ATOM     76  C   UNL     1       1.225  19.481  -8.010  1.00  0.00    -0.014 A 
ATOM     77  C   UNL     1       1.453  18.756  -9.190  1.00  0.00     0.009 A 
ATOM     78  C   UNL     1       1.135  20.880  -8.079  1.00  0.00     0.009 A 
ATOM     79  C   UNL     1       1.622  19.422 -10.406  1.00  0.00     0.001 A 
ATOM     80  C   UNL     1       1.272  21.541  -9.301  1.00  0.00     0.001 A 
ATOM     81  C   UNL     1       1.525  20.812 -10.461  1.00  0.00     0.000 A 
ENDBRANCH  63  76
ENDBRANCH  37  38
ENDBRANCH  29  32
ENDBRANCH  27  28
ENDBRANCH  26  27
ENDBRANCH  25  26
ENDBRANCH   3  25
TORSDOF 16
