REMARK SMILES CO[C@@H]1C[NH2+][C@@H](O[C@@H]2C[C@@H](C(=O)NCCCNC(=O)c3ccc(-c4c5nc(c(-c6ccccc6)c6ccc([nH]6)c(-c6ccccc6)c6nc(c(-c7ccccc7)c7ccc4[nH]7)C=C6)C=C5)cc3)N(C(=O)OC(C)(C)C)C2)c2cc(Cl)ccc21
REMARK SMILES IDX 14 1 13 2 11 3 12 4 10 6 8 7 9 8 76 9 68 10 7 11 6 12 3 13
REMARK SMILES IDX 4 14 83 15 5 16 77 17 82 18 78 21 81 22 79 23 80 24 2 25
REMARK SMILES IDX 1 26 69 27 70 28 71 29 72 30 73 31 74 32 75 33 15 34 16 35
REMARK SMILES IDX 17 36 18 37 19 39 20 40 21 41 67 42 22 43 66 44 23 45 24 46
REMARK SMILES IDX 25 47 60 48 26 49 65 50 59 51 61 52 27 53 64 54 58 55 57 56
REMARK SMILES IDX 28 58 50 59 35 60 49 61 36 62 39 63 48 64 62 65 37 66 38 67
REMARK SMILES IDX 47 69 63 70 40 71 29 72 30 73 34 74 31 75 33 76 32 77 51 78
REMARK SMILES IDX 52 79 56 80 53 81 55 82 54 83 41 84 42 85 46 86 43 87 45 88
REMARK SMILES IDX 44 89
REMARK H PARENT 13 5 5 19 5 20 17 38 61 57 39 68
REMARK Flexibility Score: inf
ROOT
ATOM      1  C   UNL     1       1.054   3.834   1.113  1.00  0.00     0.117 C 
ENDROOT
BRANCH   1   2
ATOM      2  N   UNL     1       1.742   4.176   2.378  1.00  0.00    -0.354 N 
ATOM      3  C   UNL     1       2.390   3.406   3.345  1.00  0.00     0.243 C 
ATOM      4  O   UNL     1       3.268   3.957   4.013  1.00  0.00    -0.273 OA
ATOM      5  H   UNL     1       1.743   5.140   2.577  1.00  0.00     0.163 HD
BRANCH   3   6
ATOM      6  C   UNL     1       2.010   1.915   3.578  1.00  0.00     0.180 C 
ATOM      7  C   UNL     1       1.659   0.044   5.150  1.00  0.00     0.147 C 
ATOM      8  C   UNL     1       1.555   1.580   5.017  1.00  0.00     0.069 C 
ATOM      9  C   UNL     1       2.798  -0.306   4.189  1.00  0.00     0.156 C 
ATOM     10  N   UNL     1       2.925   0.817   3.260  1.00  0.00    -0.293 N 
BRANCH   7  11
ATOM     11  O   UNL     1       0.562  -0.871   5.209  1.00  0.00    -0.320 OA
BRANCH  11  12
ATOM     12  C   UNL     1      -0.646  -1.004   4.463  1.00  0.00     0.354 C 
ATOM     13  C   UNL     1      -0.436   0.348   1.890  1.00  0.00     0.203 C 
ATOM     14  C   UNL     1       0.025  -1.116   2.126  1.00  0.00     0.300 C 
ATOM     15  C   UNL     1      -1.132   0.994   3.101  1.00  0.00    -0.002 A 
ATOM     16  N   UNL     1      -0.537  -1.814   3.268  1.00  0.00    -0.315 N 
ATOM     17  C   UNL     1      -1.409   0.266   4.248  1.00  0.00     0.046 A 
ATOM     18  C   UNL     1      -1.297   2.365   3.269  1.00  0.00     0.009 A 
ATOM     19  H   UNL     1       0.059  -2.615   3.478  1.00  0.00     0.349 HD
ATOM     20  H   UNL     1      -1.486  -2.084   3.009  1.00  0.00     0.349 HD
ATOM     21  C   UNL     1      -2.203   0.806   5.290  1.00  0.00     0.033 A 
ATOM     22  C   UNL     1      -1.971   2.969   4.337  1.00  0.00     0.021 A 
ATOM     23  C   UNL     1      -2.516   2.159   5.307  1.00  0.00     0.041 A 
ATOM     24  Cl  UNL     1      -3.406   2.845   6.603  1.00  0.00    -0.084 Cl
BRANCH  13  25
ATOM     25  O   UNL     1      -1.153   0.541   0.660  1.00  0.00    -0.371 OA
ATOM     26  C   UNL     1      -0.335   0.262  -0.488  1.00  0.00     0.196 C 
ENDBRANCH  13  25
ENDBRANCH  11  12
ENDBRANCH   7  11
BRANCH  10  27
ATOM     27  C   UNL     1       3.612   0.648   2.080  1.00  0.00     0.411 C 
ATOM     28  O   UNL     1       4.194  -0.381   1.787  1.00  0.00    -0.224 OA
BRANCH  27  29
ATOM     29  O   UNL     1       3.569   1.762   1.305  1.00  0.00    -0.444 OA
BRANCH  29  30
ATOM     30  C   UNL     1       4.437   1.885   0.147  1.00  0.00     0.106 C 
ATOM     31  C   UNL     1       5.912   1.726   0.531  1.00  0.00     0.056 C 
ATOM     32  C   UNL     1       4.019   0.927  -0.972  1.00  0.00     0.056 C 
ATOM     33  C   UNL     1       4.237   3.324  -0.349  1.00  0.00     0.056 C 
ENDBRANCH  29  30
ENDBRANCH  27  29
ENDBRANCH  10  27
ENDBRANCH   3   6
ENDBRANCH   1   2
BRANCH   1  34
ATOM     34  C   UNL     1      -0.334   4.446   0.810  1.00  0.00     0.042 C 
BRANCH  34  35
ATOM     35  C   UNL     1      -0.410   5.958   0.854  1.00  0.00     0.118 C 
BRANCH  35  36
ATOM     36  N   UNL     1      -0.508   6.493  -0.491  1.00  0.00    -0.352 N 
ATOM     37  C   UNL     1      -1.570   7.115  -1.104  1.00  0.00     0.251 C 
ATOM     38  H   UNL     1       0.301   6.397  -1.043  1.00  0.00     0.163 HD
ATOM     39  O   UNL     1      -1.607   7.164  -2.330  1.00  0.00    -0.269 OA
BRANCH  37  40
ATOM     40  C   UNL     1      -2.663   7.726  -0.305  1.00  0.00     0.039 A 
ATOM     41  C   UNL     1      -2.415   8.300   0.943  1.00  0.00     0.014 A 
ATOM     42  C   UNL     1      -3.957   7.778  -0.837  1.00  0.00     0.014 A 
ATOM     43  C   UNL     1      -3.468   8.774   1.718  1.00  0.00     0.010 A 
ATOM     44  C   UNL     1      -4.997   8.363  -0.103  1.00  0.00     0.010 A 
ATOM     45  C   UNL     1      -4.770   8.834   1.199  1.00  0.00    -0.014 A 
BRANCH  45  46
ATOM     46  C   UNL     1      -5.860   9.416   2.032  1.00  0.00     0.031 A 
ATOM     47  C   UNL     1      -7.053   8.589   2.431  1.00  0.00     0.074 A 
ATOM     48  C   UNL     1      -5.742  10.683   2.480  1.00  0.00     0.049 A 
ATOM     49  N   UNL     1      -8.073   8.929   3.180  1.00  0.00    -0.248 NA
ATOM     50  C   UNL     1      -7.119   7.208   1.926  1.00  0.00     0.031 C 
ATOM     51  C   UNL     1      -4.625  11.581   2.177  1.00  0.00     0.029 A 
ATOM     52  N   UNL     1      -6.543  11.426   3.313  1.00  0.00    -0.354 N 
ATOM     53  C   UNL     1      -8.903   7.815   3.221  1.00  0.00     0.074 A 
ATOM     54  C   UNL     1      -8.293   6.802   2.390  1.00  0.00     0.031 C 
ATOM     55  C   UNL     1      -4.772  12.718   2.871  1.00  0.00     0.029 A 
ATOM     56  C   UNL     1      -6.035  12.672   3.599  1.00  0.00     0.049 A 
ATOM     57  H   UNL     1      -7.400  11.098   3.671  1.00  0.00     0.167 HD
ATOM     58  C   UNL     1     -10.060   7.647   3.904  1.00  0.00     0.031 A 
ATOM     59  C   UNL     1      -6.527  13.676   4.351  1.00  0.00     0.031 A 
ATOM     60  C   UNL     1     -10.655   8.655   4.744  1.00  0.00     0.049 A 
ATOM     61  C   UNL     1      -7.841  13.484   5.054  1.00  0.00     0.074 A 
ATOM     62  C   UNL     1     -11.816   8.568   5.491  1.00  0.00     0.029 A 
ATOM     63  N   UNL     1     -10.138   9.925   4.952  1.00  0.00    -0.354 N 
ATOM     64  N   UNL     1      -8.602  12.417   5.094  1.00  0.00    -0.248 NA
ATOM     65  C   UNL     1      -8.364  14.626   5.816  1.00  0.00     0.031 C 
ATOM     66  C   UNL     1     -12.044   9.808   6.087  1.00  0.00     0.029 A 
ATOM     67  C   UNL     1     -10.976  10.640   5.790  1.00  0.00     0.049 A 
ATOM     68  H   UNL     1      -9.301  10.266   4.562  1.00  0.00     0.167 HD
ATOM     69  C   UNL     1      -9.680  12.750   5.903  1.00  0.00     0.074 A 
ATOM     70  C   UNL     1      -9.465  14.111   6.349  1.00  0.00     0.031 C 
ATOM     71  C   UNL     1     -10.751  11.991   6.240  1.00  0.00     0.031 A 
BRANCH  58  72
ATOM     72  C   UNL     1     -10.781   6.330   3.780  1.00  0.00    -0.014 A 
ATOM     73  C   UNL     1     -12.054   6.286   3.186  1.00  0.00     0.009 A 
ATOM     74  C   UNL     1     -10.261   5.157   4.350  1.00  0.00     0.009 A 
ATOM     75  C   UNL     1     -12.799   5.105   3.185  1.00  0.00     0.001 A 
ATOM     76  C   UNL     1     -10.994   3.968   4.316  1.00  0.00     0.001 A 
ATOM     77  C   UNL     1     -12.267   3.946   3.746  1.00  0.00     0.000 A 
ENDBRANCH  58  72
BRANCH  59  78
ATOM     78  C   UNL     1      -5.754  14.944   4.475  1.00  0.00    -0.014 A 
ATOM     79  C   UNL     1      -5.521  15.753   3.349  1.00  0.00     0.009 A 
ATOM     80  C   UNL     1      -5.189  15.323   5.702  1.00  0.00     0.009 A 
ATOM     81  C   UNL     1      -4.710  16.886   3.438  1.00  0.00     0.001 A 
ATOM     82  C   UNL     1      -4.411  16.480   5.797  1.00  0.00     0.001 A 
ATOM     83  C   UNL     1      -4.160  17.252   4.664  1.00  0.00     0.000 A 
ENDBRANCH  59  78
BRANCH  71  84
ATOM     84  C   UNL     1     -11.783  12.585   7.161  1.00  0.00    -0.014 A 
ATOM     85  C   UNL     1     -11.979  12.025   8.435  1.00  0.00     0.009 A 
ATOM     86  C   UNL     1     -12.649  13.600   6.727  1.00  0.00     0.009 A 
ATOM     87  C   UNL     1     -13.037  12.445   9.242  1.00  0.00     0.001 A 
ATOM     88  C   UNL     1     -13.685  14.044   7.551  1.00  0.00     0.001 A 
ATOM     89  C   UNL     1     -13.887  13.457   8.800  1.00  0.00     0.000 A 
ENDBRANCH  71  84
ENDBRANCH  45  46
ENDBRANCH  37  40
ENDBRANCH  35  36
ENDBRANCH  34  35
ENDBRANCH   1  34
TORSDOF 16
