REMARK SMILES C/C=C/C=C/C=C/C(=O)O[C@H]1C=C(C=O)[C@](O)(C(=O)NCCCNC(=O)c2ccc(-c3c4nc(c(-c5ccccc5)c5ccc([nH]5)c(-c5ccccc5)c5nc(c(-c6ccccc6)c6ccc3[nH]6)C=C5)C=C4)cc2)[C@]2(C)CCCC(C)(C)[C@@H]12
REMARK SMILES IDX 18 1 19 2 20 3 16 5 11 6 12 7 83 8 13 9 75 10 80 11 77 12
REMARK SMILES IDX 76 13 79 14 81 15 82 16 78 17 10 18 8 19 9 20 7 21 6 22 5 23
REMARK SMILES IDX 4 24 3 25 1 26 2 27 14 28 15 29 17 30 21 32 22 33 23 34
REMARK SMILES IDX 24 35 25 36 26 38 27 39 28 40 74 41 29 42 73 43 30 44 31 45
REMARK SMILES IDX 32 46 67 47 33 48 72 49 66 50 68 51 34 52 71 53 65 54 64 55
REMARK SMILES IDX 35 57 57 58 42 59 56 60 43 61 46 62 55 63 69 64 44 65 45 66
REMARK SMILES IDX 54 68 70 69 47 70 36 71 37 72 41 73 38 74 40 75 39 76 58 77
REMARK SMILES IDX 59 78 63 79 60 80 62 81 61 82 48 83 49 84 53 85 50 86 52 87
REMARK SMILES IDX 51 88
REMARK H PARENT 20 4 17 31 24 37 68 56 46 67
REMARK Flexibility Score: inf
ROOT
ATOM      1  C   UNL     1       1.786   8.240  -2.837  1.00  0.00     0.257 C 
ATOM      2  O   UNL     1       2.330   7.919  -3.915  1.00  0.00    -0.271 OA
ATOM      3  N   UNL     1       2.337   7.760  -1.685  1.00  0.00    -0.353 N 
ATOM      4  H   UNL     1       1.823   7.644  -0.853  1.00  0.00     0.163 HD
ENDROOT
BRANCH   1   5
ATOM      5  C   UNL     1       0.565   9.205  -2.957  1.00  0.00     0.176 C 
ATOM      6  C   UNL     1      -2.071   7.926  -2.007  1.00  0.00     0.204 C 
ATOM      7  C   UNL     1      -1.055   7.420  -3.006  1.00  0.00     0.028 C 
ATOM      8  C   UNL     1      -1.541   9.218  -1.265  1.00  0.00     0.049 C 
ATOM      9  C   UNL     1      -0.405   8.344  -3.731  1.00  0.00     0.033 C 
ATOM     10  C   UNL     1      -0.324  10.065  -1.941  1.00  0.00     0.017 C 
ATOM     11  C   UNL     1      -2.572  10.043  -0.389  1.00  0.00    -0.028 C 
ATOM     12  C   UNL     1       0.426  10.682  -0.721  1.00  0.00     0.011 C 
ATOM     13  C   UNL     1      -0.785  11.326  -2.770  1.00  0.00     0.016 C 
ATOM     14  C   UNL     1      -1.756  10.863   0.660  1.00  0.00     0.007 C 
ATOM     15  C   UNL     1      -3.522  10.976  -1.175  1.00  0.00     0.011 C 
ATOM     16  C   UNL     1      -3.503   9.097   0.414  1.00  0.00     0.011 C 
ATOM     17  C   UNL     1      -0.515  11.587   0.119  1.00  0.00     0.001 C 
BRANCH   6  18
ATOM     18  O   UNL     1      -3.389   7.923  -2.561  1.00  0.00    -0.455 OA
BRANCH  18  19
ATOM     19  C   UNL     1      -3.915   6.845  -3.223  1.00  0.00     0.331 C 
ATOM     20  O   UNL     1      -4.953   6.943  -3.874  1.00  0.00    -0.247 OA
BRANCH  19  21
ATOM     21  C   UNL     1      -3.217   5.525  -3.228  1.00  0.00     0.093 C 
ATOM     22  C   UNL     1      -2.690   4.883  -2.171  1.00  0.00     0.007 C 
BRANCH  22  23
ATOM     23  C   UNL     1      -1.950   3.635  -2.250  1.00  0.00     0.000 C 
ATOM     24  C   UNL     1      -1.164   3.205  -1.247  1.00  0.00    -0.000 C 
BRANCH  24  25
ATOM     25  C   UNL     1      -0.470   1.932  -1.242  1.00  0.00    -0.005 C 
ATOM     26  C   UNL     1       0.963   0.193  -0.130  1.00  0.00     0.035 C 
ATOM     27  C   UNL     1       0.314   1.539  -0.225  1.00  0.00    -0.030 C 
ENDBRANCH  24  25
ENDBRANCH  22  23
ENDBRANCH  19  21
ENDBRANCH  18  19
ENDBRANCH   6  18
BRANCH   9  28
ATOM     28  C   UNL     1      -1.108   8.977  -4.873  1.00  0.00     0.259 C 
ATOM     29  O   UNL     1      -2.311   9.199  -4.887  1.00  0.00    -0.298 OA
ENDBRANCH   9  28
BRANCH   5  30
ATOM     30  O   UNL     1       1.229  10.149  -3.861  1.00  0.00    -0.375 OA
ATOM     31  H   UNL     1       0.619  10.871  -4.080  1.00  0.00     0.212 HD
ENDBRANCH   5  30
ENDBRANCH   1   5
BRANCH   3  32
ATOM     32  C   UNL     1       3.756   7.434  -1.793  1.00  0.00     0.117 C 
BRANCH  32  33
ATOM     33  C   UNL     1       4.409   6.764  -0.607  1.00  0.00     0.042 C 
BRANCH  33  34
ATOM     34  C   UNL     1       4.059   5.289  -0.478  1.00  0.00     0.118 C 
BRANCH  34  35
ATOM     35  N   UNL     1       4.538   4.464  -1.584  1.00  0.00    -0.352 N 
ATOM     36  C   UNL     1       5.469   3.442  -1.605  1.00  0.00     0.251 C 
ATOM     37  H   UNL     1       4.131   4.668  -2.456  1.00  0.00     0.163 HD
ATOM     38  O   UNL     1       5.816   2.938  -2.653  1.00  0.00    -0.269 OA
BRANCH  36  39
ATOM     39  C   UNL     1       6.070   2.990  -0.331  1.00  0.00     0.039 A 
ATOM     40  C   UNL     1       7.457   2.846  -0.247  1.00  0.00     0.014 A 
ATOM     41  C   UNL     1       5.268   2.751   0.784  1.00  0.00     0.014 A 
ATOM     42  C   UNL     1       8.045   2.566   0.988  1.00  0.00     0.010 A 
ATOM     43  C   UNL     1       5.859   2.581   2.029  1.00  0.00     0.010 A 
ATOM     44  C   UNL     1       7.254   2.486   2.146  1.00  0.00    -0.014 A 
BRANCH  44  45
ATOM     45  C   UNL     1       7.859   2.303   3.490  1.00  0.00     0.031 A 
ATOM     46  C   UNL     1       7.512   1.093   4.312  1.00  0.00     0.074 A 
ATOM     47  C   UNL     1       8.655   3.262   4.003  1.00  0.00     0.049 A 
ATOM     48  N   UNL     1       7.880   0.789   5.531  1.00  0.00    -0.248 NA
ATOM     49  C   UNL     1       6.605   0.109   3.697  1.00  0.00     0.031 C 
ATOM     50  C   UNL     1       9.029   4.508   3.329  1.00  0.00     0.029 A 
ATOM     51  N   UNL     1       9.291   3.339   5.217  1.00  0.00    -0.354 N 
ATOM     52  C   UNL     1       7.235  -0.404   5.832  1.00  0.00     0.074 A 
ATOM     53  C   UNL     1       6.404  -0.735   4.696  1.00  0.00     0.031 C 
ATOM     54  C   UNL     1       9.856   5.206   4.123  1.00  0.00     0.029 A 
ATOM     55  C   UNL     1      10.035   4.483   5.378  1.00  0.00     0.049 A 
ATOM     56  H   UNL     1       9.221   2.641   5.907  1.00  0.00     0.167 HD
ATOM     57  C   UNL     1       7.342  -1.171   6.943  1.00  0.00     0.031 A 
ATOM     58  C   UNL     1      10.775   4.906   6.420  1.00  0.00     0.031 A 
ATOM     59  C   UNL     1       8.177  -0.847   8.067  1.00  0.00     0.049 A 
ATOM     60  C   UNL     1      10.870   4.044   7.648  1.00  0.00     0.074 A 
ATOM     61  C   UNL     1       8.404  -1.587   9.214  1.00  0.00     0.029 A 
ATOM     62  N   UNL     1       8.921   0.317   8.187  1.00  0.00    -0.354 N 
ATOM     63  N   UNL     1      10.313   2.882   7.887  1.00  0.00    -0.248 NA
ATOM     64  C   UNL     1      11.707   4.549   8.746  1.00  0.00     0.031 C 
ATOM     65  C   UNL     1       9.238  -0.843  10.055  1.00  0.00     0.029 A 
ATOM     66  C   UNL     1       9.584   0.330   9.402  1.00  0.00     0.049 A 
ATOM     67  H   UNL     1       8.970   1.029   7.508  1.00  0.00     0.167 HD
ATOM     68  C   UNL     1      10.752   2.503   9.149  1.00  0.00     0.074 A 
ATOM     69  C   UNL     1      11.635   3.552   9.617  1.00  0.00     0.031 C 
ATOM     70  C   UNL     1      10.454   1.385   9.856  1.00  0.00     0.031 A 
BRANCH  57  71
ATOM     71  C   UNL     1       6.521  -2.431   6.992  1.00  0.00    -0.014 A 
ATOM     72  C   UNL     1       6.791  -3.514   6.139  1.00  0.00     0.009 A 
ATOM     73  C   UNL     1       5.471  -2.543   7.917  1.00  0.00     0.009 A 
ATOM     74  C   UNL     1       5.997  -4.662   6.177  1.00  0.00     0.001 A 
ATOM     75  C   UNL     1       4.701  -3.707   7.977  1.00  0.00     0.001 A 
ATOM     76  C   UNL     1       4.956  -4.759   7.099  1.00  0.00     0.000 A 
ENDBRANCH  57  71
BRANCH  58  77
ATOM     77  C   UNL     1      11.503   6.200   6.339  1.00  0.00    -0.014 A 
ATOM     78  C   UNL     1      12.904   6.226   6.250  1.00  0.00     0.009 A 
ATOM     79  C   UNL     1      10.803   7.417   6.346  1.00  0.00     0.009 A 
ATOM     80  C   UNL     1      13.588   7.443   6.194  1.00  0.00     0.001 A 
ATOM     81  C   UNL     1      11.488   8.631   6.258  1.00  0.00     0.001 A 
ATOM     82  C   UNL     1      12.880   8.643   6.192  1.00  0.00     0.000 A 
ENDBRANCH  58  77
BRANCH  70  83
ATOM     83  C   UNL     1      11.113   1.222  11.197  1.00  0.00    -0.014 A 
ATOM     84  C   UNL     1      10.747   2.017  12.294  1.00  0.00     0.009 A 
ATOM     85  C   UNL     1      12.086   0.225  11.374  1.00  0.00     0.009 A 
ATOM     86  C   UNL     1      11.366   1.838  13.533  1.00  0.00     0.001 A 
ATOM     87  C   UNL     1      12.680   0.027  12.621  1.00  0.00     0.001 A 
ATOM     88  C   UNL     1      12.327   0.840  13.697  1.00  0.00     0.000 A 
ENDBRANCH  70  83
ENDBRANCH  44  45
ENDBRANCH  36  39
ENDBRANCH  34  35
ENDBRANCH  33  34
ENDBRANCH  32  33
ENDBRANCH   3  32
TORSDOF 17
