REMARK SMILES C[C@@H]1[C@@H](C(=O)NCCCNC(=O)c2ccc(-c3c4nc(c(-c5ccccc5)c5ccc([nH]5)c(-c5ccccc5)c5nc(c(-c6ccccc6)c6ccc3[nH]6)C=C5)C=C4)cc2)CCN1C(=O)CN1C(=O)CNC1=O
REMARK SMILES IDX 7 1 6 2 4 3 5 4 3 6 1 7 2 8 63 9 61 10 62 11 64 12 65 13
REMARK SMILES IDX 66 14 67 15 68 16 72 17 69 18 70 19 71 20 73 21 8 23 9 24
REMARK SMILES IDX 10 25 11 26 12 28 13 29 14 30 60 31 15 32 59 33 16 34 17 35
REMARK SMILES IDX 18 36 53 37 19 38 58 39 52 40 54 41 20 42 57 43 51 44 50 45
REMARK SMILES IDX 21 47 43 48 28 49 42 50 29 51 32 52 41 53 55 54 30 55 31 56
REMARK SMILES IDX 40 58 56 59 33 60 22 61 23 62 27 63 24 64 26 65 25 66 44 67
REMARK SMILES IDX 45 68 49 69 46 70 48 71 47 72 34 73 35 74 39 75 36 76 38 77
REMARK SMILES IDX 37 78
REMARK H PARENT 6 5 71 22 10 27 54 46 32 57
REMARK Flexibility Score: inf
ROOT
ATOM      1  C   UNL     1      -2.626   2.729  -0.703  1.00  0.00     0.117 C 
ENDROOT
BRANCH   1   2
ATOM      2  N   UNL     1      -1.624   2.186  -1.595  1.00  0.00    -0.356 N 
ATOM      3  C   UNL     1      -0.444   1.572  -1.330  1.00  0.00     0.225 C 
ATOM      4  O   UNL     1       0.390   1.589  -2.242  1.00  0.00    -0.275 OA
ATOM      5  H   UNL     1      -1.833   2.277  -2.553  1.00  0.00     0.163 HD
BRANCH   3   6
ATOM      6  C   UNL     1      -0.090   1.046   0.059  1.00  0.00     0.102 C 
ATOM      7  C   UNL     1       1.960  -0.096   1.022  1.00  0.00     0.032 C 
ATOM      8  C   UNL     1       0.907  -0.135  -0.086  1.00  0.00     0.094 C 
ATOM      9  N   UNL     1       0.063  -1.342   0.009  1.00  0.00    -0.338 N 
ATOM     10  C   UNL     1      -1.186   0.420   0.929  1.00  0.00     0.037 C 
ATOM     11  C   UNL     1      -1.267  -1.019   0.469  1.00  0.00     0.121 C 
BRANCH   9  12
ATOM     12  C   UNL     1       0.276  -2.595  -0.546  1.00  0.00     0.243 C 
ATOM     13  O   UNL     1      -0.588  -3.476  -0.514  1.00  0.00    -0.273 OA
BRANCH  12  14
ATOM     14  C   UNL     1       1.589  -2.827  -1.279  1.00  0.00     0.230 C 
BRANCH  14  15
ATOM     15  N   UNL     1       1.549  -2.607  -2.710  1.00  0.00    -0.253 N 
ATOM     16  C   UNL     1       2.528  -3.076  -3.542  1.00  0.00     0.250 C 
ATOM     17  C   UNL     1       0.784  -1.688  -3.365  1.00  0.00     0.325 C 
ATOM     18  O   UNL     1       3.400  -3.886  -3.255  1.00  0.00    -0.272 OA
ATOM     19  C   UNL     1       2.405  -2.382  -4.886  1.00  0.00     0.218 C 
ATOM     20  N   UNL     1       1.286  -1.527  -4.636  1.00  0.00    -0.329 N 
ATOM     21  O   UNL     1      -0.196  -1.093  -2.960  1.00  0.00    -0.248 OA
ATOM     22  H   UNL     1       0.918  -0.896  -5.295  1.00  0.00     0.165 HD
ENDBRANCH  14  15
ENDBRANCH  12  14
ENDBRANCH   9  12
ENDBRANCH   3   6
ENDBRANCH   1   2
BRANCH   1  23
ATOM     23  C   UNL     1      -3.038   4.139  -1.099  1.00  0.00     0.042 C 
BRANCH  23  24
ATOM     24  C   UNL     1      -3.712   4.238  -2.460  1.00  0.00     0.118 C 
BRANCH  24  25
ATOM     25  N   UNL     1      -5.049   3.663  -2.483  1.00  0.00    -0.352 N 
ATOM     26  C   UNL     1      -6.283   4.269  -2.517  1.00  0.00     0.251 C 
ATOM     27  H   UNL     1      -5.074   2.679  -2.473  1.00  0.00     0.163 HD
ATOM     28  O   UNL     1      -7.297   3.592  -2.370  1.00  0.00    -0.269 OA
BRANCH  26  29
ATOM     29  C   UNL     1      -6.402   5.734  -2.690  1.00  0.00     0.039 A 
ATOM     30  C   UNL     1      -7.339   6.432  -1.922  1.00  0.00     0.014 A 
ATOM     31  C   UNL     1      -5.606   6.425  -3.603  1.00  0.00     0.014 A 
ATOM     32  C   UNL     1      -7.409   7.825  -2.006  1.00  0.00     0.010 A 
ATOM     33  C   UNL     1      -5.597   7.816  -3.604  1.00  0.00     0.010 A 
ATOM     34  C   UNL     1      -6.502   8.534  -2.809  1.00  0.00    -0.014 A 
BRANCH  34  35
ATOM     35  C   UNL     1      -6.483  10.020  -2.841  1.00  0.00     0.031 A 
ATOM     36  C   UNL     1      -6.725  10.753  -4.134  1.00  0.00     0.074 A 
ATOM     37  C   UNL     1      -6.174  10.711  -1.726  1.00  0.00     0.049 A 
ATOM     38  N   UNL     1      -6.665  12.039  -4.379  1.00  0.00    -0.248 NA
ATOM     39  C   UNL     1      -7.047   9.934  -5.314  1.00  0.00     0.031 C 
ATOM     40  C   UNL     1      -5.875  10.126  -0.417  1.00  0.00     0.029 A 
ATOM     41  N   UNL     1      -6.054  12.063  -1.517  1.00  0.00    -0.354 N 
ATOM     42  C   UNL     1      -6.916  12.175  -5.739  1.00  0.00     0.074 A 
ATOM     43  C   UNL     1      -7.073  10.842  -6.277  1.00  0.00     0.031 C 
ATOM     44  C   UNL     1      -5.642  11.112   0.464  1.00  0.00     0.029 A 
ATOM     45  C   UNL     1      -5.728  12.395  -0.224  1.00  0.00     0.049 A 
ATOM     46  H   UNL     1      -6.190  12.732  -2.227  1.00  0.00     0.167 HD
ATOM     47  C   UNL     1      -7.030  13.307  -6.473  1.00  0.00     0.031 A 
ATOM     48  C   UNL     1      -5.515  13.597   0.344  1.00  0.00     0.031 A 
ATOM     49  C   UNL     1      -6.894  14.635  -5.939  1.00  0.00     0.049 A 
ATOM     50  C   UNL     1      -5.637  14.839  -0.494  1.00  0.00     0.074 A 
ATOM     51  C   UNL     1      -7.050  15.847  -6.590  1.00  0.00     0.029 A 
ATOM     52  N   UNL     1      -6.573  14.926  -4.622  1.00  0.00    -0.354 N 
ATOM     53  N   UNL     1      -5.936  14.952  -1.765  1.00  0.00    -0.248 NA
ATOM     54  C   UNL     1      -5.400  16.121   0.186  1.00  0.00     0.031 C 
ATOM     55  C   UNL     1      -6.774  16.870  -5.678  1.00  0.00     0.029 A 
ATOM     56  C   UNL     1      -6.504  16.297  -4.446  1.00  0.00     0.049 A 
ATOM     57  H   UNL     1      -6.417  14.256  -3.917  1.00  0.00     0.167 HD
ATOM     58  C   UNL     1      -5.954  16.315  -2.030  1.00  0.00     0.074 A 
ATOM     59  C   UNL     1      -5.650  16.989  -0.784  1.00  0.00     0.031 C 
ATOM     60  C   UNL     1      -6.202  16.952  -3.200  1.00  0.00     0.031 A 
BRANCH  47  61
ATOM     61  C   UNL     1      -7.315  13.153  -7.942  1.00  0.00    -0.014 A 
ATOM     62  C   UNL     1      -8.559  12.686  -8.397  1.00  0.00     0.009 A 
ATOM     63  C   UNL     1      -6.338  13.507  -8.886  1.00  0.00     0.009 A 
ATOM     64  C   UNL     1      -8.805  12.539  -9.764  1.00  0.00     0.001 A 
ATOM     65  C   UNL     1      -6.597  13.389 -10.252  1.00  0.00     0.001 A 
ATOM     66  C   UNL     1      -7.825  12.895 -10.690  1.00  0.00     0.000 A 
ENDBRANCH  47  61
BRANCH  48  67
ATOM     67  C   UNL     1      -5.183  13.691   1.790  1.00  0.00    -0.014 A 
ATOM     68  C   UNL     1      -6.114  14.219   2.699  1.00  0.00     0.009 A 
ATOM     69  C   UNL     1      -3.935  13.265   2.269  1.00  0.00     0.009 A 
ATOM     70  C   UNL     1      -5.791  14.344   4.052  1.00  0.00     0.001 A 
ATOM     71  C   UNL     1      -3.626  13.363   3.628  1.00  0.00     0.001 A 
ATOM     72  C   UNL     1      -4.550  13.912   4.516  1.00  0.00     0.000 A 
ENDBRANCH  48  67
BRANCH  60  73
ATOM     73  C   UNL     1      -6.194  18.455  -3.180  1.00  0.00    -0.014 A 
ATOM     74  C   UNL     1      -4.997  19.178  -3.058  1.00  0.00     0.009 A 
ATOM     75  C   UNL     1      -7.401  19.156  -3.330  1.00  0.00     0.009 A 
ATOM     76  C   UNL     1      -5.015  20.574  -3.051  1.00  0.00     0.001 A 
ATOM     77  C   UNL     1      -7.412  20.551  -3.353  1.00  0.00     0.001 A 
ATOM     78  C   UNL     1      -6.221  21.259  -3.204  1.00  0.00     0.000 A 
ENDBRANCH  60  73
ENDBRANCH  34  35
ENDBRANCH  26  29
ENDBRANCH  24  25
ENDBRANCH  23  24
ENDBRANCH   1  23
TORSDOF 13
