REMARK SMILES CC(C)[C@H](NC(=O)[C@H]1CC(=O)N(c2ccc(F)cc2)C1)C(=O)N1CCC[C@@H]1C(=O)NCCCNC(=O)c1ccc(-c2c3nc(c(-c4ccccc4)c4ccc([nH]4)c(-c4ccccc4)c4nc(c(-c5ccccc5)c5ccc2[nH]5)C=C4)C=C3)cc1
REMARK SMILES IDX 28 1 29 2 30 3 27 5 23 6 24 7 25 8 26 9 21 10 22 11 4 12
REMARK SMILES IDX 2 13 1 14 3 15 5 16 6 17 7 19 8 20 9 21 20 22 10 23 12 24
REMARK SMILES IDX 11 25 13 26 14 27 19 28 15 29 18 30 16 31 17 32 31 33 32 34
REMARK SMILES IDX 33 35 34 36 35 37 36 39 37 40 38 41 84 42 39 43 83 44 40 45
REMARK SMILES IDX 41 46 42 47 77 48 43 49 82 50 76 51 78 52 44 53 81 54 75 55
REMARK SMILES IDX 74 56 45 58 67 59 52 60 66 61 53 62 56 63 65 64 79 65 54 66
REMARK SMILES IDX 55 67 64 69 80 70 57 71 46 72 47 73 51 74 48 75 50 76 49 77
REMARK SMILES IDX 68 78 69 79 73 80 70 81 72 82 71 83 58 84 59 85 63 86 60 87
REMARK SMILES IDX 62 88 61 89
REMARK H PARENT 30 4 5 18 34 38 78 57 56 68
REMARK Flexibility Score: inf
ROOT
ATOM      1  C   UNL     1      -2.744  -4.872   0.723  1.00  0.00     0.242 C 
ATOM      2  O   UNL     1      -1.913  -5.613   0.187  1.00  0.00    -0.273 OA
ATOM      3  N   UNL     1      -2.844  -4.964   2.083  1.00  0.00    -0.354 N 
ATOM      4  H   UNL     1      -2.336  -5.696   2.502  1.00  0.00     0.163 HD
ENDROOT
BRANCH   1   5
ATOM      5  C   UNL     1      -3.753  -4.060  -0.137  1.00  0.00     0.174 C 
ATOM      6  N   UNL     1      -3.933  -2.612   0.102  1.00  0.00    -0.329 N 
ATOM      7  C   UNL     1      -5.345  -2.282   0.146  1.00  0.00     0.120 C 
ATOM      8  C   UNL     1      -6.074  -3.568   0.484  1.00  0.00     0.024 C 
ATOM      9  C   UNL     1      -5.157  -4.681  -0.004  1.00  0.00     0.037 C 
BRANCH   6  10
ATOM     10  C   UNL     1      -2.888  -1.736  -0.189  1.00  0.00     0.246 C 
ATOM     11  O   UNL     1      -1.808  -2.195  -0.580  1.00  0.00    -0.272 OA
BRANCH  10  12
ATOM     12  C   UNL     1      -2.924  -0.210   0.242  1.00  0.00     0.174 C 
BRANCH  12  13
ATOM     13  C   UNL     1      -2.385  -0.050   1.687  1.00  0.00     0.015 C 
ATOM     14  C   UNL     1      -2.815  -1.136   2.636  1.00  0.00     0.010 C 
ATOM     15  C   UNL     1      -0.866   0.097   1.746  1.00  0.00     0.010 C 
ENDBRANCH  12  13
BRANCH  12  16
ATOM     16  N   UNL     1      -4.191   0.519   0.088  1.00  0.00    -0.344 N 
ATOM     17  C   UNL     1      -4.510   1.829   0.294  1.00  0.00     0.226 C 
ATOM     18  H   UNL     1      -4.943  -0.037  -0.218  1.00  0.00     0.164 HD
ATOM     19  O   UNL     1      -5.697   2.131   0.155  1.00  0.00    -0.275 OA
BRANCH  17  20
ATOM     20  C   UNL     1      -3.458   2.869   0.672  1.00  0.00     0.107 C 
ATOM     21  C   UNL     1      -3.800   4.231   0.055  1.00  0.00     0.116 C 
ATOM     22  C   UNL     1      -3.429   3.172   2.168  1.00  0.00     0.139 C 
ATOM     23  C   UNL     1      -3.402   5.247   1.094  1.00  0.00     0.227 C 
ATOM     24  N   UNL     1      -3.130   4.573   2.277  1.00  0.00    -0.312 N 
ATOM     25  O   UNL     1      -3.317   6.449   0.872  1.00  0.00    -0.274 OA
BRANCH  24  26
ATOM     26  C   UNL     1      -2.723   5.171   3.490  1.00  0.00     0.044 A 
ATOM     27  C   UNL     1      -3.260   6.401   3.888  1.00  0.00     0.029 A 
ATOM     28  C   UNL     1      -1.768   4.550   4.311  1.00  0.00     0.029 A 
ATOM     29  C   UNL     1      -2.867   6.992   5.092  1.00  0.00     0.041 A 
ATOM     30  C   UNL     1      -1.342   5.163   5.493  1.00  0.00     0.041 A 
ATOM     31  C   UNL     1      -1.902   6.374   5.877  1.00  0.00     0.123 A 
ATOM     32  F   UNL     1      -1.503   6.956   7.015  1.00  0.00    -0.207 F 
ENDBRANCH  24  26
ENDBRANCH  17  20
ENDBRANCH  12  16
ENDBRANCH  10  12
ENDBRANCH   6  10
ENDBRANCH   1   5
BRANCH   3  33
ATOM     33  C   UNL     1      -3.595  -4.131   2.980  1.00  0.00     0.117 C 
BRANCH  33  34
ATOM     34  C   UNL     1      -4.241  -4.826   4.155  1.00  0.00     0.042 C 
BRANCH  34  35
ATOM     35  C   UNL     1      -3.286  -4.931   5.338  1.00  0.00     0.118 C 
BRANCH  35  36
ATOM     36  N   UNL     1      -2.813  -3.632   5.841  1.00  0.00    -0.352 N 
ATOM     37  C   UNL     1      -2.860  -3.090   7.103  1.00  0.00     0.251 C 
ATOM     38  H   UNL     1      -2.394  -3.056   5.161  1.00  0.00     0.163 HD
ATOM     39  O   UNL     1      -2.522  -1.927   7.292  1.00  0.00    -0.269 OA
BRANCH  37  40
ATOM     40  C   UNL     1      -3.355  -3.917   8.214  1.00  0.00     0.039 A 
ATOM     41  C   UNL     1      -4.276  -3.384   9.116  1.00  0.00     0.014 A 
ATOM     42  C   UNL     1      -2.965  -5.253   8.298  1.00  0.00     0.014 A 
ATOM     43  C   UNL     1      -4.895  -4.230  10.034  1.00  0.00     0.010 A 
ATOM     44  C   UNL     1      -3.679  -6.113   9.111  1.00  0.00     0.010 A 
ATOM     45  C   UNL     1      -4.646  -5.612   9.993  1.00  0.00    -0.014 A 
BRANCH  45  46
ATOM     46  C   UNL     1      -5.365  -6.571  10.864  1.00  0.00     0.031 A 
ATOM     47  C   UNL     1      -4.577  -7.456  11.789  1.00  0.00     0.074 A 
ATOM     48  C   UNL     1      -6.698  -6.721  10.741  1.00  0.00     0.049 A 
ATOM     49  N   UNL     1      -4.989  -8.455  12.525  1.00  0.00    -0.248 NA
ATOM     50  C   UNL     1      -3.125  -7.215  11.863  1.00  0.00     0.031 C 
ATOM     51  C   UNL     1      -7.565  -5.955   9.841  1.00  0.00     0.029 A 
ATOM     52  N   UNL     1      -7.558  -7.585  11.370  1.00  0.00    -0.354 N 
ATOM     53  C   UNL     1      -3.846  -8.976  13.119  1.00  0.00     0.074 A 
ATOM     54  C   UNL     1      -2.720  -8.231  12.607  1.00  0.00     0.031 C 
ATOM     55  C   UNL     1      -8.835  -6.359  10.004  1.00  0.00     0.029 A 
ATOM     56  C   UNL     1      -8.866  -7.446  10.975  1.00  0.00     0.049 A 
ATOM     57  H   UNL     1      -7.264  -8.242  12.043  1.00  0.00     0.167 HD
ATOM     58  C   UNL     1      -3.745  -9.968  14.033  1.00  0.00     0.031 A 
ATOM     59  C   UNL     1      -9.965  -8.129  11.347  1.00  0.00     0.031 A 
ATOM     60  C   UNL     1      -4.872 -10.690  14.555  1.00  0.00     0.049 A 
ATOM     61  C   UNL     1      -9.826  -9.236  12.356  1.00  0.00     0.074 A 
ATOM     62  C   UNL     1      -4.890 -11.672  15.528  1.00  0.00     0.029 A 
ATOM     63  N   UNL     1      -6.184 -10.504  14.145  1.00  0.00    -0.354 N 
ATOM     64  N   UNL     1      -8.747  -9.674  12.959  1.00  0.00    -0.248 NA
ATOM     65  C   UNL     1     -11.059  -9.935  12.743  1.00  0.00     0.031 C 
ATOM     66  C   UNL     1      -6.206 -12.121  15.666  1.00  0.00     0.029 A 
ATOM     67  C   UNL     1      -7.017 -11.370  14.830  1.00  0.00     0.049 A 
ATOM     68  H   UNL     1      -6.478  -9.852  13.468  1.00  0.00     0.167 HD
ATOM     69  C   UNL     1      -9.176 -10.672  13.824  1.00  0.00     0.074 A 
ATOM     70  C   UNL     1     -10.613 -10.767  13.674  1.00  0.00     0.031 C 
ATOM     71  C   UNL     1      -8.447 -11.440  14.670  1.00  0.00     0.031 A 
BRANCH  58  72
ATOM     72  C   UNL     1      -2.367 -10.326  14.517  1.00  0.00    -0.014 A 
ATOM     73  C   UNL     1      -1.612  -9.434  15.297  1.00  0.00     0.009 A 
ATOM     74  C   UNL     1      -1.823 -11.581  14.206  1.00  0.00     0.009 A 
ATOM     75  C   UNL     1      -0.326  -9.775  15.718  1.00  0.00     0.001 A 
ATOM     76  C   UNL     1      -0.550 -11.934  14.659  1.00  0.00     0.001 A 
ATOM     77  C   UNL     1       0.201 -11.027  15.405  1.00  0.00     0.000 A 
ENDBRANCH  58  72
BRANCH  59  78
ATOM     78  C   UNL     1     -11.294  -7.779  10.778  1.00  0.00    -0.014 A 
ATOM     79  C   UNL     1     -12.282  -7.195  11.587  1.00  0.00     0.009 A 
ATOM     80  C   UNL     1     -11.588  -8.032   9.430  1.00  0.00     0.009 A 
ATOM     81  C   UNL     1     -13.545  -6.904  11.067  1.00  0.00     0.001 A 
ATOM     82  C   UNL     1     -12.842  -7.710   8.904  1.00  0.00     0.001 A 
ATOM     83  C   UNL     1     -13.823  -7.158   9.725  1.00  0.00     0.000 A 
ENDBRANCH  59  78
BRANCH  71  84
ATOM     84  C   UNL     1      -9.195 -12.411  15.540  1.00  0.00    -0.014 A 
ATOM     85  C   UNL     1      -9.788 -13.566  15.011  1.00  0.00     0.009 A 
ATOM     86  C   UNL     1      -9.255 -12.186  16.925  1.00  0.00     0.009 A 
ATOM     87  C   UNL     1     -10.456 -14.461  15.849  1.00  0.00     0.001 A 
ATOM     88  C   UNL     1      -9.894 -13.100  17.764  1.00  0.00     0.001 A 
ATOM     89  C   UNL     1     -10.502 -14.231  17.224  1.00  0.00     0.000 A 
ENDBRANCH  71  84
ENDBRANCH  45  46
ENDBRANCH  37  40
ENDBRANCH  35  36
ENDBRANCH  34  35
ENDBRANCH  33  34
ENDBRANCH   3  33
TORSDOF 16
