REMARK SMILES O=C(NCCCNC(=O)c1cc(NC(=O)c2ccccc2Cl)ccc1N1CCC[C@H](C[NH+]2CCCC2)C1)c1ccc(-c2c3nc(c(-c4ccccc4)c4ccc([nH]4)c(-c4ccccc4)c4nc(c(-c5ccccc5)c5ccc2[nH]5)C=C4)C=C3)cc1
REMARK SMILES IDX 5 1 4 2 3 3 1 4 2 5 38 7 39 8 85 9 40 10 84 11 41 12 42 13
REMARK SMILES IDX 43 14 78 15 44 16 83 17 77 18 79 19 45 20 82 21 76 22 75 23
REMARK SMILES IDX 46 25 68 26 53 27 67 28 54 29 57 30 66 31 80 32 55 33 56 34
REMARK SMILES IDX 65 36 81 37 58 38 47 39 48 40 52 41 49 42 51 43 50 44 69 45
REMARK SMILES IDX 70 46 74 47 71 48 73 49 72 50 59 51 60 52 64 53 61 54 63 55
REMARK SMILES IDX 62 56 6 57 7 58 8 59 9 61 10 62 11 63 25 64 12 65 24 66
REMARK SMILES IDX 23 67 26 68 27 69 37 70 28 71 30 72 29 73 31 74 32 75 33 76
REMARK SMILES IDX 36 77 34 79 35 80 13 81 14 82 15 84 16 85 17 86 21 87 18 88
REMARK SMILES IDX 20 89 22 90 19 91
REMARK H PARENT 3 6 79 24 57 35 7 60 32 78 13 83
REMARK Flexibility Score: inf
ROOT
ATOM      1  C   UNL     1       5.521  -1.626  -0.984  1.00  0.00     0.042 C 
ENDROOT
BRANCH   1   2
ATOM      2  C   UNL     1       4.804  -0.323  -1.310  1.00  0.00     0.118 C 
BRANCH   2   3
ATOM      3  N   UNL     1       3.356  -0.363  -1.119  1.00  0.00    -0.352 N 
ATOM      4  O   UNL     1       1.339  -0.103  -0.156  1.00  0.00    -0.269 OA
ATOM      5  C   UNL     1       2.537   0.149  -0.134  1.00  0.00     0.251 C 
ATOM      6  H   UNL     1       2.873  -0.848  -1.827  1.00  0.00     0.163 HD
BRANCH   5   7
ATOM      7  C   UNL     1       3.097   0.949   0.980  1.00  0.00     0.039 A 
ATOM      8  C   UNL     1       4.133   1.849   0.768  1.00  0.00     0.014 A 
ATOM      9  C   UNL     1       2.590   0.781   2.273  1.00  0.00     0.014 A 
ATOM     10  C   UNL     1       4.845   2.344   1.850  1.00  0.00     0.010 A 
ATOM     11  C   UNL     1       3.211   1.415   3.357  1.00  0.00     0.010 A 
ATOM     12  C   UNL     1       4.394   2.141   3.164  1.00  0.00    -0.014 A 
BRANCH  12  13
ATOM     13  C   UNL     1       5.189   2.710   4.288  1.00  0.00     0.031 A 
ATOM     14  C   UNL     1       5.770   1.828   5.365  1.00  0.00     0.074 A 
ATOM     15  C   UNL     1       5.471   4.030   4.282  1.00  0.00     0.049 A 
ATOM     16  N   UNL     1       6.559   2.158   6.359  1.00  0.00    -0.248 NA
ATOM     17  C   UNL     1       5.419   0.400   5.335  1.00  0.00     0.031 C 
ATOM     18  C   UNL     1       4.970   4.996   3.300  1.00  0.00     0.029 A 
ATOM     19  N   UNL     1       6.292   4.777   5.088  1.00  0.00    -0.354 N 
ATOM     20  C   UNL     1       6.756   0.995   7.094  1.00  0.00     0.074 A 
ATOM     21  C   UNL     1       5.998  -0.049   6.440  1.00  0.00     0.031 C 
ATOM     22  C   UNL     1       5.575   6.176   3.493  1.00  0.00     0.029 A 
ATOM     23  C   UNL     1       6.436   6.077   4.665  1.00  0.00     0.049 A 
ATOM     24  H   UNL     1       6.734   4.418   5.891  1.00  0.00     0.167 HD
ATOM     25  C   UNL     1       7.502   0.810   8.210  1.00  0.00     0.031 A 
ATOM     26  C   UNL     1       7.175   7.085   5.160  1.00  0.00     0.031 A 
ATOM     27  C   UNL     1       8.286   1.836   8.845  1.00  0.00     0.049 A 
ATOM     28  C   UNL     1       7.999   6.850   6.389  1.00  0.00     0.074 A 
ATOM     29  C   UNL     1       9.102   1.734   9.959  1.00  0.00     0.029 A 
ATOM     30  N   UNL     1       8.360   3.152   8.416  1.00  0.00    -0.354 N 
ATOM     31  N   UNL     1       8.177   5.740   7.061  1.00  0.00    -0.248 NA
ATOM     32  C   UNL     1       8.716   8.011   6.932  1.00  0.00     0.031 C 
ATOM     33  C   UNL     1       9.636   2.999  10.229  1.00  0.00     0.029 A 
ATOM     34  C   UNL     1       9.191   3.877   9.254  1.00  0.00     0.049 A 
ATOM     35  H   UNL     1       7.890   3.518   7.631  1.00  0.00     0.167 HD
ATOM     36  C   UNL     1       9.032   6.066   8.104  1.00  0.00     0.074 A 
ATOM     37  C   UNL     1       9.358   7.470   7.957  1.00  0.00     0.031 C 
ATOM     38  C   UNL     1       9.499   5.273   9.098  1.00  0.00     0.031 A 
BRANCH  25  39
ATOM     39  C   UNL     1       7.478  -0.554   8.845  1.00  0.00    -0.014 A 
ATOM     40  C   UNL     1       8.150  -1.645   8.273  1.00  0.00     0.009 A 
ATOM     41  C   UNL     1       6.802  -0.737  10.063  1.00  0.00     0.009 A 
ATOM     42  C   UNL     1       8.120  -2.897   8.892  1.00  0.00     0.001 A 
ATOM     43  C   UNL     1       6.794  -1.983  10.692  1.00  0.00     0.001 A 
ATOM     44  C   UNL     1       7.446  -3.064  10.102  1.00  0.00     0.000 A 
ENDBRANCH  25  39
BRANCH  26  45
ATOM     45  C   UNL     1       7.158   8.412   4.492  1.00  0.00    -0.014 A 
ATOM     46  C   UNL     1       8.289   8.881   3.808  1.00  0.00     0.009 A 
ATOM     47  C   UNL     1       6.001   9.207   4.519  1.00  0.00     0.009 A 
ATOM     48  C   UNL     1       8.265  10.127   3.176  1.00  0.00     0.001 A 
ATOM     49  C   UNL     1       5.970  10.437   3.861  1.00  0.00     0.001 A 
ATOM     50  C   UNL     1       7.104  10.899   3.197  1.00  0.00     0.000 A 
ENDBRANCH  26  45
BRANCH  38  51
ATOM     51  C   UNL     1      10.432   5.909  10.086  1.00  0.00    -0.014 A 
ATOM     52  C   UNL     1       9.959   6.804  11.059  1.00  0.00     0.009 A 
ATOM     53  C   UNL     1      11.800   5.601  10.049  1.00  0.00     0.009 A 
ATOM     54  C   UNL     1      10.847   7.407  11.952  1.00  0.00     0.001 A 
ATOM     55  C   UNL     1      12.681   6.186  10.959  1.00  0.00     0.001 A 
ATOM     56  C   UNL     1      12.206   7.096  11.902  1.00  0.00     0.000 A 
ENDBRANCH  38  51
ENDBRANCH  12  13
ENDBRANCH   5   7
ENDBRANCH   2   3
ENDBRANCH   1   2
BRANCH   1  57
ATOM     57  C   UNL     1       5.153  -2.775  -1.901  1.00  0.00     0.118 C 
BRANCH  57  58
ATOM     58  N   UNL     1       5.384  -2.515  -3.307  1.00  0.00    -0.352 N 
ATOM     59  C   UNL     1       5.598  -3.421  -4.317  1.00  0.00     0.253 C 
ATOM     60  H   UNL     1       5.388  -1.567  -3.573  1.00  0.00     0.163 HD
ATOM     61  O   UNL     1       5.634  -3.017  -5.478  1.00  0.00    -0.269 OA
BRANCH  59  62
ATOM     62  C   UNL     1       5.898  -4.842  -4.021  1.00  0.00     0.065 A 
ATOM     63  C   UNL     1       7.155  -5.241  -4.510  1.00  0.00     0.042 A 
ATOM     64  C   UNL     1       5.073  -5.737  -3.312  1.00  0.00     0.050 A 
ATOM     65  C   UNL     1       7.694  -6.484  -4.208  1.00  0.00     0.042 A 
ATOM     66  C   UNL     1       5.619  -7.010  -3.060  1.00  0.00     0.029 A 
ATOM     67  C   UNL     1       6.902  -7.379  -3.494  1.00  0.00     0.028 A 
BRANCH  64  68
ATOM     68  N   UNL     1       3.755  -5.493  -2.931  1.00  0.00    -0.370 N 
ATOM     69  C   UNL     1       3.351  -5.698  -1.534  1.00  0.00     0.116 C 
ATOM     70  C   UNL     1       2.906  -4.683  -3.808  1.00  0.00     0.126 C 
ATOM     71  C   UNL     1       1.865  -6.019  -1.407  1.00  0.00     0.022 C 
ATOM     72  C   UNL     1       1.452  -5.160  -3.754  1.00  0.00     0.064 C 
ATOM     73  C   UNL     1       1.001  -5.121  -2.288  1.00  0.00     0.013 C 
BRANCH  72  74
ATOM     74  C   UNL     1       1.341  -6.532  -4.468  1.00  0.00     0.267 C 
BRANCH  74  75
ATOM     75  N   UNL     1       0.027  -7.022  -4.889  1.00  0.00    -0.335 N 
ATOM     76  C   UNL     1      -0.696  -6.137  -5.799  1.00  0.00     0.262 C 
ATOM     77  C   UNL     1      -0.889  -7.419  -3.826  1.00  0.00     0.262 C 
ATOM     78  H   UNL     1       0.312  -7.866  -5.386  1.00  0.00     0.348 HD
ATOM     79  C   UNL     1      -1.730  -5.437  -4.941  1.00  0.00     0.067 C 
ATOM     80  C   UNL     1      -2.067  -6.452  -3.864  1.00  0.00     0.067 C 
ENDBRANCH  74  75
ENDBRANCH  72  74
ENDBRANCH  64  68
BRANCH  65  81
ATOM     81  N   UNL     1       8.986  -6.900  -4.585  1.00  0.00    -0.322 N 
ATOM     82  C   UNL     1      10.087  -6.193  -5.026  1.00  0.00     0.257 C 
ATOM     83  H   UNL     1       9.130  -7.872  -4.523  1.00  0.00     0.170 HD
ATOM     84  O   UNL     1      11.076  -6.785  -5.454  1.00  0.00    -0.269 OA
BRANCH  82  85
ATOM     85  C   UNL     1      10.121  -4.721  -4.982  1.00  0.00     0.058 A 
ATOM     86  C   UNL     1      10.152  -4.044  -6.210  1.00  0.00     0.015 A 
ATOM     87  C   UNL     1      10.055  -4.002  -3.782  1.00  0.00     0.053 A 
ATOM     88  C   UNL     1      10.032  -2.654  -6.239  1.00  0.00     0.001 A 
ATOM     89  C   UNL     1       9.929  -2.610  -3.821  1.00  0.00     0.021 A 
ATOM     90  Cl  UNL     1      10.091  -4.763  -2.232  1.00  0.00    -0.083 Cl
ATOM     91  C   UNL     1       9.903  -1.940  -5.048  1.00  0.00     0.002 A 
ENDBRANCH  82  85
ENDBRANCH  65  81
ENDBRANCH  59  62
ENDBRANCH  57  58
ENDBRANCH   1  57
TORSDOF 15
