REMARK SMILES CC1(C)C[C@@H]([NH2+]C[C@@H]2CCCC[C@@H]2C(=O)NCCCNC(=O)c2ccc(-c3c4nc(c(-c5ccccc5)c5ccc([nH]5)c(-c5ccccc5)c5nc(c(-c6ccccc6)c6ccc3[nH]6)C=C5)C=C4)cc2)C(C)(C)O1
REMARK SMILES IDX 17 1 16 2 14 3 15 4 13 6 8 7 9 8 10 9 12 10 11 11 7 12 6 13
REMARK SMILES IDX 5 16 1 17 2 18 3 19 4 20 74 21 71 22 72 23 73 24 18 25 19 26
REMARK SMILES IDX 20 27 21 28 22 30 23 31 24 32 70 33 25 34 69 35 26 36 27 37
REMARK SMILES IDX 28 38 63 39 29 40 68 41 62 42 64 43 30 44 67 45 61 46 60 47
REMARK SMILES IDX 31 49 53 50 38 51 52 52 39 53 42 54 51 55 65 56 40 57 41 58
REMARK SMILES IDX 50 60 66 61 43 62 32 63 33 64 37 65 34 66 36 67 35 68 54 69
REMARK SMILES IDX 55 70 59 71 56 72 58 73 57 74 44 75 45 76 49 77 46 78 48 79
REMARK SMILES IDX 47 80
REMARK H PARENT 16 5 6 14 6 15 20 29 64 48 42 59
REMARK Flexibility Score: inf
ROOT
ATOM      1  C   UNL     1       6.175  -3.742   2.400  1.00  0.00     0.117 C 
ENDROOT
BRANCH   1   2
ATOM      2  N   UNL     1       5.424  -4.801   3.049  1.00  0.00    -0.356 N 
ATOM      3  C   UNL     1       4.080  -5.012   3.114  1.00  0.00     0.223 C 
ATOM      4  O   UNL     1       3.684  -5.887   3.880  1.00  0.00    -0.275 OA
ATOM      5  H   UNL     1       5.973  -5.472   3.515  1.00  0.00     0.163 HD
BRANCH   3   6
ATOM      6  C   UNL     1       3.154  -4.198   2.212  1.00  0.00     0.087 C 
ATOM      7  C   UNL     1       1.664  -4.228   2.625  1.00  0.00     0.056 C 
ATOM      8  C   UNL     1       1.032  -5.619   2.463  1.00  0.00     0.010 C 
ATOM      9  C   UNL     1       1.175  -6.088   1.013  1.00  0.00     0.001 C 
ATOM     10  C   UNL     1       3.279  -4.678   0.754  1.00  0.00     0.014 C 
ATOM     11  C   UNL     1       2.619  -6.038   0.520  1.00  0.00     0.001 C 
BRANCH   7  12
ATOM     12  C   UNL     1       1.353  -3.567   3.984  1.00  0.00     0.265 C 
BRANCH  12  13
ATOM     13  N   UNL     1       1.759  -2.159   4.116  1.00  0.00    -0.341 N 
ATOM     14  H   UNL     1       1.740  -1.925   5.108  1.00  0.00     0.346 HD
ATOM     15  H   UNL     1       2.680  -2.106   3.681  1.00  0.00     0.346 HD
BRANCH  13  16
ATOM     16  C   UNL     1       0.941  -1.161   3.407  1.00  0.00     0.217 C 
ATOM     17  C   UNL     1       1.104   0.505   0.087  1.00  0.00     0.042 C 
ATOM     18  C   UNL     1       0.501   0.152   1.446  1.00  0.00     0.069 C 
ATOM     19  C   UNL     1      -1.025   0.261   1.387  1.00  0.00     0.042 C 
ATOM     20  C   UNL     1       0.954  -1.229   1.889  1.00  0.00     0.103 C 
ATOM     21  O   UNL     1       0.984   1.064   2.440  1.00  0.00    -0.363 OA
ATOM     22  C   UNL     1       1.346   0.329   3.638  1.00  0.00     0.115 C 
ATOM     23  C   UNL     1       2.853   0.548   3.821  1.00  0.00     0.048 C 
ATOM     24  C   UNL     1       0.590   0.951   4.812  1.00  0.00     0.048 C 
ENDBRANCH  13  16
ENDBRANCH  12  13
ENDBRANCH   7  12
ENDBRANCH   3   6
ENDBRANCH   1   2
BRANCH   1  25
ATOM     25  C   UNL     1       6.764  -2.770   3.418  1.00  0.00     0.042 C 
BRANCH  25  26
ATOM     26  C   UNL     1       7.687  -3.417   4.450  1.00  0.00     0.118 C 
BRANCH  26  27
ATOM     27  N   UNL     1       8.814  -4.116   3.852  1.00  0.00    -0.352 N 
ATOM     28  C   UNL     1      10.159  -4.022   4.111  1.00  0.00     0.251 C 
ATOM     29  H   UNL     1       8.574  -4.761   3.147  1.00  0.00     0.163 HD
ATOM     30  O   UNL     1      10.956  -4.606   3.385  1.00  0.00    -0.269 OA
BRANCH  28  31
ATOM     31  C   UNL     1      10.658  -3.201   5.236  1.00  0.00     0.039 A 
ATOM     32  C   UNL     1      11.795  -2.414   5.031  1.00  0.00     0.014 A 
ATOM     33  C   UNL     1      10.038  -3.217   6.489  1.00  0.00     0.014 A 
ATOM     34  C   UNL     1      12.267  -1.593   6.057  1.00  0.00     0.010 A 
ATOM     35  C   UNL     1      10.466  -2.344   7.488  1.00  0.00     0.010 A 
ATOM     36  C   UNL     1      11.583  -1.521   7.282  1.00  0.00    -0.014 A 
BRANCH  36  37
ATOM     37  C   UNL     1      12.013  -0.570   8.338  1.00  0.00     0.031 A 
ATOM     38  C   UNL     1      12.511  -1.069   9.667  1.00  0.00     0.074 A 
ATOM     39  C   UNL     1      11.905   0.755   8.117  1.00  0.00     0.049 A 
ATOM     40  N   UNL     1      12.908  -0.381  10.709  1.00  0.00    -0.248 NA
ATOM     41  C   UNL     1      12.548  -2.527   9.859  1.00  0.00     0.031 C 
ATOM     42  C   UNL     1      11.395   1.371   6.889  1.00  0.00     0.029 A 
ATOM     43  N   UNL     1      12.217   1.825   8.919  1.00  0.00    -0.354 N 
ATOM     44  C   UNL     1      13.228  -1.320  11.682  1.00  0.00     0.074 A 
ATOM     45  C   UNL     1      12.934  -2.622  11.124  1.00  0.00     0.031 C 
ATOM     46  C   UNL     1      11.458   2.706   7.008  1.00  0.00     0.029 A 
ATOM     47  C   UNL     1      11.972   3.042   8.332  1.00  0.00     0.049 A 
ATOM     48  H   UNL     1      12.581   1.728   9.829  1.00  0.00     0.167 HD
ATOM     49  C   UNL     1      13.737  -1.119  12.921  1.00  0.00     0.031 A 
ATOM     50  C   UNL     1      12.138   4.292   8.804  1.00  0.00     0.031 A 
ATOM     51  C   UNL     1      14.033   0.176  13.477  1.00  0.00     0.049 A 
ATOM     52  C   UNL     1      12.692   4.488  10.187  1.00  0.00     0.074 A 
ATOM     53  C   UNL     1      14.607   0.477  14.700  1.00  0.00     0.029 A 
ATOM     54  N   UNL     1      13.771   1.384  12.850  1.00  0.00    -0.354 N 
ATOM     55  N   UNL     1      13.064   3.587  11.064  1.00  0.00    -0.248 NA
ATOM     56  C   UNL     1      12.860   5.876  10.640  1.00  0.00     0.031 C 
ATOM     57  C   UNL     1      14.640   1.869  14.837  1.00  0.00     0.029 A 
ATOM     58  C   UNL     1      14.144   2.434  13.673  1.00  0.00     0.049 A 
ATOM     59  H   UNL     1      13.378   1.481  11.953  1.00  0.00     0.167 HD
ATOM     60  C   UNL     1      13.532   4.298  12.161  1.00  0.00     0.074 A 
ATOM     61  C   UNL     1      13.417   5.704  11.830  1.00  0.00     0.031 C 
ATOM     62  C   UNL     1      14.015   3.829  13.337  1.00  0.00     0.031 A 
BRANCH  49  63
ATOM     63  C   UNL     1      13.997  -2.334  13.769  1.00  0.00    -0.014 A 
ATOM     64  C   UNL     1      15.030  -3.232  13.458  1.00  0.00     0.009 A 
ATOM     65  C   UNL     1      13.223  -2.563  14.917  1.00  0.00     0.009 A 
ATOM     66  C   UNL     1      15.258  -4.354  14.258  1.00  0.00     0.001 A 
ATOM     67  C   UNL     1      13.473  -3.669  15.732  1.00  0.00     0.001 A 
ATOM     68  C   UNL     1      14.483  -4.569  15.396  1.00  0.00     0.000 A 
ENDBRANCH  49  63
BRANCH  50  69
ATOM     69  C   UNL     1      11.786   5.460   7.956  1.00  0.00    -0.014 A 
ATOM     70  C   UNL     1      12.789   6.291   7.435  1.00  0.00     0.009 A 
ATOM     71  C   UNL     1      10.444   5.753   7.666  1.00  0.00     0.009 A 
ATOM     72  C   UNL     1      12.454   7.407   6.663  1.00  0.00     0.001 A 
ATOM     73  C   UNL     1      10.114   6.851   6.869  1.00  0.00     0.001 A 
ATOM     74  C   UNL     1      11.118   7.683   6.377  1.00  0.00     0.000 A 
ENDBRANCH  50  69
BRANCH  62  75
ATOM     75  C   UNL     1      14.479   4.845  14.342  1.00  0.00    -0.014 A 
ATOM     76  C   UNL     1      13.567   5.659  15.033  1.00  0.00     0.009 A 
ATOM     77  C   UNL     1      15.849   4.971  14.622  1.00  0.00     0.009 A 
ATOM     78  C   UNL     1      14.021   6.604  15.955  1.00  0.00     0.001 A 
ATOM     79  C   UNL     1      16.298   5.895  15.567  1.00  0.00     0.001 A 
ATOM     80  C   UNL     1      15.385   6.718  16.225  1.00  0.00     0.000 A 
ENDBRANCH  62  75
ENDBRANCH  36  37
ENDBRANCH  28  31
ENDBRANCH  26  27
ENDBRANCH  25  26
ENDBRANCH   1  25
TORSDOF 13
