REMARK SMILES CC[NH2+][C@]1(C(=O)NCCCNC(=O)c2ccc(-c3c4nc(c(-c5ccccc5)c5ccc([nH]5)c(-c5ccccc5)c5nc(c(-c6ccccc6)c6ccc3[nH]6)C=C5)C=C4)cc2)CCC[C@@H]1CCSc1ccccc1F
REMARK SMILES IDX 8 1 7 2 5 3 6 4 4 6 62 7 65 8 63 9 64 10 3 11 2 14 1 15
REMARK SMILES IDX 66 16 67 17 68 18 69 19 70 20 74 21 71 22 73 23 75 24 72 25
REMARK SMILES IDX 9 26 10 27 11 28 12 29 13 31 14 32 15 33 61 34 16 35 60 36
REMARK SMILES IDX 17 37 18 38 19 39 54 40 20 41 59 42 53 43 55 44 21 45 58 46
REMARK SMILES IDX 52 47 51 48 22 50 44 51 29 52 43 53 30 54 33 55 42 56 56 57
REMARK SMILES IDX 31 58 32 59 41 61 57 62 34 63 23 64 24 65 28 66 25 67 27 68
REMARK SMILES IDX 26 69 45 70 46 71 50 72 47 73 49 74 48 75 35 76 36 77 40 78
REMARK SMILES IDX 37 79 39 80 38 81
REMARK H PARENT 7 5 3 12 3 13 11 30 55 49 33 60
REMARK Flexibility Score: inf
ROOT
ATOM      1  C   UNL     1       4.278  -1.230  -3.258  1.00  0.00     0.118 C 
ENDROOT
BRANCH   1   2
ATOM      2  N   UNL     1       3.272  -1.651  -2.321  1.00  0.00    -0.351 N 
ATOM      3  C   UNL     1       2.031  -2.158  -2.329  1.00  0.00     0.281 C 
ATOM      4  O   UNL     1       1.894  -2.733  -1.238  1.00  0.00    -0.268 OA
ATOM      5  H   UNL     1       3.590  -1.531  -1.397  1.00  0.00     0.163 HD
BRANCH   3   6
ATOM      6  C   UNL     1       0.979  -2.341  -3.500  1.00  0.00     0.178 C 
ATOM      7  C   UNL     1       1.393  -1.760  -4.847  1.00  0.00     0.079 C 
ATOM      8  C   UNL     1       1.041  -3.858  -3.667  1.00  0.00     0.061 C 
ATOM      9  C   UNL     1       0.858  -2.731  -5.883  1.00  0.00     0.008 C 
ATOM     10  C   UNL     1       0.734  -4.095  -5.170  1.00  0.00     0.011 C 
BRANCH   6  11
ATOM     11  N   UNL     1      -0.429  -1.869  -3.253  1.00  0.00    -0.334 N 
ATOM     12  H   UNL     1      -0.544  -1.815  -2.241  1.00  0.00     0.347 HD
ATOM     13  H   UNL     1      -0.473  -1.003  -3.791  1.00  0.00     0.347 HD
BRANCH  11  14
ATOM     14  C   UNL     1      -1.591  -2.629  -3.768  1.00  0.00     0.257 C 
ATOM     15  C   UNL     1      -2.992  -2.120  -3.433  1.00  0.00     0.071 C 
ENDBRANCH  11  14
ENDBRANCH   6  11
BRANCH   8  16
ATOM     16  C   UNL     1       0.270  -4.697  -2.576  1.00  0.00     0.022 C 
BRANCH  16  17
ATOM     17  C   UNL     1      -0.160  -4.190  -1.099  1.00  0.00     0.075 C 
BRANCH  17  18
ATOM     18  S   UNL     1      -1.226  -2.724  -0.356  1.00  0.00    -0.123 SA
BRANCH  18  19
ATOM     19  C   UNL     1      -0.420  -1.086  -0.431  1.00  0.00     0.043 A 
ATOM     20  C   UNL     1       0.802  -0.773   0.177  1.00  0.00     0.018 A 
ATOM     21  C   UNL     1      -1.075   0.001  -1.052  1.00  0.00     0.136 A 
ATOM     22  C   UNL     1       1.419   0.486  -0.006  1.00  0.00     0.001 A 
ATOM     23  C   UNL     1      -0.463   1.247  -1.260  1.00  0.00     0.040 A 
ATOM     24  F   UNL     1      -2.330  -0.109  -1.505  1.00  0.00    -0.206 F 
ATOM     25  C   UNL     1       0.806   1.484  -0.761  1.00  0.00     0.003 A 
ENDBRANCH  18  19
ENDBRANCH  17  18
ENDBRANCH  16  17
ENDBRANCH   8  16
ENDBRANCH   3   6
ENDBRANCH   1   2
BRANCH   1  26
ATOM     26  C   UNL     1       4.346   0.283  -3.337  1.00  0.00     0.042 C 
BRANCH  26  27
ATOM     27  C   UNL     1       4.761   0.961  -2.028  1.00  0.00     0.118 C 
BRANCH  27  28
ATOM     28  N   UNL     1       6.036   0.503  -1.493  1.00  0.00    -0.352 N 
ATOM     29  C   UNL     1       7.100   1.232  -1.035  1.00  0.00     0.251 C 
ATOM     30  H   UNL     1       6.149  -0.475  -1.457  1.00  0.00     0.163 HD
ATOM     31  O   UNL     1       8.132   0.662  -0.675  1.00  0.00    -0.269 OA
BRANCH  29  32
ATOM     32  C   UNL     1       7.030   2.702  -0.994  1.00  0.00     0.039 A 
ATOM     33  C   UNL     1       8.050   3.433  -1.606  1.00  0.00     0.014 A 
ATOM     34  C   UNL     1       5.981   3.358  -0.341  1.00  0.00     0.014 A 
ATOM     35  C   UNL     1       7.997   4.827  -1.602  1.00  0.00     0.010 A 
ATOM     36  C   UNL     1       5.904   4.750  -0.383  1.00  0.00     0.010 A 
ATOM     37  C   UNL     1       6.914   5.498  -1.011  1.00  0.00    -0.014 A 
BRANCH  37  38
ATOM     38  C   UNL     1       6.840   6.981  -1.048  1.00  0.00     0.031 A 
ATOM     39  C   UNL     1       6.967   7.784   0.217  1.00  0.00     0.074 A 
ATOM     40  C   UNL     1       6.646   7.609  -2.224  1.00  0.00     0.049 A 
ATOM     41  N   UNL     1       6.941   9.084   0.374  1.00  0.00    -0.248 NA
ATOM     42  C   UNL     1       7.133   7.030   1.469  1.00  0.00     0.031 C 
ATOM     43  C   UNL     1       6.490   6.946  -3.521  1.00  0.00     0.029 A 
ATOM     44  N   UNL     1       6.553   8.946  -2.521  1.00  0.00    -0.354 N 
ATOM     45  C   UNL     1       7.082   9.303   1.739  1.00  0.00     0.074 A 
ATOM     46  C   UNL     1       7.142   8.002   2.370  1.00  0.00     0.031 C 
ATOM     47  C   UNL     1       6.351   7.880  -4.476  1.00  0.00     0.029 A 
ATOM     48  C   UNL     1       6.367   9.202  -3.858  1.00  0.00     0.049 A 
ATOM     49  H   UNL     1       6.614   9.654  -1.840  1.00  0.00     0.167 HD
ATOM     50  C   UNL     1       7.171  10.478   2.406  1.00  0.00     0.031 A 
ATOM     51  C   UNL     1       6.218  10.369  -4.513  1.00  0.00     0.031 A 
ATOM     52  C   UNL     1       7.102  11.774   1.781  1.00  0.00     0.049 A 
ATOM     53  C   UNL     1       6.272  11.659  -3.742  1.00  0.00     0.074 A 
ATOM     54  C   UNL     1       7.221  13.021   2.370  1.00  0.00     0.029 A 
ATOM     55  N   UNL     1       6.885  11.989   0.429  1.00  0.00    -0.354 N 
ATOM     56  N   UNL     1       6.472  11.849  -2.461  1.00  0.00    -0.248 NA
ATOM     57  C   UNL     1       6.091  12.898  -4.513  1.00  0.00     0.031 C 
ATOM     58  C   UNL     1       7.011  13.991   1.385  1.00  0.00     0.029 A 
ATOM     59  C   UNL     1       6.834  13.349   0.170  1.00  0.00     0.049 A 
ATOM     60  H   UNL     1       6.782  11.281  -0.246  1.00  0.00     0.167 HD
ATOM     61  C   UNL     1       6.473  13.227  -2.277  1.00  0.00     0.074 A 
ATOM     62  C   UNL     1       6.272  13.823  -3.581  1.00  0.00     0.031 C 
ATOM     63  C   UNL     1       6.630  13.933  -1.131  1.00  0.00     0.031 A 
BRANCH  50  64
ATOM     64  C   UNL     1       7.333  10.417   3.901  1.00  0.00    -0.014 A 
ATOM     65  C   UNL     1       8.518   9.944   4.489  1.00  0.00     0.009 A 
ATOM     66  C   UNL     1       6.301  10.875   4.735  1.00  0.00     0.009 A 
ATOM     67  C   UNL     1       8.649   9.894   5.879  1.00  0.00     0.001 A 
ATOM     68  C   UNL     1       6.447  10.854   6.123  1.00  0.00     0.001 A 
ATOM     69  C   UNL     1       7.615  10.354   6.694  1.00  0.00     0.000 A 
ENDBRANCH  50  64
BRANCH  51  70
ATOM     70  C   UNL     1       6.007  10.376  -5.986  1.00  0.00    -0.014 A 
ATOM     71  C   UNL     1       6.989  10.888  -6.848  1.00  0.00     0.009 A 
ATOM     72  C   UNL     1       4.812   9.886  -6.536  1.00  0.00     0.009 A 
ATOM     73  C   UNL     1       6.766  10.937  -8.226  1.00  0.00     0.001 A 
ATOM     74  C   UNL     1       4.606   9.905  -7.917  1.00  0.00     0.001 A 
ATOM     75  C   UNL     1       5.577  10.441  -8.760  1.00  0.00     0.000 A 
ENDBRANCH  51  70
BRANCH  63  76
ATOM     76  C   UNL     1       6.631  15.434  -1.239  1.00  0.00    -0.014 A 
ATOM     77  C   UNL     1       5.461  16.150  -1.539  1.00  0.00     0.009 A 
ATOM     78  C   UNL     1       7.817  16.145  -0.996  1.00  0.00     0.009 A 
ATOM     79  C   UNL     1       5.489  17.544  -1.629  1.00  0.00     0.001 A 
ATOM     80  C   UNL     1       7.835  17.539  -1.053  1.00  0.00     0.001 A 
ATOM     81  C   UNL     1       6.674  18.237  -1.380  1.00  0.00     0.000 A 
ENDBRANCH  63  76
ENDBRANCH  37  38
ENDBRANCH  29  32
ENDBRANCH  27  28
ENDBRANCH  26  27
ENDBRANCH   1  26
TORSDOF 16
