REMARK SMILES O=C(NCCCNC(=O)c1ccc(-c2c3nc(c(-c4ccccc4)c4ccc([nH]4)c(-c4ccccc4)c4nc(c(-c5ccccc5)c5ccc2[nH]5)C=C4)C=C3)cc1)C1=Cc2cc(Cl)cc(C#Cc3ccccc3)c2O[C@@H]1C(F)(F)F
REMARK SMILES IDX 5 1 4 2 3 3 1 4 2 5 58 7 59 8 76 9 60 10 75 11 61 12 74 13
REMARK SMILES IDX 62 14 65 15 63 16 64 17 77 18 78 19 79 20 80 21 66 22 67 23
REMARK SMILES IDX 68 24 69 25 73 26 70 27 72 28 71 29 6 30 7 31 8 32 9 34
REMARK SMILES IDX 10 35 11 36 57 37 12 38 56 39 13 40 14 41 15 42 50 43 16 44
REMARK SMILES IDX 55 45 49 46 51 47 17 48 54 49 48 50 47 51 18 53 40 54 25 55
REMARK SMILES IDX 39 56 26 57 29 58 38 59 52 60 27 61 28 62 37 64 53 65 30 66
REMARK SMILES IDX 19 67 20 68 24 69 21 70 23 71 22 72 41 73 42 74 46 75 43 76
REMARK SMILES IDX 45 77 44 78 31 79 32 80 36 81 33 82 35 83 34 84
REMARK H PARENT 3 6 7 33 51 52 29 63
REMARK Flexibility Score: inf
ROOT
ATOM      1  C   UNL     1       4.138   1.635   2.565  1.00  0.00     0.042 C 
ENDROOT
BRANCH   1   2
ATOM      2  C   UNL     1       3.542   0.551   1.704  1.00  0.00     0.118 C 
BRANCH   2   3
ATOM      3  N   UNL     1       2.430   0.951   0.874  1.00  0.00    -0.352 N 
ATOM      4  O   UNL     1       1.056   0.811  -0.896  1.00  0.00    -0.270 OA
ATOM      5  C   UNL     1       2.175   0.617  -0.429  1.00  0.00     0.251 C 
ATOM      6  H   UNL     1       1.768   1.541   1.301  1.00  0.00     0.163 HD
BRANCH   5   7
ATOM      7  C   UNL     1       3.194  -0.096  -1.258  1.00  0.00     0.067 C 
ATOM      8  C   UNL     1       4.452   0.361  -1.375  1.00  0.00     0.025 C 
ATOM      9  C   UNL     1       2.962  -1.582  -1.304  1.00  0.00     0.314 C 
ATOM     10  C   UNL     1       5.478  -0.513  -0.752  1.00  0.00     0.020 A 
ATOM     11  O   UNL     1       3.848  -2.297  -0.401  1.00  0.00    -0.474 OA
ATOM     12  C   UNL     1       6.683   0.107  -0.391  1.00  0.00     0.032 A 
ATOM     13  C   UNL     1       5.054  -1.700  -0.104  1.00  0.00     0.143 A 
ATOM     14  C   UNL     1       7.404  -0.384   0.695  1.00  0.00     0.043 A 
ATOM     15  C   UNL     1       5.758  -2.139   1.033  1.00  0.00     0.069 A 
ATOM     16  Cl  UNL     1       8.772   0.488   1.269  1.00  0.00    -0.084 Cl
ATOM     17  C   UNL     1       6.936  -1.480   1.419  1.00  0.00     0.041 A 
BRANCH   9  18
ATOM     18  C   UNL     1       3.049  -2.060  -2.766  1.00  0.00     0.429 C 
ATOM     19  F   UNL     1       2.690  -3.357  -2.893  1.00  0.00    -0.167 F 
ATOM     20  F   UNL     1       2.221  -1.342  -3.567  1.00  0.00    -0.167 F 
ATOM     21  F   UNL     1       4.296  -1.931  -3.281  1.00  0.00    -0.167 F 
ENDBRANCH   9  18
BRANCH  15  22
ATOM     22  C   UNL     1       5.201  -3.059   1.993  1.00  0.00    -0.058 C 
ATOM     23  C   UNL     1       4.840  -3.724   2.927  1.00  0.00    -0.062 C 
BRANCH  23  24
ATOM     24  C   UNL     1       4.547  -4.525   4.084  1.00  0.00     0.025 A 
ATOM     25  C   UNL     1       4.381  -3.950   5.349  1.00  0.00     0.017 A 
ATOM     26  C   UNL     1       4.503  -5.914   3.957  1.00  0.00     0.017 A 
ATOM     27  C   UNL     1       4.199  -4.758   6.477  1.00  0.00     0.001 A 
ATOM     28  C   UNL     1       4.316  -6.722   5.082  1.00  0.00     0.001 A 
ATOM     29  C   UNL     1       4.171  -6.145   6.343  1.00  0.00     0.000 A 
ENDBRANCH  23  24
ENDBRANCH  15  22
ENDBRANCH   5   7
ENDBRANCH   2   3
ENDBRANCH   1   2
BRANCH   1  30
ATOM     30  C   UNL     1       3.998   1.309   4.033  1.00  0.00     0.118 C 
BRANCH  30  31
ATOM     31  N   UNL     1       4.702   0.090   4.441  1.00  0.00    -0.352 N 
ATOM     32  C   UNL     1       5.640  -0.110   5.428  1.00  0.00     0.251 C 
ATOM     33  H   UNL     1       4.465  -0.716   3.926  1.00  0.00     0.163 HD
ATOM     34  O   UNL     1       6.216  -1.189   5.522  1.00  0.00    -0.269 OA
BRANCH  32  35
ATOM     35  C   UNL     1       5.990   0.987   6.348  1.00  0.00     0.039 A 
ATOM     36  C   UNL     1       7.305   1.115   6.797  1.00  0.00     0.014 A 
ATOM     37  C   UNL     1       5.034   1.929   6.715  1.00  0.00     0.014 A 
ATOM     38  C   UNL     1       7.668   2.243   7.532  1.00  0.00     0.010 A 
ATOM     39  C   UNL     1       5.439   3.136   7.246  1.00  0.00     0.010 A 
ATOM     40  C   UNL     1       6.748   3.288   7.713  1.00  0.00    -0.014 A 
BRANCH  40  41
ATOM     41  C   UNL     1       7.093   4.524   8.449  1.00  0.00     0.031 A 
ATOM     42  C   UNL     1       6.267   4.926   9.645  1.00  0.00     0.074 A 
ATOM     43  C   UNL     1       8.093   5.308   8.006  1.00  0.00     0.049 A 
ATOM     44  N   UNL     1       6.363   5.994  10.394  1.00  0.00    -0.248 NA
ATOM     45  C   UNL     1       5.150   4.038  10.022  1.00  0.00     0.031 C 
ATOM     46  C   UNL     1       8.913   5.058   6.816  1.00  0.00     0.029 A 
ATOM     47  N   UNL     1       8.596   6.476   8.514  1.00  0.00    -0.354 N 
ATOM     48  C   UNL     1       5.308   5.914  11.295  1.00  0.00     0.074 A 
ATOM     49  C   UNL     1       4.528   4.754  10.942  1.00  0.00     0.031 C 
ATOM     50  C   UNL     1       9.857   6.008   6.726  1.00  0.00     0.029 A 
ATOM     51  C   UNL     1       9.677   6.958   7.816  1.00  0.00     0.049 A 
ATOM     52  H   UNL     1       8.219   6.927   9.304  1.00  0.00     0.167 HD
ATOM     53  C   UNL     1       5.035   6.708  12.355  1.00  0.00     0.031 A 
ATOM     54  C   UNL     1      10.440   8.042   8.043  1.00  0.00     0.031 A 
ATOM     55  C   UNL     1       5.837   7.841  12.719  1.00  0.00     0.049 A 
ATOM     56  C   UNL     1      10.129   8.901   9.237  1.00  0.00     0.074 A 
ATOM     57  C   UNL     1       5.699   8.684  13.806  1.00  0.00     0.029 A 
ATOM     58  N   UNL     1       6.936   8.285  11.999  1.00  0.00    -0.354 N 
ATOM     59  N   UNL     1       9.175   8.770  10.128  1.00  0.00    -0.248 NA
ATOM     60  C   UNL     1      11.018  10.046   9.468  1.00  0.00     0.031 C 
ATOM     61  C   UNL     1       6.680   9.675  13.710  1.00  0.00     0.029 A 
ATOM     62  C   UNL     1       7.475   9.405  12.606  1.00  0.00     0.049 A 
ATOM     63  H   UNL     1       7.281   7.865  11.178  1.00  0.00     0.167 HD
ATOM     64  C   UNL     1       9.368   9.795  11.045  1.00  0.00     0.074 A 
ATOM     65  C   UNL     1      10.546  10.521  10.611  1.00  0.00     0.031 C 
ATOM     66  C   UNL     1       8.643  10.111  12.147  1.00  0.00     0.031 A 
BRANCH  53  67
ATOM     67  C   UNL     1       3.824   6.365  13.182  1.00  0.00    -0.014 A 
ATOM     68  C   UNL     1       3.758   5.177  13.930  1.00  0.00     0.009 A 
ATOM     69  C   UNL     1       2.731   7.243  13.214  1.00  0.00     0.009 A 
ATOM     70  C   UNL     1       2.606   4.853  14.650  1.00  0.00     0.001 A 
ATOM     71  C   UNL     1       1.595   6.936  13.966  1.00  0.00     0.001 A 
ATOM     72  C   UNL     1       1.528   5.735  14.672  1.00  0.00     0.000 A 
ENDBRANCH  53  67
BRANCH  54  73
ATOM     73  C   UNL     1      11.589   8.350   7.152  1.00  0.00    -0.014 A 
ATOM     74  C   UNL     1      12.908   8.237   7.621  1.00  0.00     0.009 A 
ATOM     75  C   UNL     1      11.377   8.762   5.827  1.00  0.00     0.009 A 
ATOM     76  C   UNL     1      13.986   8.567   6.795  1.00  0.00     0.001 A 
ATOM     77  C   UNL     1      12.457   9.057   4.993  1.00  0.00     0.001 A 
ATOM     78  C   UNL     1      13.760   8.972   5.481  1.00  0.00     0.000 A 
ENDBRANCH  54  73
BRANCH  66  79
ATOM     79  C   UNL     1       9.138  11.262  12.978  1.00  0.00    -0.014 A 
ATOM     80  C   UNL     1       9.100  12.582  12.504  1.00  0.00     0.009 A 
ATOM     81  C   UNL     1       9.642  11.015  14.265  1.00  0.00     0.009 A 
ATOM     82  C   UNL     1       9.613  13.624  13.279  1.00  0.00     0.001 A 
ATOM     83  C   UNL     1      10.114  12.063  15.054  1.00  0.00     0.001 A 
ATOM     84  C   UNL     1      10.116  13.364  14.553  1.00  0.00     0.000 A 
ENDBRANCH  66  79
ENDBRANCH  40  41
ENDBRANCH  32  35
ENDBRANCH  30  31
ENDBRANCH   1  30
TORSDOF 13
