REMARK SMILES COc1c(Cl)cc(C(=O)NCCCNC(=O)c2ccc(-c3c4nc(c(-c5ccccc5)c5ccc([nH]5)c(-c5ccccc5)c5nc(c(-c6ccccc6)c6ccc3[nH]6)C=C5)C=C4)cc2)cc1NC(=S)NC(=O)c1ccccc1F
REMARK SMILES IDX 11 1 10 2 8 3 9 4 7 6 3 7 4 8 66 9 5 10 6 11 65 12 2 13 1 14
REMARK SMILES IDX 67 15 68 17 69 18 70 19 71 20 72 22 73 23 74 24 78 25 75 26
REMARK SMILES IDX 77 27 79 28 76 29 12 30 13 31 14 32 15 33 16 35 17 36 18 37
REMARK SMILES IDX 64 38 19 39 63 40 20 41 21 42 22 43 57 44 23 45 62 46 56 47
REMARK SMILES IDX 58 48 24 49 61 50 55 51 54 52 25 54 47 55 32 56 46 57 33 58
REMARK SMILES IDX 36 59 45 60 59 61 34 62 35 63 44 65 60 66 37 67 26 68 27 69
REMARK SMILES IDX 31 70 28 71 30 72 29 73 48 74 49 75 53 76 50 77 52 78 51 79
REMARK SMILES IDX 38 80 39 81 43 82 40 83 42 84 41 85
REMARK H PARENT 10 5 67 16 70 21 14 34 58 53 36 64
REMARK Flexibility Score: inf
ROOT
ATOM      1  C   UNL     1       0.510  -5.235   6.425  1.00  0.00     0.118 C 
ENDROOT
BRANCH   1   2
ATOM      2  N   UNL     1       1.756  -4.890   5.713  1.00  0.00    -0.352 N 
ATOM      3  C   UNL     1       2.343  -4.003   4.831  1.00  0.00     0.251 C 
ATOM      4  O   UNL     1       3.576  -4.155   4.815  1.00  0.00    -0.269 OA
ATOM      5  H   UNL     1       2.438  -5.554   5.966  1.00  0.00     0.163 HD
BRANCH   3   6
ATOM      6  C   UNL     1       1.804  -2.932   3.804  1.00  0.00     0.043 A 
ATOM      7  C   UNL     1       1.364  -0.595   1.049  1.00  0.00     0.160 A 
ATOM      8  C   UNL     1       2.980  -1.308   1.418  1.00  0.00     0.086 A 
ATOM      9  C   UNL     1      -0.074  -0.971   1.952  1.00  0.00     0.085 A 
ATOM     10  Cl  UNL     1       4.350  -0.783   0.510  1.00  0.00    -0.080 Cl
ATOM     11  C   UNL     1       3.245  -2.489   2.750  1.00  0.00     0.038 A 
ATOM     12  C   UNL     1       0.115  -1.962   3.288  1.00  0.00     0.044 A 
BRANCH   7  13
ATOM     13  O   UNL     1       1.296   0.531   0.260  1.00  0.00    -0.493 OA
ATOM     14  C   UNL     1       1.075   0.225  -1.106  1.00  0.00     0.278 C 
ENDBRANCH   7  13
BRANCH   9  15
ATOM     15  N   UNL     1      -1.454  -0.748   1.755  1.00  0.00    -0.329 N 
ATOM     16  H   UNL     1      -1.683  -0.105   1.046  1.00  0.00     0.169 HD
BRANCH  15  17
ATOM     17  C   UNL     1      -2.539  -1.313   2.427  1.00  0.00     0.177 C 
ATOM     18  S   UNL     1      -4.013  -0.514   2.325  1.00  0.00    -0.040 S 
BRANCH  17  19
ATOM     19  N   UNL     1      -2.567  -2.543   3.178  1.00  0.00    -0.299 N 
ATOM     20  C   UNL     1      -1.917  -3.740   3.745  1.00  0.00     0.260 C 
ATOM     21  H   UNL     1      -3.507  -2.629   3.458  1.00  0.00     0.172 HD
ATOM     22  O   UNL     1      -2.542  -4.800   3.759  1.00  0.00    -0.269 OA
BRANCH  20  23
ATOM     23  C   UNL     1      -0.437  -3.772   4.106  1.00  0.00     0.075 A 
ATOM     24  C   UNL     1       0.281  -3.939   2.528  1.00  0.00     0.017 A 
ATOM     25  C   UNL     1       0.071  -2.528   5.329  1.00  0.00     0.135 A 
ATOM     26  C   UNL     1       1.313  -2.619   1.982  1.00  0.00     0.001 A 
ATOM     27  C   UNL     1       1.152  -1.177   4.933  1.00  0.00     0.040 A 
ATOM     28  F   UNL     1      -0.772  -2.297   6.353  1.00  0.00    -0.206 F 
ATOM     29  C   UNL     1       1.760  -1.096   3.239  1.00  0.00     0.003 A 
ENDBRANCH  20  23
ENDBRANCH  17  19
ENDBRANCH  15  17
ENDBRANCH   9  15
ENDBRANCH   3   6
ENDBRANCH   1   2
BRANCH   1  30
ATOM     30  C   UNL     1      -0.465  -6.113   5.650  1.00  0.00     0.042 C 
BRANCH  30  31
ATOM     31  C   UNL     1      -0.737  -7.463   6.266  1.00  0.00     0.118 C 
BRANCH  31  32
ATOM     32  N   UNL     1      -1.483  -7.345   7.514  1.00  0.00    -0.352 N 
ATOM     33  C   UNL     1      -2.716  -7.859   7.845  1.00  0.00     0.251 C 
ATOM     34  H   UNL     1      -1.041  -6.822   8.221  1.00  0.00     0.163 HD
ATOM     35  O   UNL     1      -3.305  -7.442   8.838  1.00  0.00    -0.269 OA
BRANCH  33  36
ATOM     36  C   UNL     1      -3.328  -8.914   7.007  1.00  0.00     0.039 A 
ATOM     37  C   UNL     1      -4.717  -8.966   6.856  1.00  0.00     0.014 A 
ATOM     38  C   UNL     1      -2.524  -9.866   6.379  1.00  0.00     0.014 A 
ATOM     39  C   UNL     1      -5.288  -9.942   6.035  1.00  0.00     0.010 A 
ATOM     40  C   UNL     1      -3.076 -10.739   5.459  1.00  0.00     0.010 A 
ATOM     41  C   UNL     1      -4.466 -10.815   5.309  1.00  0.00    -0.014 A 
BRANCH  41  42
ATOM     42  C   UNL     1      -5.000 -11.880   4.431  1.00  0.00     0.031 A 
ATOM     43  C   UNL     1      -4.658 -13.313   4.736  1.00  0.00     0.074 A 
ATOM     44  C   UNL     1      -5.680 -11.562   3.316  1.00  0.00     0.049 A 
ATOM     45  N   UNL     1      -4.870 -14.387   4.021  1.00  0.00    -0.248 NA
ATOM     46  C   UNL     1      -3.941 -13.563   5.999  1.00  0.00     0.031 C 
ATOM     47  C   UNL     1      -6.063 -10.210   2.910  1.00  0.00     0.029 A 
ATOM     48  N   UNL     1      -6.156 -12.363   2.310  1.00  0.00    -0.354 N 
ATOM     49  C   UNL     1      -4.288 -15.428   4.733  1.00  0.00     0.074 A 
ATOM     50  C   UNL     1      -3.647 -14.847   5.890  1.00  0.00     0.031 C 
ATOM     51  C   UNL     1      -6.748 -10.279   1.757  1.00  0.00     0.029 A 
ATOM     52  C   UNL     1      -6.792 -11.668   1.312  1.00  0.00     0.049 A 
ATOM     53  H   UNL     1      -6.052 -13.342   2.304  1.00  0.00     0.167 HD
ATOM     54  C   UNL     1      -4.305 -16.754   4.461  1.00  0.00     0.031 A 
ATOM     55  C   UNL     1      -7.334 -12.104   0.159  1.00  0.00     0.031 A 
ATOM     56  C   UNL     1      -4.929 -17.316   3.296  1.00  0.00     0.049 A 
ATOM     57  C   UNL     1      -7.269 -13.570  -0.170  1.00  0.00     0.074 A 
ATOM     58  C   UNL     1      -5.035 -18.646   2.931  1.00  0.00     0.029 A 
ATOM     59  N   UNL     1      -5.542 -16.573   2.297  1.00  0.00    -0.354 N 
ATOM     60  N   UNL     1      -6.758 -14.554   0.531  1.00  0.00    -0.248 NA
ATOM     61  C   UNL     1      -7.863 -13.988  -1.448  1.00  0.00     0.031 C 
ATOM     62  C   UNL     1      -5.636 -18.701   1.671  1.00  0.00     0.029 A 
ATOM     63  C   UNL     1      -5.997 -17.415   1.298  1.00  0.00     0.049 A 
ATOM     64  H   UNL     1      -5.638 -15.593   2.299  1.00  0.00     0.167 HD
ATOM     65  C   UNL     1      -7.015 -15.711  -0.194  1.00  0.00     0.074 A 
ATOM     66  C   UNL     1      -7.720 -15.305  -1.393  1.00  0.00     0.031 C 
ATOM     67  C   UNL     1      -6.708 -16.994   0.116  1.00  0.00     0.031 A 
BRANCH  54  68
ATOM     68  C   UNL     1      -3.592 -17.661   5.429  1.00  0.00    -0.014 A 
ATOM     69  C   UNL     1      -4.004 -17.780   6.768  1.00  0.00     0.009 A 
ATOM     70  C   UNL     1      -2.472 -18.391   5.003  1.00  0.00     0.009 A 
ATOM     71  C   UNL     1      -3.264 -18.542   7.674  1.00  0.00     0.001 A 
ATOM     72  C   UNL     1      -1.762 -19.192   5.899  1.00  0.00     0.001 A 
ATOM     73  C   UNL     1      -2.145 -19.249   7.238  1.00  0.00     0.000 A 
ENDBRANCH  54  68
BRANCH  55  74
ATOM     74  C   UNL     1      -8.017 -11.144  -0.747  1.00  0.00    -0.014 A 
ATOM     75  C   UNL     1      -9.409 -11.204  -0.913  1.00  0.00     0.009 A 
ATOM     76  C   UNL     1      -7.295 -10.154  -1.433  1.00  0.00     0.009 A 
ATOM     77  C   UNL     1     -10.061 -10.312  -1.766  1.00  0.00     0.001 A 
ATOM     78  C   UNL     1      -7.955  -9.240  -2.258  1.00  0.00     0.001 A 
ATOM     79  C   UNL     1      -9.335  -9.327  -2.432  1.00  0.00     0.000 A 
ENDBRANCH  55  74
BRANCH  67  80
ATOM     80  C   UNL     1      -7.193 -18.078  -0.808  1.00  0.00    -0.014 A 
ATOM     81  C   UNL     1      -6.633 -18.277  -2.078  1.00  0.00     0.009 A 
ATOM     82  C   UNL     1      -8.165 -18.981  -0.344  1.00  0.00     0.009 A 
ATOM     83  C   UNL     1      -7.048 -19.352  -2.868  1.00  0.00     0.001 A 
ATOM     84  C   UNL     1      -8.549 -20.074  -1.119  1.00  0.00     0.001 A 
ATOM     85  C   UNL     1      -7.994 -20.256  -2.383  1.00  0.00     0.000 A 
ENDBRANCH  67  80
ENDBRANCH  41  42
ENDBRANCH  33  36
ENDBRANCH  31  32
ENDBRANCH  30  31
ENDBRANCH   1  30
TORSDOF 15
