REMARK SMILES O=C(NCCCNC(=O)[C@H](CO)NC(=O)[C@H](Cc1ccc(O)cc1)NC(=O)c1ccc(F)cc1)c1ccc(-c2c3nc(c(-c4ccccc4)c4ccc([nH]4)c(-c4ccccc4)c4nc(c(-c5ccccc5)c5ccc2[nH]5)C=C4)C=C3)cc1
REMARK SMILES IDX 7 1 8 2 9 3 6 5 5 6 4 7 3 8 1 9 2 10 35 12 36 13 82 14 37 15
REMARK SMILES IDX 81 16 38 17 39 18 40 19 75 20 41 21 80 22 74 23 76 24 42 25
REMARK SMILES IDX 79 26 73 27 72 28 43 30 65 31 50 32 64 33 51 34 54 35 63 36
REMARK SMILES IDX 77 37 52 38 53 39 62 41 78 42 55 43 44 44 45 45 49 46 46 47
REMARK SMILES IDX 48 48 47 49 66 50 67 51 71 52 68 53 70 54 69 55 56 56 57 57
REMARK SMILES IDX 61 58 58 59 60 60 59 61 10 62 13 63 14 64 15 66 16 67 25 68
REMARK SMILES IDX 26 69 27 71 28 72 29 73 34 74 30 75 33 76 31 77 32 78 17 79
REMARK SMILES IDX 18 80 19 81 24 82 20 83 23 84 21 85 22 86 11 88 12 89
REMARK H PARENT 7 4 3 11 76 29 54 40 13 65 25 70 22 87 12 90
REMARK Flexibility Score: inf
ROOT
ATOM      1  N   UNL     1       5.022   4.239  12.699  1.00  0.00    -0.354 N 
ATOM      2  C   UNL     1       5.376   4.944  11.606  1.00  0.00     0.244 C 
ATOM      3  O   UNL     1       6.304   5.741  11.794  1.00  0.00    -0.273 OA
ATOM      4  H   UNL     1       5.286   4.663  13.547  1.00  0.00     0.163 HD
ENDROOT
BRANCH   1   5
ATOM      5  C   UNL     1       4.330   2.979  12.867  1.00  0.00     0.117 C 
BRANCH   5   6
ATOM      6  C   UNL     1       5.320   1.826  12.950  1.00  0.00     0.042 C 
BRANCH   6   7
ATOM      7  C   UNL     1       6.301   1.968  14.110  1.00  0.00     0.118 C 
BRANCH   7   8
ATOM      8  N   UNL     1       5.620   2.042  15.397  1.00  0.00    -0.352 N 
ATOM      9  O   UNL     1       4.645   1.220  17.255  1.00  0.00    -0.269 OA
ATOM     10  C   UNL     1       5.481   1.085  16.370  1.00  0.00     0.251 C 
ATOM     11  H   UNL     1       5.196   2.908  15.598  1.00  0.00     0.163 HD
BRANCH  10  12
ATOM     12  C   UNL     1       6.352  -0.105  16.344  1.00  0.00     0.039 A 
ATOM     13  C   UNL     1       7.712   0.035  16.064  1.00  0.00     0.014 A 
ATOM     14  C   UNL     1       5.816  -1.360  16.644  1.00  0.00     0.014 A 
ATOM     15  C   UNL     1       8.512  -1.090  15.947  1.00  0.00     0.010 A 
ATOM     16  C   UNL     1       6.647  -2.482  16.631  1.00  0.00     0.010 A 
ATOM     17  C   UNL     1       7.998  -2.354  16.273  1.00  0.00    -0.014 A 
BRANCH  17  18
ATOM     18  C   UNL     1       8.928  -3.503  16.353  1.00  0.00     0.031 A 
ATOM     19  C   UNL     1       8.792  -4.683  15.438  1.00  0.00     0.074 A 
ATOM     20  C   UNL     1       9.908  -3.458  17.278  1.00  0.00     0.049 A 
ATOM     21  N   UNL     1       9.511  -5.775  15.401  1.00  0.00    -0.248 NA
ATOM     22  C   UNL     1       7.709  -4.641  14.443  1.00  0.00     0.031 C 
ATOM     23  C   UNL     1      10.127  -2.355  18.222  1.00  0.00     0.029 A 
ATOM     24  N   UNL     1      10.906  -4.347  17.574  1.00  0.00    -0.354 N 
ATOM     25  C   UNL     1       8.956  -6.561  14.401  1.00  0.00     0.074 A 
ATOM     26  C   UNL     1       7.830  -5.828  13.863  1.00  0.00     0.031 C 
ATOM     27  C   UNL     1      11.213  -2.616  18.961  1.00  0.00     0.029 A 
ATOM     28  C   UNL     1      11.716  -3.935  18.605  1.00  0.00     0.049 A 
ATOM     29  H   UNL     1      11.032  -5.198  17.095  1.00  0.00     0.167 HD
ATOM     30  C   UNL     1       9.353  -7.785  13.977  1.00  0.00     0.031 A 
ATOM     31  C   UNL     1      12.729  -4.564  19.225  1.00  0.00     0.031 A 
ATOM     32  C   UNL     1      10.476  -8.501  14.524  1.00  0.00     0.049 A 
ATOM     33  C   UNL     1      13.108  -5.940  18.766  1.00  0.00     0.074 A 
ATOM     34  C   UNL     1      10.991  -9.724  14.129  1.00  0.00     0.029 A 
ATOM     35  N   UNL     1      11.249  -8.068  15.591  1.00  0.00    -0.354 N 
ATOM     36  N   UNL     1      12.610  -6.646  17.780  1.00  0.00    -0.248 NA
ATOM     37  C   UNL     1      14.185  -6.609  19.506  1.00  0.00     0.031 C 
ATOM     38  C   UNL     1      12.029 -10.062  15.002  1.00  0.00     0.029 A 
ATOM     39  C   UNL     1      12.207  -9.020  15.898  1.00  0.00     0.049 A 
ATOM     40  H   UNL     1      11.134  -7.210  16.061  1.00  0.00     0.167 HD
ATOM     41  C   UNL     1      13.321  -7.836  17.772  1.00  0.00     0.074 A 
ATOM     42  C   UNL     1      14.304  -7.744  18.833  1.00  0.00     0.031 C 
ATOM     43  C   UNL     1      13.171  -8.911  16.962  1.00  0.00     0.031 A 
BRANCH  30  44
ATOM     44  C   UNL     1       8.547  -8.454  12.898  1.00  0.00    -0.014 A 
ATOM     45  C   UNL     1       8.581  -8.006  11.569  1.00  0.00     0.009 A 
ATOM     46  C   UNL     1       7.793  -9.598  13.209  1.00  0.00     0.009 A 
ATOM     47  C   UNL     1       7.857  -8.676  10.579  1.00  0.00     0.001 A 
ATOM     48  C   UNL     1       7.093 -10.281  12.214  1.00  0.00     0.001 A 
ATOM     49  C   UNL     1       7.120  -9.816  10.900  1.00  0.00     0.000 A 
ENDBRANCH  30  44
BRANCH  31  50
ATOM     50  C   UNL     1      13.411  -3.919  20.377  1.00  0.00    -0.014 A 
ATOM     51  C   UNL     1      14.752  -3.521  20.288  1.00  0.00     0.009 A 
ATOM     52  C   UNL     1      12.715  -3.697  21.578  1.00  0.00     0.009 A 
ATOM     53  C   UNL     1      15.390  -2.940  21.387  1.00  0.00     0.001 A 
ATOM     54  C   UNL     1      13.345  -3.084  22.661  1.00  0.00     0.001 A 
ATOM     55  C   UNL     1      14.685  -2.718  22.570  1.00  0.00     0.000 A 
ENDBRANCH  31  50
BRANCH  43  56
ATOM     56  C   UNL     1      14.108 -10.064  17.180  1.00  0.00    -0.014 A 
ATOM     57  C   UNL     1      13.984 -10.899  18.302  1.00  0.00     0.009 A 
ATOM     58  C   UNL     1      15.101 -10.343  16.228  1.00  0.00     0.009 A 
ATOM     59  C   UNL     1      14.856 -11.974  18.480  1.00  0.00     0.001 A 
ATOM     60  C   UNL     1      15.950 -11.437  16.392  1.00  0.00     0.001 A 
ATOM     61  C   UNL     1      15.832 -12.246  17.522  1.00  0.00     0.000 A 
ENDBRANCH  43  56
ENDBRANCH  17  18
ENDBRANCH  10  12
ENDBRANCH   7   8
ENDBRANCH   6   7
ENDBRANCH   5   6
ENDBRANCH   1   5
BRANCH   2  62
ATOM     62  C   UNL     1       4.813   4.744  10.182  1.00  0.00     0.197 C 
BRANCH  62  63
ATOM     63  N   UNL     1       5.739   3.947   9.367  1.00  0.00    -0.340 N 
ATOM     64  C   UNL     1       6.310   4.189   8.153  1.00  0.00     0.243 C 
ATOM     65  H   UNL     1       5.992   3.085   9.770  1.00  0.00     0.164 HD
ATOM     66  O   UNL     1       7.102   3.336   7.745  1.00  0.00    -0.273 OA
BRANCH  64  67
ATOM     67  C   UNL     1       5.963   5.448   7.321  1.00  0.00     0.176 C 
BRANCH  67  68
ATOM     68  N   UNL     1       7.203   6.105   6.888  1.00  0.00    -0.340 N 
ATOM     69  C   UNL     1       7.761   7.320   7.178  1.00  0.00     0.251 C 
ATOM     70  H   UNL     1       7.739   5.563   6.264  1.00  0.00     0.164 HD
ATOM     71  O   UNL     1       8.762   7.692   6.572  1.00  0.00    -0.269 OA
BRANCH  69  72
ATOM     72  C   UNL     1       7.177   8.213   8.197  1.00  0.00     0.040 A 
ATOM     73  C   UNL     1       6.871   7.741   9.473  1.00  0.00     0.017 A 
ATOM     74  C   UNL     1       7.038   9.576   7.911  1.00  0.00     0.017 A 
ATOM     75  C   UNL     1       6.329   8.602  10.430  1.00  0.00     0.040 A 
ATOM     76  C   UNL     1       6.520  10.444   8.877  1.00  0.00     0.040 A 
ATOM     77  C   UNL     1       6.151   9.944  10.121  1.00  0.00     0.123 A 
ATOM     78  F   UNL     1       5.638  10.769  11.042  1.00  0.00    -0.207 F 
ENDBRANCH  69  72
ENDBRANCH  67  68
BRANCH  67  79
ATOM     79  C   UNL     1       5.012   5.083   6.146  1.00  0.00     0.070 C 
BRANCH  79  80
ATOM     80  C   UNL     1       5.587   4.791   4.770  1.00  0.00    -0.045 A 
ATOM     81  C   UNL     1       4.940   5.310   3.632  1.00  0.00     0.007 A 
ATOM     82  C   UNL     1       6.723   3.995   4.570  1.00  0.00     0.007 A 
ATOM     83  C   UNL     1       5.461   5.113   2.349  1.00  0.00     0.046 A 
ATOM     84  C   UNL     1       7.259   3.816   3.292  1.00  0.00     0.046 A 
ATOM     85  C   UNL     1       6.634   4.386   2.193  1.00  0.00     0.115 A 
BRANCH  85  86
ATOM     86  O   UNL     1       7.207   4.207   0.970  1.00  0.00    -0.508 OA
ATOM     87  H   UNL     1       6.809   4.579   0.207  1.00  0.00     0.293 HD
ENDBRANCH  85  86
ENDBRANCH  79  80
ENDBRANCH  67  79
ENDBRANCH  64  67
ENDBRANCH  62  63
BRANCH  62  88
ATOM     88  C   UNL     1       3.365   4.279  10.037  1.00  0.00     0.191 C 
BRANCH  88  89
ATOM     89  O   UNL     1       3.276   2.872   9.806  1.00  0.00    -0.394 OA
ATOM     90  H   UNL     1       3.732   2.651   8.979  1.00  0.00     0.210 HD
ENDBRANCH  88  89
ENDBRANCH  62  88
ENDBRANCH   2  62
TORSDOF 19
