REMARK SMILES COc1ccc(-c2ccc(C(=O)NCc3ccc(C(=O)NCCCNC(=O)c4ccc(-c5c6nc(c(-c7ccccc7)c7ccc([nH]7)c(-c7ccccc7)c7nc(c(-c8ccccc8)c8ccc5[nH]8)C=C7)C=C6)cc4)cc3)o2)c([N+](=O)[O-])c1
REMARK SMILES IDX 19 1 20 2 21 3 18 5 15 6 16 7 77 8 17 9 76 10 14 11 13 12
REMARK SMILES IDX 11 13 12 14 10 16 7 17 8 18 78 19 9 20 6 21 3 22 4 23 83 24
REMARK SMILES IDX 5 25 79 26 2 27 1 28 80 29 81 30 82 31 22 32 23 33 24 34
REMARK SMILES IDX 25 35 26 36 27 38 28 39 29 40 75 41 30 42 74 43 31 44 32 45
REMARK SMILES IDX 33 46 68 47 34 48 73 49 67 50 69 51 35 52 72 53 66 54 65 55
REMARK SMILES IDX 36 57 58 58 43 59 57 60 44 61 47 62 56 63 70 64 45 65 46 66
REMARK SMILES IDX 55 68 71 69 48 70 37 71 38 72 42 73 39 74 41 75 40 76 59 77
REMARK SMILES IDX 60 78 64 79 61 80 63 81 62 82 49 83 50 84 54 85 51 86 53 87
REMARK SMILES IDX 52 88
REMARK H PARENT 21 4 13 15 25 37 69 56 47 67
REMARK Flexibility Score: inf
ROOT
ATOM      1  C   UNL     1       2.979  15.113   2.206  1.00  0.00     0.251 C 
ATOM      2  O   UNL     1       3.564  16.099   2.658  1.00  0.00    -0.269 OA
ATOM      3  N   UNL     1       2.264  15.286   1.051  1.00  0.00    -0.352 N 
ATOM      4  H   UNL     1       2.271  16.212   0.717  1.00  0.00     0.163 HD
ENDROOT
BRANCH   1   5
ATOM      5  C   UNL     1       3.123  13.806   2.906  1.00  0.00     0.039 A 
ATOM      6  C   UNL     1       3.567  11.389   4.328  1.00  0.00    -0.029 A 
ATOM      7  C   UNL     1       4.502  12.432   4.376  1.00  0.00     0.006 A 
ATOM      8  C   UNL     1       2.408  11.579   3.562  1.00  0.00     0.006 A 
ATOM      9  C   UNL     1       4.280  13.624   3.678  1.00  0.00     0.014 A 
ATOM     10  C   UNL     1       2.175  12.784   2.888  1.00  0.00     0.014 A 
BRANCH   6  11
ATOM     11  C   UNL     1       3.846  10.104   5.074  1.00  0.00     0.152 C 
BRANCH  11  12
ATOM     12  N   UNL     1       2.640   9.430   5.503  1.00  0.00    -0.345 N 
ATOM     13  C   UNL     1       1.965   8.342   5.009  1.00  0.00     0.287 C 
ATOM     14  O   UNL     1       0.977   7.992   5.668  1.00  0.00    -0.266 OA
ATOM     15  H   UNL     1       2.225   9.827   6.302  1.00  0.00     0.164 HD
BRANCH  13  16
ATOM     16  C   UNL     1       2.369   7.665   3.790  1.00  0.00     0.192 A 
ATOM     17  C   UNL     1       2.288   5.958   2.376  1.00  0.00     0.142 A 
ATOM     18  C   UNL     1       3.184   6.855   1.843  1.00  0.00     0.052 A 
ATOM     19  O   UNL     1       1.775   6.446   3.536  1.00  0.00    -0.451 OA
ATOM     20  C   UNL     1       3.215   7.957   2.732  1.00  0.00     0.057 A 
BRANCH  17  21
ATOM     21  C   UNL     1       1.782   4.670   1.933  1.00  0.00     0.095 A 
ATOM     22  C   UNL     1       0.757   2.322   0.718  1.00  0.00     0.125 A 
ATOM     23  C   UNL     1      -0.066   3.427   0.946  1.00  0.00     0.047 A 
ATOM     24  C   UNL     1       2.084   2.365   1.134  1.00  0.00     0.132 A 
ATOM     25  C   UNL     1       0.434   4.583   1.556  1.00  0.00     0.023 A 
ATOM     26  C   UNL     1       2.586   3.536   1.739  1.00  0.00     0.284 A 
BRANCH  22  27
ATOM     27  O   UNL     1       0.153   1.290   0.056  1.00  0.00    -0.497 OA
ATOM     28  C   UNL     1       0.849   0.050   0.004  1.00  0.00     0.278 C 
ENDBRANCH  22  27
BRANCH  26  29
ATOM     29  N   UNL     1       3.987   3.524   2.151  1.00  0.00     0.063 N 
ATOM     30  O   UNL     1       4.284   4.036   3.237  1.00  0.00    -0.258 OA
ATOM     31  O   UNL     1       4.791   2.965   1.390  1.00  0.00    -0.258 OA
ENDBRANCH  26  29
ENDBRANCH  17  21
ENDBRANCH  13  16
ENDBRANCH  11  12
ENDBRANCH   6  11
ENDBRANCH   1   5
BRANCH   3  32
ATOM     32  C   UNL     1       1.497  14.376   0.221  1.00  0.00     0.118 C 
BRANCH  32  33
ATOM     33  C   UNL     1      -0.002  14.539   0.473  1.00  0.00     0.042 C 
BRANCH  33  34
ATOM     34  C   UNL     1      -0.574  15.831  -0.111  1.00  0.00     0.118 C 
BRANCH  34  35
ATOM     35  N   UNL     1      -0.544  15.828  -1.568  1.00  0.00    -0.352 N 
ATOM     36  C   UNL     1      -1.567  15.937  -2.475  1.00  0.00     0.251 C 
ATOM     37  H   UNL     1       0.352  15.733  -1.964  1.00  0.00     0.163 HD
ATOM     38  O   UNL     1      -1.360  15.664  -3.654  1.00  0.00    -0.269 OA
BRANCH  36  39
ATOM     39  C   UNL     1      -2.913  16.375  -2.048  1.00  0.00     0.039 A 
ATOM     40  C   UNL     1      -4.031  15.765  -2.624  1.00  0.00     0.014 A 
ATOM     41  C   UNL     1      -3.080  17.415  -1.130  1.00  0.00     0.014 A 
ATOM     42  C   UNL     1      -5.314  16.163  -2.242  1.00  0.00     0.010 A 
ATOM     43  C   UNL     1      -4.357  17.761  -0.696  1.00  0.00     0.010 A 
ATOM     44  C   UNL     1      -5.488  17.144  -1.252  1.00  0.00    -0.014 A 
BRANCH  44  45
ATOM     45  C   UNL     1      -6.844  17.527  -0.783  1.00  0.00     0.031 A 
ATOM     46  C   UNL     1      -7.357  18.925  -0.996  1.00  0.00     0.074 A 
ATOM     47  C   UNL     1      -7.590  16.627  -0.114  1.00  0.00     0.049 A 
ATOM     48  N   UNL     1      -8.496  19.451  -0.620  1.00  0.00    -0.248 NA
ATOM     49  C   UNL     1      -6.470  19.863  -1.704  1.00  0.00     0.031 C 
ATOM     50  C   UNL     1      -7.190  15.250   0.189  1.00  0.00     0.029 A 
ATOM     51  N   UNL     1      -8.841  16.736   0.439  1.00  0.00    -0.354 N 
ATOM     52  C   UNL     1      -8.450  20.781  -1.022  1.00  0.00     0.074 A 
ATOM     53  C   UNL     1      -7.158  20.993  -1.636  1.00  0.00     0.031 C 
ATOM     54  C   UNL     1      -8.188  14.635   0.844  1.00  0.00     0.029 A 
ATOM     55  C   UNL     1      -9.277  15.583   1.049  1.00  0.00     0.049 A 
ATOM     56  H   UNL     1      -9.377  17.561   0.402  1.00  0.00     0.167 HD
ATOM     57  C   UNL     1      -9.404  21.735  -0.902  1.00  0.00     0.031 A 
ATOM     58  C   UNL     1     -10.421  15.323   1.709  1.00  0.00     0.031 A 
ATOM     59  C   UNL     1     -10.695  21.516  -0.306  1.00  0.00     0.049 A 
ATOM     60  C   UNL     1     -11.453  16.409   1.840  1.00  0.00     0.074 A 
ATOM     61  C   UNL     1     -11.757  22.399  -0.206  1.00  0.00     0.029 A 
ATOM     62  N   UNL     1     -11.097  20.336   0.299  1.00  0.00    -0.354 N 
ATOM     63  N   UNL     1     -11.430  17.634   1.374  1.00  0.00    -0.248 NA
ATOM     64  C   UNL     1     -12.676  16.070   2.582  1.00  0.00     0.031 C 
ATOM     65  C   UNL     1     -12.777  21.774   0.517  1.00  0.00     0.029 A 
ATOM     66  C   UNL     1     -12.377  20.480   0.807  1.00  0.00     0.049 A 
ATOM     67  H   UNL     1     -10.553  19.518   0.358  1.00  0.00     0.167 HD
ATOM     68  C   UNL     1     -12.646  18.199   1.735  1.00  0.00     0.074 A 
ATOM     69  C   UNL     1     -13.390  17.177   2.441  1.00  0.00     0.031 C 
ATOM     70  C   UNL     1     -13.107  19.452   1.502  1.00  0.00     0.031 A 
BRANCH  57  71
ATOM     71  C   UNL     1      -9.086  23.114  -1.413  1.00  0.00    -0.014 A 
ATOM     72  C   UNL     1      -8.976  23.380  -2.787  1.00  0.00     0.009 A 
ATOM     73  C   UNL     1      -8.959  24.177  -0.505  1.00  0.00     0.009 A 
ATOM     74  C   UNL     1      -8.715  24.676  -3.238  1.00  0.00     0.001 A 
ATOM     75  C   UNL     1      -8.728  25.477  -0.960  1.00  0.00     0.001 A 
ATOM     76  C   UNL     1      -8.598  25.724  -2.325  1.00  0.00     0.000 A 
ENDBRANCH  57  71
BRANCH  58  77
ATOM     77  C   UNL     1     -10.663  13.978   2.297  1.00  0.00    -0.014 A 
ATOM     78  C   UNL     1     -11.674  13.148   1.787  1.00  0.00     0.009 A 
ATOM     79  C   UNL     1      -9.912  13.531   3.395  1.00  0.00     0.009 A 
ATOM     80  C   UNL     1     -11.953  11.919   2.389  1.00  0.00     0.001 A 
ATOM     81  C   UNL     1     -10.170  12.286   3.973  1.00  0.00     0.001 A 
ATOM     82  C   UNL     1     -11.200  11.488   3.479  1.00  0.00     0.000 A 
ENDBRANCH  58  77
BRANCH  70  83
ATOM     83  C   UNL     1     -14.497  19.773   1.976  1.00  0.00    -0.014 A 
ATOM     84  C   UNL     1     -14.794  19.902   3.342  1.00  0.00     0.009 A 
ATOM     85  C   UNL     1     -15.517  19.983   1.035  1.00  0.00     0.009 A 
ATOM     86  C   UNL     1     -16.095  20.197   3.755  1.00  0.00     0.001 A 
ATOM     87  C   UNL     1     -16.808  20.312   1.450  1.00  0.00     0.001 A 
ATOM     88  C   UNL     1     -17.099  20.407   2.810  1.00  0.00     0.000 A 
ENDBRANCH  70  83
ENDBRANCH  44  45
ENDBRANCH  36  39
ENDBRANCH  34  35
ENDBRANCH  33  34
ENDBRANCH  32  33
ENDBRANCH   3  32
TORSDOF 16
