REMARK SMILES O=C(C[C@@H]1C(=O)O[C@H]2[C@@H]3OC(=O)c4cc(O)c(O)c(O)c4-c4ccccc4C(=O)OC[C@H]2O[C@@H](OC(=O)c2cc(O)c(O)c(O)c2)[C@@H]3OC(=O)c2cc(O)c(O)c3c2[C@H]1[C@H](O)C(=O)O3)NCCCNC(=O)c1ccc(-c2c3nc(c(-c4ccccc4)c4ccc([nH]4)c(-c4ccccc4)c4nc(c(-c5ccccc5)c5ccc2[nH]5)C=C4)C=C3)cc1
REMARK SMILES IDX 51 1 52 2 53 3 55 4 57 5 58 6 59 7 60 8 62 9 63 10 64 11
REMARK SMILES IDX 4 12 3 14 2 15 1 16 65 17 66 19 67 20 68 21 69 22 70 23
REMARK SMILES IDX 71 25 72 26 73 27 119 28 74 29 118 30 75 31 76 32 77 33
REMARK SMILES IDX 112 34 78 35 117 36 111 37 113 38 79 39 116 40 110 41 109 42
REMARK SMILES IDX 80 44 102 45 87 46 101 47 88 48 91 49 100 50 114 51 89 52
REMARK SMILES IDX 90 53 99 55 115 56 92 57 81 58 82 59 86 60 83 61 85 62 84 63
REMARK SMILES IDX 103 64 104 65 108 66 105 67 107 68 106 69 93 70 94 71 98 72
REMARK SMILES IDX 95 73 97 74 96 75 61 76 49 78 50 79 48 80 47 81 9 82 34 83
REMARK SMILES IDX 8 84 33 85 32 86 10 88 11 89 12 90 13 91 14 92 21 93 15 94
REMARK SMILES IDX 19 95 17 96 22 97 23 98 27 99 24 100 26 101 25 102 28 103
REMARK SMILES IDX 29 104 30 105 31 106 16 108 20 110 18 112 35 114 36 115
REMARK SMILES IDX 37 116 38 117 39 118 46 119 40 120 44 121 42 122 41 123
REMARK SMILES IDX 45 125 43 127 7 129 5 130 6 131 56 133 54 135
REMARK H PARENT 65 18 69 24 113 43 91 54 61 77 16 109 20 111 18 113 41 124
REMARK H PARENT 45 126 43 128 56 134 54 136
REMARK Flexibility Score: 170.00
ROOT
ATOM      1  C   UNL     1       3.829  -3.055   5.111  1.00  0.00     0.071 A 
ATOM      2  C   UNL     1       3.120  -3.353   6.312  1.00  0.00     0.066 A 
ATOM      3  C   UNL     1       2.284  -4.505   6.458  1.00  0.00     0.162 A 
ATOM      4  C   UNL     1       2.166  -5.494   5.492  1.00  0.00     0.201 A 
ATOM      5  C   UNL     1       2.858  -5.336   4.332  1.00  0.00     0.180 A 
ATOM      6  C   UNL     1       3.647  -4.170   4.114  1.00  0.00     0.021 A 
ATOM      7  C   UNL     1       4.302  -4.339   2.788  1.00  0.00     0.079 C 
ATOM      8  C   UNL     1       4.601  -5.750   2.163  1.00  0.00     0.232 C 
ATOM      9  C   UNL     1       3.332  -6.538   2.138  1.00  0.00     0.341 C 
ATOM     10  O   UNL     1       3.067  -7.382   1.293  1.00  0.00    -0.249 OA
ATOM     11  O   UNL     1       2.626  -6.360   3.339  1.00  0.00    -0.420 OA
ENDROOT
BRANCH   7  12
ATOM     12  C   UNL     1       4.330  -2.924   2.038  1.00  0.00     0.119 CG0
ATOM     13  G   UNL     1       5.932  -2.737   3.206  1.00  0.00     0.000 G0
BRANCH  12  14
ATOM     14  C   UNL     1       4.179  -1.579   0.410  1.00  0.00     0.116 C 
BRANCH  14  15
ATOM     15  C   UNL     1       3.761   0.178  -0.124  1.00  0.00     0.220 C 
ATOM     16  O   UNL     1       3.472   1.121   0.611  1.00  0.00    -0.275 OA
ATOM     17  N   UNL     1       3.791   0.341  -1.510  1.00  0.00    -0.356 N 
ATOM     18  H   UNL     1       4.598   0.044  -1.988  1.00  0.00     0.163 HD
BRANCH  17  19
ATOM     19  C   UNL     1       2.708   0.921  -2.298  1.00  0.00     0.117 C 
BRANCH  19  20
ATOM     20  C   UNL     1       2.771   2.418  -2.545  1.00  0.00     0.042 C 
BRANCH  20  21
ATOM     21  C   UNL     1       4.097   2.911  -3.098  1.00  0.00     0.118 C 
BRANCH  21  22
ATOM     22  N   UNL     1       4.462   2.360  -4.399  1.00  0.00    -0.352 N 
ATOM     23  C   UNL     1       5.102   2.979  -5.451  1.00  0.00     0.251 C 
ATOM     24  H   UNL     1       4.218   1.418  -4.545  1.00  0.00     0.163 HD
ATOM     25  O   UNL     1       5.341   2.371  -6.489  1.00  0.00    -0.269 OA
BRANCH  23  26
ATOM     26  C   UNL     1       5.470   4.406  -5.332  1.00  0.00     0.039 A 
ATOM     27  C   UNL     1       6.161   4.848  -4.214  1.00  0.00     0.014 A 
ATOM     28  C   UNL     1       5.066   5.324  -6.304  1.00  0.00     0.014 A 
ATOM     29  C   UNL     1       6.246   6.212  -3.969  1.00  0.00     0.010 A 
ATOM     30  C   UNL     1       5.244   6.701  -6.086  1.00  0.00     0.010 A 
ATOM     31  C   UNL     1       5.768   7.169  -4.872  1.00  0.00    -0.014 A 
BRANCH  31  32
ATOM     32  C   UNL     1       5.738   8.613  -4.464  1.00  0.00     0.031 A 
ATOM     33  C   UNL     1       4.435   9.382  -4.467  1.00  0.00     0.074 A 
ATOM     34  C   UNL     1       6.839   9.222  -3.969  1.00  0.00     0.049 A 
ATOM     35  N   UNL     1       4.223  10.651  -4.213  1.00  0.00    -0.248 NA
ATOM     36  C   UNL     1       3.211   8.635  -4.800  1.00  0.00     0.031 C 
ATOM     37  C   UNL     1       8.151   8.595  -3.807  1.00  0.00     0.029 A 
ATOM     38  N   UNL     1       7.023  10.490  -3.461  1.00  0.00    -0.354 N 
ATOM     39  C   UNL     1       2.862  10.861  -4.413  1.00  0.00     0.074 A 
ATOM     40  C   UNL     1       2.297   9.596  -4.824  1.00  0.00     0.031 C 
ATOM     41  C   UNL     1       8.967   9.435  -3.157  1.00  0.00     0.029 A 
ATOM     42  C   UNL     1       8.293  10.716  -2.981  1.00  0.00     0.049 A 
ATOM     43  H   UNL     1       6.312  11.171  -3.444  1.00  0.00     0.167 HD
ATOM     44  C   UNL     1       2.146  12.001  -4.263  1.00  0.00     0.031 A 
ATOM     45  C   UNL     1       8.882  11.829  -2.496  1.00  0.00     0.031 A 
ATOM     46  C   UNL     1       2.695  13.251  -3.803  1.00  0.00     0.049 A 
ATOM     47  C   UNL     1       8.092  13.106  -2.425  1.00  0.00     0.074 A 
ATOM     48  C   UNL     1       2.039  14.457  -3.625  1.00  0.00     0.029 A 
ATOM     49  N   UNL     1       4.014  13.456  -3.431  1.00  0.00    -0.354 N 
ATOM     50  N   UNL     1       6.822  13.302  -2.680  1.00  0.00    -0.248 NA
ATOM     51  C   UNL     1       8.816  14.320  -2.020  1.00  0.00     0.031 C 
ATOM     52  C   UNL     1       2.976  15.412  -3.233  1.00  0.00     0.029 A 
ATOM     53  C   UNL     1       4.197  14.780  -3.065  1.00  0.00     0.049 A 
ATOM     54  H   UNL     1       4.715  12.765  -3.427  1.00  0.00     0.167 HD
ATOM     55  C   UNL     1       6.591  14.653  -2.455  1.00  0.00     0.074 A 
ATOM     56  C   UNL     1       7.845  15.225  -2.013  1.00  0.00     0.031 C 
ATOM     57  C   UNL     1       5.442  15.352  -2.614  1.00  0.00     0.031 A 
BRANCH  44  58
ATOM     58  C   UNL     1       0.683  11.986  -4.630  1.00  0.00    -0.014 A 
ATOM     59  C   UNL     1       0.238  12.771  -5.709  1.00  0.00     0.009 A 
ATOM     60  C   UNL     1      -0.267  11.303  -3.857  1.00  0.00     0.009 A 
ATOM     61  C   UNL     1      -1.124  12.896  -5.988  1.00  0.00     0.001 A 
ATOM     62  C   UNL     1      -1.628  11.397  -4.164  1.00  0.00     0.001 A 
ATOM     63  C   UNL     1      -2.056  12.205  -5.217  1.00  0.00     0.000 A 
ENDBRANCH  44  58
BRANCH  45  64
ATOM     64  C   UNL     1      10.318  11.785  -2.086  1.00  0.00    -0.014 A 
ATOM     65  C   UNL     1      11.319  11.469  -3.023  1.00  0.00     0.009 A 
ATOM     66  C   UNL     1      10.697  12.013  -0.755  1.00  0.00     0.009 A 
ATOM     67  C   UNL     1      12.650  11.324  -2.629  1.00  0.00     0.001 A 
ATOM     68  C   UNL     1      12.039  11.916  -0.372  1.00  0.00     0.001 A 
ATOM     69  C   UNL     1      13.011  11.553  -1.304  1.00  0.00     0.000 A 
ENDBRANCH  45  64
BRANCH  57  70
ATOM     70  C   UNL     1       5.448  16.824  -2.296  1.00  0.00    -0.014 A 
ATOM     71  C   UNL     1       4.651  17.312  -1.245  1.00  0.00     0.009 A 
ATOM     72  C   UNL     1       6.129  17.742  -3.109  1.00  0.00     0.009 A 
ATOM     73  C   UNL     1       4.510  18.685  -1.037  1.00  0.00     0.001 A 
ATOM     74  C   UNL     1       6.019  19.115  -2.873  1.00  0.00     0.001 A 
ATOM     75  C   UNL     1       5.197  19.585  -1.849  1.00  0.00     0.000 A 
ENDBRANCH  57  70
ENDBRANCH  31  32
ENDBRANCH  23  26
ENDBRANCH  21  22
ENDBRANCH  20  21
ENDBRANCH  19  20
ENDBRANCH  17  19
ENDBRANCH  14  15
ENDBRANCH  12  14
ENDBRANCH   7  12
BRANCH   8  76
ATOM     76  O   UNL     1       5.508  -5.671   1.073  1.00  0.00    -0.381 OA
ATOM     77  H   UNL     1       5.135  -5.100   0.383  1.00  0.00     0.211 HD
ENDBRANCH   8  76
BRANCH   1  78
ATOM     78  C   UNL     1       4.578  -1.425   5.164  1.00  0.00     0.339 C 
ATOM     79  O   UNL     1       4.297  -0.806   6.200  1.00  0.00    -0.246 OA
BRANCH  78  80
ATOM     80  O   UNL     1       5.544  -0.655   4.269  1.00  0.00    -0.448 OA
BRANCH  80  81
ATOM     81  C   UNL     1       5.409   0.055   2.721  1.00  0.00     0.290 C 
ATOM     82  C   UNL     1       4.526  -0.990   2.264  1.00  0.00     0.267 C 
ATOM     83  C   UNL     1       6.750  -0.053   1.459  1.00  0.00     0.357 C 
ATOM     84  C   UNL     1       6.036  -2.199   1.557  1.00  0.00     0.254 C 
ATOM     85  O   UNL     1       6.697  -1.090   0.050  1.00  0.00    -0.329 OA
ATOM     86  C   UNL     1       6.104  -2.557   0.094  1.00  0.00     0.205 CG1
ATOM     87  G   UNL     1       4.431  -3.549  -0.445  1.00  0.00     0.000 G1
BRANCH  82  88
ATOM     88  O   UNL     1       2.783  -0.880   1.625  1.00  0.00    -0.450 OA
BRANCH  88  89
ATOM     89  C   UNL     1       1.854  -1.240   0.296  1.00  0.00     0.339 C 
ATOM     90  O   UNL     1       2.291  -1.598  -0.807  1.00  0.00    -0.246 OA
BRANCH  89  91
ATOM     91  C   UNL     1       0.368  -1.505   0.208  1.00  0.00     0.075 A 
ATOM     92  C   UNL     1      -0.188  -2.366  -0.765  1.00  0.00     0.066 A 
ATOM     93  C   UNL     1      -0.415  -1.197   1.279  1.00  0.00     0.043 A 
ATOM     94  C   UNL     1      -1.511  -2.795  -0.657  1.00  0.00     0.162 A 
ATOM     95  C   UNL     1      -1.777  -1.527   1.348  1.00  0.00     0.170 A 
ATOM     96  C   UNL     1      -2.320  -2.335   0.368  1.00  0.00     0.200 A 
BRANCH  93  97
ATOM     97  C   UNL     1       0.376  -0.967   2.418  1.00  0.00     0.001 A 
ATOM     98  C   UNL     1       0.374   0.342   2.972  1.00  0.00     0.010 A 
ATOM     99  C   UNL     1       1.201  -2.065   2.827  1.00  0.00     0.068 A 
ATOM    100  C   UNL     1       0.990   0.545   4.173  1.00  0.00     0.001 A 
ATOM    101  C   UNL     1       1.376  -1.894   4.186  1.00  0.00     0.016 A 
ATOM    102  C   UNL     1       1.356  -0.608   4.843  1.00  0.00     0.001 A 
BRANCH  99 103
ATOM    103  C   UNL     1       1.736  -3.407   1.750  1.00  0.00     0.338 C 
ATOM    104  O   UNL     1       1.065  -4.420   1.991  1.00  0.00    -0.246 OA
BRANCH 103 105
ATOM    105  O   UNL     1       2.849  -3.667   0.592  1.00  0.00    -0.459 OA
BRANCH 105 106
ATOM    106  C   UNL     1       4.431  -3.549  -0.445  1.00  0.00     0.269 CG1
ATOM    107  G   UNL     1       6.104  -2.557   0.094  1.00  0.00     0.000 G1
ENDBRANCH 105 106
ENDBRANCH 103 105
ENDBRANCH  99 103
ENDBRANCH  93  97
BRANCH  94 108
ATOM    108  O   UNL     1      -1.984  -3.738  -1.522  1.00  0.00    -0.504 OA
ATOM    109  H   UNL     1      -1.440  -4.051  -2.217  1.00  0.00     0.293 HD
ENDBRANCH  94 108
BRANCH  95 110
ATOM    110  O   UNL     1      -2.580  -1.219   2.416  1.00  0.00    -0.504 OA
ATOM    111  H   UNL     1      -3.484  -1.464   2.408  1.00  0.00     0.293 HD
ENDBRANCH  95 110
BRANCH  96 112
ATOM    112  O   UNL     1      -3.609  -2.778   0.465  1.00  0.00    -0.502 OA
ATOM    113  H   UNL     1      -3.968  -3.326  -0.205  1.00  0.00     0.293 HD
ENDBRANCH  96 112
ENDBRANCH  89  91
ENDBRANCH  88  89
ENDBRANCH  82  88
BRANCH  83 114
ATOM    114  O   UNL     1       7.029   1.266   1.022  1.00  0.00    -0.428 OA
BRANCH 114 115
ATOM    115  C   UNL     1       6.920   1.501  -0.289  1.00  0.00     0.340 C 
ATOM    116  O   UNL     1       6.507   0.869  -1.239  1.00  0.00    -0.246 OA
BRANCH 115 117
ATOM    117  C   UNL     1       7.378   2.845  -0.427  1.00  0.00     0.067 A 
ATOM    118  C   UNL     1       6.383   3.811  -0.377  1.00  0.00     0.066 A 
ATOM    119  C   UNL     1       8.732   3.098  -0.647  1.00  0.00     0.066 A 
ATOM    120  C   UNL     1       6.754   5.101  -0.632  1.00  0.00     0.162 A 
ATOM    121  C   UNL     1       9.080   4.410  -0.871  1.00  0.00     0.162 A 
ATOM    122  C   UNL     1       8.092   5.399  -0.888  1.00  0.00     0.200 A 
BRANCH 120 123
ATOM    123  O   UNL     1       5.767   6.035  -0.694  1.00  0.00    -0.504 OA
ATOM    124  H   UNL     1       4.880   5.792  -0.514  1.00  0.00     0.293 HD
ENDBRANCH 120 123
BRANCH 121 125
ATOM    125  O   UNL     1      10.373   4.779  -1.106  1.00  0.00    -0.504 OA
ATOM    126  H   UNL     1      10.582   5.680  -1.256  1.00  0.00     0.293 HD
ENDBRANCH 121 125
BRANCH 122 127
ATOM    127  O   UNL     1       8.433   6.680  -1.206  1.00  0.00    -0.502 OA
ATOM    128  H   UNL     1       7.778   7.350  -1.220  1.00  0.00     0.293 HD
ENDBRANCH 122 127
ENDBRANCH 115 117
ENDBRANCH 114 115
ENDBRANCH  83 114
BRANCH  84 129
ATOM    129  O   UNL     1       6.961  -2.210   2.507  1.00  0.00    -0.455 OA
BRANCH 129 130
ATOM    130  C   UNL     1       5.932  -2.737   3.206  1.00  0.00     0.310 CG0
ATOM    131  O   UNL     1       6.184  -3.160   4.310  1.00  0.00    -0.252 OA
ATOM    132  G   UNL     1       4.330  -2.924   2.038  1.00  0.00     0.000 G0
ENDBRANCH 129 130
ENDBRANCH  84 129
ENDBRANCH  80  81
ENDBRANCH  78  80
ENDBRANCH   1  78
BRANCH   4 133
ATOM    133  O   UNL     1       1.330  -6.558   5.674  1.00  0.00    -0.502 OA
ATOM    134  H   UNL     1       0.860  -6.652   6.479  1.00  0.00     0.293 HD
ENDBRANCH   4 133
BRANCH   3 135
ATOM    135  O   UNL     1       1.438  -4.592   7.533  1.00  0.00    -0.504 OA
ATOM    136  H   UNL     1       1.477  -3.949   8.213  1.00  0.00     0.293 HD
ENDBRANCH   3 135
TORSDOF 23
