REMARK SMILES O=C(NCCCNC(=O)c1ccc(-c2c3nc(c(-c4ccccc4)c4ccc([nH]4)c(-c4ccccc4)c4nc(c(-c5ccccc5)c5ccc2[nH]5)C=C4)C=C3)cc1)C1=Cc2cc(Cl)cc(-c3ccc(CO)cc3)c2O[C@@H]1C(F)(F)F
REMARK SMILES IDX 4 1 3 2 1 3 2 4 58 6 59 7 76 8 60 9 75 10 61 11 74 12 62 13
REMARK SMILES IDX 65 14 63 15 64 16 77 17 78 18 79 19 80 20 66 21 67 22 73 23
REMARK SMILES IDX 68 24 72 25 69 26 70 27 71 28 5 30 6 31 7 32 8 33 9 35 10 36
REMARK SMILES IDX 11 37 57 38 12 39 56 40 13 41 14 42 15 43 50 44 16 45 55 46
REMARK SMILES IDX 49 47 51 48 17 49 54 50 48 51 47 52 18 54 40 55 25 56 39 57
REMARK SMILES IDX 26 58 29 59 38 60 52 61 27 62 28 63 37 65 53 66 30 67 19 68
REMARK SMILES IDX 20 69 24 70 21 71 23 72 22 73 41 74 42 75 46 76 43 77 45 78
REMARK SMILES IDX 44 79 31 80 32 81 36 82 33 83 35 84 34 85
REMARK H PARENT 3 5 71 29 7 34 51 53 29 64
REMARK Flexibility Score: inf
ROOT
ATOM      1  C   UNL     1       3.025  -0.820   1.882  1.00  0.00     0.118 C 
ENDROOT
BRANCH   1   2
ATOM      2  N   UNL     1       2.191   0.296   1.424  1.00  0.00    -0.352 N 
ATOM      3  O   UNL     1       1.321   1.764  -0.073  1.00  0.00    -0.270 OA
ATOM      4  C   UNL     1       2.208   0.980   0.236  1.00  0.00     0.251 C 
ATOM      5  H   UNL     1       1.514   0.601   2.070  1.00  0.00     0.163 HD
BRANCH   4   6
ATOM      6  C   UNL     1       3.311   0.674  -0.683  1.00  0.00     0.067 C 
ATOM      7  C   UNL     1       4.553   0.988  -0.296  1.00  0.00     0.025 C 
ATOM      8  C   UNL     1       3.030  -0.262  -1.813  1.00  0.00     0.314 C 
ATOM      9  C   UNL     1       5.572   0.007  -0.680  1.00  0.00     0.019 A 
ATOM     10  O   UNL     1       3.895  -1.422  -1.746  1.00  0.00    -0.475 OA
ATOM     11  C   UNL     1       6.853   0.149  -0.141  1.00  0.00     0.032 A 
ATOM     12  C   UNL     1       5.152  -1.233  -1.213  1.00  0.00     0.135 A 
ATOM     13  C   UNL     1       7.675  -0.967  -0.040  1.00  0.00     0.042 A 
ATOM     14  C   UNL     1       5.952  -2.375  -1.044  1.00  0.00     0.026 A 
ATOM     15  Cl  UNL     1       9.189  -0.828   0.766  1.00  0.00    -0.084 Cl
ATOM     16  C   UNL     1       7.224  -2.218  -0.460  1.00  0.00     0.033 A 
BRANCH   8  17
ATOM     17  C   UNL     1       3.095   0.446  -3.177  1.00  0.00     0.429 C 
ATOM     18  F   UNL     1       2.752  -0.394  -4.183  1.00  0.00    -0.167 F 
ATOM     19  F   UNL     1       2.240   1.494  -3.237  1.00  0.00    -0.167 F 
ATOM     20  F   UNL     1       4.331   0.922  -3.459  1.00  0.00    -0.167 F 
ENDBRANCH   8  17
BRANCH  14  21
ATOM     21  C   UNL     1       5.424  -3.738  -1.224  1.00  0.00    -0.015 A 
ATOM     22  C   UNL     1       4.941  -4.433  -0.104  1.00  0.00     0.009 A 
ATOM     23  C   UNL     1       5.447  -4.407  -2.449  1.00  0.00     0.009 A 
ATOM     24  C   UNL     1       4.586  -5.777  -0.168  1.00  0.00     0.007 A 
ATOM     25  C   UNL     1       5.076  -5.758  -2.525  1.00  0.00     0.007 A 
ATOM     26  C   UNL     1       4.672  -6.460  -1.379  1.00  0.00    -0.023 A 
BRANCH  26  27
ATOM     27  C   UNL     1       4.413  -7.940  -1.406  1.00  0.00     0.191 C 
BRANCH  27  28
ATOM     28  O   UNL     1       5.501  -8.646  -0.819  1.00  0.00    -0.392 OA
ATOM     29  H   UNL     1       6.312  -8.464  -1.319  1.00  0.00     0.211 HD
ENDBRANCH  27  28
ENDBRANCH  26  27
ENDBRANCH  14  21
ENDBRANCH   4   6
ENDBRANCH   1   2
BRANCH   1  30
ATOM     30  C   UNL     1       4.069  -0.386   2.914  1.00  0.00     0.042 C 
BRANCH  30  31
ATOM     31  C   UNL     1       4.606  -1.558   3.732  1.00  0.00     0.118 C 
BRANCH  31  32
ATOM     32  N   UNL     1       5.399  -2.516   2.983  1.00  0.00    -0.352 N 
ATOM     33  C   UNL     1       6.105  -3.620   3.420  1.00  0.00     0.251 C 
ATOM     34  H   UNL     1       5.440  -2.354   2.013  1.00  0.00     0.163 HD
ATOM     35  O   UNL     1       6.712  -4.306   2.600  1.00  0.00    -0.269 OA
BRANCH  33  36
ATOM     36  C   UNL     1       6.253  -3.925   4.866  1.00  0.00     0.039 A 
ATOM     37  C   UNL     1       7.490  -4.421   5.299  1.00  0.00     0.014 A 
ATOM     38  C   UNL     1       5.267  -3.640   5.807  1.00  0.00     0.014 A 
ATOM     39  C   UNL     1       7.787  -4.466   6.661  1.00  0.00     0.010 A 
ATOM     40  C   UNL     1       5.597  -3.577   7.155  1.00  0.00     0.010 A 
ATOM     41  C   UNL     1       6.874  -3.949   7.589  1.00  0.00    -0.014 A 
BRANCH  41  42
ATOM     42  C   UNL     1       7.262  -3.698   8.997  1.00  0.00     0.031 A 
ATOM     43  C   UNL     1       6.514  -4.351  10.121  1.00  0.00     0.074 A 
ATOM     44  C   UNL     1       8.213  -2.776   9.251  1.00  0.00     0.049 A 
ATOM     45  N   UNL     1       6.641  -4.170  11.410  1.00  0.00    -0.248 NA
ATOM     46  C   UNL     1       5.450  -5.297   9.747  1.00  0.00     0.031 C 
ATOM     47  C   UNL     1       8.943  -2.006   8.237  1.00  0.00     0.029 A 
ATOM     48  N   UNL     1       8.726  -2.321  10.438  1.00  0.00    -0.354 N 
ATOM     49  C   UNL     1       5.649  -4.945  11.997  1.00  0.00     0.074 A 
ATOM     50  C   UNL     1       4.901  -5.561  10.923  1.00  0.00     0.031 C 
ATOM     51  C   UNL     1       9.839  -1.212   8.843  1.00  0.00     0.029 A 
ATOM     52  C   UNL     1       9.721  -1.385  10.285  1.00  0.00     0.049 A 
ATOM     53  H   UNL     1       8.412  -2.635  11.316  1.00  0.00     0.167 HD
ATOM     54  C   UNL     1       5.398  -5.140  13.313  1.00  0.00     0.031 A 
ATOM     55  C   UNL     1      10.463  -0.744  11.206  1.00  0.00     0.031 A 
ATOM     56  C   UNL     1       6.173  -4.552  14.371  1.00  0.00     0.049 A 
ATOM     57  C   UNL     1      10.226  -1.046  12.656  1.00  0.00     0.074 A 
ATOM     58  C   UNL     1       6.056  -4.737  15.737  1.00  0.00     0.029 A 
ATOM     59  N   UNL     1       7.224  -3.668  14.173  1.00  0.00    -0.354 N 
ATOM     60  N   UNL     1       9.332  -1.840  13.195  1.00  0.00    -0.248 NA
ATOM     61  C   UNL     1      11.108  -0.380  13.623  1.00  0.00     0.031 C 
ATOM     62  C   UNL     1       7.024  -3.946  16.367  1.00  0.00     0.029 A 
ATOM     63  C   UNL     1       7.765  -3.298  15.391  1.00  0.00     0.049 A 
ATOM     64  H   UNL     1       7.539  -3.352  13.296  1.00  0.00     0.167 HD
ATOM     65  C   UNL     1       9.555  -1.785  14.563  1.00  0.00     0.074 A 
ATOM     66  C   UNL     1      10.680  -0.894  14.768  1.00  0.00     0.031 C 
ATOM     67  C   UNL     1       8.887  -2.411  15.562  1.00  0.00     0.031 A 
BRANCH  54  68
ATOM     68  C   UNL     1       4.236  -6.028  13.663  1.00  0.00    -0.014 A 
ATOM     69  C   UNL     1       4.280  -7.411  13.423  1.00  0.00     0.009 A 
ATOM     70  C   UNL     1       3.078  -5.474  14.230  1.00  0.00     0.009 A 
ATOM     71  C   UNL     1       3.168  -8.213  13.693  1.00  0.00     0.001 A 
ATOM     72  C   UNL     1       1.979  -6.283  14.526  1.00  0.00     0.001 A 
ATOM     73  C   UNL     1       2.020  -7.648  14.245  1.00  0.00     0.000 A 
ENDBRANCH  54  68
BRANCH  55  74
ATOM     74  C   UNL     1      11.527   0.201  10.779  1.00  0.00    -0.014 A 
ATOM     75  C   UNL     1      12.878  -0.168  10.872  1.00  0.00     0.009 A 
ATOM     76  C   UNL     1      11.203   1.462  10.257  1.00  0.00     0.009 A 
ATOM     77  C   UNL     1      13.883   0.715  10.472  1.00  0.00     0.001 A 
ATOM     78  C   UNL     1      12.210   2.334   9.835  1.00  0.00     0.001 A 
ATOM     79  C   UNL     1      13.549   1.963   9.950  1.00  0.00     0.000 A 
ENDBRANCH  55  74
BRANCH  67  80
ATOM     80  C   UNL     1       9.378  -2.171  16.958  1.00  0.00    -0.014 A 
ATOM     81  C   UNL     1       9.114  -0.962  17.619  1.00  0.00     0.009 A 
ATOM     82  C   UNL     1      10.079  -3.182  17.631  1.00  0.00     0.009 A 
ATOM     83  C   UNL     1       9.571  -0.760  18.922  1.00  0.00     0.001 A 
ATOM     84  C   UNL     1      10.514  -2.986  18.941  1.00  0.00     0.001 A 
ATOM     85  C   UNL     1      10.265  -1.773  19.583  1.00  0.00     0.000 A 
ENDBRANCH  67  80
ENDBRANCH  41  42
ENDBRANCH  33  36
ENDBRANCH  31  32
ENDBRANCH  30  31
ENDBRANCH   1  30
TORSDOF 14
