REMARK SMILES N#CCOc1ccc2[nH]cc([C@H](C(=O)NCCCNC(=O)c3ccc(-c4c5nc(c(-c6ccccc6)c6ccc([nH]6)c(-c6ccccc6)c6nc(c(-c7ccccc7)c7ccc4[nH]7)C=C6)C=C5)cc3)[NH+]3CC[NH+]([C@@H]4CCS(=O)(=O)C4)CC3)c2c1
REMARK SMILES IDX 16 1 15 2 13 3 14 4 12 6 11 7 5 8 6 9 84 10 7 11 83 12 8 13
REMARK SMILES IDX 9 14 10 15 4 17 3 18 2 19 1 20 70 21 71 22 82 23 72 25 81 26
REMARK SMILES IDX 73 27 74 29 75 30 80 31 76 32 77 33 78 34 79 35 17 36 18 37
REMARK SMILES IDX 19 38 20 39 21 41 22 42 23 43 69 44 24 45 68 46 25 47 26 48
REMARK SMILES IDX 27 49 62 50 28 51 67 52 61 53 63 54 29 55 66 56 60 57 59 58
REMARK SMILES IDX 30 60 52 61 37 62 51 63 38 64 41 65 50 66 64 67 39 68 40 69
REMARK SMILES IDX 49 71 65 72 42 73 31 74 32 75 36 76 33 77 35 78 34 79 53 80
REMARK SMILES IDX 54 81 58 82 55 83 57 84 56 85 43 86 44 87 48 88 45 89 47 90
REMARK SMILES IDX 46 91
REMARK H PARENT 15 5 9 16 70 24 73 28 19 40 63 59 41 70
REMARK Flexibility Score: inf
ROOT
ATOM      1  C   UNL     1       5.439   1.543  -2.743  1.00  0.00     0.118 C 
ENDROOT
BRANCH   1   2
ATOM      2  N   UNL     1       4.852   0.819  -3.858  1.00  0.00    -0.351 N 
ATOM      3  C   UNL     1       5.221   0.691  -5.169  1.00  0.00     0.283 C 
ATOM      4  O   UNL     1       4.299   0.361  -5.922  1.00  0.00    -0.268 OA
ATOM      5  H   UNL     1       4.033   0.325  -3.625  1.00  0.00     0.163 HD
BRANCH   3   6
ATOM      6  C   UNL     1       6.645   1.052  -5.651  1.00  0.00     0.308 C 
BRANCH   6   7
ATOM      7  C   UNL     1       7.436  -0.039  -6.345  1.00  0.00     0.045 A 
ATOM      8  C   UNL     1       5.531  -2.700  -8.314  1.00  0.00     0.121 A 
ATOM      9  C   UNL     1       6.616  -3.019  -9.132  1.00  0.00     0.048 A 
ATOM     10  C   UNL     1       5.718  -1.789  -7.286  1.00  0.00     0.057 A 
ATOM     11  C   UNL     1       7.914  -2.580  -8.850  1.00  0.00     0.030 A 
ATOM     12  C   UNL     1       6.973  -1.181  -7.079  1.00  0.00     0.013 A 
ATOM     13  C   UNL     1       8.056  -1.648  -7.825  1.00  0.00     0.046 A 
ATOM     14  N   UNL     1       9.175  -0.982  -7.396  1.00  0.00    -0.361 N 
ATOM     15  C   UNL     1       8.815   0.004  -6.524  1.00  0.00     0.094 A 
ATOM     16  H   UNL     1      10.097  -1.183  -7.676  1.00  0.00     0.166 HD
BRANCH   8  17
ATOM     17  O   UNL     1       4.220  -3.069  -8.534  1.00  0.00    -0.479 OA
BRANCH  17  18
ATOM     18  C   UNL     1       3.943  -4.487  -8.448  1.00  0.00     0.349 C 
BRANCH  18  19
ATOM     19  C   UNL     1       4.775  -5.178  -9.516  1.00  0.00     0.104 C 
ATOM     20  N   UNL     1       5.466  -5.750 -10.402  1.00  0.00    -0.195 NA
ENDBRANCH  18  19
ENDBRANCH  17  18
ENDBRANCH   8  17
ENDBRANCH   6   7
BRANCH   6  21
ATOM     21  N   UNL     1       6.688   2.270  -6.504  1.00  0.00    -0.312 N 
ATOM     22  C   UNL     1       6.181   2.200  -7.887  1.00  0.00     0.325 C 
ATOM     23  C   UNL     1       6.184   3.450  -5.824  1.00  0.00     0.325 C 
ATOM     24  H   UNL     1       7.695   2.343  -6.650  1.00  0.00     0.349 HD
ATOM     25  C   UNL     1       4.740   2.710  -8.184  1.00  0.00     0.324 C 
ATOM     26  C   UNL     1       4.669   3.677  -5.984  1.00  0.00     0.324 C 
ATOM     27  N   UNL     1       4.235   3.828  -7.364  1.00  0.00    -0.322 N 
ATOM     28  H   UNL     1       3.219   3.749  -7.340  1.00  0.00     0.348 HD
BRANCH  27  29
ATOM     29  C   UNL     1       4.258   5.165  -7.962  1.00  0.00     0.200 C 
ATOM     30  C   UNL     1       5.595   5.913  -8.091  1.00  0.00     0.082 C 
ATOM     31  C   UNL     1       3.278   6.128  -7.262  1.00  0.00     0.201 C 
ATOM     32  C   UNL     1       5.841   6.765  -6.851  1.00  0.00     0.143 C 
ATOM     33  S   UNL     1       4.242   7.202  -6.214  1.00  0.00     0.156 S 
ATOM     34  O   UNL     1       4.159   6.753  -4.841  1.00  0.00    -0.229 OA
ATOM     35  O   UNL     1       3.968   8.580  -6.578  1.00  0.00    -0.229 OA
ENDBRANCH  27  29
ENDBRANCH   6  21
ENDBRANCH   3   6
ENDBRANCH   1   2
BRANCH   1  36
ATOM     36  C   UNL     1       4.806   2.924  -2.515  1.00  0.00     0.042 C 
BRANCH  36  37
ATOM     37  C   UNL     1       3.282   2.980  -2.601  1.00  0.00     0.118 C 
BRANCH  37  38
ATOM     38  N   UNL     1       2.658   2.361  -1.448  1.00  0.00    -0.352 N 
ATOM     39  C   UNL     1       1.931   2.947  -0.443  1.00  0.00     0.251 C 
ATOM     40  H   UNL     1       2.772   1.386  -1.377  1.00  0.00     0.163 HD
ATOM     41  O   UNL     1       1.714   2.320   0.590  1.00  0.00    -0.269 OA
BRANCH  39  42
ATOM     42  C   UNL     1       1.409   4.326  -0.588  1.00  0.00     0.039 A 
ATOM     43  C   UNL     1       1.489   5.191   0.507  1.00  0.00     0.014 A 
ATOM     44  C   UNL     1       0.779   4.749  -1.763  1.00  0.00     0.014 A 
ATOM     45  C   UNL     1       0.966   6.484   0.417  1.00  0.00     0.010 A 
ATOM     46  C   UNL     1       0.309   6.059  -1.872  1.00  0.00     0.010 A 
ATOM     47  C   UNL     1       0.384   6.936  -0.779  1.00  0.00    -0.014 A 
BRANCH  47  48
ATOM     48  C   UNL     1      -0.170   8.312  -0.889  1.00  0.00     0.031 A 
ATOM     49  C   UNL     1      -1.650   8.523  -1.076  1.00  0.00     0.074 A 
ATOM     50  C   UNL     1       0.656   9.376  -0.851  1.00  0.00     0.049 A 
ATOM     51  N   UNL     1      -2.312   9.641  -1.245  1.00  0.00    -0.248 NA
ATOM     52  C   UNL     1      -2.496   7.319  -1.086  1.00  0.00     0.031 C 
ATOM     53  C   UNL     1       2.109   9.316  -0.686  1.00  0.00     0.029 A 
ATOM     54  N   UNL     1       0.389  10.719  -0.954  1.00  0.00    -0.354 N 
ATOM     55  C   UNL     1      -3.644   9.275  -1.389  1.00  0.00     0.074 A 
ATOM     56  C   UNL     1      -3.693   7.830  -1.334  1.00  0.00     0.031 C 
ATOM     57  C   UNL     1       2.602  10.565  -0.677  1.00  0.00     0.029 A 
ATOM     58  C   UNL     1       1.510  11.511  -0.882  1.00  0.00     0.049 A 
ATOM     59  H   UNL     1      -0.520  11.081  -1.068  1.00  0.00     0.167 HD
ATOM     60  C   UNL     1      -4.733  10.068  -1.536  1.00  0.00     0.031 A 
ATOM     61  C   UNL     1       1.646  12.847  -0.986  1.00  0.00     0.031 A 
ATOM     62  C   UNL     1      -4.691  11.505  -1.594  1.00  0.00     0.049 A 
ATOM     63  C   UNL     1       0.425  13.699  -1.209  1.00  0.00     0.074 A 
ATOM     64  C   UNL     1      -5.746  12.394  -1.718  1.00  0.00     0.029 A 
ATOM     65  N   UNL     1      -3.534  12.265  -1.532  1.00  0.00    -0.354 N 
ATOM     66  N   UNL     1      -0.832  13.340  -1.296  1.00  0.00    -0.248 NA
ATOM     67  C   UNL     1       0.646  15.148  -1.338  1.00  0.00     0.031 C 
ATOM     68  C   UNL     1      -5.223  13.689  -1.780  1.00  0.00     0.029 A 
ATOM     69  C   UNL     1      -3.848  13.610  -1.633  1.00  0.00     0.049 A 
ATOM     70  H   UNL     1      -2.624  11.903  -1.431  1.00  0.00     0.167 HD
ATOM     71  C   UNL     1      -1.553  14.517  -1.451  1.00  0.00     0.074 A 
ATOM     72  C   UNL     1      -0.596  15.603  -1.432  1.00  0.00     0.031 C 
ATOM     73  C   UNL     1      -2.890  14.683  -1.594  1.00  0.00     0.031 A 
BRANCH  60  74
ATOM     74  C   UNL     1      -6.074   9.395  -1.648  1.00  0.00    -0.014 A 
ATOM     75  C   UNL     1      -6.664   8.769  -0.538  1.00  0.00     0.009 A 
ATOM     76  C   UNL     1      -6.781   9.436  -2.860  1.00  0.00     0.009 A 
ATOM     77  C   UNL     1      -7.921   8.171  -0.649  1.00  0.00     0.001 A 
ATOM     78  C   UNL     1      -8.051   8.863  -2.959  1.00  0.00     0.001 A 
ATOM     79  C   UNL     1      -8.616   8.225  -1.856  1.00  0.00     0.000 A 
ENDBRANCH  60  74
BRANCH  61  80
ATOM     80  C   UNL     1       2.989  13.478  -0.882  1.00  0.00    -0.014 A 
ATOM     81  C   UNL     1       3.308  14.298   0.211  1.00  0.00     0.009 A 
ATOM     82  C   UNL     1       3.945  13.296  -1.894  1.00  0.00     0.009 A 
ATOM     83  C   UNL     1       4.540  14.954   0.270  1.00  0.00     0.001 A 
ATOM     84  C   UNL     1       5.188  13.927  -1.817  1.00  0.00     0.001 A 
ATOM     85  C   UNL     1       5.479  14.766  -0.743  1.00  0.00     0.000 A 
ENDBRANCH  61  80
BRANCH  73  86
ATOM     86  C   UNL     1      -3.407  16.092  -1.679  1.00  0.00    -0.014 A 
ATOM     87  C   UNL     1      -3.202  16.883  -2.820  1.00  0.00     0.009 A 
ATOM     88  C   UNL     1      -4.152  16.620  -0.612  1.00  0.00     0.009 A 
ATOM     89  C   UNL     1      -3.704  18.185  -2.876  1.00  0.00     0.001 A 
ATOM     90  C   UNL     1      -4.679  17.910  -0.683  1.00  0.00     0.001 A 
ATOM     91  C   UNL     1      -4.447  18.695  -1.810  1.00  0.00     0.000 A 
ENDBRANCH  73  86
ENDBRANCH  47  48
ENDBRANCH  39  42
ENDBRANCH  37  38
ENDBRANCH  36  37
ENDBRANCH   1  36
TORSDOF 16
