REMARK SMILES CCN(CC)c1ccc([C@@H]2c3[nH]c4ccccc4c3C[C@@H](C(=O)NCCCNC(=O)c3ccc(-c4c5nc(c(-c6ccccc6)c6ccc([nH]6)c(-c6ccccc6)c6nc(c(-c7ccccc7)c7ccc4[nH]7)C=C6)C=C5)cc3)N2C(C)=O)cc1
REMARK SMILES IDX 25 1 24 2 22 3 23 4 21 6 10 7 11 8 79 9 12 10 19 11 13 12
REMARK SMILES IDX 18 14 20 15 14 16 17 17 15 18 16 19 9 20 6 21 7 22 84 23
REMARK SMILES IDX 8 24 83 25 3 26 2 27 1 28 4 29 5 30 80 31 81 32 82 33 26 34
REMARK SMILES IDX 27 35 28 36 29 37 30 39 31 40 32 41 78 42 33 43 77 44 34 45
REMARK SMILES IDX 35 46 36 47 71 48 37 49 76 50 70 51 72 52 38 53 75 54 69 55
REMARK SMILES IDX 68 56 39 58 61 59 46 60 60 61 47 62 50 63 59 64 73 65 48 66
REMARK SMILES IDX 49 67 58 69 74 70 51 71 40 72 41 73 45 74 42 75 44 76 43 77
REMARK SMILES IDX 62 78 63 79 67 80 64 81 66 82 65 83 52 84 53 85 57 86 54 87
REMARK SMILES IDX 56 88 55 89
REMARK H PARENT 24 5 12 13 28 38 72 57 50 68
REMARK Flexibility Score: inf
ROOT
ATOM      1  C   UNL     1       7.997  -3.330   4.931  1.00  0.00     0.117 C 
ENDROOT
BRANCH   1   2
ATOM      2  N   UNL     1       8.004  -2.648   3.564  1.00  0.00    -0.354 N 
ATOM      3  C   UNL     1       8.343  -1.452   2.925  1.00  0.00     0.243 C 
ATOM      4  O   UNL     1       8.358  -1.558   1.684  1.00  0.00    -0.273 OA
ATOM      5  H   UNL     1       7.639  -3.272   2.896  1.00  0.00     0.163 HD
BRANCH   3   6
ATOM      6  C   UNL     1       8.452   0.089   3.542  1.00  0.00     0.179 C 
ATOM      7  C   UNL     1       6.048  -0.022   3.677  1.00  0.00     0.163 C 
ATOM      8  C   UNL     1       6.354  -0.462   5.124  1.00  0.00     0.047 A 
ATOM      9  N   UNL     1       7.133   0.922   3.525  1.00  0.00    -0.318 N 
ATOM     10  N   UNL     1       5.467  -0.717   6.126  1.00  0.00    -0.356 N 
ATOM     11  C   UNL     1       7.626  -0.392   5.730  1.00  0.00    -0.014 A 
ATOM     12  C   UNL     1       6.066  -0.413   7.326  1.00  0.00     0.046 A 
ATOM     13  H   UNL     1       4.551  -1.060   6.010  1.00  0.00     0.166 HD
ATOM     14  C   UNL     1       7.438  -0.318   7.112  1.00  0.00     0.003 A 
ATOM     15  C   UNL     1       8.883  -0.073   4.982  1.00  0.00     0.073 C 
ATOM     16  C   UNL     1       5.494  -0.165   8.564  1.00  0.00     0.026 A 
ATOM     17  C   UNL     1       8.309  -0.026   8.166  1.00  0.00     0.010 A 
ATOM     18  C   UNL     1       6.364   0.227   9.585  1.00  0.00     0.002 A 
ATOM     19  C   UNL     1       7.747   0.278   9.399  1.00  0.00     0.001 A 
BRANCH   7  20
ATOM     20  C   UNL     1       4.678   0.425   3.223  1.00  0.00    -0.019 A 
ATOM     21  C   UNL     1       1.950   0.610   2.447  1.00  0.00     0.037 A 
ATOM     22  C   UNL     1       2.362   0.657   3.770  1.00  0.00     0.026 A 
ATOM     23  C   UNL     1       2.974   0.635   1.492  1.00  0.00     0.026 A 
ATOM     24  C   UNL     1       3.682   0.653   4.146  1.00  0.00     0.008 A 
ATOM     25  C   UNL     1       4.327   0.524   1.867  1.00  0.00     0.008 A 
BRANCH  21  26
ATOM     26  N   UNL     1       0.601   0.522   2.140  1.00  0.00    -0.372 N 
BRANCH  26  27
ATOM     27  C   UNL     1       0.138  -0.558   1.259  1.00  0.00     0.113 C 
ATOM     28  C   UNL     1       0.343  -0.258  -0.218  1.00  0.00     0.027 C 
ENDBRANCH  26  27
BRANCH  26  29
ATOM     29  C   UNL     1      -0.406   1.252   2.938  1.00  0.00     0.113 C 
ATOM     30  C   UNL     1      -0.624   0.743   4.365  1.00  0.00     0.027 C 
ENDBRANCH  26  29
ENDBRANCH  21  26
ENDBRANCH   7  20
BRANCH   9  31
ATOM     31  C   UNL     1       6.854   2.112   4.284  1.00  0.00     0.220 C 
ATOM     32  C   UNL     1       7.785   3.271   4.460  1.00  0.00     0.114 C 
ATOM     33  O   UNL     1       5.788   2.272   4.905  1.00  0.00    -0.275 OA
ENDBRANCH   9  31
ENDBRANCH   3   6
ENDBRANCH   1   2
BRANCH   1  34
ATOM     34  C   UNL     1       6.621  -3.482   5.657  1.00  0.00     0.042 C 
BRANCH  34  35
ATOM     35  C   UNL     1       5.996  -4.835   6.071  1.00  0.00     0.118 C 
BRANCH  35  36
ATOM     36  N   UNL     1       6.442  -5.383   7.357  1.00  0.00    -0.352 N 
ATOM     37  C   UNL     1       5.854  -5.555   8.590  1.00  0.00     0.251 C 
ATOM     38  H   UNL     1       7.373  -5.701   7.332  1.00  0.00     0.163 HD
ATOM     39  O   UNL     1       6.592  -6.007   9.497  1.00  0.00    -0.269 OA
BRANCH  37  40
ATOM     40  C   UNL     1       4.434  -5.264   8.958  1.00  0.00     0.039 A 
ATOM     41  C   UNL     1       4.137  -4.971  10.304  1.00  0.00     0.014 A 
ATOM     42  C   UNL     1       3.359  -5.386   8.077  1.00  0.00     0.014 A 
ATOM     43  C   UNL     1       2.815  -4.771  10.744  1.00  0.00     0.010 A 
ATOM     44  C   UNL     1       2.043  -5.104   8.498  1.00  0.00     0.010 A 
ATOM     45  C   UNL     1       1.745  -4.809   9.839  1.00  0.00    -0.014 A 
BRANCH  45  46
ATOM     46  C   UNL     1       0.331  -4.577  10.284  1.00  0.00     0.031 A 
ATOM     47  C   UNL     1      -0.723  -5.649  10.104  1.00  0.00     0.074 A 
ATOM     48  C   UNL     1      -0.033  -3.391  10.818  1.00  0.00     0.049 A 
ATOM     49  N   UNL     1      -2.005  -5.611  10.383  1.00  0.00    -0.248 NA
ATOM     50  C   UNL     1      -0.285  -6.924   9.514  1.00  0.00     0.031 C 
ATOM     51  C   UNL     1       0.860  -2.250  11.035  1.00  0.00     0.029 A 
ATOM     52  N   UNL     1      -1.253  -2.940  11.274  1.00  0.00    -0.354 N 
ATOM     53  C   UNL     1      -2.525  -6.837   9.975  1.00  0.00     0.074 A 
ATOM     54  C   UNL     1      -1.430  -7.580   9.392  1.00  0.00     0.031 C 
ATOM     55  C   UNL     1       0.170  -1.248  11.602  1.00  0.00     0.029 A 
ATOM     56  C   UNL     1      -1.227  -1.647  11.746  1.00  0.00     0.049 A 
ATOM     57  H   UNL     1      -2.068  -3.492  11.262  1.00  0.00     0.167 HD
ATOM     58  C   UNL     1      -3.791  -7.311  10.085  1.00  0.00     0.031 A 
ATOM     59  C   UNL     1      -2.212  -0.861  12.226  1.00  0.00     0.031 A 
ATOM     60  C   UNL     1      -4.882  -6.585  10.682  1.00  0.00     0.049 A 
ATOM     61  C   UNL     1      -3.614  -1.405  12.316  1.00  0.00     0.074 A 
ATOM     62  C   UNL     1      -6.181  -7.013  10.903  1.00  0.00     0.029 A 
ATOM     63  N   UNL     1      -4.806  -5.282  11.145  1.00  0.00    -0.354 N 
ATOM     64  N   UNL     1      -4.062  -2.595  11.999  1.00  0.00    -0.248 NA
ATOM     65  C   UNL     1      -4.646  -0.498  12.842  1.00  0.00     0.031 C 
ATOM     66  C   UNL     1      -6.911  -5.941  11.425  1.00  0.00     0.029 A 
ATOM     67  C   UNL     1      -6.046  -4.875  11.609  1.00  0.00     0.049 A 
ATOM     68  H   UNL     1      -3.992  -4.728  11.143  1.00  0.00     0.167 HD
ATOM     69  C   UNL     1      -5.415  -2.590  12.319  1.00  0.00     0.074 A 
ATOM     70  C   UNL     1      -5.710  -1.288  12.875  1.00  0.00     0.031 C 
ATOM     71  C   UNL     1      -6.330  -3.577  12.165  1.00  0.00     0.031 A 
BRANCH  58  72
ATOM     72  C   UNL     1      -4.085  -8.681   9.527  1.00  0.00    -0.014 A 
ATOM     73  C   UNL     1      -3.569  -9.845  10.118  1.00  0.00     0.009 A 
ATOM     74  C   UNL     1      -4.954  -8.811   8.430  1.00  0.00     0.009 A 
ATOM     75  C   UNL     1      -3.887 -11.104   9.601  1.00  0.00     0.001 A 
ATOM     76  C   UNL     1      -5.298 -10.071   7.937  1.00  0.00     0.001 A 
ATOM     77  C   UNL     1      -4.756 -11.216   8.516  1.00  0.00     0.000 A 
ENDBRANCH  58  72
BRANCH  59  78
ATOM     78  C   UNL     1      -1.925   0.541  12.650  1.00  0.00    -0.014 A 
ATOM     79  C   UNL     1      -2.070   0.934  13.991  1.00  0.00     0.009 A 
ATOM     80  C   UNL     1      -1.548   1.508  11.704  1.00  0.00     0.009 A 
ATOM     81  C   UNL     1      -1.885   2.268  14.366  1.00  0.00     0.001 A 
ATOM     82  C   UNL     1      -1.325   2.832  12.088  1.00  0.00     0.001 A 
ATOM     83  C   UNL     1      -1.509   3.215  13.415  1.00  0.00     0.000 A 
ENDBRANCH  59  78
BRANCH  71  84
ATOM     84  C   UNL     1      -7.730  -3.308  12.649  1.00  0.00    -0.014 A 
ATOM     85  C   UNL     1      -8.569  -2.386  12.003  1.00  0.00     0.009 A 
ATOM     86  C   UNL     1      -8.229  -4.022  13.750  1.00  0.00     0.009 A 
ATOM     87  C   UNL     1      -9.863  -2.156  12.476  1.00  0.00     0.001 A 
ATOM     88  C   UNL     1      -9.535  -3.819  14.197  1.00  0.00     0.001 A 
ATOM     89  C   UNL     1     -10.347  -2.877  13.568  1.00  0.00     0.000 A 
ENDBRANCH  71  84
ENDBRANCH  45  46
ENDBRANCH  37  40
ENDBRANCH  35  36
ENDBRANCH  34  35
ENDBRANCH   1  34
TORSDOF 15
