REMARK SMILES C[C@@H](C(=O)NCCCNC(=O)c1ccc(-c2c3nc(c(-c4ccccc4)c4ccc([nH]4)c(-c4ccccc4)c4nc(c(-c5ccccc5)c5ccc2[nH]5)C=C4)C=C3)cc1)c1ccc(C[C@@H]2CCC[C@@H]2O)cc1
REMARK SMILES IDX 6 1 5 2 3 3 4 4 2 6 1 7 60 8 61 9 72 10 62 11 71 12 63 13
REMARK SMILES IDX 64 14 65 15 66 16 69 17 67 18 68 19 70 20 7 22 8 23 9 24
REMARK SMILES IDX 10 25 11 27 12 28 13 29 59 30 14 31 58 32 15 33 16 34 17 35
REMARK SMILES IDX 52 36 18 37 57 38 51 39 53 40 19 41 56 42 50 43 49 44 20 46
REMARK SMILES IDX 42 47 27 48 41 49 28 50 31 51 40 52 54 53 29 54 30 55 39 57
REMARK SMILES IDX 55 58 32 59 21 60 22 61 26 62 23 63 25 64 24 65 43 66 44 67
REMARK SMILES IDX 48 68 45 69 47 70 46 71 33 72 34 73 38 74 35 75 37 76 36 77
REMARK H PARENT 5 5 70 21 9 26 53 45 31 56
REMARK Flexibility Score: inf
ROOT
ATOM      1  C   UNL     1     -10.348   4.954  10.136  1.00  0.00     0.117 C 
ENDROOT
BRANCH   1   2
ATOM      2  N   UNL     1      -9.633   3.718   9.892  1.00  0.00    -0.356 N 
ATOM      3  C   UNL     1      -9.563   2.950   8.765  1.00  0.00     0.227 C 
ATOM      4  O   UNL     1      -9.270   1.770   8.961  1.00  0.00    -0.274 OA
ATOM      5  H   UNL     1      -9.117   3.379  10.658  1.00  0.00     0.163 HD
BRANCH   3   6
ATOM      6  C   UNL     1      -9.860   3.570   7.387  1.00  0.00     0.105 C 
ATOM      7  C   UNL     1     -11.371   3.587   7.135  1.00  0.00     0.023 C 
BRANCH   6   8
ATOM      8  C   UNL     1      -9.151   2.958   6.173  1.00  0.00    -0.036 A 
ATOM      9  C   UNL     1      -8.478   1.732   6.186  1.00  0.00     0.005 A 
ATOM     10  C   UNL     1      -9.196   3.653   4.950  1.00  0.00     0.005 A 
ATOM     11  C   UNL     1      -7.872   1.221   5.036  1.00  0.00     0.004 A 
ATOM     12  C   UNL     1      -8.587   3.145   3.799  1.00  0.00     0.004 A 
ATOM     13  C   UNL     1      -7.896   1.931   3.836  1.00  0.00    -0.048 A 
BRANCH  13  14
ATOM     14  C   UNL     1      -7.170   1.416   2.621  1.00  0.00     0.041 C 
BRANCH  14  15
ATOM     15  C   UNL     1      -5.644   1.648   2.544  1.00  0.00     0.022 C 
ATOM     16  C   UNL     1      -4.825   0.965   3.646  1.00  0.00     0.007 C 
ATOM     17  C   UNL     1      -5.151   3.097   2.617  1.00  0.00     0.117 C 
ATOM     18  C   UNL     1      -4.520   2.037   4.697  1.00  0.00     0.003 C 
ATOM     19  C   UNL     1      -4.958   3.372   4.102  1.00  0.00     0.032 C 
BRANCH  17  20
ATOM     20  O   UNL     1      -6.018   4.033   2.009  1.00  0.00    -0.393 OA
ATOM     21  H   UNL     1      -6.881   4.007   2.450  1.00  0.00     0.210 HD
ENDBRANCH  17  20
ENDBRANCH  14  15
ENDBRANCH  13  14
ENDBRANCH   6   8
ENDBRANCH   3   6
ENDBRANCH   1   2
BRANCH   1  22
ATOM     22  C   UNL     1     -11.732   4.679  10.728  1.00  0.00     0.042 C 
BRANCH  22  23
ATOM     23  C   UNL     1     -11.722   3.863  12.018  1.00  0.00     0.118 C 
BRANCH  23  24
ATOM     24  N   UNL     1     -11.082   4.562  13.121  1.00  0.00    -0.352 N 
ATOM     25  C   UNL     1     -11.592   4.925  14.341  1.00  0.00     0.251 C 
ATOM     26  H   UNL     1     -10.142   4.812  12.969  1.00  0.00     0.163 HD
ATOM     27  O   UNL     1     -10.946   5.676  15.072  1.00  0.00    -0.269 OA
BRANCH  25  28
ATOM     28  C   UNL     1     -12.920   4.444  14.776  1.00  0.00     0.039 A 
ATOM     29  C   UNL     1     -13.793   5.347  15.389  1.00  0.00     0.014 A 
ATOM     30  C   UNL     1     -13.301   3.110  14.606  1.00  0.00     0.014 A 
ATOM     31  C   UNL     1     -15.069   4.928  15.773  1.00  0.00     0.010 A 
ATOM     32  C   UNL     1     -14.599   2.713  14.921  1.00  0.00     0.010 A 
ATOM     33  C   UNL     1     -15.496   3.617  15.509  1.00  0.00    -0.014 A 
BRANCH  33  34
ATOM     34  C   UNL     1     -16.878   3.179  15.835  1.00  0.00     0.031 A 
ATOM     35  C   UNL     1     -17.114   2.098  16.855  1.00  0.00     0.074 A 
ATOM     36  C   UNL     1     -17.921   3.716  15.173  1.00  0.00     0.049 A 
ATOM     37  N   UNL     1     -18.242   1.549  17.230  1.00  0.00    -0.248 NA
ATOM     38  C   UNL     1     -15.925   1.548  17.526  1.00  0.00     0.031 C 
ATOM     39  C   UNL     1     -17.828   4.750  14.139  1.00  0.00     0.029 A 
ATOM     40  N   UNL     1     -19.267   3.462  15.267  1.00  0.00    -0.354 N 
ATOM     41  C   UNL     1     -17.899   0.584  18.168  1.00  0.00     0.074 A 
ATOM     42  C   UNL     1     -16.455   0.587  18.268  1.00  0.00     0.031 C 
ATOM     43  C   UNL     1     -19.064   5.061  13.717  1.00  0.00     0.029 A 
ATOM     44  C   UNL     1     -20.031   4.220  14.414  1.00  0.00     0.049 A 
ATOM     45  H   UNL     1     -19.648   2.799  15.887  1.00  0.00     0.167 HD
ATOM     46  C   UNL     1     -18.711  -0.220  18.896  1.00  0.00     0.031 A 
ATOM     47  C   UNL     1     -21.362   4.233  14.209  1.00  0.00     0.031 A 
ATOM     48  C   UNL     1     -20.146  -0.224  18.799  1.00  0.00     0.049 A 
ATOM     49  C   UNL     1     -22.239   3.308  15.004  1.00  0.00     0.074 A 
ATOM     50  C   UNL     1     -21.057  -0.972  19.525  1.00  0.00     0.029 A 
ATOM     51  N   UNL     1     -20.880   0.554  17.917  1.00  0.00    -0.354 N 
ATOM     52  N   UNL     1     -21.902   2.442  15.929  1.00  0.00    -0.248 NA
ATOM     53  C   UNL     1     -23.682   3.370  14.733  1.00  0.00     0.031 C 
ATOM     54  C   UNL     1     -22.339  -0.686  19.045  1.00  0.00     0.029 A 
ATOM     55  C   UNL     1     -22.231   0.286  18.063  1.00  0.00     0.049 A 
ATOM     56  H   UNL     1     -20.498   1.201  17.281  1.00  0.00     0.167 HD
ATOM     57  C   UNL     1     -23.092   1.877  16.370  1.00  0.00     0.074 A 
ATOM     58  C   UNL     1     -24.159   2.510  15.623  1.00  0.00     0.031 C 
ATOM     59  C   UNL     1     -23.283   0.921  17.312  1.00  0.00     0.031 A 
BRANCH  46  60
ATOM     60  C   UNL     1     -18.058  -1.171  19.861  1.00  0.00    -0.014 A 
ATOM     61  C   UNL     1     -17.417  -0.706  21.021  1.00  0.00     0.009 A 
ATOM     62  C   UNL     1     -18.113  -2.554  19.627  1.00  0.00     0.009 A 
ATOM     63  C   UNL     1     -16.812  -1.603  21.905  1.00  0.00     0.001 A 
ATOM     64  C   UNL     1     -17.535  -3.450  20.528  1.00  0.00     0.001 A 
ATOM     65  C   UNL     1     -16.876  -2.974  21.660  1.00  0.00     0.000 A 
ENDBRANCH  46  60
BRANCH  47  66
ATOM     66  C   UNL     1     -21.951   5.166  13.212  1.00  0.00    -0.014 A 
ATOM     67  C   UNL     1     -22.728   6.257  13.630  1.00  0.00     0.009 A 
ATOM     68  C   UNL     1     -21.744   4.968  11.838  1.00  0.00     0.009 A 
ATOM     69  C   UNL     1     -23.305   7.116  12.693  1.00  0.00     0.001 A 
ATOM     70  C   UNL     1     -22.298   5.847  10.904  1.00  0.00     0.001 A 
ATOM     71  C   UNL     1     -23.086   6.913  11.331  1.00  0.00     0.000 A 
ENDBRANCH  47  66
BRANCH  59  72
ATOM     72  C   UNL     1     -24.702   0.527  17.615  1.00  0.00    -0.014 A 
ATOM     73  C   UNL     1     -25.462  -0.226  16.706  1.00  0.00     0.009 A 
ATOM     74  C   UNL     1     -25.270   0.880  18.849  1.00  0.00     0.009 A 
ATOM     75  C   UNL     1     -26.775  -0.587  17.015  1.00  0.00     0.001 A 
ATOM     76  C   UNL     1     -26.572   0.491  19.167  1.00  0.00     0.001 A 
ATOM     77  C   UNL     1     -27.326  -0.234  18.246  1.00  0.00     0.000 A 
ENDBRANCH  59  72
ENDBRANCH  33  34
ENDBRANCH  25  28
ENDBRANCH  23  24
ENDBRANCH  22  23
ENDBRANCH   1  22
TORSDOF 14
