REMARK SMILES Cc1ccc(S(=O)(=O)N(CC(=O)NCCCNC(=O)c2ccc(-c3c4nc(c(-c5ccccc5)c5ccc([nH]5)c(-c5ccccc5)c5nc(c(-c6ccccc6)c6ccc3[nH]6)C=C5)C=C4)cc2)c2cc(Cl)cc(Cl)c2)cc1
REMARK SMILES IDX 14 1 13 2 11 3 12 4 10 6 9 7 6 8 7 9 8 10 5 11 1 12 2 13
REMARK SMILES IDX 3 14 77 15 4 16 76 17 68 18 69 19 75 20 70 21 73 22 71 23
REMARK SMILES IDX 72 24 74 25 15 26 16 27 17 28 18 29 19 31 20 32 21 33 67 34
REMARK SMILES IDX 22 35 66 36 23 37 24 38 25 39 60 40 26 41 65 42 59 43 61 44
REMARK SMILES IDX 27 45 64 46 58 47 57 48 28 50 50 51 35 52 49 53 36 54 39 55
REMARK SMILES IDX 48 56 62 57 37 58 38 59 47 61 63 62 40 63 29 64 30 65 34 66
REMARK SMILES IDX 31 67 33 68 32 69 51 70 52 71 56 72 53 73 55 74 54 75 41 76
REMARK SMILES IDX 42 77 46 78 43 79 45 80 44 81
REMARK H PARENT 13 5 17 30 61 49 39 60
REMARK Flexibility Score: inf
ROOT
ATOM      1  C   UNL     1      -2.389   1.935  -2.690  1.00  0.00     0.117 C 
ENDROOT
BRANCH   1   2
ATOM      2  N   UNL     1      -2.916   3.255  -2.385  1.00  0.00    -0.354 N 
ATOM      3  C   UNL     1      -3.324   3.811  -1.205  1.00  0.00     0.240 C 
ATOM      4  O   UNL     1      -3.461   5.039  -1.194  1.00  0.00    -0.273 OA
ATOM      5  H   UNL     1      -2.992   3.853  -3.163  1.00  0.00     0.163 HD
BRANCH   3   6
ATOM      6  C   UNL     1      -3.617   3.010   0.063  1.00  0.00     0.235 C 
BRANCH   6   7
ATOM      7  N   UNL     1      -4.199   1.662  -0.180  1.00  0.00    -0.257 N 
BRANCH   7   8
ATOM      8  S   UNL     1      -3.477   0.339   0.671  1.00  0.00     0.264 S 
ATOM      9  O   UNL     1      -4.091  -0.857   0.114  1.00  0.00    -0.201 OA
ATOM     10  O   UNL     1      -3.572   0.624   2.085  1.00  0.00    -0.201 OA
BRANCH   8  11
ATOM     11  C   UNL     1      -1.716   0.183   0.321  1.00  0.00     0.088 A 
ATOM     12  C   UNL     1       2.552  -0.432  -0.102  1.00  0.00     0.044 C 
ATOM     13  C   UNL     1       1.069  -0.221  -0.005  1.00  0.00    -0.051 A 
ATOM     14  C   UNL     1       0.179  -1.296  -0.097  1.00  0.00     0.005 A 
ATOM     15  C   UNL     1       0.559   1.050   0.255  1.00  0.00     0.005 A 
ATOM     16  C   UNL     1      -1.204  -1.096   0.048  1.00  0.00     0.022 A 
ATOM     17  C   UNL     1      -0.812   1.241   0.454  1.00  0.00     0.022 A 
ENDBRANCH   8  11
ENDBRANCH   7   8
BRANCH   7  18
ATOM     18  C   UNL     1      -5.685   1.732  -0.146  1.00  0.00     0.055 A 
ATOM     19  C   UNL     1      -6.324   2.641  -1.012  1.00  0.00     0.047 A 
ATOM     20  C   UNL     1      -6.475   1.098   0.821  1.00  0.00     0.047 A 
ATOM     21  C   UNL     1      -7.678   2.955  -0.866  1.00  0.00     0.044 A 
ATOM     22  C   UNL     1      -7.841   1.391   0.932  1.00  0.00     0.044 A 
ATOM     23  Cl  UNL     1      -8.384   4.161  -1.871  1.00  0.00    -0.084 Cl
ATOM     24  C   UNL     1      -8.444   2.336   0.109  1.00  0.00     0.041 A 
ATOM     25  Cl  UNL     1      -8.786   0.603   2.137  1.00  0.00    -0.084 Cl
ENDBRANCH   7  18
ENDBRANCH   6   7
ENDBRANCH   3   6
ENDBRANCH   1   2
BRANCH   1  26
ATOM     26  C   UNL     1      -3.429   0.899  -3.082  1.00  0.00     0.042 C 
BRANCH  26  27
ATOM     27  C   UNL     1      -3.773   0.907  -4.557  1.00  0.00     0.118 C 
BRANCH  27  28
ATOM     28  N   UNL     1      -2.906   0.057  -5.372  1.00  0.00    -0.352 N 
ATOM     29  C   UNL     1      -3.028  -0.335  -6.695  1.00  0.00     0.251 C 
ATOM     30  H   UNL     1      -2.111  -0.292  -4.907  1.00  0.00     0.163 HD
ATOM     31  O   UNL     1      -2.179  -1.066  -7.197  1.00  0.00    -0.269 OA
BRANCH  29  32
ATOM     32  C   UNL     1      -4.067   0.286  -7.554  1.00  0.00     0.039 A 
ATOM     33  C   UNL     1      -3.599   0.873  -8.736  1.00  0.00     0.014 A 
ATOM     34  C   UNL     1      -5.270   0.689  -6.995  1.00  0.00     0.014 A 
ATOM     35  C   UNL     1      -4.115   2.100  -9.114  1.00  0.00     0.010 A 
ATOM     36  C   UNL     1      -5.670   1.974  -7.250  1.00  0.00     0.010 A 
ATOM     37  C   UNL     1      -5.030   2.698  -8.258  1.00  0.00    -0.014 A 
BRANCH  37  38
ATOM     38  C   UNL     1      -5.440   4.079  -8.358  1.00  0.00     0.031 A 
ATOM     39  C   UNL     1      -6.682   4.341  -9.086  1.00  0.00     0.074 A 
ATOM     40  C   UNL     1      -4.751   5.025  -7.686  1.00  0.00     0.049 A 
ATOM     41  N   UNL     1      -6.994   5.474  -9.597  1.00  0.00    -0.248 NA
ATOM     42  C   UNL     1      -7.656   3.287  -9.371  1.00  0.00     0.031 C 
ATOM     43  C   UNL     1      -5.130   6.404  -7.403  1.00  0.00     0.029 A 
ATOM     44  N   UNL     1      -3.413   4.951  -7.296  1.00  0.00    -0.354 N 
ATOM     45  C   UNL     1      -8.320   5.393  -9.949  1.00  0.00     0.074 A 
ATOM     46  C   UNL     1      -8.637   3.990  -9.939  1.00  0.00     0.031 C 
ATOM     47  C   UNL     1      -4.016   7.117  -7.154  1.00  0.00     0.029 A 
ATOM     48  C   UNL     1      -2.884   6.249  -7.437  1.00  0.00     0.049 A 
ATOM     49  H   UNL     1      -2.934   4.150  -6.983  1.00  0.00     0.167 HD
ATOM     50  C   UNL     1      -9.031   6.550 -10.021  1.00  0.00     0.031 A 
ATOM     51  C   UNL     1      -1.939   6.493  -8.396  1.00  0.00     0.031 A 
ATOM     52  C   UNL     1      -8.139   7.704  -9.887  1.00  0.00     0.049 A 
ATOM     53  C   UNL     1      -2.427   7.451  -9.465  1.00  0.00     0.074 A 
ATOM     54  C   UNL     1      -7.843   8.548  -8.830  1.00  0.00     0.029 A 
ATOM     55  N   UNL     1      -7.116   7.866 -10.816  1.00  0.00    -0.354 N 
ATOM     56  N   UNL     1      -3.685   7.679  -9.736  1.00  0.00    -0.248 NA
ATOM     57  C   UNL     1      -1.528   8.233 -10.303  1.00  0.00     0.031 C 
ATOM     58  C   UNL     1      -6.592   9.172  -9.108  1.00  0.00     0.029 A 
ATOM     59  C   UNL     1      -6.154   8.740 -10.348  1.00  0.00     0.049 A 
ATOM     60  H   UNL     1      -7.082   7.417 -11.692  1.00  0.00     0.167 HD
ATOM     61  C   UNL     1      -3.786   8.628 -10.724  1.00  0.00     0.074 A 
ATOM     62  C   UNL     1      -2.402   8.936 -11.046  1.00  0.00     0.031 C 
ATOM     63  C   UNL     1      -4.999   9.072 -11.184  1.00  0.00     0.031 A 
BRANCH  50  64
ATOM     64  C   UNL     1     -10.536   6.629  -9.923  1.00  0.00    -0.014 A 
ATOM     65  C   UNL     1     -11.133   7.874  -9.656  1.00  0.00     0.009 A 
ATOM     66  C   UNL     1     -11.417   5.535  -9.992  1.00  0.00     0.009 A 
ATOM     67  C   UNL     1     -12.511   8.007  -9.428  1.00  0.00     0.001 A 
ATOM     68  C   UNL     1     -12.794   5.656  -9.761  1.00  0.00     0.001 A 
ATOM     69  C   UNL     1     -13.341   6.894  -9.470  1.00  0.00     0.000 A 
ENDBRANCH  50  64
BRANCH  51  70
ATOM     70  C   UNL     1      -1.040   5.317  -8.625  1.00  0.00    -0.014 A 
ATOM     71  C   UNL     1      -0.277   4.853  -7.528  1.00  0.00     0.009 A 
ATOM     72  C   UNL     1      -1.265   4.440  -9.695  1.00  0.00     0.009 A 
ATOM     73  C   UNL     1       0.076   3.504  -7.420  1.00  0.00     0.001 A 
ATOM     74  C   UNL     1      -0.872   3.097  -9.596  1.00  0.00     0.001 A 
ATOM     75  C   UNL     1      -0.259   2.618  -8.438  1.00  0.00     0.000 A 
ENDBRANCH  51  70
BRANCH  63  76
ATOM     76  C   UNL     1      -5.264   9.894 -12.437  1.00  0.00    -0.014 A 
ATOM     77  C   UNL     1      -4.296  10.330 -13.346  1.00  0.00     0.009 A 
ATOM     78  C   UNL     1      -6.605  10.194 -12.788  1.00  0.00     0.009 A 
ATOM     79  C   UNL     1      -4.638  11.025 -14.518  1.00  0.00     0.001 A 
ATOM     80  C   UNL     1      -6.958  10.839 -13.976  1.00  0.00     0.001 A 
ATOM     81  C   UNL     1      -5.968  11.265 -14.841  1.00  0.00     0.000 A 
ENDBRANCH  63  76
ENDBRANCH  37  38
ENDBRANCH  29  32
ENDBRANCH  27  28
ENDBRANCH  26  27
ENDBRANCH   1  26
TORSDOF 14
