REMARK SMILES O=C(NCCCNC(=O)c1ccccc1Nc1nc(Cl)nc(Nc2ccc(N3CCOCC3=O)cc2)n1)c1ccc(-c2c3nc(c(-c4ccccc4)c4ccc([nH]4)c(-c4ccccc4)c4nc(c(-c5ccccc5)c5ccc2[nH]5)C=C4)C=C3)cc1
REMARK SMILES IDX 7 1 8 2 9 3 6 5 5 6 4 7 3 8 1 9 2 10 38 12 39 13 85 14 40 15
REMARK SMILES IDX 84 16 41 17 42 18 43 19 78 20 44 21 83 22 77 23 79 24 45 25
REMARK SMILES IDX 82 26 76 27 75 28 46 30 68 31 53 32 67 33 54 34 57 35 66 36
REMARK SMILES IDX 80 37 55 38 56 39 65 41 81 42 58 43 47 44 48 45 52 46 49 47
REMARK SMILES IDX 51 48 50 49 69 50 70 51 74 52 71 53 73 54 72 55 59 56 60 57
REMARK SMILES IDX 64 58 61 59 63 60 62 61 10 62 11 63 15 64 12 65 14 66 13 67
REMARK SMILES IDX 16 68 17 70 18 71 37 72 19 73 22 74 20 75 21 76 23 77 24 79
REMARK SMILES IDX 25 80 36 81 26 82 35 83 27 84 28 85 29 86 33 87 30 88 32 89
REMARK SMILES IDX 34 90 31 91
REMARK H PARENT 7 4 3 11 79 29 57 40 16 69 23 78
REMARK Flexibility Score: inf
ROOT
ATOM      1  N   UNL     1       4.996  -0.613   4.215  1.00  0.00    -0.352 N 
ATOM      2  C   UNL     1       5.684  -0.826   5.383  1.00  0.00     0.253 C 
ATOM      3  O   UNL     1       6.011  -1.969   5.690  1.00  0.00    -0.269 OA
ATOM      4  H   UNL     1       4.738  -1.429   3.728  1.00  0.00     0.163 HD
ENDROOT
BRANCH   1   5
ATOM      5  C   UNL     1       4.590   0.636   3.586  1.00  0.00     0.118 C 
BRANCH   5   6
ATOM      6  C   UNL     1       5.059   0.753   2.144  1.00  0.00     0.042 C 
BRANCH   6   7
ATOM      7  C   UNL     1       4.577  -0.364   1.231  1.00  0.00     0.118 C 
BRANCH   7   8
ATOM      8  N   UNL     1       3.131  -0.381   1.048  1.00  0.00    -0.352 N 
ATOM      9  O   UNL     1       1.146  -0.040   0.040  1.00  0.00    -0.269 OA
ATOM     10  C   UNL     1       2.369  -0.105  -0.061  1.00  0.00     0.251 C 
ATOM     11  H   UNL     1       2.617  -0.630   1.850  1.00  0.00     0.163 HD
BRANCH  10  12
ATOM     12  C   UNL     1       3.010   0.142  -1.371  1.00  0.00     0.039 A 
ATOM     13  C   UNL     1       4.076  -0.644  -1.807  1.00  0.00     0.014 A 
ATOM     14  C   UNL     1       2.524   1.169  -2.186  1.00  0.00     0.014 A 
ATOM     15  C   UNL     1       4.771  -0.293  -2.957  1.00  0.00     0.010 A 
ATOM     16  C   UNL     1       3.155   1.451  -3.402  1.00  0.00     0.010 A 
ATOM     17  C   UNL     1       4.307   0.746  -3.779  1.00  0.00    -0.014 A 
BRANCH  17  18
ATOM     18  C   UNL     1       5.008   1.021  -5.059  1.00  0.00     0.031 A 
ATOM     19  C   UNL     1       5.678   2.341  -5.317  1.00  0.00     0.074 A 
ATOM     20  C   UNL     1       5.055   0.047  -5.988  1.00  0.00     0.049 A 
ATOM     21  N   UNL     1       6.345   2.729  -6.376  1.00  0.00    -0.248 NA
ATOM     22  C   UNL     1       5.584   3.360  -4.260  1.00  0.00     0.031 C 
ATOM     23  C   UNL     1       4.430  -1.273  -5.857  1.00  0.00     0.029 A 
ATOM     24  N   UNL     1       5.666   0.004  -7.214  1.00  0.00    -0.354 N 
ATOM     25  C   UNL     1       6.725   4.042  -6.126  1.00  0.00     0.074 A 
ATOM     26  C   UNL     1       6.199   4.391  -4.824  1.00  0.00     0.031 C 
ATOM     27  C   UNL     1       4.730  -2.010  -6.934  1.00  0.00     0.029 A 
ATOM     28  C   UNL     1       5.505  -1.196  -7.862  1.00  0.00     0.049 A 
ATOM     29  H   UNL     1       6.170   0.760  -7.593  1.00  0.00     0.167 HD
ATOM     30  C   UNL     1       7.447   4.878  -6.912  1.00  0.00     0.031 A 
ATOM     31  C   UNL     1       5.913  -1.596  -9.079  1.00  0.00     0.031 A 
ATOM     32  C   UNL     1       7.971   4.525  -8.206  1.00  0.00     0.049 A 
ATOM     33  C   UNL     1       6.692  -0.645  -9.935  1.00  0.00     0.074 A 
ATOM     34  C   UNL     1       8.751   5.288  -9.058  1.00  0.00     0.029 A 
ATOM     35  N   UNL     1       7.761   3.309  -8.839  1.00  0.00    -0.354 N 
ATOM     36  N   UNL     1       7.077   0.578  -9.665  1.00  0.00    -0.248 NA
ATOM     37  C   UNL     1       7.091  -1.129 -11.263  1.00  0.00     0.031 C 
ATOM     38  C   UNL     1       8.968   4.554 -10.229  1.00  0.00     0.029 A 
ATOM     39  C   UNL     1       8.369   3.313 -10.084  1.00  0.00     0.049 A 
ATOM     40  H   UNL     1       7.254   2.555  -8.460  1.00  0.00     0.167 HD
ATOM     41  C   UNL     1       7.771   1.010 -10.786  1.00  0.00     0.074 A 
ATOM     42  C   UNL     1       7.774  -0.092 -11.728  1.00  0.00     0.031 C 
ATOM     43  C   UNL     1       8.350   2.214 -11.014  1.00  0.00     0.031 A 
BRANCH  30  44
ATOM     44  C   UNL     1       7.682   6.275  -6.406  1.00  0.00    -0.014 A 
ATOM     45  C   UNL     1       8.562   6.533  -5.343  1.00  0.00     0.009 A 
ATOM     46  C   UNL     1       7.038   7.356  -7.029  1.00  0.00     0.009 A 
ATOM     47  C   UNL     1       8.764   7.841  -4.893  1.00  0.00     0.001 A 
ATOM     48  C   UNL     1       7.261   8.664  -6.594  1.00  0.00     0.001 A 
ATOM     49  C   UNL     1       8.116   8.904  -5.520  1.00  0.00     0.000 A 
ENDBRANCH  30  44
BRANCH  31  50
ATOM     50  C   UNL     1       5.557  -2.956  -9.556  1.00  0.00    -0.014 A 
ATOM     51  C   UNL     1       6.533  -3.956  -9.669  1.00  0.00     0.009 A 
ATOM     52  C   UNL     1       4.222  -3.271  -9.859  1.00  0.00     0.009 A 
ATOM     53  C   UNL     1       6.180  -5.241 -10.088  1.00  0.00     0.001 A 
ATOM     54  C   UNL     1       3.868  -4.563 -10.248  1.00  0.00     0.001 A 
ATOM     55  C   UNL     1       4.848  -5.545 -10.369  1.00  0.00     0.000 A 
ENDBRANCH  31  50
BRANCH  43  56
ATOM     56  C   UNL     1       9.048   2.391 -12.332  1.00  0.00    -0.014 A 
ATOM     57  C   UNL     1       8.321   2.543 -13.523  1.00  0.00     0.009 A 
ATOM     58  C   UNL     1      10.450   2.433 -12.377  1.00  0.00     0.009 A 
ATOM     59  C   UNL     1       8.987   2.703 -14.739  1.00  0.00     0.001 A 
ATOM     60  C   UNL     1      11.112   2.620 -13.591  1.00  0.00     0.001 A 
ATOM     61  C   UNL     1      10.381   2.746 -14.771  1.00  0.00     0.000 A 
ENDBRANCH  43  56
ENDBRANCH  17  18
ENDBRANCH  10  12
ENDBRANCH   7   8
ENDBRANCH   6   7
ENDBRANCH   5   6
ENDBRANCH   1   5
BRANCH   2  62
ATOM     62  C   UNL     1       6.054   0.300   6.267  1.00  0.00     0.063 A 
ATOM     63  C   UNL     1       7.406   0.385   6.636  1.00  0.00     0.016 A 
ATOM     64  C   UNL     1       5.113   1.225   6.759  1.00  0.00     0.054 A 
ATOM     65  C   UNL     1       7.846   1.426   7.449  1.00  0.00     0.001 A 
ATOM     66  C   UNL     1       5.594   2.297   7.527  1.00  0.00     0.027 A 
ATOM     67  C   UNL     1       6.943   2.392   7.879  1.00  0.00     0.002 A 
BRANCH  64  68
ATOM     68  N   UNL     1       3.743   1.098   6.485  1.00  0.00    -0.323 N 
ATOM     69  H   UNL     1       3.433   0.172   6.360  1.00  0.00     0.170 HD
BRANCH  68  70
ATOM     70  C   UNL     1       2.750   2.062   6.361  1.00  0.00     0.233 A 
ATOM     71  N   UNL     1       3.061   3.293   5.993  1.00  0.00    -0.182 NA
ATOM     72  N   UNL     1       1.512   1.649   6.601  1.00  0.00    -0.176 NA
ATOM     73  C   UNL     1       2.015   4.093   5.878  1.00  0.00     0.228 A 
ATOM     74  C   UNL     1       0.551   2.565   6.528  1.00  0.00     0.233 A 
ATOM     75  Cl  UNL     1       2.347   5.695   5.385  1.00  0.00    -0.041 Cl
ATOM     76  N   UNL     1       0.751   3.811   6.133  1.00  0.00    -0.182 NA
BRANCH  74  77
ATOM     77  N   UNL     1      -0.685   2.166   7.028  1.00  0.00    -0.324 N 
ATOM     78  H   UNL     1      -0.773   1.207   7.236  1.00  0.00     0.170 HD
BRANCH  77  79
ATOM     79  C   UNL     1      -1.817   2.945   7.272  1.00  0.00     0.041 A 
ATOM     80  C   UNL     1      -2.344   3.004   8.567  1.00  0.00     0.028 A 
ATOM     81  C   UNL     1      -2.378   3.758   6.286  1.00  0.00     0.028 A 
ATOM     82  C   UNL     1      -3.399   3.869   8.872  1.00  0.00     0.028 A 
ATOM     83  C   UNL     1      -3.471   4.579   6.574  1.00  0.00     0.028 A 
ATOM     84  C   UNL     1      -3.980   4.658   7.875  1.00  0.00     0.044 A 
BRANCH  84  85
ATOM     85  N   UNL     1      -5.034   5.565   8.189  1.00  0.00    -0.308 N 
ATOM     86  C   UNL     1      -4.784   6.517   9.279  1.00  0.00     0.154 C 
ATOM     87  C   UNL     1      -6.101   5.761   7.304  1.00  0.00     0.253 C 
ATOM     88  C   UNL     1      -6.034   7.260   9.731  1.00  0.00     0.183 C 
ATOM     89  C   UNL     1      -7.100   6.859   7.703  1.00  0.00     0.260 C 
ATOM     90  O   UNL     1      -6.330   5.059   6.317  1.00  0.00    -0.272 OA
ATOM     91  O   UNL     1      -6.660   7.864   8.602  1.00  0.00    -0.370 OA
ENDBRANCH  84  85
ENDBRANCH  77  79
ENDBRANCH  74  77
ENDBRANCH  68  70
ENDBRANCH  64  68
ENDBRANCH   2  62
TORSDOF 15
