REMARK SMILES O=C(NCCCNC(=O)[C@H](CCO)NC(=O)c1cccc(C(F)(F)F)c1F)c1ccc(-c2c3nc(c(-c4ccccc4)c4ccc([nH]4)c(-c4ccccc4)c4nc(c(-c5ccccc5)c5ccc2[nH]5)C=C4)C=C3)cc1
REMARK SMILES IDX 5 1 4 2 3 3 1 4 2 5 28 7 29 8 75 9 30 10 74 11 31 12 32 13
REMARK SMILES IDX 33 14 68 15 34 16 73 17 67 18 69 19 35 20 72 21 66 22 65 23
REMARK SMILES IDX 36 25 58 26 43 27 57 28 44 29 47 30 56 31 70 32 45 33 46 34
REMARK SMILES IDX 55 36 71 37 48 38 37 39 38 40 42 41 39 42 41 43 40 44 59 45
REMARK SMILES IDX 60 46 64 47 61 48 63 49 62 50 49 51 50 52 54 53 51 54 53 55
REMARK SMILES IDX 52 56 6 57 7 58 8 59 9 61 10 62 14 63 15 64 16 66 17 67
REMARK SMILES IDX 18 68 26 69 19 70 21 71 27 72 20 73 22 74 23 75 24 76 25 77
REMARK SMILES IDX 11 78 12 79 13 80
REMARK H PARENT 3 6 69 24 47 35 7 60 14 65 13 81
REMARK Flexibility Score: inf
ROOT
ATOM      1  C   UNL     1       4.007  -4.118   0.149  1.00  0.00     0.042 C 
ENDROOT
BRANCH   1   2
ATOM      2  C   UNL     1       4.572  -3.978   1.557  1.00  0.00     0.118 C 
BRANCH   2   3
ATOM      3  N   UNL     1       4.566  -2.600   2.038  1.00  0.00    -0.352 N 
ATOM      4  O   UNL     1       3.825  -0.760   3.102  1.00  0.00    -0.269 OA
ATOM      5  C   UNL     1       3.784  -1.983   2.985  1.00  0.00     0.251 C 
ATOM      6  H   UNL     1       5.234  -2.015   1.613  1.00  0.00     0.163 HD
BRANCH   5   7
ATOM      7  C   UNL     1       2.873  -2.772   3.841  1.00  0.00     0.039 A 
ATOM      8  C   UNL     1       3.273  -3.998   4.370  1.00  0.00     0.014 A 
ATOM      9  C   UNL     1       1.600  -2.272   4.133  1.00  0.00     0.014 A 
ATOM     10  C   UNL     1       2.345  -4.811   5.007  1.00  0.00     0.010 A 
ATOM     11  C   UNL     1       0.702  -3.044   4.878  1.00  0.00     0.010 A 
ATOM     12  C   UNL     1       1.049  -4.343   5.276  1.00  0.00    -0.014 A 
BRANCH  12  13
ATOM     13  C   UNL     1       0.099  -5.232   5.996  1.00  0.00     0.031 A 
ATOM     14  C   UNL     1      -1.174  -5.704   5.345  1.00  0.00     0.074 A 
ATOM     15  C   UNL     1       0.426  -5.670   7.228  1.00  0.00     0.049 A 
ATOM     16  N   UNL     1      -2.070  -6.542   5.806  1.00  0.00    -0.248 NA
ATOM     17  C   UNL     1      -1.490  -5.163   4.014  1.00  0.00     0.031 C 
ATOM     18  C   UNL     1       1.630  -5.282   7.970  1.00  0.00     0.029 A 
ATOM     19  N   UNL     1      -0.199  -6.564   8.058  1.00  0.00    -0.354 N 
ATOM     20  C   UNL     1      -3.066  -6.605   4.838  1.00  0.00     0.074 A 
ATOM     21  C   UNL     1      -2.677  -5.705   3.775  1.00  0.00     0.031 C 
ATOM     22  C   UNL     1       1.694  -5.991   9.105  1.00  0.00     0.029 A 
ATOM     23  C   UNL     1       0.506  -6.830   9.207  1.00  0.00     0.049 A 
ATOM     24  H   UNL     1      -1.069  -6.976   7.851  1.00  0.00     0.167 HD
ATOM     25  C   UNL     1      -4.199  -7.348   4.833  1.00  0.00     0.031 A 
ATOM     26  C   UNL     1       0.231  -7.654  10.233  1.00  0.00     0.031 A 
ATOM     27  C   UNL     1      -4.579  -8.257   5.883  1.00  0.00     0.049 A 
ATOM     28  C   UNL     1      -1.034  -8.460  10.203  1.00  0.00     0.074 A 
ATOM     29  C   UNL     1      -5.691  -9.080   5.950  1.00  0.00     0.029 A 
ATOM     30  N   UNL     1      -3.858  -8.465   7.048  1.00  0.00    -0.354 N 
ATOM     31  N   UNL     1      -1.947  -8.528   9.266  1.00  0.00    -0.248 NA
ATOM     32  C   UNL     1      -1.302  -9.305  11.374  1.00  0.00     0.031 C 
ATOM     33  C   UNL     1      -5.666  -9.751   7.178  1.00  0.00     0.029 A 
ATOM     34  C   UNL     1      -4.511  -9.386   7.850  1.00  0.00     0.049 A 
ATOM     35  H   UNL     1      -3.007  -8.023   7.272  1.00  0.00     0.167 HD
ATOM     36  C   UNL     1      -2.890  -9.437   9.724  1.00  0.00     0.074 A 
ATOM     37  C   UNL     1      -2.425  -9.910  11.012  1.00  0.00     0.031 C 
ATOM     38  C   UNL     1      -4.038  -9.844   9.130  1.00  0.00     0.031 A 
BRANCH  25  39
ATOM     39  C   UNL     1      -5.132  -7.185   3.664  1.00  0.00    -0.014 A 
ATOM     40  C   UNL     1      -4.817  -7.697   2.396  1.00  0.00     0.009 A 
ATOM     41  C   UNL     1      -6.367  -6.543   3.848  1.00  0.00     0.009 A 
ATOM     42  C   UNL     1      -5.705  -7.540   1.329  1.00  0.00     0.001 A 
ATOM     43  C   UNL     1      -7.264  -6.410   2.786  1.00  0.00     0.001 A 
ATOM     44  C   UNL     1      -6.929  -6.900   1.525  1.00  0.00     0.000 A 
ENDBRANCH  25  39
BRANCH  26  45
ATOM     45  C   UNL     1       1.177  -7.758  11.373  1.00  0.00    -0.014 A 
ATOM     46  C   UNL     1       1.922  -8.929  11.578  1.00  0.00     0.009 A 
ATOM     47  C   UNL     1       1.346  -6.681  12.257  1.00  0.00     0.009 A 
ATOM     48  C   UNL     1       2.802  -9.026  12.658  1.00  0.00     0.001 A 
ATOM     49  C   UNL     1       2.248  -6.770  13.318  1.00  0.00     0.001 A 
ATOM     50  C   UNL     1       2.969  -7.946  13.523  1.00  0.00     0.000 A 
ENDBRANCH  26  45
BRANCH  38  51
ATOM     51  C   UNL     1      -4.848 -10.878   9.858  1.00  0.00    -0.014 A 
ATOM     52  C   UNL     1      -5.573 -10.555  11.016  1.00  0.00     0.009 A 
ATOM     53  C   UNL     1      -4.896 -12.192   9.367  1.00  0.00     0.009 A 
ATOM     54  C   UNL     1      -6.298 -11.540  11.690  1.00  0.00     0.001 A 
ATOM     55  C   UNL     1      -5.645 -13.167  10.027  1.00  0.00     0.001 A 
ATOM     56  C   UNL     1      -6.335 -12.843  11.194  1.00  0.00     0.000 A 
ENDBRANCH  38  51
ENDBRANCH  12  13
ENDBRANCH   5   7
ENDBRANCH   2   3
ENDBRANCH   1   2
BRANCH   1  57
ATOM     57  C   UNL     1       4.841  -3.422  -0.914  1.00  0.00     0.117 C 
BRANCH  57  58
ATOM     58  N   UNL     1       6.182  -3.968  -1.011  1.00  0.00    -0.354 N 
ATOM     59  C   UNL     1       6.812  -4.625  -2.023  1.00  0.00     0.242 C 
ATOM     60  H   UNL     1       6.732  -3.841  -0.205  1.00  0.00     0.163 HD
ATOM     61  O   UNL     1       8.021  -4.836  -1.895  1.00  0.00    -0.273 OA
BRANCH  59  62
ATOM     62  C   UNL     1       6.081  -5.015  -3.322  1.00  0.00     0.173 C 
BRANCH  62  63
ATOM     63  N   UNL     1       4.988  -5.955  -3.043  1.00  0.00    -0.340 N 
ATOM     64  C   UNL     1       4.866  -7.287  -3.352  1.00  0.00     0.254 C 
ATOM     65  H   UNL     1       4.223  -5.570  -2.558  1.00  0.00     0.164 HD
ATOM     66  O   UNL     1       3.868  -7.911  -3.006  1.00  0.00    -0.269 OA
BRANCH  64  67
ATOM     67  C   UNL     1       5.867  -7.948  -4.205  1.00  0.00     0.076 A 
ATOM     68  C   UNL     1       5.454  -8.455  -5.441  1.00  0.00     0.017 A 
ATOM     69  C   UNL     1       7.200  -8.053  -3.810  1.00  0.00     0.148 A 
ATOM     70  C   UNL     1       6.396  -9.003  -6.309  1.00  0.00     0.002 A 
ATOM     71  C   UNL     1       8.160  -8.562  -4.683  1.00  0.00     0.092 A 
ATOM     72  F   UNL     1       7.561  -7.631  -2.592  1.00  0.00    -0.205 F 
ATOM     73  C   UNL     1       7.743  -9.040  -5.939  1.00  0.00     0.016 A 
BRANCH  71  74
ATOM     74  C   UNL     1       9.615  -8.582  -4.315  1.00  0.00     0.419 C 
ATOM     75  F   UNL     1      10.101  -9.850  -4.211  1.00  0.00    -0.166 F 
ATOM     76  F   UNL     1      10.381  -7.973  -5.266  1.00  0.00    -0.166 F 
ATOM     77  F   UNL     1       9.926  -7.964  -3.147  1.00  0.00    -0.166 F 
ENDBRANCH  71  74
ENDBRANCH  64  67
ENDBRANCH  62  63
BRANCH  62  78
ATOM     78  C   UNL     1       5.616  -3.773  -4.099  1.00  0.00     0.063 C 
BRANCH  78  79
ATOM     79  C   UNL     1       5.880  -3.882  -5.596  1.00  0.00     0.158 C 
BRANCH  79  80
ATOM     80  O   UNL     1       4.996  -4.811  -6.203  1.00  0.00    -0.396 OA
ATOM     81  H   UNL     1       5.128  -5.687  -5.810  1.00  0.00     0.210 HD
ENDBRANCH  79  80
ENDBRANCH  78  79
ENDBRANCH  62  78
ENDBRANCH  59  62
ENDBRANCH  57  58
ENDBRANCH   1  57
TORSDOF 16
