REMARK SMILES CN1C(=O)C[C@@H](C(=O)NCCCNC(=O)c2ccc(-c3c4nc(c(-c5ccccc5)c5ccc([nH]5)c(-c5ccccc5)c5nc(c(-c6ccccc6)c6ccc3[nH]6)C=C5)C=C4)cc2)C12CCN(S(=O)(=O)c1ccccc1F)CC2
REMARK SMILES IDX 11 1 10 2 9 3 7 4 8 5 6 7 1 8 2 9 3 10 64 11 4 12 5 13 65 14
REMARK SMILES IDX 79 15 66 16 78 17 67 18 68 19 69 20 70 21 71 22 72 23 76 24
REMARK SMILES IDX 73 25 75 26 77 27 74 28 12 29 13 30 14 31 15 33 16 34 17 35
REMARK SMILES IDX 63 36 18 37 62 38 19 39 20 40 21 41 56 42 22 43 61 44 55 45
REMARK SMILES IDX 57 46 23 47 60 48 54 49 53 50 24 52 46 53 31 54 45 55 32 56
REMARK SMILES IDX 35 57 44 58 58 59 33 60 34 61 43 63 59 64 36 65 25 66 26 67
REMARK SMILES IDX 30 68 27 69 29 70 28 71 47 72 48 73 52 74 49 75 51 76 50 77
REMARK SMILES IDX 37 78 38 79 42 80 39 81 41 82 40 83
REMARK H PARENT 9 6 13 32 57 51 35 62
REMARK Flexibility Score: inf
ROOT
ATOM      1  C   UNL     1       0.583   0.676  -3.796  1.00  0.00     0.042 C 
ENDROOT
BRANCH   1   2
ATOM      2  C   UNL     1      -0.616  -0.275  -3.769  1.00  0.00     0.117 C 
BRANCH   2   3
ATOM      3  N   UNL     1      -0.304  -1.636  -4.188  1.00  0.00    -0.356 N 
ATOM      4  C   UNL     1      -0.081  -2.807  -3.543  1.00  0.00     0.226 C 
ATOM      5  O   UNL     1       0.174  -3.777  -4.268  1.00  0.00    -0.275 OA
ATOM      6  H   UNL     1      -0.242  -1.726  -5.166  1.00  0.00     0.163 HD
BRANCH   4   7
ATOM      7  C   UNL     1      -0.048  -3.009  -2.026  1.00  0.00     0.113 C 
ATOM      8  C   UNL     1       1.200  -0.133   0.036  1.00  0.00     0.147 C 
ATOM      9  N   UNL     1       0.499  -1.158  -0.720  1.00  0.00    -0.339 N 
ATOM     10  C   UNL     1      -0.882  -1.278  -0.612  1.00  0.00     0.223 C 
ATOM     11  C   UNL     1       1.134  -2.378  -1.247  1.00  0.00     0.057 C 
ATOM     12  O   UNL     1      -1.636  -0.508  -0.040  1.00  0.00    -0.275 OA
ATOM     13  C   UNL     1      -1.317  -2.526  -1.328  1.00  0.00     0.116 C 
ATOM     14  C   UNL     1       2.359  -2.104  -2.147  1.00  0.00     0.046 C 
ATOM     15  C   UNL     1       1.546  -3.272  -0.032  1.00  0.00     0.046 C 
ATOM     16  C   UNL     1       3.179  -3.353  -2.425  1.00  0.00     0.105 C 
ATOM     17  C   UNL     1       2.499  -4.422  -0.363  1.00  0.00     0.105 C 
ATOM     18  N   UNL     1       3.663  -3.954  -1.167  1.00  0.00    -0.198 NA
BRANCH  18  19
ATOM     19  S   UNL     1       4.893  -3.161  -0.267  1.00  0.00     0.245 S 
ATOM     20  O   UNL     1       4.415  -1.857   0.140  1.00  0.00    -0.207 OA
ATOM     21  O   UNL     1       5.323  -4.106   0.746  1.00  0.00    -0.207 OA
BRANCH  19  22
ATOM     22  C   UNL     1       6.251  -2.925  -1.374  1.00  0.00     0.118 A 
ATOM     23  C   UNL     1       7.420  -3.678  -1.218  1.00  0.00     0.025 A 
ATOM     24  C   UNL     1       6.219  -1.899  -2.314  1.00  0.00     0.143 A 
ATOM     25  C   UNL     1       8.528  -3.420  -2.031  1.00  0.00     0.002 A 
ATOM     26  C   UNL     1       7.312  -1.658  -3.143  1.00  0.00     0.041 A 
ATOM     27  F   UNL     1       5.140  -1.123  -2.475  1.00  0.00    -0.206 F 
ATOM     28  C   UNL     1       8.470  -2.417  -3.001  1.00  0.00     0.003 A 
ENDBRANCH  19  22
ENDBRANCH  18  19
ENDBRANCH   4   7
ENDBRANCH   2   3
ENDBRANCH   1   2
BRANCH   1  29
ATOM     29  C   UNL     1       1.185   0.886  -5.185  1.00  0.00     0.118 C 
BRANCH  29  30
ATOM     30  N   UNL     1       0.315   1.682  -6.037  1.00  0.00    -0.352 N 
ATOM     31  C   UNL     1       0.482   2.951  -6.534  1.00  0.00     0.251 C 
ATOM     32  H   UNL     1      -0.527   1.242  -6.298  1.00  0.00     0.163 HD
ATOM     33  O   UNL     1      -0.481   3.542  -7.015  1.00  0.00    -0.269 OA
BRANCH  31  34
ATOM     34  C   UNL     1       1.804   3.617  -6.509  1.00  0.00     0.039 A 
ATOM     35  C   UNL     1       1.864   4.983  -6.212  1.00  0.00     0.014 A 
ATOM     36  C   UNL     1       2.971   2.932  -6.861  1.00  0.00     0.014 A 
ATOM     37  C   UNL     1       3.092   5.651  -6.231  1.00  0.00     0.010 A 
ATOM     38  C   UNL     1       4.203   3.586  -6.824  1.00  0.00     0.010 A 
ATOM     39  C   UNL     1       4.276   4.954  -6.520  1.00  0.00    -0.014 A 
BRANCH  39  40
ATOM     40  C   UNL     1       5.593   5.642  -6.533  1.00  0.00     0.031 A 
ATOM     41  C   UNL     1       6.365   5.778  -7.818  1.00  0.00     0.074 A 
ATOM     42  C   UNL     1       6.125   6.095  -5.381  1.00  0.00     0.049 A 
ATOM     43  N   UNL     1       7.566   6.264  -8.014  1.00  0.00    -0.248 NA
ATOM     44  C   UNL     1       5.712   5.280  -9.039  1.00  0.00     0.031 C 
ATOM     45  C   UNL     1       5.497   6.004  -4.062  1.00  0.00     0.029 A 
ATOM     46  N   UNL     1       7.325   6.716  -5.137  1.00  0.00    -0.354 N 
ATOM     47  C   UNL     1       7.820   6.108  -9.371  1.00  0.00     0.074 A 
ATOM     48  C   UNL     1       6.665   5.451  -9.944  1.00  0.00     0.031 C 
ATOM     49  C   UNL     1       6.310   6.564  -3.151  1.00  0.00     0.029 A 
ATOM     50  C   UNL     1       7.527   7.021  -3.813  1.00  0.00     0.049 A 
ATOM     51  H   UNL     1       7.979   6.922  -5.844  1.00  0.00     0.167 HD
ATOM     52  C   UNL     1       8.909   6.489 -10.080  1.00  0.00     0.031 A 
ATOM     53  C   UNL     1       8.578   7.596  -3.199  1.00  0.00     0.031 A 
ATOM     54  C   UNL     1      10.049   7.166  -9.522  1.00  0.00     0.049 A 
ATOM     55  C   UNL     1       9.770   8.018  -4.010  1.00  0.00     0.074 A 
ATOM     56  C   UNL     1      11.177   7.636 -10.172  1.00  0.00     0.029 A 
ATOM     57  N   UNL     1      10.201   7.477  -8.181  1.00  0.00    -0.354 N 
ATOM     58  N   UNL     1       9.976   7.899  -5.298  1.00  0.00    -0.248 NA
ATOM     59  C   UNL     1      10.872   8.662  -3.279  1.00  0.00     0.031 C 
ATOM     60  C   UNL     1      12.029   8.203  -9.218  1.00  0.00     0.029 A 
ATOM     61  C   UNL     1      11.410   8.121  -7.981  1.00  0.00     0.049 A 
ATOM     62  H   UNL     1       9.547   7.271  -7.475  1.00  0.00     0.167 HD
ATOM     63  C   UNL     1      11.217   8.474  -5.537  1.00  0.00     0.074 A 
ATOM     64  C   UNL     1      11.712   8.954  -4.263  1.00  0.00     0.031 C 
ATOM     65  C   UNL     1      11.887   8.594  -6.708  1.00  0.00     0.031 A 
BRANCH  52  66
ATOM     66  C   UNL     1       8.920   6.176 -11.550  1.00  0.00    -0.014 A 
ATOM     67  C   UNL     1       8.108   6.886 -12.449  1.00  0.00     0.009 A 
ATOM     68  C   UNL     1       9.780   5.185 -12.047  1.00  0.00     0.009 A 
ATOM     69  C   UNL     1       8.133   6.584 -13.812  1.00  0.00     0.001 A 
ATOM     70  C   UNL     1       9.821   4.903 -13.414  1.00  0.00     0.001 A 
ATOM     71  C   UNL     1       8.991   5.596 -14.294  1.00  0.00     0.000 A 
ENDBRANCH  52  66
BRANCH  53  72
ATOM     72  C   UNL     1       8.547   7.821  -1.731  1.00  0.00    -0.014 A 
ATOM     73  C   UNL     1       8.387   9.116  -1.215  1.00  0.00     0.009 A 
ATOM     74  C   UNL     1       8.686   6.746  -0.840  1.00  0.00     0.009 A 
ATOM     75  C   UNL     1       8.390   9.333   0.164  1.00  0.00     0.001 A 
ATOM     76  C   UNL     1       8.664   6.963   0.539  1.00  0.00     0.001 A 
ATOM     77  C   UNL     1       8.525   8.256   1.040  1.00  0.00     0.000 A 
ENDBRANCH  53  72
BRANCH  65  78
ATOM     78  C   UNL     1      13.212   9.299  -6.670  1.00  0.00    -0.014 A 
ATOM     79  C   UNL     1      14.353   8.669  -6.151  1.00  0.00     0.009 A 
ATOM     80  C   UNL     1      13.325  10.595  -7.195  1.00  0.00     0.009 A 
ATOM     81  C   UNL     1      15.579   9.338  -6.133  1.00  0.00     0.001 A 
ATOM     82  C   UNL     1      14.556  11.252  -7.196  1.00  0.00     0.001 A 
ATOM     83  C   UNL     1      15.680  10.626  -6.658  1.00  0.00     0.000 A 
ENDBRANCH  65  78
ENDBRANCH  39  40
ENDBRANCH  31  34
ENDBRANCH  29  30
ENDBRANCH   1  29
TORSDOF 12
