REMARK SMILES O=C(NCCCNC(=O)[C@H]1CC[C@H]2CCCC[C@@H]2[N@H+]1[C@@H]1CCCSC1)c1ccc(-c2c3nc(c(-c4ccccc4)c4ccc([nH]4)c(-c4ccccc4)c4nc(c(-c5ccccc5)c5ccc2[nH]5)C=C4)C=C3)cc1
REMARK SMILES IDX 4 1 3 2 1 3 2 4 26 6 27 7 73 8 28 9 72 10 29 11 30 12 31 13
REMARK SMILES IDX 66 14 32 15 71 16 65 17 67 18 33 19 70 20 64 21 63 22 34 24
REMARK SMILES IDX 56 25 41 26 55 27 42 28 45 29 54 30 68 31 43 32 44 33 53 35
REMARK SMILES IDX 69 36 46 37 35 38 36 39 40 40 37 41 39 42 38 43 57 44 58 45
REMARK SMILES IDX 62 46 59 47 61 48 60 49 47 50 48 51 52 52 49 53 51 54 50 55
REMARK SMILES IDX 5 56 6 57 7 58 8 59 9 61 10 62 11 63 19 64 12 65 18 66 13 68
REMARK SMILES IDX 17 69 14 70 16 71 15 72 20 73 21 74 25 75 22 76 24 77 23 78
REMARK H PARENT 3 5 67 23 45 34 7 60 19 67
REMARK Flexibility Score: inf
ROOT
ATOM      1  C   UNL     1       4.383  -1.244   0.428  1.00  0.00     0.118 C 
ENDROOT
BRANCH   1   2
ATOM      2  N   UNL     1       2.967  -1.206   0.081  1.00  0.00    -0.352 N 
ATOM      3  O   UNL     1       0.991  -0.222  -0.354  1.00  0.00    -0.269 OA
ATOM      4  C   UNL     1       2.219  -0.183  -0.438  1.00  0.00     0.251 C 
ATOM      5  H   UNL     1       2.474  -2.043   0.244  1.00  0.00     0.163 HD
BRANCH   4   6
ATOM      6  C   UNL     1       2.873   0.963  -1.100  1.00  0.00     0.039 A 
ATOM      7  C   UNL     1       3.970   0.766  -1.943  1.00  0.00     0.014 A 
ATOM      8  C   UNL     1       2.337   2.244  -0.937  1.00  0.00     0.014 A 
ATOM      9  C   UNL     1       4.606   1.857  -2.524  1.00  0.00     0.010 A 
ATOM     10  C   UNL     1       2.922   3.328  -1.592  1.00  0.00     0.010 A 
ATOM     11  C   UNL     1       4.072   3.144  -2.376  1.00  0.00    -0.014 A 
BRANCH  11  12
ATOM     12  C   UNL     1       4.681   4.282  -3.104  1.00  0.00     0.031 A 
ATOM     13  C   UNL     1       5.305   5.424  -2.360  1.00  0.00     0.074 A 
ATOM     14  C   UNL     1       4.648   4.283  -4.451  1.00  0.00     0.049 A 
ATOM     15  N   UNL     1       5.813   6.534  -2.832  1.00  0.00    -0.248 NA
ATOM     16  C   UNL     1       5.356   5.312  -0.894  1.00  0.00     0.031 C 
ATOM     17  C   UNL     1       4.072   3.222  -5.282  1.00  0.00     0.029 A 
ATOM     18  N   UNL     1       5.105   5.204  -5.356  1.00  0.00    -0.354 N 
ATOM     19  C   UNL     1       6.215   7.266  -1.723  1.00  0.00     0.074 A 
ATOM     20  C   UNL     1       5.878   6.482  -0.554  1.00  0.00     0.031 C 
ATOM     21  C   UNL     1       4.232   3.541  -6.574  1.00  0.00     0.029 A 
ATOM     22  C   UNL     1       4.856   4.856  -6.661  1.00  0.00     0.049 A 
ATOM     23  H   UNL     1       5.566   6.034  -5.097  1.00  0.00     0.167 HD
ATOM     24  C   UNL     1       6.809   8.483  -1.686  1.00  0.00     0.031 A 
ATOM     25  C   UNL     1       5.071   5.532  -7.804  1.00  0.00     0.031 A 
ATOM     26  C   UNL     1       7.137   9.256  -2.855  1.00  0.00     0.049 A 
ATOM     27  C   UNL     1       5.695   6.893  -7.737  1.00  0.00     0.074 A 
ATOM     28  C   UNL     1       7.766  10.487  -2.927  1.00  0.00     0.029 A 
ATOM     29  N   UNL     1       6.856   8.873  -4.158  1.00  0.00    -0.354 N 
ATOM     30  N   UNL     1       6.089   7.565  -6.682  1.00  0.00    -0.248 NA
ATOM     31  C   UNL     1       5.904   7.589  -9.012  1.00  0.00     0.031 C 
ATOM     32  C   UNL     1       7.820  10.871  -4.271  1.00  0.00     0.029 A 
ATOM     33  C   UNL     1       7.276   9.854  -5.040  1.00  0.00     0.049 A 
ATOM     34  H   UNL     1       6.422   8.028  -4.418  1.00  0.00     0.167 HD
ATOM     35  C   UNL     1       6.613   8.754  -7.166  1.00  0.00     0.074 A 
ATOM     36  C   UNL     1       6.493   8.708  -8.610  1.00  0.00     0.031 C 
ATOM     37  C   UNL     1       7.148   9.789  -6.474  1.00  0.00     0.031 A 
BRANCH  24  38
ATOM     38  C   UNL     1       7.095   9.070  -0.331  1.00  0.00    -0.014 A 
ATOM     39  C   UNL     1       8.100   8.548   0.498  1.00  0.00     0.009 A 
ATOM     40  C   UNL     1       6.351  10.173   0.117  1.00  0.00     0.009 A 
ATOM     41  C   UNL     1       8.324   9.092   1.766  1.00  0.00     0.001 A 
ATOM     42  C   UNL     1       6.596  10.732   1.372  1.00  0.00     0.001 A 
ATOM     43  C   UNL     1       7.574  10.184   2.200  1.00  0.00     0.000 A 
ENDBRANCH  24  38
BRANCH  25  44
ATOM     44  C   UNL     1       4.665   4.922  -9.095  1.00  0.00    -0.014 A 
ATOM     45  C   UNL     1       5.627   4.425  -9.985  1.00  0.00     0.009 A 
ATOM     46  C   UNL     1       3.304   4.780  -9.414  1.00  0.00     0.009 A 
ATOM     47  C   UNL     1       5.234   3.800 -11.171  1.00  0.00     0.001 A 
ATOM     48  C   UNL     1       2.915   4.131 -10.587  1.00  0.00     0.001 A 
ATOM     49  C   UNL     1       3.880   3.646 -11.466  1.00  0.00     0.000 A 
ENDBRANCH  25  44
BRANCH  37  50
ATOM     50  C   UNL     1       7.685  10.941  -7.273  1.00  0.00    -0.014 A 
ATOM     51  C   UNL     1       6.827  11.875  -7.873  1.00  0.00     0.009 A 
ATOM     52  C   UNL     1       9.073  11.124  -7.373  1.00  0.00     0.009 A 
ATOM     53  C   UNL     1       7.351  12.960  -8.577  1.00  0.00     0.001 A 
ATOM     54  C   UNL     1       9.593  12.223  -8.057  1.00  0.00     0.001 A 
ATOM     55  C   UNL     1       8.733  13.137  -8.663  1.00  0.00     0.000 A 
ENDBRANCH  37  50
ENDBRANCH  11  12
ENDBRANCH   4   6
ENDBRANCH   1   2
BRANCH   1  56
ATOM     56  C   UNL     1       4.590  -1.069   1.928  1.00  0.00     0.042 C 
BRANCH  56  57
ATOM     57  C   UNL     1       4.109  -2.283   2.712  1.00  0.00     0.118 C 
BRANCH  57  58
ATOM     58  N   UNL     1       5.038  -3.385   2.587  1.00  0.00    -0.351 N 
ATOM     59  C   UNL     1       5.926  -3.949   3.447  1.00  0.00     0.278 C 
ATOM     60  H   UNL     1       5.024  -3.812   1.700  1.00  0.00     0.163 HD
ATOM     61  O   UNL     1       6.601  -4.874   2.974  1.00  0.00    -0.268 OA
BRANCH  59  62
ATOM     62  C   UNL     1       6.074  -3.559   4.940  1.00  0.00     0.274 C 
ATOM     63  C   UNL     1       6.170  -2.063   5.298  1.00  0.00     0.076 C 
ATOM     64  N   UNL     1       5.249  -4.407   5.840  1.00  0.00    -0.319 N 
ATOM     65  C   UNL     1       5.955  -1.786   6.792  1.00  0.00     0.016 C 
ATOM     66  C   UNL     1       5.545  -4.224   7.270  1.00  0.00     0.188 C 
ATOM     67  H   UNL     1       5.594  -5.341   5.617  1.00  0.00     0.349 HD
ATOM     68  C   UNL     1       6.420  -2.991   7.596  1.00  0.00     0.048 C 
ATOM     69  C   UNL     1       6.255  -5.454   7.862  1.00  0.00     0.065 C 
ATOM     70  C   UNL     1       6.398  -2.765   9.110  1.00  0.00     0.010 C 
ATOM     71  C   UNL     1       6.389  -5.309   9.383  1.00  0.00     0.006 C 
ATOM     72  C   UNL     1       7.006  -3.977   9.821  1.00  0.00     0.001 C 
BRANCH  64  73
ATOM     73  C   UNL     1       3.823  -4.608   5.495  1.00  0.00     0.194 C 
ATOM     74  C   UNL     1       2.898  -3.441   5.900  1.00  0.00     0.067 C 
ATOM     75  C   UNL     1       3.290  -5.939   6.082  1.00  0.00     0.134 C 
ATOM     76  C   UNL     1       1.488  -3.598   5.332  1.00  0.00     0.017 C 
ATOM     77  S   UNL     1       1.610  -6.354   5.495  1.00  0.00    -0.156 SA
ATOM     78  C   UNL     1       0.764  -4.803   5.911  1.00  0.00     0.070 C 
ENDBRANCH  64  73
ENDBRANCH  59  62
ENDBRANCH  57  58
ENDBRANCH  56  57
ENDBRANCH   1  56
TORSDOF 11
