REMARK SMILES O=C(NCCCNC(=O)c1ccc(-c2c3nc(c(-c4ccccc4)c4ccc([nH]4)c(-c4ccccc4)c4nc(c(-c5ccccc5)c5ccc2[nH]5)C=C4)C=C3)cc1)c1ccc(NC(=S)NC(=O)C(Cl)(Cl)Cl)cc1
REMARK SMILES IDX 4 1 3 2 1 3 2 4 58 6 59 7 73 8 60 9 72 10 61 11 62 12 63 14
REMARK SMILES IDX 64 15 65 16 66 17 67 19 68 20 69 21 70 22 71 23 5 24 6 25
REMARK SMILES IDX 7 26 8 27 9 29 10 30 11 31 57 32 12 33 56 34 13 35 14 36
REMARK SMILES IDX 15 37 50 38 16 39 55 40 49 41 51 42 17 43 54 44 48 45 47 46
REMARK SMILES IDX 18 48 40 49 25 50 39 51 26 52 29 53 38 54 52 55 27 56 28 57
REMARK SMILES IDX 37 59 53 60 30 61 19 62 20 63 24 64 21 65 23 66 22 67 41 68
REMARK SMILES IDX 42 69 46 70 43 71 45 72 44 73 31 74 32 75 36 76 33 77 35 78
REMARK SMILES IDX 34 79
REMARK H PARENT 3 5 62 13 65 18 7 28 51 47 29 58
REMARK Flexibility Score: inf
ROOT
ATOM      1  C   UNL     1       3.886  -0.989   0.252  1.00  0.00     0.118 C 
ENDROOT
BRANCH   1   2
ATOM      2  N   UNL     1       2.456  -0.791   0.452  1.00  0.00    -0.352 N 
ATOM      3  O   UNL     1       0.536   0.399   0.662  1.00  0.00    -0.269 OA
ATOM      4  C   UNL     1       1.727   0.373   0.371  1.00  0.00     0.251 C 
ATOM      5  H   UNL     1       1.942  -1.600   0.676  1.00  0.00     0.163 HD
BRANCH   4   6
ATOM      6  C   UNL     1       2.414   1.613  -0.035  1.00  0.00     0.039 A 
ATOM      7  C   UNL     1       2.877   1.778  -1.344  1.00  0.00     0.016 A 
ATOM      8  C   UNL     1       2.655   2.589   0.926  1.00  0.00     0.016 A 
ATOM      9  C   UNL     1       3.727   2.848  -1.654  1.00  0.00     0.027 A 
ATOM     10  C   UNL     1       3.509   3.646   0.611  1.00  0.00     0.027 A 
ATOM     11  C   UNL     1       4.130   3.715  -0.648  1.00  0.00     0.040 A 
BRANCH  11  12
ATOM     12  N   UNL     1       5.116   4.691  -0.802  1.00  0.00    -0.332 N 
ATOM     13  H   UNL     1       5.083   5.359  -0.079  1.00  0.00     0.169 HD
BRANCH  12  14
ATOM     14  C   UNL     1       6.091   4.954  -1.672  1.00  0.00     0.177 C 
ATOM     15  S   UNL     1       6.604   6.556  -1.733  1.00  0.00    -0.040 S 
BRANCH  14  16
ATOM     16  N   UNL     1       6.784   4.093  -2.482  1.00  0.00    -0.299 N 
ATOM     17  C   UNL     1       7.183   2.805  -2.874  1.00  0.00     0.278 C 
ATOM     18  H   UNL     1       7.240   4.686  -3.121  1.00  0.00     0.172 HD
ATOM     19  O   UNL     1       7.835   2.820  -3.935  1.00  0.00    -0.270 OA
BRANCH  17  20
ATOM     20  C   UNL     1       6.913   1.485  -2.140  1.00  0.00     0.269 C 
ATOM     21  Cl  UNL     1       6.643   1.665  -0.409  1.00  0.00    -0.073 Cl
ATOM     22  Cl  UNL     1       5.616   0.610  -2.995  1.00  0.00    -0.073 Cl
ATOM     23  Cl  UNL     1       8.391   0.443  -2.305  1.00  0.00    -0.073 Cl
ENDBRANCH  17  20
ENDBRANCH  14  16
ENDBRANCH  12  14
ENDBRANCH  11  12
ENDBRANCH   4   6
ENDBRANCH   1   2
BRANCH   1  24
ATOM     24  C   UNL     1       4.614  -1.426   1.520  1.00  0.00     0.042 C 
BRANCH  24  25
ATOM     25  C   UNL     1       4.302  -2.848   1.975  1.00  0.00     0.118 C 
BRANCH  25  26
ATOM     26  N   UNL     1       4.849  -3.871   1.094  1.00  0.00    -0.352 N 
ATOM     27  C   UNL     1       5.619  -4.977   1.373  1.00  0.00     0.251 C 
ATOM     28  H   UNL     1       4.633  -3.752   0.141  1.00  0.00     0.163 HD
ATOM     29  O   UNL     1       6.058  -5.650   0.443  1.00  0.00    -0.269 OA
BRANCH  27  30
ATOM     30  C   UNL     1       5.960  -5.354   2.767  1.00  0.00     0.039 A 
ATOM     31  C   UNL     1       7.242  -5.851   3.030  1.00  0.00     0.014 A 
ATOM     32  C   UNL     1       5.038  -5.251   3.811  1.00  0.00     0.014 A 
ATOM     33  C   UNL     1       7.619  -6.166   4.340  1.00  0.00     0.010 A 
ATOM     34  C   UNL     1       5.441  -5.481   5.127  1.00  0.00     0.010 A 
ATOM     35  C   UNL     1       6.737  -5.940   5.409  1.00  0.00    -0.014 A 
BRANCH  35  36
ATOM     36  C   UNL     1       7.157  -6.164   6.819  1.00  0.00     0.031 A 
ATOM     37  C   UNL     1       6.453  -7.181   7.679  1.00  0.00     0.074 A 
ATOM     38  C   UNL     1       8.136  -5.405   7.354  1.00  0.00     0.049 A 
ATOM     39  N   UNL     1       6.648  -7.472   8.942  1.00  0.00    -0.248 NA
ATOM     40  C   UNL     1       5.373  -7.954   7.046  1.00  0.00     0.031 C 
ATOM     41  C   UNL     1       8.875  -4.355   6.650  1.00  0.00     0.029 A 
ATOM     42  N   UNL     1       8.675  -5.399   8.617  1.00  0.00    -0.354 N 
ATOM     43  C   UNL     1       5.707  -8.445   9.257  1.00  0.00     0.074 A 
ATOM     44  C   UNL     1       4.908  -8.657   8.069  1.00  0.00     0.031 C 
ATOM     45  C   UNL     1       9.791  -3.830   7.480  1.00  0.00     0.029 A 
ATOM     46  C   UNL     1       9.676  -4.472   8.785  1.00  0.00     0.049 A 
ATOM     47  H   UNL     1       8.372  -6.001   9.335  1.00  0.00     0.167 HD
ATOM     48  C   UNL     1       5.532  -9.118  10.420  1.00  0.00     0.031 A 
ATOM     49  C   UNL     1      10.417  -4.167   9.867  1.00  0.00     0.031 A 
ATOM     50  C   UNL     1       6.329  -8.918  11.602  1.00  0.00     0.049 A 
ATOM     51  C   UNL     1      10.194  -4.917  11.151  1.00  0.00     0.074 A 
ATOM     52  C   UNL     1       6.262  -9.592  12.810  1.00  0.00     0.029 A 
ATOM     53  N   UNL     1       7.335  -7.973  11.727  1.00  0.00    -0.354 N 
ATOM     54  N   UNL     1       9.345  -5.881  11.409  1.00  0.00    -0.248 NA
ATOM     55  C   UNL     1      11.045  -4.543  12.290  1.00  0.00     0.031 C 
ATOM     56  C   UNL     1       7.191  -9.017  13.684  1.00  0.00     0.029 A 
ATOM     57  C   UNL     1       7.879  -8.029  13.000  1.00  0.00     0.049 A 
ATOM     58  H   UNL     1       7.620  -7.354  11.017  1.00  0.00     0.167 HD
ATOM     59  C   UNL     1       9.579  -6.250  12.727  1.00  0.00     0.074 A 
ATOM     60  C   UNL     1      10.662  -5.418  13.209  1.00  0.00     0.031 C 
ATOM     61  C   UNL     1       8.954  -7.194  13.472  1.00  0.00     0.031 A 
BRANCH  48  62
ATOM     62  C   UNL     1       4.425 -10.136  10.472  1.00  0.00    -0.014 A 
ATOM     63  C   UNL     1       4.502 -11.334   9.743  1.00  0.00     0.009 A 
ATOM     64  C   UNL     1       3.306  -9.911  11.288  1.00  0.00     0.009 A 
ATOM     65  C   UNL     1       3.462 -12.266   9.800  1.00  0.00     0.001 A 
ATOM     66  C   UNL     1       2.283 -10.858  11.368  1.00  0.00     0.001 A 
ATOM     67  C   UNL     1       2.357 -12.030  10.616  1.00  0.00     0.000 A 
ENDBRANCH  48  62
BRANCH  49  68
ATOM     68  C   UNL     1      11.458  -3.108   9.784  1.00  0.00    -0.014 A 
ATOM     69  C   UNL     1      12.820  -3.442   9.843  1.00  0.00     0.009 A 
ATOM     70  C   UNL     1      11.097  -1.757   9.661  1.00  0.00     0.009 A 
ATOM     71  C   UNL     1      13.797  -2.444   9.810  1.00  0.00     0.001 A 
ATOM     72  C   UNL     1      12.076  -0.764   9.596  1.00  0.00     0.001 A 
ATOM     73  C   UNL     1      13.425  -1.107   9.682  1.00  0.00     0.000 A 
ENDBRANCH  49  68
BRANCH  61  74
ATOM     74  C   UNL     1       9.453  -7.406  14.874  1.00  0.00    -0.014 A 
ATOM     75  C   UNL     1       9.236  -6.453  15.882  1.00  0.00     0.009 A 
ATOM     76  C   UNL     1      10.130  -8.593  15.197  1.00  0.00     0.009 A 
ATOM     77  C   UNL     1       9.722  -6.668  17.174  1.00  0.00     0.001 A 
ATOM     78  C   UNL     1      10.585  -8.819  16.497  1.00  0.00     0.001 A 
ATOM     79  C   UNL     1      10.391  -7.852  17.481  1.00  0.00     0.000 A 
ENDBRANCH  61  74
ENDBRANCH  35  36
ENDBRANCH  27  30
ENDBRANCH  25  26
ENDBRANCH  24  25
ENDBRANCH   1  24
TORSDOF 14
