REMARK SMILES O=C(NCCCNC(=O)c1ccc(N2C(=O)/C(=C\C3=Cc4ccccc4OC3)SC2=S)cc1)c1ccc(-c2c3nc(c(-c4ccccc4)c4ccc([nH]4)c(-c4ccccc4)c4nc(c(-c5ccccc5)c5ccc2[nH]5)C=C4)C=C3)cc1
REMARK SMILES IDX 5 1 4 2 3 3 1 4 2 5 34 7 35 8 81 9 36 10 80 11 37 12 38 13
REMARK SMILES IDX 39 14 74 15 40 16 79 17 73 18 75 19 41 20 78 21 72 22 71 23
REMARK SMILES IDX 42 25 64 26 49 27 63 28 50 29 53 30 62 31 76 32 51 33 52 34
REMARK SMILES IDX 61 36 77 37 54 38 43 39 44 40 48 41 45 42 47 43 46 44 65 45
REMARK SMILES IDX 66 46 70 47 67 48 69 49 68 50 55 51 56 52 60 53 57 54 59 55
REMARK SMILES IDX 58 56 6 57 7 58 8 59 9 61 10 62 11 63 33 64 12 65 32 66
REMARK SMILES IDX 13 67 14 68 15 69 30 70 16 71 17 72 29 73 31 74 18 75 19 76
REMARK SMILES IDX 20 77 28 78 21 79 27 80 22 81 26 82 23 83 25 84 24 85
REMARK H PARENT 3 6 75 24 53 35 7 60
REMARK Flexibility Score: inf
ROOT
ATOM      1  C   UNL     1       4.791   0.402  -2.727  1.00  0.00     0.042 C 
ENDROOT
BRANCH   1   2
ATOM      2  C   UNL     1       4.468   0.862  -1.312  1.00  0.00     0.118 C 
BRANCH   2   3
ATOM      3  N   UNL     1       3.053   0.762  -0.978  1.00  0.00    -0.352 N 
ATOM      4  O   UNL     1       1.176  -0.005  -0.005  1.00  0.00    -0.269 OA
ATOM      5  C   UNL     1       2.404   0.022  -0.017  1.00  0.00     0.251 C 
ATOM      6  H   UNL     1       2.461   1.319  -1.535  1.00  0.00     0.163 HD
BRANCH   5   7
ATOM      7  C   UNL     1       3.161  -0.765   0.984  1.00  0.00     0.039 A 
ATOM      8  C   UNL     1       4.318  -0.262   1.577  1.00  0.00     0.014 A 
ATOM      9  C   UNL     1       2.682  -2.024   1.366  1.00  0.00     0.014 A 
ATOM     10  C   UNL     1       5.084  -1.076   2.404  1.00  0.00     0.010 A 
ATOM     11  C   UNL     1       3.400  -2.804   2.281  1.00  0.00     0.010 A 
ATOM     12  C   UNL     1       4.630  -2.352   2.778  1.00  0.00    -0.014 A 
BRANCH  12  13
ATOM     13  C   UNL     1       5.448  -3.148   3.730  1.00  0.00     0.031 A 
ATOM     14  C   UNL     1       6.093  -4.446   3.324  1.00  0.00     0.074 A 
ATOM     15  C   UNL     1       5.675  -2.644   4.960  1.00  0.00     0.049 A 
ATOM     16  N   UNL     1       6.934  -5.190   3.999  1.00  0.00    -0.248 NA
ATOM     17  C   UNL     1       5.750  -4.983   1.998  1.00  0.00     0.031 C 
ATOM     18  C   UNL     1       5.088  -1.407   5.484  1.00  0.00     0.029 A 
ATOM     19  N   UNL     1       6.490  -3.079   5.973  1.00  0.00    -0.354 N 
ATOM     20  C   UNL     1       7.212  -6.284   3.189  1.00  0.00     0.074 A 
ATOM     21  C   UNL     1       6.429  -6.123   1.983  1.00  0.00     0.031 C 
ATOM     22  C   UNL     1       5.619  -1.144   6.686  1.00  0.00     0.029 A 
ATOM     23  C   UNL     1       6.539  -2.218   7.042  1.00  0.00     0.049 A 
ATOM     24  H   UNL     1       6.991  -3.926   5.937  1.00  0.00     0.167 HD
ATOM     25  C   UNL     1       8.050  -7.323   3.423  1.00  0.00     0.031 A 
ATOM     26  C   UNL     1       7.247  -2.278   8.184  1.00  0.00     0.031 A 
ATOM     27  C   UNL     1       8.830  -7.488   4.622  1.00  0.00     0.049 A 
ATOM     28  C   UNL     1       8.173  -3.434   8.412  1.00  0.00     0.074 A 
ATOM     29  C   UNL     1       9.712  -8.506   4.945  1.00  0.00     0.029 A 
ATOM     30  N   UNL     1       8.825  -6.612   5.696  1.00  0.00    -0.354 N 
ATOM     31  N   UNL     1       8.441  -4.444   7.621  1.00  0.00    -0.248 NA
ATOM     32  C   UNL     1       8.897  -3.456   9.690  1.00  0.00     0.031 C 
ATOM     33  C   UNL     1      10.213  -8.264   6.229  1.00  0.00     0.029 A 
ATOM     34  C   UNL     1       9.677  -7.071   6.686  1.00  0.00     0.049 A 
ATOM     35  H   UNL     1       8.294  -5.784   5.747  1.00  0.00     0.167 HD
ATOM     36  C   UNL     1       9.363  -5.222   8.305  1.00  0.00     0.074 A 
ATOM     37  C   UNL     1       9.637  -4.548   9.558  1.00  0.00     0.031 C 
ATOM     38  C   UNL     1       9.925  -6.398   7.934  1.00  0.00     0.031 A 
BRANCH  25  39
ATOM     39  C   UNL     1       8.162  -8.379   2.359  1.00  0.00    -0.014 A 
ATOM     40  C   UNL     1       8.873  -8.139   1.173  1.00  0.00     0.009 A 
ATOM     41  C   UNL     1       7.599  -9.647   2.570  1.00  0.00     0.009 A 
ATOM     42  C   UNL     1       8.999  -9.142   0.209  1.00  0.00     0.001 A 
ATOM     43  C   UNL     1       7.745 -10.655   1.614  1.00  0.00     0.001 A 
ATOM     44  C   UNL     1       8.440 -10.400   0.432  1.00  0.00     0.000 A 
ENDBRANCH  25  39
BRANCH  26  45
ATOM     45  C   UNL     1       7.098  -1.206   9.201  1.00  0.00    -0.014 A 
ATOM     46  C   UNL     1       8.136  -0.295   9.441  1.00  0.00     0.009 A 
ATOM     47  C   UNL     1       5.904  -1.085   9.929  1.00  0.00     0.009 A 
ATOM     48  C   UNL     1       7.989   0.704  10.406  1.00  0.00     0.001 A 
ATOM     49  C   UNL     1       5.748  -0.068  10.871  1.00  0.00     0.001 A 
ATOM     50  C   UNL     1       6.794   0.821  11.116  1.00  0.00     0.000 A 
ENDBRANCH  26  45
BRANCH  38  51
ATOM     51  C   UNL     1      10.890  -7.019   8.901  1.00  0.00    -0.014 A 
ATOM     52  C   UNL     1      10.437  -7.627  10.082  1.00  0.00     0.009 A 
ATOM     53  C   UNL     1      12.266  -6.997   8.627  1.00  0.00     0.009 A 
ATOM     54  C   UNL     1      11.348  -8.168  10.991  1.00  0.00     0.001 A 
ATOM     55  C   UNL     1      13.172  -7.561   9.527  1.00  0.00     0.001 A 
ATOM     56  C   UNL     1      12.713  -8.136  10.712  1.00  0.00     0.000 A 
ENDBRANCH  38  51
ENDBRANCH  12  13
ENDBRANCH   5   7
ENDBRANCH   2   3
ENDBRANCH   1   2
BRANCH   1  57
ATOM     57  C   UNL     1       4.179   1.252  -3.833  1.00  0.00     0.118 C 
BRANCH  57  58
ATOM     58  N   UNL     1       4.632   2.634  -3.794  1.00  0.00    -0.352 N 
ATOM     59  C   UNL     1       5.482   3.336  -4.610  1.00  0.00     0.251 C 
ATOM     60  H   UNL     1       4.261   3.159  -3.049  1.00  0.00     0.163 HD
ATOM     61  O   UNL     1       5.863   4.448  -4.251  1.00  0.00    -0.269 OA
BRANCH  59  62
ATOM     62  C   UNL     1       5.974   2.781  -5.891  1.00  0.00     0.039 A 
ATOM     63  C   UNL     1       7.303   3.008  -6.245  1.00  0.00     0.016 A 
ATOM     64  C   UNL     1       5.147   2.102  -6.782  1.00  0.00     0.016 A 
ATOM     65  C   UNL     1       7.816   2.492  -7.444  1.00  0.00     0.027 A 
ATOM     66  C   UNL     1       5.674   1.558  -7.963  1.00  0.00     0.027 A 
ATOM     67  C   UNL     1       7.021   1.739  -8.324  1.00  0.00     0.051 A 
BRANCH  67  68
ATOM     68  N   UNL     1       7.578   1.094  -9.485  1.00  0.00    -0.261 N 
ATOM     69  C   UNL     1       8.900   0.643  -9.473  1.00  0.00     0.270 C 
ATOM     70  C   UNL     1       6.919   0.882 -10.693  1.00  0.00     0.152 C 
ATOM     71  O   UNL     1       9.844   1.078  -8.833  1.00  0.00    -0.268 OA
ATOM     72  C   UNL     1       9.068  -0.411 -10.512  1.00  0.00     0.081 C 
ATOM     73  S   UNL     1       7.935  -0.096 -11.771  1.00  0.00    -0.054 SA
ATOM     74  S   UNL     1       5.454   1.463 -11.260  1.00  0.00    -0.051 S 
ATOM     75  C   UNL     1       9.763  -1.559 -10.461  1.00  0.00     0.028 C 
BRANCH  75  76
ATOM     76  C   UNL     1      10.427  -2.210  -9.322  1.00  0.00    -0.009 C 
ATOM     77  C   UNL     1      10.735  -1.590  -8.164  1.00  0.00     0.019 C 
ATOM     78  C   UNL     1       9.842  -3.599  -9.077  1.00  0.00     0.265 C 
ATOM     79  C   UNL     1       9.568  -1.610  -7.232  1.00  0.00     0.017 A 
ATOM     80  O   UNL     1       8.553  -3.487  -8.431  1.00  0.00    -0.488 OA
ATOM     81  C   UNL     1       9.468  -0.663  -6.211  1.00  0.00     0.012 A 
ATOM     82  C   UNL     1       8.514  -2.520  -7.447  1.00  0.00     0.127 A 
ATOM     83  C   UNL     1       8.300  -0.583  -5.452  1.00  0.00     0.001 A 
ATOM     84  C   UNL     1       7.343  -2.424  -6.701  1.00  0.00     0.047 A 
ATOM     85  C   UNL     1       7.234  -1.448  -5.709  1.00  0.00     0.004 A 
ENDBRANCH  75  76
ENDBRANCH  67  68
ENDBRANCH  59  62
ENDBRANCH  57  58
ENDBRANCH   1  57
TORSDOF 12
