REMARK SMILES Cc1cc(F)c(C(=O)NCCCNC(=O)c2ccc(-c3c4nc(c(-c5ccccc5)c5ccc([nH]5)c(-c5ccccc5)c5nc(c(-c6ccccc6)c6ccc3[nH]6)C=C5)C=C4)cc2)cc1F
REMARK SMILES IDX 12 1 11 2 10 3 9 4 7 5 8 6 6 8 1 9 2 10 3 11 65 12 4 13
REMARK SMILES IDX 64 14 66 15 5 16 13 17 14 18 15 20 16 21 17 22 63 23 18 24
REMARK SMILES IDX 62 25 19 26 20 27 21 28 56 29 22 30 61 31 55 32 57 33 23 34
REMARK SMILES IDX 60 35 54 36 53 37 24 39 46 40 31 41 45 42 32 43 35 44 44 45
REMARK SMILES IDX 58 46 33 47 34 48 43 50 59 51 36 52 25 53 26 54 30 55 27 56
REMARK SMILES IDX 29 57 28 58 47 59 48 60 52 61 49 62 51 63 50 64 37 65 38 66
REMARK SMILES IDX 42 67 39 68 41 69 40 70
REMARK H PARENT 9 7 13 19 57 38 35 49
REMARK Flexibility Score: inf
ROOT
ATOM      1  C   UNL     1       1.435   6.222  -5.793  1.00  0.00     0.118 C 
ENDROOT
BRANCH   1   2
ATOM      2  C   UNL     1       1.532   5.534  -4.439  1.00  0.00     0.042 C 
BRANCH   2   3
ATOM      3  C   UNL     1       0.249   4.859  -3.976  1.00  0.00     0.118 C 
BRANCH   3   4
ATOM      4  N   UNL     1      -0.214   3.808  -4.872  1.00  0.00    -0.352 N 
ATOM      5  C   UNL     1      -0.427   2.459  -4.720  1.00  0.00     0.254 C 
ATOM      6  O   UNL     1      -0.831   1.837  -5.700  1.00  0.00    -0.269 OA
ATOM      7  H   UNL     1      -0.417   4.133  -5.779  1.00  0.00     0.163 HD
BRANCH   5   8
ATOM      8  C   UNL     1      -0.184   1.745  -3.446  1.00  0.00     0.078 A 
ATOM      9  C   UNL     1       0.832  -0.363   0.183  1.00  0.00     0.047 C 
ATOM     10  C   UNL     1       0.410   0.338  -1.072  1.00  0.00    -0.012 A 
ATOM     11  C   UNL     1       0.593  -0.269  -2.318  1.00  0.00     0.046 A 
ATOM     12  C   UNL     1      -0.125   1.626  -1.035  1.00  0.00     0.127 A 
ATOM     13  C   UNL     1       0.304   0.434  -3.491  1.00  0.00     0.136 A 
ATOM     14  C   UNL     1      -0.465   2.309  -2.201  1.00  0.00     0.056 A 
ATOM     15  F   UNL     1      -0.311   2.241   0.141  1.00  0.00    -0.207 F 
ATOM     16  F   UNL     1       0.539  -0.185  -4.657  1.00  0.00    -0.206 F 
ENDBRANCH   5   8
ENDBRANCH   3   4
ENDBRANCH   2   3
ENDBRANCH   1   2
BRANCH   1  17
ATOM     17  N   UNL     1       0.550   7.382  -5.796  1.00  0.00    -0.352 N 
ATOM     18  C   UNL     1       0.802   8.734  -5.719  1.00  0.00     0.251 C 
ATOM     19  H   UNL     1      -0.406   7.156  -5.866  1.00  0.00     0.163 HD
ATOM     20  O   UNL     1      -0.133   9.513  -5.592  1.00  0.00    -0.269 OA
BRANCH  18  21
ATOM     21  C   UNL     1       2.189   9.257  -5.740  1.00  0.00     0.039 A 
ATOM     22  C   UNL     1       3.158   8.714  -6.578  1.00  0.00     0.014 A 
ATOM     23  C   UNL     1       2.525  10.332  -4.907  1.00  0.00     0.014 A 
ATOM     24  C   UNL     1       4.492   9.070  -6.416  1.00  0.00     0.010 A 
ATOM     25  C   UNL     1       3.850  10.777  -4.837  1.00  0.00     0.010 A 
ATOM     26  C   UNL     1       4.859  10.104  -5.541  1.00  0.00    -0.014 A 
BRANCH  26  27
ATOM     27  C   UNL     1       6.298  10.449  -5.383  1.00  0.00     0.031 A 
ATOM     28  C   UNL     1       6.987  10.305  -4.050  1.00  0.00     0.074 A 
ATOM     29  C   UNL     1       7.011  10.818  -6.466  1.00  0.00     0.049 A 
ATOM     30  N   UNL     1       8.245  10.511  -3.748  1.00  0.00    -0.248 NA
ATOM     31  C   UNL     1       6.164   9.879  -2.906  1.00  0.00     0.031 C 
ATOM     32  C   UNL     1       6.468  10.974  -7.818  1.00  0.00     0.029 A 
ATOM     33  N   UNL     1       8.349  11.088  -6.615  1.00  0.00    -0.354 N 
ATOM     34  C   UNL     1       8.356  10.266  -2.385  1.00  0.00     0.074 A 
ATOM     35  C   UNL     1       7.035   9.922  -1.908  1.00  0.00     0.031 C 
ATOM     36  C   UNL     1       7.472  11.227  -8.668  1.00  0.00     0.029 A 
ATOM     37  C   UNL     1       8.717  11.337  -7.915  1.00  0.00     0.049 A 
ATOM     38  H   UNL     1       8.984  11.101  -5.862  1.00  0.00     0.167 HD
ATOM     39  C   UNL     1       9.461  10.313  -1.603  1.00  0.00     0.031 A 
ATOM     40  C   UNL     1       9.917  11.632  -8.451  1.00  0.00     0.031 A 
ATOM     41  C   UNL     1      10.779  10.634  -2.082  1.00  0.00     0.049 A 
ATOM     42  C   UNL     1      11.117  11.723  -7.556  1.00  0.00     0.074 A 
ATOM     43  C   UNL     1      11.963  10.679  -1.365  1.00  0.00     0.029 A 
ATOM     44  N   UNL     1      11.090  10.960  -3.392  1.00  0.00    -0.354 N 
ATOM     45  N   UNL     1      11.202  11.485  -6.270  1.00  0.00    -0.248 NA
ATOM     46  C   UNL     1      12.384  12.130  -8.180  1.00  0.00     0.031 C 
ATOM     47  C   UNL     1      12.979  11.094  -2.228  1.00  0.00     0.029 A 
ATOM     48  C   UNL     1      12.443  11.239  -3.498  1.00  0.00     0.049 A 
ATOM     49  H   UNL     1      10.446  10.990  -4.136  1.00  0.00     0.167 HD
ATOM     50  C   UNL     1      12.530  11.705  -5.930  1.00  0.00     0.074 A 
ATOM     51  C   UNL     1      13.219  12.073  -7.150  1.00  0.00     0.031 C 
ATOM     52  C   UNL     1      13.119  11.613  -4.714  1.00  0.00     0.031 A 
BRANCH  39  53
ATOM     53  C   UNL     1       9.303  10.027  -0.134  1.00  0.00    -0.014 A 
ATOM     54  C   UNL     1       9.495  11.060   0.799  1.00  0.00     0.009 A 
ATOM     55  C   UNL     1       9.060   8.728   0.337  1.00  0.00     0.009 A 
ATOM     56  C   UNL     1       9.459  10.798   2.169  1.00  0.00     0.001 A 
ATOM     57  C   UNL     1       8.995   8.473   1.709  1.00  0.00     0.001 A 
ATOM     58  C   UNL     1       9.204   9.505   2.623  1.00  0.00     0.000 A 
ENDBRANCH  39  53
BRANCH  40  59
ATOM     59  C   UNL     1      10.022  11.856  -9.918  1.00  0.00    -0.014 A 
ATOM     60  C   UNL     1       9.406  12.969 -10.515  1.00  0.00     0.009 A 
ATOM     61  C   UNL     1      10.673  10.922 -10.737  1.00  0.00     0.009 A 
ATOM     62  C   UNL     1       9.406  13.122 -11.902  1.00  0.00     0.001 A 
ATOM     63  C   UNL     1      10.700  11.096 -12.123  1.00  0.00     0.001 A 
ATOM     64  C   UNL     1      10.055  12.187 -12.705  1.00  0.00     0.000 A 
ENDBRANCH  40  59
BRANCH  52  65
ATOM     65  C   UNL     1      14.589  11.908  -4.622  1.00  0.00    -0.014 A 
ATOM     66  C   UNL     1      15.492  10.870  -4.338  1.00  0.00     0.009 A 
ATOM     67  C   UNL     1      15.069  13.223  -4.707  1.00  0.00     0.009 A 
ATOM     68  C   UNL     1      16.842  11.145  -4.123  1.00  0.00     0.001 A 
ATOM     69  C   UNL     1      16.427  13.492  -4.519  1.00  0.00     0.001 A 
ATOM     70  C   UNL     1      17.309  12.455  -4.217  1.00  0.00     0.000 A 
ENDBRANCH  52  65
ENDBRANCH  26  27
ENDBRANCH  18  21
ENDBRANCH   1  17
TORSDOF 10
