REMARK SMILES CCN(CCC(=O)NCCCNC(=O)c1ccc(-c2c3nc(c(-c4ccccc4)c4ccc([nH]4)c(-c4ccccc4)c4nc(c(-c5ccccc5)c5ccc2[nH]5)C=C4)C=C3)cc1)C(=O)N1C[C@H](C(=O)OC)[C@@H](C)C1
REMARK SMILES IDX 6 1 7 2 8 3 5 5 4 6 3 7 2 8 1 9 63 10 64 11 65 12 66 13
REMARK SMILES IDX 74 14 67 15 72 16 73 17 68 18 69 19 70 20 71 21 9 22 10 23
REMARK SMILES IDX 11 24 12 25 13 26 14 28 15 29 16 30 62 31 17 32 61 33 18 34
REMARK SMILES IDX 19 35 20 36 55 37 21 38 60 39 54 40 56 41 22 42 59 43 53 44
REMARK SMILES IDX 52 45 23 47 45 48 30 49 44 50 31 51 34 52 43 53 57 54 32 55
REMARK SMILES IDX 33 56 42 58 58 59 35 60 24 61 25 62 29 63 26 64 28 65 27 66
REMARK SMILES IDX 46 67 47 68 51 69 48 70 50 71 49 72 36 73 37 74 41 75 38 76
REMARK SMILES IDX 40 77 39 78
REMARK H PARENT 8 4 12 27 56 46 34 57
REMARK Flexibility Score: inf
ROOT
ATOM      1  C   UNL     1       1.433   5.051   1.129  1.00  0.00     0.221 C 
ATOM      2  O   UNL     1       1.414   6.233   0.773  1.00  0.00    -0.275 OA
ATOM      3  N   UNL     1       2.608   4.539   1.595  1.00  0.00    -0.356 N 
ATOM      4  H   UNL     1       3.397   5.101   1.422  1.00  0.00     0.163 HD
ENDROOT
BRANCH   1   5
ATOM      5  C   UNL     1       0.192   4.207   1.004  1.00  0.00     0.121 C 
BRANCH   5   6
ATOM      6  C   UNL     1      -0.012   3.636  -0.401  1.00  0.00     0.131 C 
BRANCH   6   7
ATOM      7  N   UNL     1       0.838   2.489  -0.738  1.00  0.00    -0.324 N 
BRANCH   7   8
ATOM      8  C   UNL     1       0.420   1.263  -0.006  1.00  0.00     0.118 C 
ATOM      9  C   UNL     1       0.893  -0.122  -0.425  1.00  0.00     0.027 C 
ENDBRANCH   7   8
BRANCH   7  10
ATOM     10  C   UNL     1       1.962   2.468  -1.549  1.00  0.00     0.320 C 
ATOM     11  O   UNL     1       2.501   1.391  -1.831  1.00  0.00    -0.248 OA
BRANCH  10  12
ATOM     12  N   UNL     1       2.584   3.603  -2.016  1.00  0.00    -0.323 N 
ATOM     13  C   UNL     1       2.287   5.034  -1.989  1.00  0.00     0.137 C 
ATOM     14  C   UNL     1       3.846   3.400  -2.742  1.00  0.00     0.125 C 
ATOM     15  C   UNL     1       3.109   5.650  -3.115  1.00  0.00     0.123 C 
ATOM     16  C   UNL     1       4.367   4.787  -3.136  1.00  0.00     0.021 C 
ATOM     17  C   UNL     1       5.400   5.296  -2.122  1.00  0.00     0.010 C 
BRANCH  15  18
ATOM     18  C   UNL     1       2.238   5.631  -4.359  1.00  0.00     0.310 C 
ATOM     19  O   UNL     1       1.614   6.600  -4.749  1.00  0.00    -0.252 OA
BRANCH  18  20
ATOM     20  O   UNL     1       2.102   4.370  -4.853  1.00  0.00    -0.469 OA
ATOM     21  C   UNL     1       0.893   4.145  -5.577  1.00  0.00     0.282 C 
ENDBRANCH  18  20
ENDBRANCH  15  18
ENDBRANCH  10  12
ENDBRANCH   7  10
ENDBRANCH   6   7
ENDBRANCH   5   6
ENDBRANCH   1   5
BRANCH   3  22
ATOM     22  C   UNL     1       2.889   3.300   2.307  1.00  0.00     0.117 C 
BRANCH  22  23
ATOM     23  C   UNL     1       3.618   2.228   1.496  1.00  0.00     0.042 C 
BRANCH  23  24
ATOM     24  C   UNL     1       4.981   2.616   0.931  1.00  0.00     0.118 C 
BRANCH  24  25
ATOM     25  N   UNL     1       6.044   2.478   1.912  1.00  0.00    -0.352 N 
ATOM     26  C   UNL     1       6.938   1.458   2.133  1.00  0.00     0.251 C 
ATOM     27  H   UNL     1       6.140   3.245   2.522  1.00  0.00     0.163 HD
ATOM     28  O   UNL     1       7.593   1.470   3.174  1.00  0.00    -0.269 OA
BRANCH  26  29
ATOM     29  C   UNL     1       7.135   0.337   1.178  1.00  0.00     0.039 A 
ATOM     30  C   UNL     1       7.319  -0.948   1.707  1.00  0.00     0.014 A 
ATOM     31  C   UNL     1       7.266   0.526  -0.201  1.00  0.00     0.014 A 
ATOM     32  C   UNL     1       7.582  -2.035   0.865  1.00  0.00     0.010 A 
ATOM     33  C   UNL     1       7.486  -0.571  -1.050  1.00  0.00     0.010 A 
ATOM     34  C   UNL     1       7.645  -1.865  -0.527  1.00  0.00    -0.014 A 
BRANCH  34  35
ATOM     35  C   UNL     1       7.833  -3.038  -1.427  1.00  0.00     0.031 A 
ATOM     36  C   UNL     1       9.097  -3.223  -2.225  1.00  0.00     0.074 A 
ATOM     37  C   UNL     1       6.844  -3.947  -1.546  1.00  0.00     0.049 A 
ATOM     38  N   UNL     1       9.408  -4.178  -3.069  1.00  0.00    -0.248 NA
ATOM     39  C   UNL     1      10.144  -2.205  -2.060  1.00  0.00     0.031 C 
ATOM     40  C   UNL     1       5.562  -3.895  -0.842  1.00  0.00     0.029 A 
ATOM     41  N   UNL     1       6.760  -5.089  -2.306  1.00  0.00    -0.354 N 
ATOM     42  C   UNL     1      10.680  -3.873  -3.540  1.00  0.00     0.074 A 
ATOM     43  C   UNL     1      11.069  -2.628  -2.911  1.00  0.00     0.031 C 
ATOM     44  C   UNL     1       4.828  -4.963  -1.189  1.00  0.00     0.029 A 
ATOM     45  C   UNL     1       5.563  -5.751  -2.174  1.00  0.00     0.049 A 
ATOM     46  H   UNL     1       7.488  -5.402  -2.890  1.00  0.00     0.167 HD
ATOM     47  C   UNL     1      11.456  -4.568  -4.409  1.00  0.00     0.031 A 
ATOM     48  C   UNL     1       5.094  -6.855  -2.787  1.00  0.00     0.031 A 
ATOM     49  C   UNL     1      11.076  -5.804  -5.045  1.00  0.00     0.049 A 
ATOM     50  C   UNL     1       5.950  -7.569  -3.796  1.00  0.00     0.074 A 
ATOM     51  C   UNL     1      11.824  -6.599  -5.899  1.00  0.00     0.029 A 
ATOM     52  N   UNL     1       9.841  -6.417  -4.913  1.00  0.00    -0.354 N 
ATOM     53  N   UNL     1       7.173  -7.300  -4.180  1.00  0.00    -0.248 NA
ATOM     54  C   UNL     1       5.356  -8.742  -4.456  1.00  0.00     0.031 C 
ATOM     55  C   UNL     1      11.020  -7.659  -6.332  1.00  0.00     0.029 A 
ATOM     56  C   UNL     1       9.791  -7.557  -5.702  1.00  0.00     0.049 A 
ATOM     57  H   UNL     1       9.107  -6.092  -4.343  1.00  0.00     0.167 HD
ATOM     58  C   UNL     1       7.500  -8.277  -5.112  1.00  0.00     0.074 A 
ATOM     59  C   UNL     1       6.357  -9.158  -5.219  1.00  0.00     0.031 C 
ATOM     60  C   UNL     1       8.648  -8.425  -5.817  1.00  0.00     0.031 A 
BRANCH  47  61
ATOM     61  C   UNL     1      12.806  -3.996  -4.748  1.00  0.00    -0.014 A 
ATOM     62  C   UNL     1      13.858  -4.009  -3.819  1.00  0.00     0.009 A 
ATOM     63  C   UNL     1      13.048  -3.497  -6.039  1.00  0.00     0.009 A 
ATOM     64  C   UNL     1      15.114  -3.504  -4.165  1.00  0.00     0.001 A 
ATOM     65  C   UNL     1      14.311  -3.018  -6.390  1.00  0.00     0.001 A 
ATOM     66  C   UNL     1      15.341  -3.013  -5.450  1.00  0.00     0.000 A 
ENDBRANCH  47  61
BRANCH  48  67
ATOM     67  C   UNL     1       3.725  -7.348  -2.480  1.00  0.00    -0.014 A 
ATOM     68  C   UNL     1       3.537  -8.550  -1.782  1.00  0.00     0.009 A 
ATOM     69  C   UNL     1       2.599  -6.621  -2.897  1.00  0.00     0.009 A 
ATOM     70  C   UNL     1       2.248  -9.025  -1.528  1.00  0.00     0.001 A 
ATOM     71  C   UNL     1       1.312  -7.083  -2.615  1.00  0.00     0.001 A 
ATOM     72  C   UNL     1       1.138  -8.289  -1.939  1.00  0.00     0.000 A 
ENDBRANCH  48  67
BRANCH  60  73
ATOM     73  C   UNL     1       8.732  -9.592  -6.760  1.00  0.00    -0.014 A 
ATOM     74  C   UNL     1       8.008  -9.608  -7.963  1.00  0.00     0.009 A 
ATOM     75  C   UNL     1       9.574 -10.675  -6.462  1.00  0.00     0.009 A 
ATOM     76  C   UNL     1       8.103 -10.697  -8.832  1.00  0.00     0.001 A 
ATOM     77  C   UNL     1       9.689 -11.749  -7.346  1.00  0.00     0.001 A 
ATOM     78  C   UNL     1       8.947 -11.764  -8.526  1.00  0.00     0.000 A 
ENDBRANCH  60  73
ENDBRANCH  34  35
ENDBRANCH  26  29
ENDBRANCH  24  25
ENDBRANCH  23  24
ENDBRANCH  22  23
ENDBRANCH   3  22
TORSDOF 17
