REMARK SMILES COc1c[nH]c(C[N@H+]2CCC[C@@H](c3ccc(C(=O)NCCCNC(=O)c4ccc(-c5c6nc(c(-c7ccccc7)c7ccc([nH]7)c(-c7ccccc7)c7nc(c(-c8ccccc8)c8ccc5[nH]8)C=C7)C=C6)cc4)cc3)C2)cc1=O
REMARK SMILES IDX 20 1 19 2 17 3 18 4 16 6 13 7 14 8 75 9 15 10 74 11 12 12
REMARK SMILES IDX 8 13 9 14 76 15 10 17 11 18 7 19 6 20 3 21 4 22 78 23 5 24
REMARK SMILES IDX 77 25 79 26 2 28 1 29 21 30 22 31 23 32 24 33 25 35 26 36
REMARK SMILES IDX 27 37 73 38 28 39 72 40 29 41 30 42 31 43 66 44 32 45 71 46
REMARK SMILES IDX 65 47 67 48 33 49 70 50 64 51 63 52 34 54 56 55 41 56 55 57
REMARK SMILES IDX 42 58 45 59 54 60 68 61 43 62 44 63 53 65 69 66 46 67 35 68
REMARK SMILES IDX 36 69 40 70 37 71 39 72 38 73 57 74 58 75 62 76 59 77 61 78
REMARK SMILES IDX 60 79 47 80 48 81 52 82 49 83 51 84 50 85
REMARK H PARENT 19 5 8 16 5 27 23 34 67 53 45 64
REMARK Flexibility Score: inf
ROOT
ATOM      1  C   UNL     1      -6.962  -8.001   5.093  1.00  0.00     0.118 C 
ENDROOT
BRANCH   1   2
ATOM      2  N   UNL     1      -6.948  -6.625   5.553  1.00  0.00    -0.352 N 
ATOM      3  C   UNL     1      -5.921  -5.748   5.782  1.00  0.00     0.251 C 
ATOM      4  O   UNL     1      -6.215  -4.601   6.122  1.00  0.00    -0.269 OA
ATOM      5  H   UNL     1      -7.842  -6.254   5.734  1.00  0.00     0.163 HD
BRANCH   3   6
ATOM      6  C   UNL     1      -4.490  -6.101   5.581  1.00  0.00     0.039 A 
ATOM      7  C   UNL     1      -1.754  -6.604   5.080  1.00  0.00    -0.039 A 
ATOM      8  C   UNL     1      -2.287  -5.314   4.932  1.00  0.00     0.005 A 
ATOM      9  C   UNL     1      -2.593  -7.619   5.551  1.00  0.00     0.005 A 
ATOM     10  C   UNL     1      -3.640  -5.069   5.167  1.00  0.00     0.014 A 
ATOM     11  C   UNL     1      -3.942  -7.363   5.818  1.00  0.00     0.014 A 
BRANCH   7  12
ATOM     12  C   UNL     1      -0.304  -6.917   4.738  1.00  0.00     0.074 C 
ATOM     13  N   UNL     1       1.456  -6.626   2.958  1.00  0.00    -0.329 N 
ATOM     14  C   UNL     1       2.358  -6.006   3.939  1.00  0.00     0.262 C 
ATOM     15  C   UNL     1       0.050  -6.414   3.322  1.00  0.00     0.270 C 
ATOM     16  H   UNL     1       1.621  -7.632   2.982  1.00  0.00     0.348 HD
ATOM     17  C   UNL     1       2.103  -6.547   5.349  1.00  0.00     0.062 C 
ATOM     18  C   UNL     1       0.655  -6.328   5.778  1.00  0.00     0.020 C 
BRANCH  13  19
ATOM     19  C   UNL     1       1.760  -6.201   1.574  1.00  0.00     0.317 C 
BRANCH  19  20
ATOM     20  C   UNL     1       1.566  -4.721   1.252  1.00  0.00     0.074 A 
ATOM     21  C   UNL     1       0.947  -1.953   0.896  1.00  0.00     0.182 A 
ATOM     22  C   UNL     1       0.006  -2.900   1.004  1.00  0.00     0.133 A 
ATOM     23  C   UNL     1       2.376  -2.434   0.887  1.00  0.00     0.223 A 
ATOM     24  N   UNL     1       0.277  -4.236   1.109  1.00  0.00    -0.357 N 
ATOM     25  C   UNL     1       2.615  -3.890   1.113  1.00  0.00     0.083 A 
ATOM     26  O   UNL     1       3.335  -1.685   0.729  1.00  0.00    -0.286 OA
ATOM     27  H   UNL     1      -0.470  -4.876   1.082  1.00  0.00     0.166 HD
BRANCH  21  28
ATOM     28  O   UNL     1       0.599  -0.616   0.884  1.00  0.00    -0.491 OA
ATOM     29  C   UNL     1       1.152   0.096  -0.217  1.00  0.00     0.278 C 
ENDBRANCH  21  28
ENDBRANCH  19  20
ENDBRANCH  13  19
ENDBRANCH   7  12
ENDBRANCH   3   6
ENDBRANCH   1   2
BRANCH   1  30
ATOM     30  C   UNL     1      -7.134  -8.969   6.262  1.00  0.00     0.042 C 
BRANCH  30  31
ATOM     31  C   UNL     1      -8.531  -8.943   6.872  1.00  0.00     0.118 C 
BRANCH  31  32
ATOM     32  N   UNL     1      -9.521  -9.544   5.992  1.00  0.00    -0.352 N 
ATOM     33  C   UNL     1     -10.368 -10.600   6.216  1.00  0.00     0.251 C 
ATOM     34  H   UNL     1      -9.594  -9.132   5.101  1.00  0.00     0.163 HD
ATOM     35  O   UNL     1     -10.974 -11.101   5.274  1.00  0.00    -0.269 OA
BRANCH  33  36
ATOM     36  C   UNL     1     -10.550 -11.146   7.580  1.00  0.00     0.039 A 
ATOM     37  C   UNL     1     -10.649 -12.531   7.739  1.00  0.00     0.014 A 
ATOM     38  C   UNL     1     -10.679 -10.304   8.688  1.00  0.00     0.014 A 
ATOM     39  C   UNL     1     -10.832 -13.074   9.013  1.00  0.00     0.010 A 
ATOM     40  C   UNL     1     -10.794 -10.849   9.966  1.00  0.00     0.010 A 
ATOM     41  C   UNL     1     -10.883 -12.238  10.139  1.00  0.00    -0.014 A 
BRANCH  41  42
ATOM     42  C   UNL     1     -11.044 -12.797  11.504  1.00  0.00     0.031 A 
ATOM     43  C   UNL     1     -12.291 -12.514  12.295  1.00  0.00     0.074 A 
ATOM     44  C   UNL     1     -10.044 -13.513  12.053  1.00  0.00     0.049 A 
ATOM     45  N   UNL     1     -12.587 -12.861  13.522  1.00  0.00    -0.248 NA
ATOM     46  C   UNL     1     -13.333 -11.716  11.628  1.00  0.00     0.031 C 
ATOM     47  C   UNL     1      -8.771 -13.830  11.402  1.00  0.00     0.029 A 
ATOM     48  N   UNL     1      -9.940 -14.096  13.290  1.00  0.00    -0.354 N 
ATOM     49  C   UNL     1     -13.835 -12.309  13.780  1.00  0.00     0.074 A 
ATOM     50  C   UNL     1     -14.223 -11.569  12.599  1.00  0.00     0.031 C 
ATOM     51  C   UNL     1      -8.024 -14.569  12.238  1.00  0.00     0.029 A 
ATOM     52  C   UNL     1      -8.747 -14.745  13.493  1.00  0.00     0.049 A 
ATOM     53  H   UNL     1     -10.652 -14.053  13.968  1.00  0.00     0.167 HD
ATOM     54  C   UNL     1     -14.598 -12.419  14.894  1.00  0.00     0.031 A 
ATOM     55  C   UNL     1      -8.283 -15.404  14.572  1.00  0.00     0.031 A 
ATOM     56  C   UNL     1     -14.220 -13.166  16.064  1.00  0.00     0.049 A 
ATOM     57  C   UNL     1      -9.146 -15.507  15.797  1.00  0.00     0.074 A 
ATOM     58  C   UNL     1     -14.948 -13.383  17.221  1.00  0.00     0.029 A 
ATOM     59  N   UNL     1     -13.008 -13.817  16.224  1.00  0.00    -0.354 N 
ATOM     60  N   UNL     1     -10.349 -15.028  16.003  1.00  0.00    -0.248 NA
ATOM     61  C   UNL     1      -8.589 -16.250  16.936  1.00  0.00     0.031 C 
ATOM     62  C   UNL     1     -14.157 -14.132  18.100  1.00  0.00     0.029 A 
ATOM     63  C   UNL     1     -12.958 -14.420  17.470  1.00  0.00     0.049 A 
ATOM     64  H   UNL     1     -12.288 -13.846  15.553  1.00  0.00     0.167 HD
ATOM     65  C   UNL     1     -10.703 -15.433  17.282  1.00  0.00     0.074 A 
ATOM     66  C   UNL     1      -9.594 -16.209  17.800  1.00  0.00     0.031 C 
ATOM     67  C   UNL     1     -11.846 -15.187  17.968  1.00  0.00     0.031 A 
BRANCH  54  68
ATOM     68  C   UNL     1     -15.921 -11.704  14.899  1.00  0.00    -0.014 A 
ATOM     69  C   UNL     1     -16.992 -12.152  14.111  1.00  0.00     0.009 A 
ATOM     70  C   UNL     1     -16.107 -10.586  15.726  1.00  0.00     0.009 A 
ATOM     71  C   UNL     1     -18.212 -11.472  14.123  1.00  0.00     0.001 A 
ATOM     72  C   UNL     1     -17.336  -9.924  15.757  1.00  0.00     0.001 A 
ATOM     73  C   UNL     1     -18.384 -10.362  14.948  1.00  0.00     0.000 A 
ENDBRANCH  54  68
BRANCH  55  74
ATOM     74  C   UNL     1      -6.939 -16.034  14.535  1.00  0.00    -0.014 A 
ATOM     75  C   UNL     1      -6.812 -17.430  14.474  1.00  0.00     0.009 A 
ATOM     76  C   UNL     1      -5.778 -15.246  14.563  1.00  0.00     0.009 A 
ATOM     77  C   UNL     1      -5.548 -18.025  14.465  1.00  0.00     0.001 A 
ATOM     78  C   UNL     1      -4.516 -15.843  14.527  1.00  0.00     0.001 A 
ATOM     79  C   UNL     1      -4.402 -17.232  14.487  1.00  0.00     0.000 A 
ENDBRANCH  55  74
BRANCH  67  80
ATOM     80  C   UNL     1     -11.965 -15.789  19.338  1.00  0.00    -0.014 A 
ATOM     81  C   UNL     1     -11.246 -15.271  20.426  1.00  0.00     0.009 A 
ATOM     82  C   UNL     1     -12.839 -16.867  19.549  1.00  0.00     0.009 A 
ATOM     83  C   UNL     1     -11.377 -15.843  21.693  1.00  0.00     0.001 A 
ATOM     84  C   UNL     1     -12.988 -17.419  20.822  1.00  0.00     0.001 A 
ATOM     85  C   UNL     1     -12.250 -16.912  21.890  1.00  0.00     0.000 A 
ENDBRANCH  67  80
ENDBRANCH  41  42
ENDBRANCH  33  36
ENDBRANCH  31  32
ENDBRANCH  30  31
ENDBRANCH   1  30
TORSDOF 14
