REMARK SMILES CC(C)=CC[N@H+]1CCCC[C@H]1C(=O)NCCCNC(=O)c1ccc(-c2c3nc(c(-c4ccccc4)c4ccc([nH]4)c(-c4ccccc4)c4nc(c(-c5ccccc5)c5ccc2[nH]5)C=C4)C=C3)cc1
REMARK SMILES IDX 16 1 15 2 14 3 12 4 13 5 11 7 6 8 7 9 8 11 10 12 9 13 5 14
REMARK SMILES IDX 4 15 1 16 2 17 3 18 17 19 18 20 19 21 20 23 21 24 22 25
REMARK SMILES IDX 68 26 23 27 67 28 24 29 25 30 26 31 61 32 27 33 66 34 60 35
REMARK SMILES IDX 62 36 28 37 65 38 59 39 58 40 29 42 51 43 36 44 50 45 37 46
REMARK SMILES IDX 40 47 49 48 63 49 38 50 39 51 48 53 64 54 41 55 30 56 31 57
REMARK SMILES IDX 35 58 32 59 34 60 33 61 52 62 53 63 57 64 54 65 56 66 55 67
REMARK SMILES IDX 42 68 43 69 47 70 44 71 46 72 45 73
REMARK H PARENT 14 6 6 10 18 22 62 41 40 52
REMARK Flexibility Score: inf
ROOT
ATOM      1  C   UNL     1       7.841  -2.460  -0.822  1.00  0.00     0.042 C 
ENDROOT
BRANCH   1   2
ATOM      2  C   UNL     1       6.648  -1.503  -0.882  1.00  0.00     0.118 C 
BRANCH   2   3
ATOM      3  N   UNL     1       5.507  -2.115  -1.529  1.00  0.00    -0.351 N 
ATOM      4  C   UNL     1       4.413  -2.764  -1.043  1.00  0.00     0.278 C 
ATOM      5  O   UNL     1       3.693  -3.267  -1.913  1.00  0.00    -0.268 OA
ATOM      6  H   UNL     1       5.525  -2.049  -2.511  1.00  0.00     0.163 HD
BRANCH   4   7
ATOM      7  C   UNL     1       4.065  -2.791   0.484  1.00  0.00     0.274 C 
ATOM      8  N   UNL     1       2.806  -3.541   0.779  1.00  0.00    -0.321 N 
ATOM      9  C   UNL     1       2.907  -4.975   0.479  1.00  0.00     0.263 C 
ATOM     10  H   UNL     1       2.688  -3.467   1.790  1.00  0.00     0.349 HD
ATOM     11  C   UNL     1       4.044  -5.633   1.263  1.00  0.00     0.062 C 
ATOM     12  C   UNL     1       5.151  -3.400   1.384  1.00  0.00     0.076 C 
ATOM     13  C   UNL     1       5.359  -4.883   1.100  1.00  0.00     0.012 C 
BRANCH   8  14
ATOM     14  C   UNL     1       1.609  -2.931   0.194  1.00  0.00     0.291 C 
BRANCH  14  15
ATOM     15  C   UNL     1       0.900  -2.108   1.233  1.00  0.00     0.032 C 
ATOM     16  C   UNL     1       0.892   0.051  -0.037  1.00  0.00     0.039 C 
ATOM     17  C   UNL     1       0.549  -0.809   1.145  1.00  0.00    -0.075 C 
ATOM     18  C   UNL     1      -0.239  -0.172   2.256  1.00  0.00     0.039 C 
ENDBRANCH  14  15
ENDBRANCH   8  14
ENDBRANCH   4   7
ENDBRANCH   2   3
ENDBRANCH   1   2
BRANCH   1  19
ATOM     19  C   UNL     1       8.358  -2.917  -2.187  1.00  0.00     0.118 C 
BRANCH  19  20
ATOM     20  N   UNL     1       9.017  -1.849  -2.919  1.00  0.00    -0.352 N 
ATOM     21  C   UNL     1      10.272  -1.809  -3.475  1.00  0.00     0.251 C 
ATOM     22  H   UNL     1       8.483  -1.030  -3.033  1.00  0.00     0.163 HD
ATOM     23  O   UNL     1      10.713  -0.743  -3.893  1.00  0.00    -0.269 OA
BRANCH  21  24
ATOM     24  C   UNL     1      11.105  -3.030  -3.568  1.00  0.00     0.039 A 
ATOM     25  C   UNL     1      12.469  -2.930  -3.276  1.00  0.00     0.014 A 
ATOM     26  C   UNL     1      10.575  -4.250  -4.001  1.00  0.00     0.014 A 
ATOM     27  C   UNL     1      13.291  -4.056  -3.375  1.00  0.00     0.010 A 
ATOM     28  C   UNL     1      11.386  -5.385  -4.050  1.00  0.00     0.010 A 
ATOM     29  C   UNL     1      12.753  -5.298  -3.744  1.00  0.00    -0.014 A 
BRANCH  29  30
ATOM     30  C   UNL     1      13.609  -6.510  -3.820  1.00  0.00     0.031 A 
ATOM     31  C   UNL     1      13.883  -7.170  -5.144  1.00  0.00     0.074 A 
ATOM     32  C   UNL     1      14.103  -7.050  -2.690  1.00  0.00     0.049 A 
ATOM     33  N   UNL     1      14.563  -8.259  -5.399  1.00  0.00    -0.248 NA
ATOM     34  C   UNL     1      13.299  -6.533  -6.335  1.00  0.00     0.031 C 
ATOM     35  C   UNL     1      13.889  -6.531  -1.338  1.00  0.00     0.029 A 
ATOM     36  N   UNL     1      14.883  -8.164  -2.499  1.00  0.00    -0.354 N 
ATOM     37  C   UNL     1      14.473  -8.450  -6.772  1.00  0.00     0.074 A 
ATOM     38  C   UNL     1      13.643  -7.383  -7.292  1.00  0.00     0.031 C 
ATOM     39  C   UNL     1      14.535  -7.314  -0.460  1.00  0.00     0.029 A 
ATOM     40  C   UNL     1      15.181  -8.407  -1.180  1.00  0.00     0.049 A 
ATOM     41  H   UNL     1      15.198  -8.734  -3.237  1.00  0.00     0.167 HD
ATOM     42  C   UNL     1      15.038  -9.416  -7.535  1.00  0.00     0.031 A 
ATOM     43  C   UNL     1      15.890  -9.400  -0.612  1.00  0.00     0.031 A 
ATOM     44  C   UNL     1      15.876 -10.469  -7.027  1.00  0.00     0.049 A 
ATOM     45  C   UNL     1      16.511 -10.458  -1.480  1.00  0.00     0.074 A 
ATOM     46  C   UNL     1      16.540 -11.460  -7.732  1.00  0.00     0.029 A 
ATOM     47  N   UNL     1      16.166 -10.669  -5.687  1.00  0.00    -0.354 N 
ATOM     48  N   UNL     1      16.464 -10.588  -2.783  1.00  0.00    -0.248 NA
ATOM     49  C   UNL     1      17.293 -11.499  -0.797  1.00  0.00     0.031 C 
ATOM     50  C   UNL     1      17.200 -12.283  -6.813  1.00  0.00     0.029 A 
ATOM     51  C   UNL     1      16.984 -11.778  -5.542  1.00  0.00     0.049 A 
ATOM     52  H   UNL     1      15.840 -10.107  -4.948  1.00  0.00     0.167 HD
ATOM     53  C   UNL     1      17.227 -11.710  -3.078  1.00  0.00     0.074 A 
ATOM     54  C   UNL     1      17.738 -12.215  -1.820  1.00  0.00     0.031 C 
ATOM     55  C   UNL     1      17.483 -12.270  -4.285  1.00  0.00     0.031 A 
BRANCH  42  56
ATOM     56  C   UNL     1      14.757  -9.383  -9.011  1.00  0.00    -0.014 A 
ATOM     57  C   UNL     1      15.337  -8.410  -9.839  1.00  0.00     0.009 A 
ATOM     58  C   UNL     1      13.933 -10.362  -9.587  1.00  0.00     0.009 A 
ATOM     59  C   UNL     1      15.068  -8.396 -11.210  1.00  0.00     0.001 A 
ATOM     60  C   UNL     1      13.686 -10.362 -10.961  1.00  0.00     0.001 A 
ATOM     61  C   UNL     1      14.247  -9.374 -11.770  1.00  0.00     0.000 A 
ENDBRANCH  42  56
BRANCH  43  62
ATOM     62  C   UNL     1      16.067  -9.433   0.862  1.00  0.00    -0.014 A 
ATOM     63  C   UNL     1      17.305  -9.112   1.437  1.00  0.00     0.009 A 
ATOM     64  C   UNL     1      14.997  -9.784   1.700  1.00  0.00     0.009 A 
ATOM     65  C   UNL     1      17.476  -9.164   2.822  1.00  0.00     0.001 A 
ATOM     66  C   UNL     1      15.165  -9.811   3.086  1.00  0.00     0.001 A 
ATOM     67  C   UNL     1      16.405  -9.508   3.645  1.00  0.00     0.000 A 
ENDBRANCH  43  62
BRANCH  55  68
ATOM     68  C   UNL     1      18.379 -13.475  -4.305  1.00  0.00    -0.014 A 
ATOM     69  C   UNL     1      17.919 -14.729  -3.875  1.00  0.00     0.009 A 
ATOM     70  C   UNL     1      19.688 -13.360  -4.797  1.00  0.00     0.009 A 
ATOM     71  C   UNL     1      18.766 -15.839  -3.909  1.00  0.00     0.001 A 
ATOM     72  C   UNL     1      20.524 -14.476  -4.852  1.00  0.00     0.001 A 
ATOM     73  C   UNL     1      20.065 -15.713  -4.401  1.00  0.00     0.000 A 
ENDBRANCH  55  68
ENDBRANCH  29  30
ENDBRANCH  21  24
ENDBRANCH  19  20
ENDBRANCH   1  19
TORSDOF 12
