REMARK SMILES Cc1ncccc1C(=O)N1CC[C@H](C(=O)NCCCNC(=O)c2ccc(-c3c4nc(c(-c5ccccc5)c5ccc([nH]5)c(-c5ccccc5)c5nc(c(-c6ccccc6)c6ccc3[nH]6)C=C5)C=C4)cc2)C1
REMARK SMILES IDX 18 1 17 2 16 3 14 4 15 5 13 7 10 8 11 9 71 10 12 11 8 12
REMARK SMILES IDX 9 13 7 14 1 15 2 16 3 17 4 18 6 19 5 20 19 21 20 22 21 23
REMARK SMILES IDX 22 25 23 26 24 27 70 28 25 29 69 30 26 31 27 32 28 33 63 34
REMARK SMILES IDX 29 35 68 36 62 37 64 38 30 39 67 40 61 41 60 42 31 44 53 45
REMARK SMILES IDX 38 46 52 47 39 48 42 49 51 50 65 51 40 52 41 53 50 55 66 56
REMARK SMILES IDX 43 57 32 58 33 59 37 60 34 61 36 62 35 63 54 64 55 65 59 66
REMARK SMILES IDX 56 67 58 68 57 69 44 70 45 71 49 72 46 73 48 74 47 75
REMARK H PARENT 16 6 20 24 64 43 42 54
REMARK Flexibility Score: inf
ROOT
ATOM      1  C   UNL     1       3.709   0.448  -2.666  1.00  0.00     0.042 C 
ENDROOT
BRANCH   1   2
ATOM      2  C   UNL     1       3.545  -1.059  -2.820  1.00  0.00     0.117 C 
BRANCH   2   3
ATOM      3  N   UNL     1       4.809  -1.771  -2.724  1.00  0.00    -0.356 N 
ATOM      4  C   UNL     1       5.296  -2.676  -1.838  1.00  0.00     0.224 C 
ATOM      5  O   UNL     1       6.427  -3.115  -2.078  1.00  0.00    -0.275 OA
ATOM      6  H   UNL     1       5.438  -1.552  -3.449  1.00  0.00     0.163 HD
BRANCH   4   7
ATOM      7  C   UNL     1       4.582  -3.125  -0.568  1.00  0.00     0.099 C 
ATOM      8  N   UNL     1       2.372  -2.620   0.092  1.00  0.00    -0.338 N 
ATOM      9  C   UNL     1       3.207  -2.222   1.204  1.00  0.00     0.120 C 
ATOM     10  C   UNL     1       3.128  -3.550  -0.743  1.00  0.00     0.133 C 
ATOM     11  C   UNL     1       4.578  -2.070   0.551  1.00  0.00     0.037 C 
BRANCH   8  12
ATOM     12  C   UNL     1       1.059  -2.343  -0.234  1.00  0.00     0.255 C 
ATOM     13  O   UNL     1       0.476  -3.090  -1.030  1.00  0.00    -0.269 OA
BRANCH  12  14
ATOM     14  C   UNL     1       0.281  -1.150   0.226  1.00  0.00     0.061 A 
ATOM     15  C   UNL     1       2.142   0.630   0.384  1.00  0.00     0.067 C 
ATOM     16  C   UNL     1       0.725   0.169   0.387  1.00  0.00     0.050 A 
ATOM     17  N   UNL     1      -0.136   1.221   0.549  1.00  0.00    -0.261 NA
ATOM     18  C   UNL     1      -1.461   0.990   0.498  1.00  0.00     0.111 A 
ATOM     19  C   UNL     1      -1.118  -1.339   0.227  1.00  0.00     0.017 A 
ATOM     20  C   UNL     1      -1.998  -0.267   0.350  1.00  0.00     0.021 A 
ENDBRANCH  12  14
ENDBRANCH   8  12
ENDBRANCH   4   7
ENDBRANCH   2   3
ENDBRANCH   1   2
BRANCH   1  21
ATOM     21  C   UNL     1       4.340   1.144  -3.862  1.00  0.00     0.118 C 
BRANCH  21  22
ATOM     22  N   UNL     1       3.443   1.201  -5.006  1.00  0.00    -0.352 N 
ATOM     23  C   UNL     1       2.826   2.266  -5.612  1.00  0.00     0.251 C 
ATOM     24  H   UNL     1       3.245   0.327  -5.414  1.00  0.00     0.163 HD
ATOM     25  O   UNL     1       1.946   2.046  -6.448  1.00  0.00    -0.269 OA
BRANCH  23  26
ATOM     26  C   UNL     1       3.183   3.668  -5.291  1.00  0.00     0.039 A 
ATOM     27  C   UNL     1       2.175   4.639  -5.315  1.00  0.00     0.014 A 
ATOM     28  C   UNL     1       4.502   4.057  -5.049  1.00  0.00     0.014 A 
ATOM     29  C   UNL     1       2.481   5.980  -5.059  1.00  0.00     0.010 A 
ATOM     30  C   UNL     1       4.794   5.377  -4.708  1.00  0.00     0.010 A 
ATOM     31  C   UNL     1       3.792   6.358  -4.733  1.00  0.00    -0.014 A 
BRANCH  31  32
ATOM     32  C   UNL     1       4.150   7.776  -4.467  1.00  0.00     0.031 A 
ATOM     33  C   UNL     1       5.117   8.490  -5.376  1.00  0.00     0.074 A 
ATOM     34  C   UNL     1       3.661   8.407  -3.383  1.00  0.00     0.049 A 
ATOM     35  N   UNL     1       5.629   9.690  -5.261  1.00  0.00    -0.248 NA
ATOM     36  C   UNL     1       5.593   7.746  -6.554  1.00  0.00     0.031 C 
ATOM     37  C   UNL     1       2.740   7.827  -2.404  1.00  0.00     0.029 A 
ATOM     38  N   UNL     1       3.881   9.681  -2.919  1.00  0.00    -0.354 N 
ATOM     39  C   UNL     1       6.509   9.829  -6.328  1.00  0.00     0.074 A 
ATOM     40  C   UNL     1       6.492   8.579  -7.056  1.00  0.00     0.031 C 
ATOM     41  C   UNL     1       2.456   8.749  -1.470  1.00  0.00     0.029 A 
ATOM     42  C   UNL     1       3.202   9.969  -1.760  1.00  0.00     0.049 A 
ATOM     43  H   UNL     1       4.470  10.326  -3.374  1.00  0.00     0.167 HD
ATOM     44  C   UNL     1       7.252  10.904  -6.685  1.00  0.00     0.031 A 
ATOM     45  C   UNL     1       3.187  11.088  -1.012  1.00  0.00     0.031 A 
ATOM     46  C   UNL     1       7.247  12.161  -5.987  1.00  0.00     0.049 A 
ATOM     47  C   UNL     1       4.010  12.273  -1.434  1.00  0.00     0.074 A 
ATOM     48  C   UNL     1       7.920  13.328  -6.306  1.00  0.00     0.029 A 
ATOM     49  N   UNL     1       6.526  12.417  -4.832  1.00  0.00    -0.354 N 
ATOM     50  N   UNL     1       4.799  12.402  -2.472  1.00  0.00    -0.248 NA
ATOM     51  C   UNL     1       3.930  13.470  -0.584  1.00  0.00     0.031 C 
ATOM     52  C   UNL     1       7.633  14.280  -5.322  1.00  0.00     0.029 A 
ATOM     53  C   UNL     1       6.748  13.719  -4.417  1.00  0.00     0.049 A 
ATOM     54  H   UNL     1       5.943  11.769  -4.374  1.00  0.00     0.167 HD
ATOM     55  C   UNL     1       5.288  13.701  -2.416  1.00  0.00     0.074 A 
ATOM     56  C   UNL     1       4.697  14.323  -1.249  1.00  0.00     0.031 C 
ATOM     57  C   UNL     1       6.149  14.323  -3.257  1.00  0.00     0.031 A 
BRANCH  44  58
ATOM     58  C   UNL     1       8.139  10.761  -7.890  1.00  0.00    -0.014 A 
ATOM     59  C   UNL     1       7.602  10.696  -9.185  1.00  0.00     0.009 A 
ATOM     60  C   UNL     1       9.533  10.715  -7.728  1.00  0.00     0.009 A 
ATOM     61  C   UNL     1       8.441  10.549 -10.292  1.00  0.00     0.001 A 
ATOM     62  C   UNL     1      10.370  10.596  -8.839  1.00  0.00     0.001 A 
ATOM     63  C   UNL     1       9.824  10.502 -10.118  1.00  0.00     0.000 A 
ENDBRANCH  44  58
BRANCH  45  64
ATOM     64  C   UNL     1       2.345  11.152   0.210  1.00  0.00    -0.014 A 
ATOM     65  C   UNL     1       1.175  11.927   0.224  1.00  0.00     0.009 A 
ATOM     66  C   UNL     1       2.707  10.446   1.367  1.00  0.00     0.009 A 
ATOM     67  C   UNL     1       0.397  12.012   1.381  1.00  0.00     0.001 A 
ATOM     68  C   UNL     1       1.913  10.513   2.514  1.00  0.00     0.001 A 
ATOM     69  C   UNL     1       0.764  11.303   2.523  1.00  0.00     0.000 A 
ENDBRANCH  45  64
BRANCH  57  70
ATOM     70  C   UNL     1       6.473  15.761  -2.967  1.00  0.00    -0.014 A 
ATOM     71  C   UNL     1       7.327  16.116  -1.913  1.00  0.00     0.009 A 
ATOM     72  C   UNL     1       5.947  16.769  -3.789  1.00  0.00     0.009 A 
ATOM     73  C   UNL     1       7.624  17.458  -1.669  1.00  0.00     0.001 A 
ATOM     74  C   UNL     1       6.265  18.108  -3.558  1.00  0.00     0.001 A 
ATOM     75  C   UNL     1       7.096  18.452  -2.493  1.00  0.00     0.000 A 
ENDBRANCH  57  70
ENDBRANCH  31  32
ENDBRANCH  23  26
ENDBRANCH  21  22
ENDBRANCH   1  21
TORSDOF 12
