REMARK SMILES COc1cnc(SCC(=O)NCCCNC(=O)c2ccc(-c3c4nc(c(-c5ccccc5)c5ccc([nH]5)c(-c5ccccc5)c5nc(c(-c6ccccc6)c6ccc3[nH]6)C=C5)C=C4)cc2)[nH]c1=O
REMARK SMILES IDX 12 1 11 2 9 3 10 4 8 6 7 7 6 8 3 9 4 10 67 11 5 12 66 13
REMARK SMILES IDX 68 14 2 16 1 17 13 18 14 19 15 20 16 21 17 23 18 24 19 25
REMARK SMILES IDX 65 26 20 27 64 28 21 29 22 30 23 31 58 32 24 33 63 34 57 35
REMARK SMILES IDX 59 36 25 37 62 38 56 39 55 40 26 42 48 43 33 44 47 45 34 46
REMARK SMILES IDX 37 47 46 48 60 49 35 50 36 51 45 53 61 54 38 55 27 56 28 57
REMARK SMILES IDX 32 58 29 59 31 60 30 61 49 62 50 63 54 64 51 65 53 66 52 67
REMARK SMILES IDX 39 68 40 69 44 70 41 71 43 72 42 73
REMARK H PARENT 11 5 66 15 15 22 59 41 37 52
REMARK Flexibility Score: inf
ROOT
ATOM      1  C   UNL     1       2.044  -3.432   8.381  1.00  0.00     0.117 C 
ENDROOT
BRANCH   1   2
ATOM      2  N   UNL     1       0.720  -3.070   7.914  1.00  0.00    -0.355 N 
ATOM      3  C   UNL     1      -0.006  -3.548   6.862  1.00  0.00     0.230 C 
ATOM      4  O   UNL     1      -1.143  -3.092   6.714  1.00  0.00    -0.274 OA
ATOM      5  H   UNL     1       0.273  -2.367   8.439  1.00  0.00     0.163 HD
BRANCH   3   6
ATOM      6  C   UNL     1       0.518  -4.680   5.997  1.00  0.00     0.178 C 
BRANCH   6   7
ATOM      7  S   UNL     1       2.014  -4.283   5.058  1.00  0.00    -0.078 SA
BRANCH   7   8
ATOM      8  C   UNL     1       1.473  -3.001   4.030  1.00  0.00     0.168 A 
ATOM      9  C   UNL     1       0.899  -0.957   2.311  1.00  0.00     0.202 A 
ATOM     10  C   UNL     1      -0.006  -1.582   3.078  1.00  0.00     0.166 A 
ATOM     11  C   UNL     1       2.313  -1.417   2.458  1.00  0.00     0.293 A 
ATOM     12  N   UNL     1       0.246  -2.626   3.934  1.00  0.00    -0.229 NA
ATOM     13  N   UNL     1       2.498  -2.446   3.335  1.00  0.00    -0.298 N 
ATOM     14  O   UNL     1       3.257  -0.919   1.853  1.00  0.00    -0.265 OA
ATOM     15  H   UNL     1       3.408  -2.798   3.468  1.00  0.00     0.172 HD
BRANCH   9  16
ATOM     16  O   UNL     1       0.534   0.096   1.494  1.00  0.00    -0.490 OA
ATOM     17  C   UNL     1       0.984  -0.062   0.150  1.00  0.00     0.278 C 
ENDBRANCH   9  16
ENDBRANCH   7   8
ENDBRANCH   6   7
ENDBRANCH   3   6
ENDBRANCH   1   2
BRANCH   1  18
ATOM     18  C   UNL     1       3.070  -2.348   8.064  1.00  0.00     0.042 C 
BRANCH  18  19
ATOM     19  C   UNL     1       2.809  -1.024   8.774  1.00  0.00     0.118 C 
BRANCH  19  20
ATOM     20  N   UNL     1       2.976  -1.114  10.219  1.00  0.00    -0.352 N 
ATOM     21  C   UNL     1       3.804  -0.402  11.052  1.00  0.00     0.251 C 
ATOM     22  H   UNL     1       2.410  -1.785  10.665  1.00  0.00     0.163 HD
ATOM     23  O   UNL     1       3.927  -0.739  12.228  1.00  0.00    -0.269 OA
BRANCH  21  24
ATOM     24  C   UNL     1       4.564   0.754  10.534  1.00  0.00     0.039 A 
ATOM     25  C   UNL     1       5.908   0.901  10.892  1.00  0.00     0.014 A 
ATOM     26  C   UNL     1       3.953   1.696   9.705  1.00  0.00     0.014 A 
ATOM     27  C   UNL     1       6.657   1.955  10.361  1.00  0.00     0.010 A 
ATOM     28  C   UNL     1       4.719   2.695   9.113  1.00  0.00     0.010 A 
ATOM     29  C   UNL     1       6.077   2.839   9.440  1.00  0.00    -0.014 A 
BRANCH  29  30
ATOM     30  C   UNL     1       6.848   3.945   8.817  1.00  0.00     0.031 A 
ATOM     31  C   UNL     1       6.437   5.370   9.066  1.00  0.00     0.074 A 
ATOM     32  C   UNL     1       7.854   3.673   7.965  1.00  0.00     0.049 A 
ATOM     33  N   UNL     1       6.885   6.470   8.516  1.00  0.00    -0.248 NA
ATOM     34  C   UNL     1       5.358   5.582  10.045  1.00  0.00     0.031 C 
ATOM     35  C   UNL     1       8.348   2.337   7.629  1.00  0.00     0.029 A 
ATOM     36  N   UNL     1       8.635   4.515   7.212  1.00  0.00    -0.354 N 
ATOM     37  C   UNL     1       6.128   7.498   9.063  1.00  0.00     0.074 A 
ATOM     38  C   UNL     1       5.157   6.887   9.944  1.00  0.00     0.031 C 
ATOM     39  C   UNL     1       9.363   2.450   6.757  1.00  0.00     0.029 A 
ATOM     40  C   UNL     1       9.556   3.859   6.430  1.00  0.00     0.049 A 
ATOM     41  H   UNL     1       8.544   5.495   7.231  1.00  0.00     0.167 HD
ATOM     42  C   UNL     1       6.240   8.834   8.867  1.00  0.00     0.031 A 
ATOM     43  C   UNL     1      10.444   4.339   5.538  1.00  0.00     0.031 A 
ATOM     44  C   UNL     1       7.204   9.441   7.989  1.00  0.00     0.049 A 
ATOM     45  C   UNL     1      10.511   5.821   5.289  1.00  0.00     0.074 A 
ATOM     46  C   UNL     1       7.421  10.785   7.743  1.00  0.00     0.029 A 
ATOM     47  N   UNL     1       8.110   8.739   7.209  1.00  0.00    -0.354 N 
ATOM     48  N   UNL     1       9.817   6.785   5.844  1.00  0.00    -0.248 NA
ATOM     49  C   UNL     1      11.491   6.281   4.294  1.00  0.00     0.031 C 
ATOM     50  C   UNL     1       8.420  10.895   6.772  1.00  0.00     0.029 A 
ATOM     51  C   UNL     1       8.875   9.621   6.465  1.00  0.00     0.049 A 
ATOM     52  H   UNL     1       8.197   7.758   7.187  1.00  0.00     0.167 HD
ATOM     53  C   UNL     1      10.307   7.966   5.301  1.00  0.00     0.074 A 
ATOM     54  C   UNL     1      11.355   7.598   4.372  1.00  0.00     0.031 C 
ATOM     55  C   UNL     1       9.928   9.242   5.558  1.00  0.00     0.031 A 
BRANCH  42  56
ATOM     56  C   UNL     1       5.276   9.721   9.607  1.00  0.00    -0.014 A 
ATOM     57  C   UNL     1       5.325   9.845  11.006  1.00  0.00     0.009 A 
ATOM     58  C   UNL     1       4.308  10.447   8.897  1.00  0.00     0.009 A 
ATOM     59  C   UNL     1       4.391  10.633  11.681  1.00  0.00     0.001 A 
ATOM     60  C   UNL     1       3.398  11.264   9.572  1.00  0.00     0.001 A 
ATOM     61  C   UNL     1       3.431  11.345  10.963  1.00  0.00     0.000 A 
ENDBRANCH  42  56
BRANCH  43  62
ATOM     62  C   UNL     1      11.362   3.409   4.828  1.00  0.00    -0.014 A 
ATOM     63  C   UNL     1      12.735   3.413   5.120  1.00  0.00     0.009 A 
ATOM     64  C   UNL     1      10.878   2.519   3.856  1.00  0.00     0.009 A 
ATOM     65  C   UNL     1      13.607   2.562   4.437  1.00  0.00     0.001 A 
ATOM     66  C   UNL     1      11.749   1.648   3.197  1.00  0.00     0.001 A 
ATOM     67  C   UNL     1      13.113   1.677   3.481  1.00  0.00     0.000 A 
ENDBRANCH  43  62
BRANCH  55  68
ATOM     68  C   UNL     1      10.694  10.347   4.885  1.00  0.00    -0.014 A 
ATOM     69  C   UNL     1      10.547  10.620   3.517  1.00  0.00     0.009 A 
ATOM     70  C   UNL     1      11.522  11.176   5.659  1.00  0.00     0.009 A 
ATOM     71  C   UNL     1      11.232  11.689   2.935  1.00  0.00     0.001 A 
ATOM     72  C   UNL     1      12.182  12.261   5.082  1.00  0.00     0.001 A 
ATOM     73  C   UNL     1      12.041  12.513   3.719  1.00  0.00     0.000 A 
ENDBRANCH  55  68
ENDBRANCH  29  30
ENDBRANCH  21  24
ENDBRANCH  19  20
ENDBRANCH  18  19
ENDBRANCH   1  18
TORSDOF 13
