REMARK SMILES C=Cc1cccc(-c2ccc([C@@H](C)C(=O)NCCCNC(=O)c3ccc(-c4c5nc(c(-c6ccccc6)c6ccc([nH]6)c(-c6ccccc6)c6nc(c(-c7ccccc7)c7ccc4[nH]7)C=C6)C=C5)cc3)cc2)c1
REMARK SMILES IDX 17 1 16 2 14 3 15 4 12 6 13 7 11 8 8 9 9 10 72 11 10 12
REMARK SMILES IDX 71 13 7 14 3 15 4 16 73 17 5 18 6 19 2 20 1 21 18 22 19 23
REMARK SMILES IDX 20 24 21 25 22 27 23 28 24 29 70 30 25 31 69 32 26 33 27 34
REMARK SMILES IDX 28 35 63 36 29 37 68 38 62 39 64 40 30 41 67 42 61 43 60 44
REMARK SMILES IDX 31 46 53 47 38 48 52 49 39 50 42 51 51 52 65 53 40 54 41 55
REMARK SMILES IDX 50 57 66 58 43 59 32 60 33 61 37 62 34 63 36 64 35 65 54 66
REMARK SMILES IDX 55 67 59 68 56 69 58 70 57 71 44 72 45 73 49 74 46 75 48 76
REMARK SMILES IDX 47 77
REMARK H PARENT 16 5 20 26 64 45 42 56
REMARK Flexibility Score: inf
ROOT
ATOM      1  C   UNL     1      -7.542  -5.026  -0.264  1.00  0.00     0.117 C 
ENDROOT
BRANCH   1   2
ATOM      2  N   UNL     1      -6.632  -5.949   0.385  1.00  0.00    -0.356 N 
ATOM      3  C   UNL     1      -5.996  -5.907   1.587  1.00  0.00     0.227 C 
ATOM      4  O   UNL     1      -5.204  -6.830   1.813  1.00  0.00    -0.274 OA
ATOM      5  H   UNL     1      -6.439  -6.758  -0.143  1.00  0.00     0.163 HD
BRANCH   3   6
ATOM      6  C   UNL     1      -6.212  -4.808   2.639  1.00  0.00     0.105 C 
ATOM      7  C   UNL     1      -7.658  -4.658   3.111  1.00  0.00     0.023 C 
BRANCH   6   8
ATOM      8  C   UNL     1      -5.482  -3.513   2.321  1.00  0.00    -0.036 A 
ATOM      9  C   UNL     1      -3.977  -1.180   1.624  1.00  0.00    -0.018 A 
ATOM     10  C   UNL     1      -5.291  -1.377   1.169  1.00  0.00     0.009 A 
ATOM     11  C   UNL     1      -3.448  -2.167   2.470  1.00  0.00     0.009 A 
ATOM     12  C   UNL     1      -6.040  -2.500   1.540  1.00  0.00     0.005 A 
ATOM     13  C   UNL     1      -4.177  -3.320   2.796  1.00  0.00     0.005 A 
BRANCH   9  14
ATOM     14  C   UNL     1      -3.199   0.017   1.226  1.00  0.00    -0.018 A 
ATOM     15  C   UNL     1      -1.066   1.090   0.630  1.00  0.00    -0.026 A 
ATOM     16  C   UNL     1      -1.728   2.310   0.466  1.00  0.00     0.008 A 
ATOM     17  C   UNL     1      -1.807  -0.043   1.009  1.00  0.00     0.016 A 
ATOM     18  C   UNL     1      -3.103   2.395   0.662  1.00  0.00     0.001 A 
ATOM     19  C   UNL     1      -3.825   1.263   1.044  1.00  0.00     0.009 A 
BRANCH  15  20
ATOM     20  C   UNL     1       0.392   1.053   0.465  1.00  0.00     0.000 C 
ATOM     21  C   UNL     1       1.056   0.065  -0.148  1.00  0.00     0.009 C 
ENDBRANCH  15  20
ENDBRANCH   9  14
ENDBRANCH   6   8
ENDBRANCH   3   6
ENDBRANCH   1   2
BRANCH   1  22
ATOM     22  C   UNL     1      -6.828  -4.122  -1.264  1.00  0.00     0.042 C 
BRANCH  22  23
ATOM     23  C   UNL     1      -6.587  -4.777  -2.617  1.00  0.00     0.118 C 
BRANCH  23  24
ATOM     24  N   UNL     1      -7.820  -4.942  -3.376  1.00  0.00    -0.352 N 
ATOM     25  C   UNL     1      -8.210  -4.385  -4.570  1.00  0.00     0.251 C 
ATOM     26  H   UNL     1      -8.479  -5.549  -2.968  1.00  0.00     0.163 HD
ATOM     27  O   UNL     1      -9.378  -4.487  -4.932  1.00  0.00    -0.269 OA
BRANCH  25  28
ATOM     28  C   UNL     1      -7.241  -3.655  -5.418  1.00  0.00     0.039 A 
ATOM     29  C   UNL     1      -7.662  -2.503  -6.091  1.00  0.00     0.014 A 
ATOM     30  C   UNL     1      -5.936  -4.120  -5.590  1.00  0.00     0.014 A 
ATOM     31  C   UNL     1      -6.759  -1.788  -6.884  1.00  0.00     0.010 A 
ATOM     32  C   UNL     1      -5.016  -3.363  -6.307  1.00  0.00     0.010 A 
ATOM     33  C   UNL     1      -5.419  -2.195  -6.972  1.00  0.00    -0.014 A 
BRANCH  33  34
ATOM     34  C   UNL     1      -4.422  -1.444  -7.776  1.00  0.00     0.031 A 
ATOM     35  C   UNL     1      -3.750  -2.112  -8.945  1.00  0.00     0.074 A 
ATOM     36  C   UNL     1      -4.061  -0.199  -7.410  1.00  0.00     0.049 A 
ATOM     37  N   UNL     1      -2.757  -1.685  -9.684  1.00  0.00    -0.248 NA
ATOM     38  C   UNL     1      -4.240  -3.451  -9.313  1.00  0.00     0.031 C 
ATOM     39  C   UNL     1      -4.613   0.550  -6.279  1.00  0.00     0.029 A 
ATOM     40  N   UNL     1      -3.122   0.650  -7.943  1.00  0.00    -0.354 N 
ATOM     41  C   UNL     1      -2.492  -2.708 -10.585  1.00  0.00     0.074 A 
ATOM     42  C   UNL     1      -3.390  -3.796 -10.268  1.00  0.00     0.031 C 
ATOM     43  C   UNL     1      -4.011   1.748  -6.209  1.00  0.00     0.029 A 
ATOM     44  C   UNL     1      -2.999   1.835  -7.258  1.00  0.00     0.049 A 
ATOM     45  H   UNL     1      -2.588   0.431  -8.740  1.00  0.00     0.167 HD
ATOM     46  C   UNL     1      -1.596  -2.735 -11.600  1.00  0.00     0.031 A 
ATOM     47  C   UNL     1      -2.153   2.866  -7.440  1.00  0.00     0.031 A 
ATOM     48  C   UNL     1      -0.711  -1.649 -11.923  1.00  0.00     0.049 A 
ATOM     49  C   UNL     1      -1.153   2.807  -8.562  1.00  0.00     0.074 A 
ATOM     50  C   UNL     1       0.211  -1.564 -12.952  1.00  0.00     0.029 A 
ATOM     51  N   UNL     1      -0.642  -0.455 -11.222  1.00  0.00    -0.354 N 
ATOM     52  N   UNL     1      -0.946   1.849  -9.434  1.00  0.00    -0.248 NA
ATOM     53  C   UNL     1      -0.278   3.975  -8.733  1.00  0.00     0.031 C 
ATOM     54  C   UNL     1       0.867  -0.334 -12.849  1.00  0.00     0.029 A 
ATOM     55  C   UNL     1       0.315   0.368 -11.790  1.00  0.00     0.049 A 
ATOM     56  H   UNL     1      -1.191  -0.227 -10.438  1.00  0.00     0.167 HD
ATOM     57  C   UNL     1       0.058   2.313 -10.274  1.00  0.00     0.074 A 
ATOM     58  C   UNL     1       0.409   3.641  -9.817  1.00  0.00     0.031 C 
ATOM     59  C   UNL     1       0.639   1.693 -11.330  1.00  0.00     0.031 A 
BRANCH  46  60
ATOM     60  C   UNL     1      -1.535  -3.982 -12.437  1.00  0.00    -0.014 A 
ATOM     61  C   UNL     1      -2.583  -4.323 -13.308  1.00  0.00     0.009 A 
ATOM     62  C   UNL     1      -0.403  -4.810 -12.382  1.00  0.00     0.009 A 
ATOM     63  C   UNL     1      -2.515  -5.486 -14.078  1.00  0.00     0.001 A 
ATOM     64  C   UNL     1      -0.324  -5.956 -13.176  1.00  0.00     0.001 A 
ATOM     65  C   UNL     1      -1.384  -6.298 -14.015  1.00  0.00     0.000 A 
ENDBRANCH  46  60
BRANCH  47  66
ATOM     66  C   UNL     1      -2.207   4.046  -6.536  1.00  0.00    -0.014 A 
ATOM     67  C   UNL     1      -2.661   5.287  -7.007  1.00  0.00     0.009 A 
ATOM     68  C   UNL     1      -1.790   3.941  -5.199  1.00  0.00     0.009 A 
ATOM     69  C   UNL     1      -2.664   6.405  -6.170  1.00  0.00     0.001 A 
ATOM     70  C   UNL     1      -1.823   5.053  -4.355  1.00  0.00     0.001 A 
ATOM     71  C   UNL     1      -2.249   6.287  -4.844  1.00  0.00     0.000 A 
ENDBRANCH  47  66
BRANCH  59  72
ATOM     72  C   UNL     1       1.676   2.463 -12.098  1.00  0.00    -0.014 A 
ATOM     73  C   UNL     1       2.957   2.689 -11.573  1.00  0.00     0.009 A 
ATOM     74  C   UNL     1       1.380   2.916 -13.393  1.00  0.00     0.009 A 
ATOM     75  C   UNL     1       3.913   3.379 -12.321  1.00  0.00     0.001 A 
ATOM     76  C   UNL     1       2.346   3.581 -14.149  1.00  0.00     0.001 A 
ATOM     77  C   UNL     1       3.609   3.818 -13.610  1.00  0.00     0.000 A 
ENDBRANCH  59  72
ENDBRANCH  33  34
ENDBRANCH  25  28
ENDBRANCH  23  24
ENDBRANCH  22  23
ENDBRANCH   1  22
TORSDOF 13
