REMARK SMILES Cc1occc1C(=O)NN1C(=O)/C(=C\c2ccc(O[C@H](C)C(=O)NCCCNC(=O)c3ccc(-c4c5nc(c(-c6ccccc6)c6ccc([nH]6)c(-c6ccccc6)c6nc(c(-c7ccccc7)c7ccc4[nH]7)C=C6)C=C5)cc3)cc2)SC1=S
REMARK SMILES IDX 22 1 23 2 24 3 20 5 21 6 19 7 18 8 15 9 16 10 80 11 17 12
REMARK SMILES IDX 79 13 14 14 10 15 11 16 82 17 12 18 13 19 81 20 83 21 9 22
REMARK SMILES IDX 7 23 8 24 6 26 1 27 2 28 3 29 4 30 5 31 25 32 26 33 27 34
REMARK SMILES IDX 28 35 29 36 30 38 31 39 32 40 78 41 33 42 77 43 34 44 35 45
REMARK SMILES IDX 36 46 71 47 37 48 76 49 70 50 72 51 38 52 75 53 69 54 68 55
REMARK SMILES IDX 39 57 61 58 46 59 60 60 47 61 50 62 59 63 73 64 48 65 49 66
REMARK SMILES IDX 58 68 74 69 51 70 40 71 41 72 45 73 42 74 44 75 43 76 62 77
REMARK SMILES IDX 63 78 67 79 64 80 66 81 65 82 52 83 53 84 57 85 54 86 56 87
REMARK SMILES IDX 55 88
REMARK H PARENT 24 4 9 25 28 37 72 56 50 67
REMARK Flexibility Score: inf
ROOT
ATOM      1  C   UNL     1       5.974  -3.994  -7.355  1.00  0.00     0.260 C 
ATOM      2  O   UNL     1       6.433  -4.054  -8.504  1.00  0.00    -0.271 OA
ATOM      3  N   UNL     1       5.378  -2.820  -7.021  1.00  0.00    -0.353 N 
ATOM      4  H   UNL     1       5.480  -2.108  -7.694  1.00  0.00     0.163 HD
ENDROOT
BRANCH   1   5
ATOM      5  C   UNL     1       6.205  -5.178  -6.374  1.00  0.00     0.258 C 
ATOM      6  C   UNL     1       7.632  -5.101  -5.832  1.00  0.00     0.064 C 
BRANCH   5   7
ATOM      7  O   UNL     1       5.179  -5.650  -5.514  1.00  0.00    -0.481 OA
BRANCH   7   8
ATOM      8  C   UNL     1       4.947  -5.261  -4.235  1.00  0.00     0.120 A 
ATOM      9  C   UNL     1       4.115  -4.452  -1.667  1.00  0.00    -0.024 A 
ATOM     10  C   UNL     1       5.442  -4.300  -2.074  1.00  0.00     0.012 A 
ATOM     11  C   UNL     1       3.195  -5.018  -2.548  1.00  0.00     0.012 A 
ATOM     12  C   UNL     1       5.855  -4.710  -3.344  1.00  0.00     0.047 A 
ATOM     13  C   UNL     1       3.620  -5.438  -3.815  1.00  0.00     0.047 A 
BRANCH   9  14
ATOM     14  C   UNL     1       3.800  -4.073  -0.289  1.00  0.00     0.029 C 
ATOM     15  N   UNL     1       3.206  -6.971   1.824  1.00  0.00    -0.198 N 
ATOM     16  C   UNL     1       3.494  -6.434   0.579  1.00  0.00     0.285 C 
ATOM     17  C   UNL     1       3.331  -6.159   2.930  1.00  0.00     0.168 C 
ATOM     18  O   UNL     1       3.642  -7.085  -0.440  1.00  0.00    -0.266 OA
ATOM     19  C   UNL     1       3.616  -4.953   0.704  1.00  0.00     0.082 C 
ATOM     20  S   UNL     1       3.539  -4.495   2.374  1.00  0.00    -0.052 SA
ATOM     21  S   UNL     1       3.319  -6.595   4.537  1.00  0.00    -0.050 S 
BRANCH  15  22
ATOM     22  N   UNL     1       3.040  -8.347   1.879  1.00  0.00    -0.254 N 
ATOM     23  C   UNL     1       1.853  -9.035   1.982  1.00  0.00     0.273 C 
ATOM     24  O   UNL     1       1.894 -10.246   1.750  1.00  0.00    -0.267 OA
ATOM     25  H   UNL     1       3.860  -8.890   1.840  1.00  0.00     0.192 HD
BRANCH  23  26
ATOM     26  C   UNL     1       0.620  -8.430   2.472  1.00  0.00     0.082 A 
ATOM     27  C   UNL     1       0.220  -6.012   1.413  1.00  0.00     0.088 C 
ATOM     28  C   UNL     1      -0.005  -7.209   2.246  1.00  0.00     0.113 A 
ATOM     29  O   UNL     1      -1.169  -7.136   2.959  1.00  0.00    -0.469 OA
ATOM     30  C   UNL     1      -1.345  -8.316   3.590  1.00  0.00     0.196 A 
ATOM     31  C   UNL     1      -0.298  -9.152   3.310  1.00  0.00     0.056 A 
ENDBRANCH  23  26
ENDBRANCH  15  22
ENDBRANCH   9  14
ENDBRANCH   7   8
ENDBRANCH   5   7
ENDBRANCH   1   5
BRANCH   3  32
ATOM     32  C   UNL     1       4.622  -2.432  -5.854  1.00  0.00     0.118 C 
BRANCH  32  33
ATOM     33  C   UNL     1       5.451  -1.650  -4.840  1.00  0.00     0.042 C 
BRANCH  33  34
ATOM     34  C   UNL     1       5.488  -0.151  -5.130  1.00  0.00     0.118 C 
BRANCH  34  35
ATOM     35  N   UNL     1       4.181   0.470  -4.947  1.00  0.00    -0.352 N 
ATOM     36  C   UNL     1       3.795   1.540  -4.182  1.00  0.00     0.251 C 
ATOM     37  H   UNL     1       3.453   0.050  -5.459  1.00  0.00     0.163 HD
ATOM     38  O   UNL     1       2.598   1.760  -4.016  1.00  0.00    -0.269 OA
BRANCH  36  39
ATOM     39  C   UNL     1       4.795   2.423  -3.545  1.00  0.00     0.039 A 
ATOM     40  C   UNL     1       4.519   2.939  -2.274  1.00  0.00     0.014 A 
ATOM     41  C   UNL     1       5.969   2.792  -4.206  1.00  0.00     0.014 A 
ATOM     42  C   UNL     1       5.440   3.779  -1.647  1.00  0.00     0.010 A 
ATOM     43  C   UNL     1       6.919   3.571  -3.552  1.00  0.00     0.010 A 
ATOM     44  C   UNL     1       6.661   4.078  -2.271  1.00  0.00    -0.014 A 
BRANCH  44  45
ATOM     45  C   UNL     1       7.676   4.930  -1.606  1.00  0.00     0.031 A 
ATOM     46  C   UNL     1       8.047   6.262  -2.194  1.00  0.00     0.074 A 
ATOM     47  C   UNL     1       8.309   4.475  -0.508  1.00  0.00     0.049 A 
ATOM     48  N   UNL     1       8.961   7.113  -1.802  1.00  0.00    -0.248 NA
ATOM     49  C   UNL     1       7.309   6.683  -3.397  1.00  0.00     0.031 C 
ATOM     50  C   UNL     1       8.059   3.187   0.143  1.00  0.00     0.029 A 
ATOM     51  N   UNL     1       9.299   5.045   0.251  1.00  0.00    -0.354 N 
ATOM     52  C   UNL     1       8.922   8.156  -2.719  1.00  0.00     0.074 A 
ATOM     53  C   UNL     1       7.929   7.810  -3.712  1.00  0.00     0.031 C 
ATOM     54  C   UNL     1       8.852   3.080   1.222  1.00  0.00     0.029 A 
ATOM     55  C   UNL     1       9.693   4.268   1.313  1.00  0.00     0.049 A 
ATOM     56  H   UNL     1       9.689   5.927   0.054  1.00  0.00     0.167 HD
ATOM     57  C   UNL     1       9.635   9.308  -2.725  1.00  0.00     0.031 A 
ATOM     58  C   UNL     1      10.631   4.488   2.253  1.00  0.00     0.031 A 
ATOM     59  C   UNL     1      10.615   9.656  -1.731  1.00  0.00     0.049 A 
ATOM     60  C   UNL     1      11.422   5.764   2.215  1.00  0.00     0.074 A 
ATOM     61  C   UNL     1      11.358  10.818  -1.621  1.00  0.00     0.029 A 
ATOM     62  N   UNL     1      10.986   8.840  -0.673  1.00  0.00    -0.354 N 
ATOM     63  N   UNL     1      11.340   6.762   1.369  1.00  0.00    -0.248 NA
ATOM     64  C   UNL     1      12.431   5.945   3.268  1.00  0.00     0.031 C 
ATOM     65  C   UNL     1      12.211  10.688  -0.518  1.00  0.00     0.029 A 
ATOM     66  C   UNL     1      11.962   9.465   0.085  1.00  0.00     0.049 A 
ATOM     67  H   UNL     1      10.612   7.949  -0.488  1.00  0.00     0.167 HD
ATOM     68  C   UNL     1      12.266   7.702   1.802  1.00  0.00     0.074 A 
ATOM     69  C   UNL     1      12.889   7.159   2.992  1.00  0.00     0.031 C 
ATOM     70  C   UNL     1      12.571   8.907   1.264  1.00  0.00     0.031 A 
BRANCH  57  71
ATOM     71  C   UNL     1       9.380  10.269  -3.853  1.00  0.00    -0.014 A 
ATOM     72  C   UNL     1       8.172  10.980  -3.942  1.00  0.00     0.009 A 
ATOM     73  C   UNL     1      10.363  10.476  -4.833  1.00  0.00     0.009 A 
ATOM     74  C   UNL     1       7.937  11.845  -5.013  1.00  0.00     0.001 A 
ATOM     75  C   UNL     1      10.136  11.364  -5.886  1.00  0.00     0.001 A 
ATOM     76  C   UNL     1       8.920  12.038  -5.982  1.00  0.00     0.000 A 
ENDBRANCH  57  71
BRANCH  58  77
ATOM     77  C   UNL     1      10.854   3.487   3.327  1.00  0.00    -0.014 A 
ATOM     78  C   UNL     1      10.436   3.755   4.639  1.00  0.00     0.009 A 
ATOM     79  C   UNL     1      11.476   2.260   3.048  1.00  0.00     0.009 A 
ATOM     80  C   UNL     1      10.657   2.824   5.656  1.00  0.00     0.001 A 
ATOM     81  C   UNL     1      11.673   1.321   4.062  1.00  0.00     0.001 A 
ATOM     82  C   UNL     1      11.271   1.606   5.366  1.00  0.00     0.000 A 
ENDBRANCH  58  77
BRANCH  70  83
ATOM     83  C   UNL     1      13.602   9.733   1.980  1.00  0.00    -0.014 A 
ATOM     84  C   UNL     1      14.964   9.402   1.926  1.00  0.00     0.009 A 
ATOM     85  C   UNL     1      13.204  10.877   2.689  1.00  0.00     0.009 A 
ATOM     86  C   UNL     1      15.906  10.186   2.596  1.00  0.00     0.001 A 
ATOM     87  C   UNL     1      14.150  11.672   3.336  1.00  0.00     0.001 A 
ATOM     88  C   UNL     1      15.498  11.322   3.296  1.00  0.00     0.000 A 
ENDBRANCH  70  83
ENDBRANCH  44  45
ENDBRANCH  36  39
ENDBRANCH  34  35
ENDBRANCH  33  34
ENDBRANCH  32  33
ENDBRANCH   3  32
TORSDOF 15
