REMARK SMILES CCOC(=O)c1cccc(Nc2c(-c3ccc(C(=O)NCCCNC(=O)c4ccc(-c5c6nc(c(-c7ccccc7)c7ccc([nH]7)c(-c7ccccc7)c7nc(c(-c8ccccc8)c8ccc5[nH]8)C=C7)C=C6)cc4)cc3)nc3cnccn23)c1
REMARK SMILES IDX 18 1 19 2 20 3 17 5 14 6 15 7 76 8 16 9 75 10 13 11 12 12
REMARK SMILES IDX 83 13 77 14 78 15 82 16 79 17 81 18 80 19 11 20 10 22 6 23
REMARK SMILES IDX 7 24 84 25 8 26 9 27 4 28 5 29 3 30 2 31 1 32 21 33 22 34
REMARK SMILES IDX 23 35 24 36 25 37 26 39 27 40 28 41 74 42 29 43 73 44 30 45
REMARK SMILES IDX 31 46 32 47 67 48 33 49 72 50 66 51 68 52 34 53 71 54 65 55
REMARK SMILES IDX 64 56 35 58 57 59 42 60 56 61 43 62 46 63 55 64 69 65 44 66
REMARK SMILES IDX 45 67 54 69 70 70 47 71 36 72 37 73 41 74 38 75 40 76 39 77
REMARK SMILES IDX 58 78 59 79 63 80 60 81 62 82 61 83 48 84 49 85 53 86 50 87
REMARK SMILES IDX 52 88 51 89
REMARK H PARENT 20 4 11 21 24 38 68 57 46 68
REMARK Flexibility Score: inf
ROOT
ATOM      1  C   UNL     1       3.435 -10.573  -3.325  1.00  0.00     0.251 C 
ATOM      2  O   UNL     1       3.587  -9.622  -4.092  1.00  0.00    -0.269 OA
ATOM      3  N   UNL     1       3.277 -11.819  -3.875  1.00  0.00    -0.352 N 
ATOM      4  H   UNL     1       3.228 -11.821  -4.859  1.00  0.00     0.163 HD
ENDROOT
BRANCH   1   5
ATOM      5  C   UNL     1       3.466 -10.327  -1.859  1.00  0.00     0.039 A 
ATOM      6  C   UNL     1       3.588  -9.698   0.881  1.00  0.00     0.004 A 
ATOM      7  C   UNL     1       4.319  -8.946  -0.043  1.00  0.00     0.011 A 
ATOM      8  C   UNL     1       2.789 -10.752   0.434  1.00  0.00     0.011 A 
ATOM      9  C   UNL     1       4.260  -9.262  -1.404  1.00  0.00     0.014 A 
ATOM     10  C   UNL     1       2.707 -11.044  -0.930  1.00  0.00     0.014 A 
BRANCH   6  11
ATOM     11  C   UNL     1       3.628  -9.390   2.292  1.00  0.00     0.114 A 
ATOM     12  C   UNL     1       3.186  -8.202   2.861  1.00  0.00     0.143 A 
ATOM     13  N   UNL     1       3.360  -8.396   4.217  1.00  0.00    -0.283 N 
ATOM     14  N   UNL     1       4.119 -10.264   3.234  1.00  0.00    -0.225 NA
ATOM     15  C   UNL     1       3.966  -9.619   4.368  1.00  0.00     0.157 A 
ATOM     16  C   UNL     1       3.031  -7.651   5.338  1.00  0.00     0.115 A 
ATOM     17  C   UNL     1       4.312 -10.053   5.693  1.00  0.00     0.158 A 
ATOM     18  C   UNL     1       3.364  -8.137   6.547  1.00  0.00     0.129 A 
ATOM     19  N   UNL     1       4.027  -9.338   6.749  1.00  0.00    -0.259 NA
BRANCH  12  20
ATOM     20  N   UNL     1       2.615  -7.097   2.308  1.00  0.00    -0.339 N 
ATOM     21  H   UNL     1       1.723  -7.203   1.903  1.00  0.00     0.168 HD
BRANCH  20  22
ATOM     22  C   UNL     1       3.200  -5.806   2.268  1.00  0.00     0.040 A 
ATOM     23  C   UNL     1       3.157  -3.535   1.388  1.00  0.00     0.062 A 
ATOM     24  C   UNL     1       4.340  -3.234   2.067  1.00  0.00     0.016 A 
ATOM     25  C   UNL     1       2.575  -4.804   1.507  1.00  0.00     0.041 A 
ATOM     26  C   UNL     1       4.936  -4.199   2.870  1.00  0.00     0.003 A 
ATOM     27  C   UNL     1       4.373  -5.474   2.964  1.00  0.00     0.026 A 
BRANCH  23  28
ATOM     28  C   UNL     1       2.605  -2.514   0.473  1.00  0.00     0.338 C 
ATOM     29  O   UNL     1       3.305  -1.799  -0.222  1.00  0.00    -0.246 OA
BRANCH  28  30
ATOM     30  O   UNL     1       1.253  -2.479   0.574  1.00  0.00    -0.462 OA
BRANCH  30  31
ATOM     31  C   UNL     1       0.607  -1.520  -0.279  1.00  0.00     0.230 C 
ATOM     32  C   UNL     1       0.754  -0.103   0.253  1.00  0.00     0.049 C 
ENDBRANCH  30  31
ENDBRANCH  28  30
ENDBRANCH  23  28
ENDBRANCH  20  22
ENDBRANCH  12  20
ENDBRANCH   6  11
ENDBRANCH   1   5
BRANCH   3  33
ATOM     33  C   UNL     1       3.168 -13.137  -3.276  1.00  0.00     0.118 C 
BRANCH  33  34
ATOM     34  C   UNL     1       1.720 -13.625  -3.260  1.00  0.00     0.042 C 
BRANCH  34  35
ATOM     35  C   UNL     1       1.192 -14.025  -4.635  1.00  0.00     0.118 C 
BRANCH  35  36
ATOM     36  N   UNL     1       1.767 -15.277  -5.100  1.00  0.00    -0.352 N 
ATOM     37  C   UNL     1       1.149 -16.430  -5.514  1.00  0.00     0.251 C 
ATOM     38  H   UNL     1       2.751 -15.301  -5.121  1.00  0.00     0.163 HD
ATOM     39  O   UNL     1       1.816 -17.448  -5.676  1.00  0.00    -0.269 OA
BRANCH  37  40
ATOM     40  C   UNL     1      -0.311 -16.467  -5.756  1.00  0.00     0.039 A 
ATOM     41  C   UNL     1      -1.027 -17.599  -5.351  1.00  0.00     0.014 A 
ATOM     42  C   UNL     1      -0.968 -15.434  -6.431  1.00  0.00     0.014 A 
ATOM     43  C   UNL     1      -2.403 -17.677  -5.583  1.00  0.00     0.010 A 
ATOM     44  C   UNL     1      -2.350 -15.486  -6.612  1.00  0.00     0.010 A 
ATOM     45  C   UNL     1      -3.079 -16.611  -6.197  1.00  0.00    -0.014 A 
BRANCH  45  46
ATOM     46  C   UNL     1      -4.545 -16.662  -6.423  1.00  0.00     0.031 A 
ATOM     47  C   UNL     1      -5.095 -16.729  -7.821  1.00  0.00     0.074 A 
ATOM     48  C   UNL     1      -5.385 -16.593  -5.373  1.00  0.00     0.049 A 
ATOM     49  N   UNL     1      -6.342 -16.712  -8.219  1.00  0.00    -0.248 NA
ATOM     50  C   UNL     1      -4.114 -16.803  -8.916  1.00  0.00     0.031 C 
ATOM     51  C   UNL     1      -4.981 -16.497  -3.969  1.00  0.00     0.029 A 
ATOM     52  N   UNL     1      -6.756 -16.583  -5.327  1.00  0.00    -0.354 N 
ATOM     53  C   UNL     1      -6.296 -16.751  -9.607  1.00  0.00     0.074 A 
ATOM     54  C   UNL     1      -4.899 -16.759  -9.983  1.00  0.00     0.031 C 
ATOM     55  C   UNL     1      -6.080 -16.456  -3.199  1.00  0.00     0.029 A 
ATOM     56  C   UNL     1      -7.263 -16.488  -4.054  1.00  0.00     0.049 A 
ATOM     57  H   UNL     1      -7.323 -16.638  -6.130  1.00  0.00     0.167 HD
ATOM     58  C   UNL     1      -7.323 -16.790 -10.489  1.00  0.00     0.031 A 
ATOM     59  C   UNL     1      -8.536 -16.427  -3.623  1.00  0.00     0.031 A 
ATOM     60  C   UNL     1      -8.713 -16.801 -10.119  1.00  0.00     0.049 A 
ATOM     61  C   UNL     1      -9.658 -16.473  -4.621  1.00  0.00     0.074 A 
ATOM     62  C   UNL     1      -9.824 -16.893 -10.941  1.00  0.00     0.029 A 
ATOM     63  N   UNL     1      -9.182 -16.718  -8.818  1.00  0.00    -0.354 N 
ATOM     64  N   UNL     1      -9.596 -16.561  -5.927  1.00  0.00    -0.248 NA
ATOM     65  C   UNL     1     -11.024 -16.421  -4.083  1.00  0.00     0.031 C 
ATOM     66  C   UNL     1     -10.968 -16.831 -10.137  1.00  0.00     0.029 A 
ATOM     67  C   UNL     1     -10.567 -16.741  -8.815  1.00  0.00     0.049 A 
ATOM     68  H   UNL     1      -8.616 -16.653  -8.016  1.00  0.00     0.167 HD
ATOM     69  C   UNL     1     -10.913 -16.597  -6.365  1.00  0.00     0.074 A 
ATOM     70  C   UNL     1     -11.751 -16.535  -5.186  1.00  0.00     0.031 C 
ATOM     71  C   UNL     1     -11.385 -16.677  -7.633  1.00  0.00     0.031 A 
BRANCH  58  72
ATOM     72  C   UNL     1      -6.976 -16.816 -11.950  1.00  0.00    -0.014 A 
ATOM     73  C   UNL     1      -6.443 -17.968 -12.550  1.00  0.00     0.009 A 
ATOM     74  C   UNL     1      -7.213 -15.683 -12.745  1.00  0.00     0.009 A 
ATOM     75  C   UNL     1      -6.124 -17.974 -13.909  1.00  0.00     0.001 A 
ATOM     76  C   UNL     1      -6.915 -15.700 -14.108  1.00  0.00     0.001 A 
ATOM     77  C   UNL     1      -6.363 -16.842 -14.688  1.00  0.00     0.000 A 
ENDBRANCH  58  72
BRANCH  59  78
ATOM     78  C   UNL     1      -8.822 -16.332  -2.170  1.00  0.00    -0.014 A 
ATOM     79  C   UNL     1      -9.323 -17.441  -1.472  1.00  0.00     0.009 A 
ATOM     80  C   UNL     1      -8.593 -15.136  -1.474  1.00  0.00     0.009 A 
ATOM     81  C   UNL     1      -9.610 -17.347  -0.109  1.00  0.00     0.001 A 
ATOM     82  C   UNL     1      -8.859 -15.052  -0.105  1.00  0.00     0.001 A 
ATOM     83  C   UNL     1      -9.374 -16.154   0.574  1.00  0.00     0.000 A 
ENDBRANCH  59  78
BRANCH  71  84
ATOM     84  C   UNL     1     -12.875 -16.730  -7.805  1.00  0.00    -0.014 A 
ATOM     85  C   UNL     1     -13.665 -15.581  -7.650  1.00  0.00     0.009 A 
ATOM     86  C   UNL     1     -13.491 -17.940  -8.161  1.00  0.00     0.009 A 
ATOM     87  C   UNL     1     -15.049 -15.650  -7.822  1.00  0.00     0.001 A 
ATOM     88  C   UNL     1     -14.871 -18.000  -8.354  1.00  0.00     0.001 A 
ATOM     89  C   UNL     1     -15.650 -16.857  -8.177  1.00  0.00     0.000 A 
ENDBRANCH  71  84
ENDBRANCH  45  46
ENDBRANCH  37  40
ENDBRANCH  35  36
ENDBRANCH  34  35
ENDBRANCH  33  34
ENDBRANCH   3  33
TORSDOF 16
