REMARK SMILES CCOC(=O)NC(=O)COc1csc(C(=O)NCCCNC(=O)c2ccc(-c3c4nc(c(-c5ccccc5)c5ccc([nH]5)c(-c5ccccc5)c5nc(c(-c6ccccc6)c6ccc3[nH]6)C=C5)C=C4)cc2)c1
REMARK SMILES IDX 15 1 16 2 17 3 14 5 11 6 12 7 72 8 13 9 10 10 9 11 7 12 4 13
REMARK SMILES IDX 5 14 6 15 8 17 3 18 2 19 1 20 18 21 19 22 20 23 21 24 22 25
REMARK SMILES IDX 23 27 24 28 25 29 71 30 26 31 70 32 27 33 28 34 29 35 64 36
REMARK SMILES IDX 30 37 69 38 63 39 65 40 31 41 68 42 62 43 61 44 32 46 54 47
REMARK SMILES IDX 39 48 53 49 40 50 43 51 52 52 66 53 41 54 42 55 51 57 67 58
REMARK SMILES IDX 44 59 33 60 34 61 38 62 35 63 37 64 36 65 55 66 56 67 60 68
REMARK SMILES IDX 57 69 59 70 58 71 45 72 46 73 50 74 47 75 49 76 48 77
REMARK H PARENT 17 4 6 16 21 26 65 45 43 56
REMARK Flexibility Score: inf
ROOT
ATOM      1  C   UNL     1      -0.725  -5.817  -3.735  1.00  0.00     0.261 C 
ATOM      2  O   UNL     1      -0.272  -6.898  -4.120  1.00  0.00    -0.268 OA
ATOM      3  N   UNL     1      -1.854  -5.906  -2.956  1.00  0.00    -0.351 N 
ATOM      4  H   UNL     1      -2.186  -6.826  -2.835  1.00  0.00     0.163 HD
ENDROOT
BRANCH   1   5
ATOM      5  C   UNL     1      -0.111  -4.532  -4.040  1.00  0.00     0.096 A 
ATOM      6  C   UNL     1       0.410  -2.258  -4.239  1.00  0.00     0.131 A 
ATOM      7  C   UNL     1       1.616  -2.823  -4.571  1.00  0.00     0.112 A 
ATOM      8  C   UNL     1      -0.592  -3.236  -4.007  1.00  0.00     0.072 A 
ATOM      9  S   UNL     1       1.534  -4.532  -4.561  1.00  0.00    -0.135 S 
BRANCH   6  10
ATOM     10  O   UNL     1       0.163  -0.947  -4.013  1.00  0.00    -0.483 OA
BRANCH  10  11
ATOM     11  C   UNL     1       0.677  -0.039  -4.964  1.00  0.00     0.329 C 
BRANCH  11  12
ATOM     12  C   UNL     1       2.179   0.238  -4.987  1.00  0.00     0.267 C 
ATOM     13  C   UNL     1       2.492   0.860  -2.540  1.00  0.00     0.413 C 
ATOM     14  O   UNL     1       3.339   1.135  -1.701  1.00  0.00    -0.224 OA
ATOM     15  N   UNL     1       2.855   0.585  -3.841  1.00  0.00    -0.258 N 
ATOM     16  H   UNL     1       3.827   0.653  -3.982  1.00  0.00     0.176 HD
ATOM     17  O   UNL     1       2.814   0.178  -6.045  1.00  0.00    -0.271 OA
BRANCH  13  18
ATOM     18  O   UNL     1       1.161   0.817  -2.309  1.00  0.00    -0.450 OA
BRANCH  18  19
ATOM     19  C   UNL     1       0.739   1.079  -0.961  1.00  0.00     0.231 C 
ATOM     20  C   UNL     1       0.995  -0.112  -0.053  1.00  0.00     0.049 C 
ENDBRANCH  18  19
ENDBRANCH  13  18
ENDBRANCH  11  12
ENDBRANCH  10  11
ENDBRANCH   6  10
ENDBRANCH   1   5
BRANCH   3  21
ATOM     21  C   UNL     1      -2.648  -4.900  -2.280  1.00  0.00     0.118 C 
BRANCH  21  22
ATOM     22  C   UNL     1      -3.875  -4.518  -3.104  1.00  0.00     0.042 C 
BRANCH  22  23
ATOM     23  C   UNL     1      -4.965  -5.587  -3.072  1.00  0.00     0.118 C 
BRANCH  23  24
ATOM     24  N   UNL     1      -5.524  -5.749  -1.736  1.00  0.00    -0.352 N 
ATOM     25  C   UNL     1      -6.808  -5.584  -1.285  1.00  0.00     0.251 C 
ATOM     26  H   UNL     1      -4.876  -6.021  -1.046  1.00  0.00     0.163 HD
ATOM     27  O   UNL     1      -7.022  -5.519  -0.078  1.00  0.00    -0.269 OA
BRANCH  25  28
ATOM     28  C   UNL     1      -7.931  -5.481  -2.238  1.00  0.00     0.039 A 
ATOM     29  C   UNL     1      -8.969  -4.588  -1.963  1.00  0.00     0.014 A 
ATOM     30  C   UNL     1      -7.987  -6.294  -3.373  1.00  0.00     0.014 A 
ATOM     31  C   UNL     1     -10.036  -4.472  -2.855  1.00  0.00     0.010 A 
ATOM     32  C   UNL     1      -9.008  -6.119  -4.301  1.00  0.00     0.010 A 
ATOM     33  C   UNL     1     -10.047  -5.212  -4.047  1.00  0.00    -0.014 A 
BRANCH  33  34
ATOM     34  C   UNL     1     -11.135  -5.049  -5.043  1.00  0.00     0.031 A 
ATOM     35  C   UNL     1     -12.034  -6.206  -5.380  1.00  0.00     0.074 A 
ATOM     36  C   UNL     1     -11.269  -3.875  -5.689  1.00  0.00     0.049 A 
ATOM     37  N   UNL     1     -12.999  -6.270  -6.263  1.00  0.00    -0.248 NA
ATOM     38  C   UNL     1     -11.804  -7.463  -4.651  1.00  0.00     0.031 C 
ATOM     39  C   UNL     1     -10.432  -2.691  -5.478  1.00  0.00     0.029 A 
ATOM     40  N   UNL     1     -12.155  -3.486  -6.661  1.00  0.00    -0.354 N 
ATOM     41  C   UNL     1     -13.476  -7.574  -6.206  1.00  0.00     0.074 A 
ATOM     42  C   UNL     1     -12.661  -8.281  -5.243  1.00  0.00     0.031 C 
ATOM     43  C   UNL     1     -10.864  -1.701  -6.274  1.00  0.00     0.029 A 
ATOM     44  C   UNL     1     -11.973  -2.192  -7.085  1.00  0.00     0.049 A 
ATOM     45  H   UNL     1     -12.855  -4.078  -7.020  1.00  0.00     0.167 HD
ATOM     46  C   UNL     1     -14.511  -8.128  -6.882  1.00  0.00     0.031 A 
ATOM     47  C   UNL     1     -12.618  -1.483  -8.030  1.00  0.00     0.031 A 
ATOM     48  C   UNL     1     -15.320  -7.420  -7.838  1.00  0.00     0.049 A 
ATOM     49  C   UNL     1     -13.747  -2.129  -8.784  1.00  0.00     0.074 A 
ATOM     50  C   UNL     1     -16.426  -7.873  -8.535  1.00  0.00     0.029 A 
ATOM     51  N   UNL     1     -15.104  -6.110  -8.239  1.00  0.00    -0.354 N 
ATOM     52  N   UNL     1     -14.235  -3.340  -8.664  1.00  0.00    -0.248 NA
ATOM     53  C   UNL     1     -14.421  -1.304  -9.796  1.00  0.00     0.031 C 
ATOM     54  C   UNL     1     -16.839  -6.860  -9.405  1.00  0.00     0.029 A 
ATOM     55  C   UNL     1     -16.036  -5.750  -9.198  1.00  0.00     0.049 A 
ATOM     56  H   UNL     1     -14.393  -5.523  -7.893  1.00  0.00     0.167 HD
ATOM     57  C   UNL     1     -15.291  -3.413  -9.563  1.00  0.00     0.074 A 
ATOM     58  C   UNL     1     -15.384  -2.118 -10.205  1.00  0.00     0.031 C 
ATOM     59  C   UNL     1     -16.112  -4.458  -9.831  1.00  0.00     0.031 A 
BRANCH  46  60
ATOM     60  C   UNL     1     -14.815  -9.579  -6.620  1.00  0.00    -0.014 A 
ATOM     61  C   UNL     1     -15.320 -10.009  -5.382  1.00  0.00     0.009 A 
ATOM     62  C   UNL     1     -14.623 -10.525  -7.638  1.00  0.00     0.009 A 
ATOM     63  C   UNL     1     -15.586 -11.362  -5.157  1.00  0.00     0.001 A 
ATOM     64  C   UNL     1     -14.922 -11.872  -7.422  1.00  0.00     0.001 A 
ATOM     65  C   UNL     1     -15.392 -12.291  -6.178  1.00  0.00     0.000 A 
ENDBRANCH  46  60
BRANCH  47  66
ATOM     66  C   UNL     1     -12.217  -0.080  -8.312  1.00  0.00    -0.014 A 
ATOM     67  C   UNL     1     -13.068   0.987  -7.984  1.00  0.00     0.009 A 
ATOM     68  C   UNL     1     -10.981   0.202  -8.916  1.00  0.00     0.009 A 
ATOM     69  C   UNL     1     -12.703   2.302  -8.283  1.00  0.00     0.001 A 
ATOM     70  C   UNL     1     -10.604   1.520  -9.183  1.00  0.00     0.001 A 
ATOM     71  C   UNL     1     -11.470   2.568  -8.877  1.00  0.00     0.000 A 
ENDBRANCH  47  66
BRANCH  59  72
ATOM     72  C   UNL     1     -17.208  -4.232 -10.836  1.00  0.00    -0.014 A 
ATOM     73  C   UNL     1     -16.930  -4.081 -12.203  1.00  0.00     0.009 A 
ATOM     74  C   UNL     1     -18.545  -4.211 -10.408  1.00  0.00     0.009 A 
ATOM     75  C   UNL     1     -17.966  -3.877 -13.116  1.00  0.00     0.001 A 
ATOM     76  C   UNL     1     -19.581  -4.042 -11.327  1.00  0.00     0.001 A 
ATOM     77  C   UNL     1     -19.291  -3.864 -12.678  1.00  0.00     0.000 A 
ENDBRANCH  59  72
ENDBRANCH  33  34
ENDBRANCH  25  28
ENDBRANCH  23  24
ENDBRANCH  22  23
ENDBRANCH  21  22
ENDBRANCH   3  21
TORSDOF 15
