REMARK SMILES CCCC[C@H](C(=O)OC)[C@H](O)C(=O)NCCCNC(=O)c1ccc(-c2c3nc(c(-c4ccccc4)c4ccc([nH]4)c(-c4ccccc4)c4nc(c(-c5ccccc5)c5ccc2[nH]5)C=C4)C=C3)cc1
REMARK SMILES IDX 15 1 14 2 12 3 13 4 10 6 5 7 4 8 3 9 2 10 1 11 6 12 7 13
REMARK SMILES IDX 8 14 9 15 11 16 16 18 17 19 18 20 19 21 20 23 21 24 22 25
REMARK SMILES IDX 68 26 23 27 67 28 24 29 25 30 26 31 61 32 27 33 66 34 60 35
REMARK SMILES IDX 62 36 28 37 65 38 59 39 58 40 29 42 51 43 36 44 50 45 37 46
REMARK SMILES IDX 40 47 49 48 63 49 38 50 39 51 48 53 64 54 41 55 30 56 31 57
REMARK SMILES IDX 35 58 32 59 34 60 33 61 52 62 53 63 57 64 54 65 56 66 55 67
REMARK SMILES IDX 42 68 43 69 47 70 44 71 46 72 45 73
REMARK H PARENT 14 5 11 17 18 22 62 41 40 52
REMARK Flexibility Score: inf
ROOT
ATOM      1  C   UNL     1      -3.030  -0.163  -1.410  1.00  0.00     0.117 C 
ENDROOT
BRANCH   1   2
ATOM      2  N   UNL     1      -3.512   0.509  -2.598  1.00  0.00    -0.354 N 
ATOM      3  C   UNL     1      -2.792   0.944  -3.671  1.00  0.00     0.249 C 
ATOM      4  O   UNL     1      -3.407   1.262  -4.691  1.00  0.00    -0.272 OA
ATOM      5  H   UNL     1      -4.482   0.674  -2.635  1.00  0.00     0.163 HD
BRANCH   3   6
ATOM      6  C   UNL     1      -1.262   1.129  -3.574  1.00  0.00     0.217 C 
BRANCH   6   7
ATOM      7  C   UNL     1      -0.386  -0.096  -3.886  1.00  0.00     0.137 C 
BRANCH   7   8
ATOM      8  C   UNL     1      -0.725  -0.801  -5.214  1.00  0.00     0.018 C 
BRANCH   8   9
ATOM      9  C   UNL     1       0.500  -1.432  -5.905  1.00  0.00     0.001 C 
BRANCH   9  10
ATOM     10  C   UNL     1       1.412  -2.319  -5.050  1.00  0.00    -0.003 C 
ATOM     11  C   UNL     1       0.795  -3.650  -4.653  1.00  0.00     0.004 C 
ENDBRANCH   9  10
ENDBRANCH   8   9
ENDBRANCH   7   8
BRANCH   7  12
ATOM     12  C   UNL     1      -0.409  -1.107  -2.760  1.00  0.00     0.311 C 
ATOM     13  O   UNL     1      -1.229  -2.012  -2.656  1.00  0.00    -0.252 OA
BRANCH  12  14
ATOM     14  O   UNL     1       0.595  -0.879  -1.869  1.00  0.00    -0.469 OA
ATOM     15  C   UNL     1       0.626  -1.794  -0.771  1.00  0.00     0.282 C 
ENDBRANCH  12  14
ENDBRANCH   7  12
ENDBRANCH   6   7
BRANCH   6  16
ATOM     16  O   UNL     1      -0.854   1.742  -2.350  1.00  0.00    -0.382 OA
ATOM     17  H   UNL     1      -1.022   1.134  -1.613  1.00  0.00     0.211 HD
ENDBRANCH   6  16
ENDBRANCH   3   6
ENDBRANCH   1   2
BRANCH   1  18
ATOM     18  C   UNL     1      -3.601   0.358  -0.114  1.00  0.00     0.042 C 
BRANCH  18  19
ATOM     19  C   UNL     1      -5.093   0.148   0.022  1.00  0.00     0.118 C 
BRANCH  19  20
ATOM     20  N   UNL     1      -5.486  -1.255  -0.022  1.00  0.00    -0.352 N 
ATOM     21  C   UNL     1      -6.061  -2.054   0.934  1.00  0.00     0.251 C 
ATOM     22  H   UNL     1      -5.311  -1.704  -0.881  1.00  0.00     0.163 HD
ATOM     23  O   UNL     1      -6.165  -3.264   0.736  1.00  0.00    -0.269 OA
BRANCH  21  24
ATOM     24  C   UNL     1      -6.525  -1.478   2.213  1.00  0.00     0.039 A 
ATOM     25  C   UNL     1      -6.353  -2.212   3.389  1.00  0.00     0.014 A 
ATOM     26  C   UNL     1      -7.123  -0.219   2.261  1.00  0.00     0.014 A 
ATOM     27  C   UNL     1      -6.716  -1.647   4.612  1.00  0.00     0.010 A 
ATOM     28  C   UNL     1      -7.346   0.397   3.485  1.00  0.00     0.010 A 
ATOM     29  C   UNL     1      -7.174  -0.320   4.674  1.00  0.00    -0.014 A 
BRANCH  29  30
ATOM     30  C   UNL     1      -7.502   0.318   5.973  1.00  0.00     0.031 A 
ATOM     31  C   UNL     1      -8.896   0.823   6.240  1.00  0.00     0.074 A 
ATOM     32  C   UNL     1      -6.536   0.471   6.899  1.00  0.00     0.049 A 
ATOM     33  N   UNL     1      -9.376   1.380   7.323  1.00  0.00    -0.248 NA
ATOM     34  C   UNL     1      -9.871   0.721   5.141  1.00  0.00     0.031 C 
ATOM     35  C   UNL     1      -5.132   0.085   6.734  1.00  0.00     0.029 A 
ATOM     36  N   UNL     1      -6.591   0.980   8.171  1.00  0.00    -0.354 N 
ATOM     37  C   UNL     1     -10.696   1.702   7.028  1.00  0.00     0.074 A 
ATOM     38  C   UNL     1     -10.921   1.349   5.646  1.00  0.00     0.031 C 
ATOM     39  C   UNL     1      -4.475   0.315   7.882  1.00  0.00     0.029 A 
ATOM     40  C   UNL     1      -5.397   0.902   8.846  1.00  0.00     0.049 A 
ATOM     41  H   UNL     1      -7.408   1.365   8.563  1.00  0.00     0.167 HD
ATOM     42  C   UNL     1     -11.648   2.213   7.842  1.00  0.00     0.031 A 
ATOM     43  C   UNL     1      -5.084   1.254  10.107  1.00  0.00     0.031 A 
ATOM     44  C   UNL     1     -11.426   2.553   9.222  1.00  0.00     0.049 A 
ATOM     45  C   UNL     1      -6.160   1.815  10.993  1.00  0.00     0.074 A 
ATOM     46  C   UNL     1     -12.336   3.025  10.151  1.00  0.00     0.029 A 
ATOM     47  N   UNL     1     -10.203   2.459   9.868  1.00  0.00    -0.354 N 
ATOM     48  N   UNL     1      -7.426   2.033  10.724  1.00  0.00    -0.248 NA
ATOM     49  C   UNL     1      -5.767   2.161  12.365  1.00  0.00     0.031 C 
ATOM     50  C   UNL     1     -11.649   3.272  11.345  1.00  0.00     0.029 A 
ATOM     51  C   UNL     1     -10.328   2.888  11.178  1.00  0.00     0.049 A 
ATOM     52  H   UNL     1      -9.370   2.135   9.456  1.00  0.00     0.167 HD
ATOM     53  C   UNL     1      -7.985   2.513  11.901  1.00  0.00     0.074 A 
ATOM     54  C   UNL     1      -6.926   2.529  12.890  1.00  0.00     0.031 C 
ATOM     55  C   UNL     1      -9.260   2.906  12.144  1.00  0.00     0.031 A 
BRANCH  42  56
ATOM     56  C   UNL     1     -13.016   2.436   7.255  1.00  0.00    -0.014 A 
ATOM     57  C   UNL     1     -13.831   1.357   6.870  1.00  0.00     0.009 A 
ATOM     58  C   UNL     1     -13.509   3.741   7.105  1.00  0.00     0.009 A 
ATOM     59  C   UNL     1     -15.091   1.582   6.312  1.00  0.00     0.001 A 
ATOM     60  C   UNL     1     -14.784   3.962   6.578  1.00  0.00     0.001 A 
ATOM     61  C   UNL     1     -15.568   2.884   6.172  1.00  0.00     0.000 A 
ENDBRANCH  42  56
BRANCH  43  62
ATOM     62  C   UNL     1      -3.702   1.055  10.618  1.00  0.00    -0.014 A 
ATOM     63  C   UNL     1      -3.437   0.095  11.608  1.00  0.00     0.009 A 
ATOM     64  C   UNL     1      -2.640   1.831  10.126  1.00  0.00     0.009 A 
ATOM     65  C   UNL     1      -2.145  -0.059  12.118  1.00  0.00     0.001 A 
ATOM     66  C   UNL     1      -1.344   1.651  10.614  1.00  0.00     0.001 A 
ATOM     67  C   UNL     1      -1.100   0.715  11.618  1.00  0.00     0.000 A 
ENDBRANCH  43  62
BRANCH  55  68
ATOM     68  C   UNL     1      -9.580   3.351  13.545  1.00  0.00    -0.014 A 
ATOM     69  C   UNL     1      -9.063   4.544  14.072  1.00  0.00     0.009 A 
ATOM     70  C   UNL     1     -10.425   2.565  14.344  1.00  0.00     0.009 A 
ATOM     71  C   UNL     1      -9.342   4.913  15.389  1.00  0.00     0.001 A 
ATOM     72  C   UNL     1     -10.733   2.955  15.647  1.00  0.00     0.001 A 
ATOM     73  C   UNL     1     -10.179   4.121  16.174  1.00  0.00     0.000 A 
ENDBRANCH  55  68
ENDBRANCH  29  30
ENDBRANCH  21  24
ENDBRANCH  19  20
ENDBRANCH  18  19
ENDBRANCH   1  18
TORSDOF 17
