REMARK SMILES COc1ccc(NC(C)(C)C2=N[C@@H](C(=O)NCCCNC(=O)c3ccc(-c4c5nc(c(-c6ccccc6)c6ccc([nH]6)c(-c6ccccc6)c6nc(c(-c7ccccc7)c7ccc4[nH]7)C=C6)C=C5)cc3)CS2)cc1
REMARK SMILES IDX 17 1 16 2 14 3 15 4 13 6 11 7 12 8 72 9 71 10 8 11 9 12
REMARK SMILES IDX 10 13 7 14 6 16 3 17 4 18 74 19 5 20 73 21 2 22 1 23 18 24
REMARK SMILES IDX 19 25 20 26 21 27 22 29 23 30 24 31 70 32 25 33 69 34 26 35
REMARK SMILES IDX 27 36 28 37 63 38 29 39 68 40 62 41 64 42 30 43 67 44 61 45
REMARK SMILES IDX 60 46 31 48 53 49 38 50 52 51 39 52 42 53 51 54 65 55 40 56
REMARK SMILES IDX 41 57 50 59 66 60 43 61 32 62 33 63 37 64 34 65 36 66 35 67
REMARK SMILES IDX 54 68 55 69 59 70 56 71 58 72 57 73 44 74 45 75 49 76 46 77
REMARK SMILES IDX 48 78 47 79
REMARK H PARENT 16 5 7 15 20 28 64 47 42 58
REMARK Flexibility Score: inf
ROOT
ATOM      1  C   UNL     1      -2.003  -5.459   7.791  1.00  0.00     0.117 C 
ENDROOT
BRANCH   1   2
ATOM      2  N   UNL     1      -3.250  -5.470   7.058  1.00  0.00    -0.354 N 
ATOM      3  C   UNL     1      -3.545  -5.095   5.784  1.00  0.00     0.245 C 
ATOM      4  O   UNL     1      -4.730  -5.189   5.443  1.00  0.00    -0.273 OA
ATOM      5  H   UNL     1      -4.020  -5.809   7.571  1.00  0.00     0.163 HD
BRANCH   3   6
ATOM      6  C   UNL     1      -2.509  -4.520   4.812  1.00  0.00     0.205 C 
ATOM      7  C   UNL     1      -0.235  -4.873   4.845  1.00  0.00     0.094 C 
ATOM      8  N   UNL     1      -1.372  -5.447   4.605  1.00  0.00    -0.266 NA
ATOM      9  S   UNL     1      -0.293  -3.252   5.526  1.00  0.00    -0.106 SA
ATOM     10  C   UNL     1      -2.050  -3.113   5.149  1.00  0.00     0.113 C 
BRANCH   7  11
ATOM     11  C   UNL     1       1.122  -5.574   4.598  1.00  0.00     0.080 C 
ATOM     12  C   UNL     1       0.902  -6.989   4.035  1.00  0.00     0.042 C 
ATOM     13  C   UNL     1       1.851  -5.712   5.950  1.00  0.00     0.042 C 
BRANCH  11  14
ATOM     14  N   UNL     1       2.029  -4.865   3.668  1.00  0.00    -0.374 N 
ATOM     15  H   UNL     1       2.970  -5.154   3.684  1.00  0.00     0.161 HD
BRANCH  14  16
ATOM     16  C   UNL     1       1.728  -3.851   2.782  1.00  0.00     0.035 A 
ATOM     17  C   UNL     1       1.097  -1.473   1.410  1.00  0.00     0.119 A 
ATOM     18  C   UNL     1       0.137  -2.464   1.565  1.00  0.00     0.048 A 
ATOM     19  C   UNL     1       2.391  -1.680   1.874  1.00  0.00     0.048 A 
ATOM     20  C   UNL     1       0.465  -3.659   2.212  1.00  0.00     0.029 A 
ATOM     21  C   UNL     1       2.699  -2.865   2.550  1.00  0.00     0.029 A 
BRANCH  17  22
ATOM     22  O   UNL     1       0.689  -0.267   0.914  1.00  0.00    -0.497 OA
ATOM     23  C   UNL     1       1.302   0.028  -0.337  1.00  0.00     0.278 C 
ENDBRANCH  17  22
ENDBRANCH  14  16
ENDBRANCH  11  14
ENDBRANCH   7  11
ENDBRANCH   3   6
ENDBRANCH   1   2
BRANCH   1  24
ATOM     24  C   UNL     1      -1.858  -4.217   8.664  1.00  0.00     0.042 C 
BRANCH  24  25
ATOM     25  C   UNL     1      -2.762  -4.230   9.890  1.00  0.00     0.118 C 
BRANCH  25  26
ATOM     26  N   UNL     1      -2.389  -5.276  10.831  1.00  0.00    -0.352 N 
ATOM     27  C   UNL     1      -2.075  -5.198  12.160  1.00  0.00     0.251 C 
ATOM     28  H   UNL     1      -2.358  -6.184  10.450  1.00  0.00     0.163 HD
ATOM     29  O   UNL     1      -1.572  -6.176  12.715  1.00  0.00    -0.269 OA
BRANCH  27  30
ATOM     30  C   UNL     1      -2.324  -3.965  12.935  1.00  0.00     0.039 A 
ATOM     31  C   UNL     1      -1.411  -3.611  13.933  1.00  0.00     0.014 A 
ATOM     32  C   UNL     1      -3.471  -3.191  12.735  1.00  0.00     0.014 A 
ATOM     33  C   UNL     1      -1.632  -2.470  14.704  1.00  0.00     0.010 A 
ATOM     34  C   UNL     1      -3.649  -2.009  13.449  1.00  0.00     0.010 A 
ATOM     35  C   UNL     1      -2.743  -1.647  14.455  1.00  0.00    -0.014 A 
BRANCH  35  36
ATOM     36  C   UNL     1      -2.965  -0.419  15.255  1.00  0.00     0.031 A 
ATOM     37  C   UNL     1      -4.160  -0.302  16.161  1.00  0.00     0.074 A 
ATOM     38  C   UNL     1      -2.098   0.606  15.144  1.00  0.00     0.049 A 
ATOM     39  N   UNL     1      -4.494   0.678  16.962  1.00  0.00    -0.248 NA
ATOM     40  C   UNL     1      -5.119  -1.419  16.149  1.00  0.00     0.031 C 
ATOM     41  C   UNL     1      -0.934   0.638  14.256  1.00  0.00     0.029 A 
ATOM     42  N   UNL     1      -2.058   1.815  15.789  1.00  0.00    -0.354 N 
ATOM     43  C   UNL     1      -5.704   0.304  17.534  1.00  0.00     0.074 A 
ATOM     44  C   UNL     1      -6.072  -0.967  16.951  1.00  0.00     0.031 C 
ATOM     45  C   UNL     1      -0.271   1.790  14.444  1.00  0.00     0.029 A 
ATOM     46  C   UNL     1      -0.976   2.587  15.442  1.00  0.00     0.049 A 
ATOM     47  H   UNL     1      -2.740   2.103  16.439  1.00  0.00     0.167 HD
ATOM     48  C   UNL     1      -6.434   0.950  18.475  1.00  0.00     0.031 A 
ATOM     49  C   UNL     1      -0.587   3.795  15.888  1.00  0.00     0.031 A 
ATOM     50  C   UNL     1      -6.059   2.207  19.065  1.00  0.00     0.049 A 
ATOM     51  C   UNL     1      -1.393   4.475  16.958  1.00  0.00     0.074 A 
ATOM     52  C   UNL     1      -6.696   2.913  20.070  1.00  0.00     0.029 A 
ATOM     53  N   UNL     1      -4.942   2.944  18.703  1.00  0.00    -0.354 N 
ATOM     54  N   UNL     1      -2.491   4.069  17.547  1.00  0.00    -0.248 NA
ATOM     55  C   UNL     1      -0.891   5.769  17.439  1.00  0.00     0.031 C 
ATOM     56  C   UNL     1      -5.988   4.101  20.286  1.00  0.00     0.029 A 
ATOM     57  C   UNL     1      -4.881   4.107  19.452  1.00  0.00     0.049 A 
ATOM     58  H   UNL     1      -4.290   2.681  18.014  1.00  0.00     0.167 HD
ATOM     59  C   UNL     1      -2.796   5.043  18.489  1.00  0.00     0.074 A 
ATOM     60  C   UNL     1      -1.758   6.050  18.401  1.00  0.00     0.031 C 
ATOM     61  C   UNL     1      -3.841   5.098  19.351  1.00  0.00     0.031 A 
BRANCH  48  62
ATOM     62  C   UNL     1      -7.716   0.302  18.920  1.00  0.00    -0.014 A 
ATOM     63  C   UNL     1      -7.709  -0.872  19.691  1.00  0.00     0.009 A 
ATOM     64  C   UNL     1      -8.947   0.887  18.587  1.00  0.00     0.009 A 
ATOM     65  C   UNL     1      -8.909  -1.468  20.085  1.00  0.00     0.001 A 
ATOM     66  C   UNL     1     -10.145   0.305  19.008  1.00  0.00     0.001 A 
ATOM     67  C   UNL     1     -10.125  -0.877  19.747  1.00  0.00     0.000 A 
ENDBRANCH  48  62
BRANCH  49  68
ATOM     68  C   UNL     1       0.654   4.414  15.357  1.00  0.00    -0.014 A 
ATOM     69  C   UNL     1       1.808   4.489  16.153  1.00  0.00     0.009 A 
ATOM     70  C   UNL     1       0.696   4.922  14.050  1.00  0.00     0.009 A 
ATOM     71  C   UNL     1       2.971   5.083  15.659  1.00  0.00     0.001 A 
ATOM     72  C   UNL     1       1.869   5.490  13.549  1.00  0.00     0.001 A 
ATOM     73  C   UNL     1       3.002   5.578  14.356  1.00  0.00     0.000 A 
ENDBRANCH  49  68
BRANCH  61  74
ATOM     74  C   UNL     1      -3.890   6.268  20.291  1.00  0.00    -0.014 A 
ATOM     75  C   UNL     1      -4.212   7.556  19.837  1.00  0.00     0.009 A 
ATOM     76  C   UNL     1      -3.634   6.070  21.656  1.00  0.00     0.009 A 
ATOM     77  C   UNL     1      -4.238   8.631  20.728  1.00  0.00     0.001 A 
ATOM     78  C   UNL     1      -3.688   7.141  22.549  1.00  0.00     0.001 A 
ATOM     79  C   UNL     1      -3.980   8.422  22.082  1.00  0.00     0.000 A 
ENDBRANCH  61  74
ENDBRANCH  35  36
ENDBRANCH  27  30
ENDBRANCH  25  26
ENDBRANCH  24  25
ENDBRANCH   1  24
TORSDOF 14
