REMARK SMILES O=C(NCCCNC(=O)[C@@H](c1ccccc1)N1C(=O)/C(=C\c2ccc(-c3ccc(F)cc3)o2)SC1=S)c1ccc(-c2c3nc(c(-c4ccccc4)c4ccc([nH]4)c(-c4ccccc4)c4nc(c(-c5ccccc5)c5ccc2[nH]5)C=C4)C=C3)cc1
REMARK SMILES IDX 5 1 4 2 3 3 1 4 2 5 37 7 38 8 84 9 39 10 83 11 40 12 41 13
REMARK SMILES IDX 42 14 77 15 43 16 82 17 76 18 78 19 44 20 81 21 75 22 74 23
REMARK SMILES IDX 45 25 67 26 52 27 66 28 53 29 56 30 65 31 79 32 54 33 55 34
REMARK SMILES IDX 64 36 80 37 57 38 46 39 47 40 51 41 48 42 50 43 49 44 68 45
REMARK SMILES IDX 69 46 73 47 70 48 72 49 71 50 58 51 59 52 63 53 60 54 62 55
REMARK SMILES IDX 61 56 6 57 7 58 8 59 9 61 10 62 11 63 12 64 16 65 13 66
REMARK SMILES IDX 15 67 14 68 17 69 18 70 35 71 19 72 20 73 34 74 36 75 21 76
REMARK SMILES IDX 22 77 23 78 33 79 24 80 25 81 26 82 27 83 32 84 28 85 31 86
REMARK SMILES IDX 29 87 30 88
REMARK H PARENT 3 6 78 24 56 35 7 60
REMARK Flexibility Score: inf
ROOT
ATOM      1  C   UNL     1       4.731   0.402  -2.423  1.00  0.00     0.042 C 
ENDROOT
BRANCH   1   2
ATOM      2  C   UNL     1       4.443   0.991  -1.051  1.00  0.00     0.118 C 
BRANCH   2   3
ATOM      3  N   UNL     1       3.032   0.873  -0.689  1.00  0.00    -0.352 N 
ATOM      4  O   UNL     1       1.173  -0.065   0.161  1.00  0.00    -0.269 OA
ATOM      5  C   UNL     1       2.396   0.034   0.194  1.00  0.00     0.251 C 
ATOM      6  H   UNL     1       2.436   1.502  -1.156  1.00  0.00     0.163 HD
BRANCH   5   7
ATOM      7  C   UNL     1       3.172  -0.753   1.176  1.00  0.00     0.039 A 
ATOM      8  C   UNL     1       4.306  -0.210   1.773  1.00  0.00     0.014 A 
ATOM      9  C   UNL     1       2.743  -2.034   1.540  1.00  0.00     0.014 A 
ATOM     10  C   UNL     1       5.116  -1.006   2.566  1.00  0.00     0.010 A 
ATOM     11  C   UNL     1       3.487  -2.787   2.457  1.00  0.00     0.010 A 
ATOM     12  C   UNL     1       4.700  -2.290   2.953  1.00  0.00    -0.014 A 
BRANCH  12  13
ATOM     13  C   UNL     1       5.533  -3.021   3.942  1.00  0.00     0.031 A 
ATOM     14  C   UNL     1       6.191  -4.330   3.609  1.00  0.00     0.074 A 
ATOM     15  C   UNL     1       5.764  -2.428   5.131  1.00  0.00     0.049 A 
ATOM     16  N   UNL     1       7.033  -5.027   4.332  1.00  0.00    -0.248 NA
ATOM     17  C   UNL     1       5.864  -4.942   2.313  1.00  0.00     0.031 C 
ATOM     18  C   UNL     1       5.164  -1.164   5.574  1.00  0.00     0.029 A 
ATOM     19  N   UNL     1       6.604  -2.770   6.160  1.00  0.00    -0.354 N 
ATOM     20  C   UNL     1       7.321  -6.165   3.589  1.00  0.00     0.074 A 
ATOM     21  C   UNL     1       6.546  -6.079   2.370  1.00  0.00     0.031 C 
ATOM     22  C   UNL     1       5.724  -0.790   6.731  1.00  0.00     0.029 A 
ATOM     23  C   UNL     1       6.657  -1.825   7.156  1.00  0.00     0.049 A 
ATOM     24  H   UNL     1       7.118  -3.609   6.182  1.00  0.00     0.167 HD
ATOM     25  C   UNL     1       8.160  -7.184   3.894  1.00  0.00     0.031 A 
ATOM     26  C   UNL     1       7.369  -1.791   8.296  1.00  0.00     0.031 A 
ATOM     27  C   UNL     1       8.930  -7.266   5.109  1.00  0.00     0.049 A 
ATOM     28  C   UNL     1       8.287  -2.933   8.605  1.00  0.00     0.074 A 
ATOM     29  C   UNL     1       9.806  -8.260   5.511  1.00  0.00     0.029 A 
ATOM     30  N   UNL     1       8.919  -6.313   6.117  1.00  0.00    -0.354 N 
ATOM     31  N   UNL     1       8.550  -3.997   7.885  1.00  0.00    -0.248 NA
ATOM     32  C   UNL     1       9.003  -2.874   9.886  1.00  0.00     0.031 C 
ATOM     33  C   UNL     1      10.295  -7.928   6.780  1.00  0.00     0.029 A 
ATOM     34  C   UNL     1       9.763  -6.702   7.145  1.00  0.00     0.049 A 
ATOM     35  H   UNL     1       8.390  -5.483   6.104  1.00  0.00     0.167 HD
ATOM     36  C   UNL     1       9.460  -4.736   8.626  1.00  0.00     0.074 A 
ATOM     37  C   UNL     1       9.734  -3.977   9.830  1.00  0.00     0.031 C 
ATOM     38  C   UNL     1      10.009  -5.941   8.342  1.00  0.00     0.031 A 
BRANCH  25  39
ATOM     39  C   UNL     1       8.276  -8.311   2.905  1.00  0.00    -0.014 A 
ATOM     40  C   UNL     1       8.968  -8.148   1.695  1.00  0.00     0.009 A 
ATOM     41  C   UNL     1       7.733  -9.569   3.211  1.00  0.00     0.009 A 
ATOM     42  C   UNL     1       9.093  -9.215   0.801  1.00  0.00     0.001 A 
ATOM     43  C   UNL     1       7.880 -10.640   2.328  1.00  0.00     0.001 A 
ATOM     44  C   UNL     1       8.554 -10.461   1.121  1.00  0.00     0.000 A 
ENDBRANCH  25  39
BRANCH  26  45
ATOM     45  C   UNL     1       7.211  -0.651   9.235  1.00  0.00    -0.014 A 
ATOM     46  C   UNL     1       8.257   0.258   9.450  1.00  0.00     0.009 A 
ATOM     47  C   UNL     1       5.996  -0.461   9.914  1.00  0.00     0.009 A 
ATOM     48  C   UNL     1       8.096   1.321  10.342  1.00  0.00     0.001 A 
ATOM     49  C   UNL     1       5.827   0.622  10.778  1.00  0.00     0.001 A 
ATOM     50  C   UNL     1       6.880   1.506  10.999  1.00  0.00     0.000 A 
ENDBRANCH  26  45
BRANCH  38  51
ATOM     51  C   UNL     1      10.966  -6.496   9.356  1.00  0.00    -0.014 A 
ATOM     52  C   UNL     1      10.509  -6.989  10.588  1.00  0.00     0.009 A 
ATOM     53  C   UNL     1      12.340  -6.523   9.076  1.00  0.00     0.009 A 
ATOM     54  C   UNL     1      11.416  -7.458  11.540  1.00  0.00     0.001 A 
ATOM     55  C   UNL     1      13.242  -7.019  10.019  1.00  0.00     0.001 A 
ATOM     56  C   UNL     1      12.781  -7.474  11.253  1.00  0.00     0.000 A 
ENDBRANCH  38  51
ENDBRANCH  12  13
ENDBRANCH   5   7
ENDBRANCH   2   3
ENDBRANCH   1   2
BRANCH   1  57
ATOM     57  C   UNL     1       4.118   1.237  -3.536  1.00  0.00     0.117 C 
BRANCH  57  58
ATOM     58  N   UNL     1       4.883   2.429  -3.831  1.00  0.00    -0.354 N 
ATOM     59  C   UNL     1       5.835   2.687  -4.769  1.00  0.00     0.247 C 
ATOM     60  H   UNL     1       4.678   3.193  -3.246  1.00  0.00     0.163 HD
ATOM     61  O   UNL     1       6.443   3.756  -4.617  1.00  0.00    -0.272 OA
BRANCH  59  62
ATOM     62  C   UNL     1       6.271   1.699  -5.897  1.00  0.00     0.211 C 
BRANCH  62  63
ATOM     63  C   UNL     1       7.269   0.631  -5.409  1.00  0.00    -0.016 A 
ATOM     64  C   UNL     1       7.539  -0.534  -6.150  1.00  0.00     0.006 A 
ATOM     65  C   UNL     1       7.988   0.804  -4.211  1.00  0.00     0.006 A 
ATOM     66  C   UNL     1       8.317  -1.567  -5.619  1.00  0.00     0.000 A 
ATOM     67  C   UNL     1       8.797  -0.212  -3.695  1.00  0.00     0.000 A 
ATOM     68  C   UNL     1       8.928  -1.414  -4.380  1.00  0.00     0.000 A 
ENDBRANCH  62  63
BRANCH  62  69
ATOM     69  N   UNL     1       5.112   1.257  -6.729  1.00  0.00    -0.276 N 
ATOM     70  C   UNL     1       4.563  -0.007  -6.637  1.00  0.00     0.267 C 
ATOM     71  C   UNL     1       4.466   2.109  -7.612  1.00  0.00     0.149 C 
ATOM     72  O   UNL     1       4.816  -0.846  -5.778  1.00  0.00    -0.268 OA
ATOM     73  C   UNL     1       3.545  -0.235  -7.695  1.00  0.00     0.084 C 
ATOM     74  S   UNL     1       3.155   1.264  -8.433  1.00  0.00    -0.054 SA
ATOM     75  S   UNL     1       4.771   3.718  -7.932  1.00  0.00    -0.052 S 
ATOM     76  C   UNL     1       3.052  -1.413  -8.101  1.00  0.00     0.068 C 
BRANCH  76  77
ATOM     77  C   UNL     1       3.504  -2.650  -7.571  1.00  0.00     0.128 A 
ATOM     78  C   UNL     1       3.322  -3.201  -6.309  1.00  0.00     0.051 A 
ATOM     79  O   UNL     1       4.273  -3.526  -8.302  1.00  0.00    -0.457 OA
ATOM     80  C   UNL     1       4.049  -4.411  -6.257  1.00  0.00     0.051 A 
ATOM     81  C   UNL     1       4.606  -4.579  -7.504  1.00  0.00     0.134 A 
BRANCH  81  82
ATOM     82  C   UNL     1       5.416  -5.623  -8.111  1.00  0.00     0.017 A 
ATOM     83  C   UNL     1       6.404  -5.321  -9.061  1.00  0.00     0.015 A 
ATOM     84  C   UNL     1       5.215  -6.963  -7.742  1.00  0.00     0.015 A 
ATOM     85  C   UNL     1       7.172  -6.340  -9.631  1.00  0.00     0.040 A 
ATOM     86  C   UNL     1       5.974  -7.981  -8.320  1.00  0.00     0.040 A 
ATOM     87  C   UNL     1       6.946  -7.660  -9.259  1.00  0.00     0.123 A 
ATOM     88  F   UNL     1       7.674  -8.638  -9.813  1.00  0.00    -0.207 F 
ENDBRANCH  81  82
ENDBRANCH  76  77
ENDBRANCH  62  69
ENDBRANCH  59  62
ENDBRANCH  57  58
ENDBRANCH   1  57
TORSDOF 14
