REMARK SMILES O=C(NCCCNC(=O)c1ccc(-c2c3nc(c(-c4ccccc4)c4ccc([nH]4)c(-c4ccccc4)c4nc(c(-c5ccccc5)c5ccc2[nH]5)C=C4)C=C3)cc1)C1=Cc2cc(OC(F)(F)F)ccc2O[C@@H]1C(F)(F)F
REMARK SMILES IDX 5 1 4 2 3 3 1 4 2 5 58 7 59 8 72 9 60 10 71 11 61 12 70 13
REMARK SMILES IDX 62 14 69 15 68 16 73 17 74 18 75 19 76 20 63 21 64 22 65 23
REMARK SMILES IDX 66 24 67 25 6 26 7 27 8 28 9 30 10 31 11 32 57 33 12 34
REMARK SMILES IDX 56 35 13 36 14 37 15 38 50 39 16 40 55 41 49 42 51 43 17 44
REMARK SMILES IDX 54 45 48 46 47 47 18 49 40 50 25 51 39 52 26 53 29 54 38 55
REMARK SMILES IDX 52 56 27 57 28 58 37 60 53 61 30 62 19 63 20 64 24 65 21 66
REMARK SMILES IDX 23 67 22 68 41 69 42 70 46 71 43 72 45 73 44 74 31 75 32 76
REMARK SMILES IDX 36 77 33 78 35 79 34 80
REMARK H PARENT 3 6 7 29 51 48 29 59
REMARK Flexibility Score: inf
ROOT
ATOM      1  C   UNL     1       4.176  -0.754   2.565  1.00  0.00     0.042 C 
ENDROOT
BRANCH   1   2
ATOM      2  C   UNL     1       3.329  -0.979   1.317  1.00  0.00     0.118 C 
BRANCH   2   3
ATOM      3  N   UNL     1       2.360   0.093   1.080  1.00  0.00    -0.352 N 
ATOM      4  O   UNL     1       1.252   1.673  -0.110  1.00  0.00    -0.270 OA
ATOM      5  C   UNL     1       2.238   0.963   0.024  1.00  0.00     0.251 C 
ATOM      6  H   UNL     1       1.689   0.209   1.791  1.00  0.00     0.163 HD
BRANCH   5   7
ATOM      7  C   UNL     1       3.325   0.961  -0.969  1.00  0.00     0.067 C 
ATOM      8  C   UNL     1       4.506   1.444  -0.564  1.00  0.00     0.025 C 
ATOM      9  C   UNL     1       3.165   0.070  -2.161  1.00  0.00     0.314 C 
ATOM     10  C   UNL     1       5.629   0.562  -0.897  1.00  0.00     0.021 A 
ATOM     11  O   UNL     1       4.226  -0.912  -2.266  1.00  0.00    -0.475 OA
ATOM     12  C   UNL     1       6.800   0.699  -0.145  1.00  0.00     0.058 A 
ATOM     13  C   UNL     1       5.393  -0.631  -1.599  1.00  0.00     0.128 A 
ATOM     14  C   UNL     1       7.661  -0.389   0.031  1.00  0.00     0.130 A 
ATOM     15  C   UNL     1       6.276  -1.699  -1.466  1.00  0.00     0.051 A 
ATOM     16  C   UNL     1       7.384  -1.593  -0.619  1.00  0.00     0.050 A 
BRANCH   9  17
ATOM     17  C   UNL     1       3.043   0.888  -3.456  1.00  0.00     0.429 C 
ATOM     18  F   UNL     1       2.744   0.088  -4.509  1.00  0.00    -0.167 F 
ATOM     19  F   UNL     1       2.058   1.813  -3.377  1.00  0.00    -0.167 F 
ATOM     20  F   UNL     1       4.188   1.542  -3.762  1.00  0.00    -0.167 F 
ENDBRANCH   9  17
BRANCH  14  21
ATOM     21  O   UNL     1       8.692  -0.146   0.891  1.00  0.00    -0.406 OA
BRANCH  21  22
ATOM     22  C   UNL     1       9.379  -1.262   1.433  1.00  0.00     0.573 C 
ATOM     23  F   UNL     1       8.539  -2.046   2.141  1.00  0.00    -0.132 F 
ATOM     24  F   UNL     1       9.979  -1.987   0.467  1.00  0.00    -0.132 F 
ATOM     25  F   UNL     1      10.336  -0.807   2.271  1.00  0.00    -0.132 F 
ENDBRANCH  21  22
ENDBRANCH  14  21
ENDBRANCH   5   7
ENDBRANCH   2   3
ENDBRANCH   1   2
BRANCH   1  26
ATOM     26  C   UNL     1       4.161  -1.955   3.502  1.00  0.00     0.118 C 
BRANCH  26  27
ATOM     27  N   UNL     1       4.790  -3.154   2.958  1.00  0.00    -0.352 N 
ATOM     28  C   UNL     1       5.624  -4.066   3.568  1.00  0.00     0.251 C 
ATOM     29  H   UNL     1       4.588  -3.339   2.012  1.00  0.00     0.163 HD
ATOM     30  O   UNL     1       6.098  -4.991   2.910  1.00  0.00    -0.269 OA
BRANCH  28  31
ATOM     31  C   UNL     1       5.987  -3.918   4.997  1.00  0.00     0.039 A 
ATOM     32  C   UNL     1       7.297  -4.196   5.402  1.00  0.00     0.014 A 
ATOM     33  C   UNL     1       5.056  -3.477   5.937  1.00  0.00     0.014 A 
ATOM     34  C   UNL     1       7.685  -3.948   6.723  1.00  0.00     0.010 A 
ATOM     35  C   UNL     1       5.476  -3.103   7.207  1.00  0.00     0.010 A 
ATOM     36  C   UNL     1       6.790  -3.351   7.625  1.00  0.00    -0.014 A 
BRANCH  36  37
ATOM     37  C   UNL     1       7.184  -3.004   9.016  1.00  0.00     0.031 A 
ATOM     38  C   UNL     1       6.413  -3.576  10.180  1.00  0.00     0.074 A 
ATOM     39  C   UNL     1       8.168  -2.110   9.236  1.00  0.00     0.049 A 
ATOM     40  N   UNL     1       6.531  -3.320  11.458  1.00  0.00    -0.248 NA
ATOM     41  C   UNL     1       5.331  -4.523   9.860  1.00  0.00     0.031 C 
ATOM     42  C   UNL     1       8.945  -1.423   8.201  1.00  0.00     0.029 A 
ATOM     43  N   UNL     1       8.681  -1.620  10.412  1.00  0.00    -0.354 N 
ATOM     44  C   UNL     1       5.514  -4.034  12.080  1.00  0.00     0.074 A 
ATOM     45  C   UNL     1       4.748  -4.679  11.038  1.00  0.00     0.031 C 
ATOM     46  C   UNL     1       9.863  -0.637   8.787  1.00  0.00     0.029 A 
ATOM     47  C   UNL     1       9.715  -0.732  10.234  1.00  0.00     0.049 A 
ATOM     48  H   UNL     1       8.341  -1.880  11.298  1.00  0.00     0.167 HD
ATOM     49  C   UNL     1       5.255  -4.172  13.402  1.00  0.00     0.031 A 
ATOM     50  C   UNL     1      10.464  -0.072  11.138  1.00  0.00     0.031 A 
ATOM     51  C   UNL     1       6.051  -3.578  14.440  1.00  0.00     0.049 A 
ATOM     52  C   UNL     1      10.200  -0.287  12.602  1.00  0.00     0.074 A 
ATOM     53  C   UNL     1       5.934  -3.728  15.810  1.00  0.00     0.029 A 
ATOM     54  N   UNL     1       7.124  -2.730  14.217  1.00  0.00    -0.354 N 
ATOM     55  N   UNL     1       9.284  -1.030  13.175  1.00  0.00    -0.248 NA
ATOM     56  C   UNL     1      11.086   0.412  13.543  1.00  0.00     0.031 C 
ATOM     57  C   UNL     1       6.914  -2.936  16.418  1.00  0.00     0.029 A 
ATOM     58  C   UNL     1       7.671  -2.335  15.425  1.00  0.00     0.049 A 
ATOM     59  H   UNL     1       7.448  -2.449  13.330  1.00  0.00     0.167 HD
ATOM     60  C   UNL     1       9.499  -0.908  14.542  1.00  0.00     0.074 A 
ATOM     61  C   UNL     1      10.643  -0.036  14.709  1.00  0.00     0.031 C 
ATOM     62  C   UNL     1       8.811  -1.467  15.567  1.00  0.00     0.031 A 
BRANCH  49  63
ATOM     63  C   UNL     1       4.066  -5.008  13.790  1.00  0.00    -0.014 A 
ATOM     64  C   UNL     1       4.048  -6.397  13.579  1.00  0.00     0.009 A 
ATOM     65  C   UNL     1       2.949  -4.401  14.385  1.00  0.00     0.009 A 
ATOM     66  C   UNL     1       2.918  -7.150  13.907  1.00  0.00     0.001 A 
ATOM     67  C   UNL     1       1.834  -5.162  14.743  1.00  0.00     0.001 A 
ATOM     68  C   UNL     1       1.814  -6.533  14.492  1.00  0.00     0.000 A 
ENDBRANCH  49  63
BRANCH  50  69
ATOM     69  C   UNL     1      11.563   0.821  10.685  1.00  0.00    -0.014 A 
ATOM     70  C   UNL     1      12.903   0.439  10.857  1.00  0.00     0.009 A 
ATOM     71  C   UNL     1      11.284   2.054  10.077  1.00  0.00     0.009 A 
ATOM     72  C   UNL     1      13.940   1.284  10.452  1.00  0.00     0.001 A 
ATOM     73  C   UNL     1      12.322   2.884   9.647  1.00  0.00     0.001 A 
ATOM     74  C   UNL     1      13.648   2.503   9.844  1.00  0.00     0.000 A 
ENDBRANCH  50  69
BRANCH  62  75
ATOM     75  C   UNL     1       9.300  -1.179  16.957  1.00  0.00    -0.014 A 
ATOM     76  C   UNL     1       9.121   0.081  17.546  1.00  0.00     0.009 A 
ATOM     77  C   UNL     1       9.914  -2.200  17.700  1.00  0.00     0.009 A 
ATOM     78  C   UNL     1       9.580   0.324  18.842  1.00  0.00     0.001 A 
ATOM     79  C   UNL     1      10.345  -1.962  19.006  1.00  0.00     0.001 A 
ATOM     80  C   UNL     1      10.186  -0.698  19.572  1.00  0.00     0.000 A 
ENDBRANCH  62  75
ENDBRANCH  36  37
ENDBRANCH  28  31
ENDBRANCH  26  27
ENDBRANCH   1  26
TORSDOF 13
