REMARK SMILES CC(C)C[C@H](NC(=O)[C@@H](NC(=O)N1CC(NCCCNC(=O)c2ccc(-c3c4nc(c(-c5ccccc5)c5ccc([nH]5)c(-c5ccccc5)c5nc(c(-c6ccccc6)c6ccc3[nH]6)C=C5)C=C4)cc2)=[NH+]c2ccccc21)C(C)C)C(=O)[O-]
REMARK SMILES IDX 13 1 14 2 15 3 16 4 71 5 72 6 73 7 74 8 75 9 76 10 77 11
REMARK SMILES IDX 11 14 10 15 12 17 9 18 7 19 6 20 8 22 5 23 4 24 2 25 1 26
REMARK SMILES IDX 3 27 81 28 82 29 83 30 78 31 79 32 80 33 17 34 18 35 19 36
REMARK SMILES IDX 20 37 21 38 22 40 23 41 24 42 70 43 25 44 69 45 26 46 27 47
REMARK SMILES IDX 28 48 63 49 29 50 68 51 62 52 64 53 30 54 67 55 61 56 60 57
REMARK SMILES IDX 31 59 53 60 38 61 52 62 39 63 42 64 51 65 65 66 40 67 41 68
REMARK SMILES IDX 50 70 66 71 43 72 32 73 33 74 37 75 34 76 36 77 35 78 54 79
REMARK SMILES IDX 55 80 59 81 56 82 58 83 57 84 44 85 45 86 49 87 46 88 48 89
REMARK SMILES IDX 47 90
REMARK H PARENT 16 12 71 13 10 16 6 21 20 39 64 58 42 69
REMARK Flexibility Score: inf
ROOT
ATOM      1  N   UNL     1       1.173  -4.465   0.332  1.00  0.00    -0.278 N 
ATOM      2  C   UNL     1       0.476  -4.690  -0.944  1.00  0.00     0.255 C 
ATOM      3  C   UNL     1       0.964  -3.603  -1.919  1.00  0.00     0.268 C 
ATOM      4  N   UNL     1       0.115  -2.933  -2.789  1.00  0.00    -0.277 N 
ATOM      5  N   UNL     1       2.235  -3.278  -1.938  1.00  0.00    -0.241 N 
ATOM      6  C   UNL     1       3.086  -3.930  -0.999  1.00  0.00     0.148 A 
ATOM      7  C   UNL     1       4.468  -3.830  -1.123  1.00  0.00     0.054 A 
ATOM      8  C   UNL     1       5.313  -4.412  -0.168  1.00  0.00     0.005 A 
ATOM      9  C   UNL     1       4.785  -5.122   0.912  1.00  0.00     0.002 A 
ATOM     10  C   UNL     1       3.408  -5.201   1.076  1.00  0.00     0.031 A 
ATOM     11  C   UNL     1       2.573  -4.574   0.148  1.00  0.00     0.093 A 
ATOM     12  H   UNL     1       0.378  -2.012  -3.017  1.00  0.00     0.304 HD
ATOM     13  H   UNL     1       2.586  -2.614  -2.574  1.00  0.00     0.312 HD
ENDROOT
BRANCH   1  14
ATOM     14  C   UNL     1       0.601  -4.655   1.555  1.00  0.00     0.323 C 
ATOM     15  N   UNL     1       0.276  -3.566   2.319  1.00  0.00    -0.326 N 
ATOM     16  H   UNL     1      -0.326  -3.808   3.060  1.00  0.00     0.166 HD
ATOM     17  O   UNL     1       0.335  -5.775   1.994  1.00  0.00    -0.248 OA
BRANCH  15  18
ATOM     18  C   UNL     1       0.596  -2.107   2.325  1.00  0.00     0.175 C 
BRANCH  18  19
ATOM     19  C   UNL     1      -0.554  -1.047   2.309  1.00  0.00     0.243 C 
ATOM     20  N   UNL     1      -1.834  -1.266   1.904  1.00  0.00    -0.346 N 
ATOM     21  H   UNL     1      -2.516  -1.154   2.605  1.00  0.00     0.164 HD
ATOM     22  O   UNL     1      -0.346   0.083   2.775  1.00  0.00    -0.273 OA
BRANCH  20  23
ATOM     23  C   UNL     1      -2.361  -1.646   0.579  1.00  0.00     0.128 C 
BRANCH  23  24
ATOM     24  C   UNL     1      -2.220  -3.126   0.238  1.00  0.00     0.034 C 
BRANCH  24  25
ATOM     25  C   UNL     1      -3.286  -4.168   0.634  1.00  0.00    -0.015 C 
ATOM     26  C   UNL     1      -4.404  -4.273  -0.407  1.00  0.00     0.007 C 
ATOM     27  C   UNL     1      -2.679  -5.577   0.717  1.00  0.00     0.007 C 
ENDBRANCH  24  25
ENDBRANCH  23  24
BRANCH  23  28
ATOM     28  C   UNL     1      -3.823  -1.204   0.463  1.00  0.00     0.064 C 
ATOM     29  O   UNL     1      -4.449  -1.054  -0.579  1.00  0.00    -0.548 OA
ATOM     30  O   UNL     1      -4.451  -1.129   1.657  1.00  0.00    -0.548 OA
ENDBRANCH  23  28
ENDBRANCH  20  23
ENDBRANCH  18  19
BRANCH  18  31
ATOM     31  C   UNL     1       1.920  -1.705   1.627  1.00  0.00     0.015 C 
ATOM     32  C   UNL     1       2.182  -0.223   1.351  1.00  0.00     0.010 C 
ATOM     33  C   UNL     1       3.106  -2.234   2.454  1.00  0.00     0.010 C 
ENDBRANCH  18  31
ENDBRANCH  15  18
ENDBRANCH   1  14
BRANCH   4  34
ATOM     34  C   UNL     1      -1.112  -3.412  -3.408  1.00  0.00     0.235 C 
BRANCH  34  35
ATOM     35  C   UNL     1      -2.250  -2.379  -3.378  1.00  0.00     0.067 C 
BRANCH  35  36
ATOM     36  C   UNL     1      -2.082  -1.115  -4.215  1.00  0.00     0.120 C 
BRANCH  36  37
ATOM     37  N   UNL     1      -2.313  -1.327  -5.632  1.00  0.00    -0.352 N 
ATOM     38  C   UNL     1      -3.210  -0.739  -6.496  1.00  0.00     0.251 C 
ATOM     39  H   UNL     1      -1.730  -2.004  -6.046  1.00  0.00     0.163 HD
ATOM     40  O   UNL     1      -3.315  -1.199  -7.632  1.00  0.00    -0.269 OA
BRANCH  38  41
ATOM     41  C   UNL     1      -4.070   0.410  -6.102  1.00  0.00     0.039 A 
ATOM     42  C   UNL     1      -5.367   0.477  -6.628  1.00  0.00     0.014 A 
ATOM     43  C   UNL     1      -3.615   1.456  -5.295  1.00  0.00     0.014 A 
ATOM     44  C   UNL     1      -6.215   1.543  -6.303  1.00  0.00     0.010 A 
ATOM     45  C   UNL     1      -4.485   2.486  -4.913  1.00  0.00     0.010 A 
ATOM     46  C   UNL     1      -5.796   2.543  -5.411  1.00  0.00    -0.014 A 
BRANCH  46  47
ATOM     47  C   UNL     1      -6.720   3.636  -4.989  1.00  0.00     0.031 A 
ATOM     48  C   UNL     1      -6.421   5.075  -5.323  1.00  0.00     0.074 A 
ATOM     49  C   UNL     1      -7.820   3.340  -4.265  1.00  0.00     0.049 A 
ATOM     50  N   UNL     1      -7.087   6.156  -4.995  1.00  0.00    -0.248 NA
ATOM     51  C   UNL     1      -5.211   5.338  -6.117  1.00  0.00     0.031 C 
ATOM     52  C   UNL     1      -8.226   1.996  -3.849  1.00  0.00     0.029 A 
ATOM     53  N   UNL     1      -8.799   4.154  -3.745  1.00  0.00    -0.354 N 
ATOM     54  C   UNL     1      -6.375   7.222  -5.534  1.00  0.00     0.074 A 
ATOM     55  C   UNL     1      -5.201   6.663  -6.169  1.00  0.00     0.031 C 
ATOM     56  C   UNL     1      -9.378   2.074  -3.165  1.00  0.00     0.029 A 
ATOM     57  C   UNL     1      -9.770   3.475  -3.048  1.00  0.00     0.049 A 
ATOM     58  H   UNL     1      -8.804   5.132  -3.862  1.00  0.00     0.167 HD
ATOM     59  C   UNL     1      -6.677   8.543  -5.521  1.00  0.00     0.031 A 
ATOM     60  C   UNL     1     -10.848   3.925  -2.376  1.00  0.00     0.031 A 
ATOM     61  C   UNL     1      -7.843   9.109  -4.892  1.00  0.00     0.049 A 
ATOM     62  C   UNL     1     -11.130   5.403  -2.335  1.00  0.00     0.074 A 
ATOM     63  C   UNL     1      -8.245  10.434  -4.857  1.00  0.00     0.029 A 
ATOM     64  N   UNL     1      -8.791   8.386  -4.187  1.00  0.00    -0.354 N 
ATOM     65  N   UNL     1     -10.474   6.387  -2.899  1.00  0.00    -0.248 NA
ATOM     66  C   UNL     1     -12.311   5.830  -1.569  1.00  0.00     0.031 C 
ATOM     67  C   UNL     1      -9.407  10.520  -4.084  1.00  0.00     0.029 A 
ATOM     68  C   UNL     1      -9.764   9.240  -3.694  1.00  0.00     0.049 A 
ATOM     69  H   UNL     1      -8.776   7.410  -4.056  1.00  0.00     0.167 HD
ATOM     70  C   UNL     1     -11.182   7.542  -2.588  1.00  0.00     0.074 A 
ATOM     71  C   UNL     1     -12.328   7.134  -1.804  1.00  0.00     0.031 C 
ATOM     72  C   UNL     1     -10.907   8.825  -2.923  1.00  0.00     0.031 A 
BRANCH  59  73
ATOM     73  C   UNL     1      -5.729   9.486  -6.213  1.00  0.00    -0.014 A 
ATOM     74  C   UNL     1      -5.625   9.511  -7.613  1.00  0.00     0.009 A 
ATOM     75  C   UNL     1      -4.984  10.409  -5.462  1.00  0.00     0.009 A 
ATOM     76  C   UNL     1      -4.776  10.423  -8.244  1.00  0.00     0.001 A 
ATOM     77  C   UNL     1      -4.159  11.340  -6.096  1.00  0.00     0.001 A 
ATOM     78  C   UNL     1      -4.050  11.341  -7.486  1.00  0.00     0.000 A 
ENDBRANCH  59  73
BRANCH  60  79
ATOM     79  C   UNL     1     -11.749   2.974  -1.668  1.00  0.00    -0.014 A 
ATOM     80  C   UNL     1     -13.077   2.797  -2.090  1.00  0.00     0.009 A 
ATOM     81  C   UNL     1     -11.303   2.279  -0.533  1.00  0.00     0.009 A 
ATOM     82  C   UNL     1     -13.948   1.980  -1.366  1.00  0.00     0.001 A 
ATOM     83  C   UNL     1     -12.166   1.433   0.167  1.00  0.00     0.001 A 
ATOM     84  C   UNL     1     -13.492   1.296  -0.240  1.00  0.00     0.000 A 
ENDBRANCH  60  79
BRANCH  72  85
ATOM     85  C   UNL     1     -11.888   9.879  -2.487  1.00  0.00    -0.014 A 
ATOM     86  C   UNL     1     -12.024  10.245  -1.138  1.00  0.00     0.009 A 
ATOM     87  C   UNL     1     -12.667  10.540  -3.450  1.00  0.00     0.009 A 
ATOM     88  C   UNL     1     -12.948  11.221  -0.760  1.00  0.00     0.001 A 
ATOM     89  C   UNL     1     -13.565  11.540  -3.074  1.00  0.00     0.001 A 
ATOM     90  C   UNL     1     -13.713  11.872  -1.728  1.00  0.00     0.000 A 
ENDBRANCH  72  85
ENDBRANCH  46  47
ENDBRANCH  38  41
ENDBRANCH  36  37
ENDBRANCH  35  36
ENDBRANCH  34  35
ENDBRANCH   4  34
TORSDOF 17
