REMARK SMILES COc1cc(OC)cc(-c2ccc([C@@H](C)C(=O)NCCCNC(=O)c3ccc(-c4c5nc(c(-c6ccccc6)c6ccc([nH]6)c(-c6ccccc6)c6nc(c(-c7ccccc7)c7ccc4[nH]7)C=C6)C=C5)cc3)cc2F)c1
REMARK SMILES IDX 19 1 18 2 16 3 17 4 14 6 15 7 13 8 10 9 11 10 74 11 12 12
REMARK SMILES IDX 73 13 75 14 9 15 3 16 4 17 76 18 5 19 8 20 2 21 1 22 6 23
REMARK SMILES IDX 7 24 20 25 21 26 22 27 23 28 24 30 25 31 26 32 72 33 27 34
REMARK SMILES IDX 71 35 28 36 29 37 30 38 65 39 31 40 70 41 64 42 66 43 32 44
REMARK SMILES IDX 69 45 63 46 62 47 33 49 55 50 40 51 54 52 41 53 44 54 53 55
REMARK SMILES IDX 67 56 42 57 43 58 52 60 68 61 45 62 34 63 35 64 39 65 36 66
REMARK SMILES IDX 38 67 37 68 56 69 57 70 61 71 58 72 60 73 59 74 46 75 47 76
REMARK SMILES IDX 51 77 48 78 50 79 49 80
REMARK H PARENT 18 5 22 29 66 48 44 59
REMARK Flexibility Score: inf
ROOT
ATOM      1  C   UNL     1       7.746   6.683  -1.401  1.00  0.00     0.117 C 
ENDROOT
BRANCH   1   2
ATOM      2  N   UNL     1       8.521   5.502  -1.072  1.00  0.00    -0.356 N 
ATOM      3  C   UNL     1       8.762   4.348  -1.751  1.00  0.00     0.227 C 
ATOM      4  O   UNL     1       9.428   3.494  -1.153  1.00  0.00    -0.274 OA
ATOM      5  H   UNL     1       8.957   5.544  -0.190  1.00  0.00     0.163 HD
BRANCH   3   6
ATOM      6  C   UNL     1       8.255   4.061  -3.173  1.00  0.00     0.105 C 
ATOM      7  C   UNL     1       8.721   5.063  -4.229  1.00  0.00     0.023 C 
BRANCH   6   8
ATOM      8  C   UNL     1       6.782   3.688  -3.214  1.00  0.00    -0.033 A 
ATOM      9  C   UNL     1       4.022   2.929  -3.108  1.00  0.00     0.018 A 
ATOM     10  C   UNL     1       4.420   4.267  -3.280  1.00  0.00     0.012 A 
ATOM     11  C   UNL     1       5.050   1.981  -3.015  1.00  0.00     0.131 A 
ATOM     12  C   UNL     1       5.767   4.634  -3.368  1.00  0.00     0.005 A 
ATOM     13  C   UNL     1       6.400   2.348  -3.050  1.00  0.00     0.044 A 
ATOM     14  F   UNL     1       4.763   0.675  -2.893  1.00  0.00    -0.206 F 
BRANCH   9  15
ATOM     15  C   UNL     1       2.585   2.577  -3.043  1.00  0.00    -0.008 A 
ATOM     16  C   UNL     1       0.727   1.300  -2.104  1.00  0.00     0.123 A 
ATOM     17  C   UNL     1      -0.163   1.975  -2.940  1.00  0.00     0.092 A 
ATOM     18  C   UNL     1       2.092   1.597  -2.160  1.00  0.00     0.055 A 
ATOM     19  C   UNL     1       0.290   2.956  -3.818  1.00  0.00     0.123 A 
ATOM     20  C   UNL     1       1.655   3.242  -3.870  1.00  0.00     0.055 A 
BRANCH  16  21
ATOM     21  O   UNL     1       0.154   0.345  -1.307  1.00  0.00    -0.497 OA
ATOM     22  C   UNL     1       0.826   0.070  -0.084  1.00  0.00     0.278 C 
ENDBRANCH  16  21
BRANCH  19  23
ATOM     23  O   UNL     1      -0.682   3.562  -4.566  1.00  0.00    -0.497 OA
ATOM     24  C   UNL     1      -0.256   4.560  -5.486  1.00  0.00     0.278 C 
ENDBRANCH  19  23
ENDBRANCH   9  15
ENDBRANCH   6   8
ENDBRANCH   3   6
ENDBRANCH   1   2
BRANCH   1  25
ATOM     25  C   UNL     1       6.355   6.660  -0.770  1.00  0.00     0.042 C 
BRANCH  25  26
ATOM     26  C   UNL     1       6.327   7.087   0.692  1.00  0.00     0.118 C 
BRANCH  26  27
ATOM     27  N   UNL     1       6.579   8.512   0.856  1.00  0.00    -0.352 N 
ATOM     28  C   UNL     1       5.788   9.514   1.360  1.00  0.00     0.251 C 
ATOM     29  H   UNL     1       7.469   8.806   0.554  1.00  0.00     0.163 HD
ATOM     30  O   UNL     1       6.139  10.681   1.207  1.00  0.00    -0.269 OA
BRANCH  28  31
ATOM     31  C   UNL     1       4.521   9.223   2.072  1.00  0.00     0.039 A 
ATOM     32  C   UNL     1       3.450  10.112   1.920  1.00  0.00     0.014 A 
ATOM     33  C   UNL     1       4.393   8.137   2.941  1.00  0.00     0.014 A 
ATOM     34  C   UNL     1       2.247   9.886   2.595  1.00  0.00     0.010 A 
ATOM     35  C   UNL     1       3.169   7.868   3.552  1.00  0.00     0.010 A 
ATOM     36  C   UNL     1       2.087   8.747   3.398  1.00  0.00    -0.014 A 
BRANCH  36  37
ATOM     37  C   UNL     1       0.808   8.472   4.102  1.00  0.00     0.031 A 
ATOM     38  C   UNL     1       0.758   8.458   5.607  1.00  0.00     0.074 A 
ATOM     39  C   UNL     1      -0.298   8.176   3.392  1.00  0.00     0.049 A 
ATOM     40  N   UNL     1      -0.245   8.173   6.398  1.00  0.00    -0.248 NA
ATOM     41  C   UNL     1       2.007   8.783   6.315  1.00  0.00     0.031 C 
ATOM     42  C   UNL     1      -0.378   8.119   1.931  1.00  0.00     0.029 A 
ATOM     43  N   UNL     1      -1.567   7.859   3.808  1.00  0.00    -0.354 N 
ATOM     44  C   UNL     1       0.257   8.258   7.691  1.00  0.00     0.074 A 
ATOM     45  C   UNL     1       1.663   8.579   7.578  1.00  0.00     0.031 C 
ATOM     46  C   UNL     1      -1.635   7.812   1.573  1.00  0.00     0.029 A 
ATOM     47  C   UNL     1      -2.438   7.613   2.775  1.00  0.00     0.049 A 
ATOM     48  H   UNL     1      -1.828   7.812   4.756  1.00  0.00     0.167 HD
ATOM     49  C   UNL     1      -0.395   8.099   8.868  1.00  0.00     0.031 A 
ATOM     50  C   UNL     1      -3.738   7.262   2.792  1.00  0.00     0.031 A 
ATOM     51  C   UNL     1      -1.797   7.801   8.986  1.00  0.00     0.049 A 
ATOM     52  C   UNL     1      -4.440   7.097   4.110  1.00  0.00     0.074 A 
ATOM     53  C   UNL     1      -2.560   7.681  10.134  1.00  0.00     0.029 A 
ATOM     54  N   UNL     1      -2.647   7.577   7.914  1.00  0.00    -0.354 N 
ATOM     55  N   UNL     1      -3.964   7.240   5.323  1.00  0.00    -0.248 NA
ATOM     56  C   UNL     1      -5.863   6.731   4.059  1.00  0.00     0.031 C 
ATOM     57  C   UNL     1      -3.865   7.343   9.758  1.00  0.00     0.029 A 
ATOM     58  C   UNL     1      -3.923   7.301   8.374  1.00  0.00     0.049 A 
ATOM     59  H   UNL     1      -2.382   7.609   6.966  1.00  0.00     0.167 HD
ATOM     60  C   UNL     1      -5.033   7.009   6.178  1.00  0.00     0.074 A 
ATOM     61  C   UNL     1      -6.185   6.730   5.346  1.00  0.00     0.031 C 
ATOM     62  C   UNL     1      -5.058   7.026   7.533  1.00  0.00     0.031 A 
BRANCH  49  63
ATOM     63  C   UNL     1       0.413   8.241  10.129  1.00  0.00    -0.014 A 
ATOM     64  C   UNL     1       0.894   9.492  10.548  1.00  0.00     0.009 A 
ATOM     65  C   UNL     1       0.674   7.113  10.922  1.00  0.00     0.009 A 
ATOM     66  C   UNL     1       1.653   9.603  11.715  1.00  0.00     0.001 A 
ATOM     67  C   UNL     1       1.410   7.231  12.103  1.00  0.00     0.001 A 
ATOM     68  C   UNL     1       1.907   8.474  12.493  1.00  0.00     0.000 A 
ENDBRANCH  49  63
BRANCH  50  69
ATOM     69  C   UNL     1      -4.469   7.064   1.514  1.00  0.00    -0.014 A 
ATOM     70  C   UNL     1      -5.424   8.001   1.091  1.00  0.00     0.009 A 
ATOM     71  C   UNL     1      -4.215   5.942   0.710  1.00  0.00     0.009 A 
ATOM     72  C   UNL     1      -6.127   7.806  -0.100  1.00  0.00     0.001 A 
ATOM     73  C   UNL     1      -4.900   5.764  -0.493  1.00  0.00     0.001 A 
ATOM     74  C   UNL     1      -5.861   6.691  -0.893  1.00  0.00     0.000 A 
ENDBRANCH  50  69
BRANCH  62  75
ATOM     75  C   UNL     1      -6.380   6.769   8.198  1.00  0.00    -0.014 A 
ATOM     76  C   UNL     1      -6.934   5.480   8.241  1.00  0.00     0.009 A 
ATOM     77  C   UNL     1      -7.061   7.826   8.821  1.00  0.00     0.009 A 
ATOM     78  C   UNL     1      -8.161   5.262   8.870  1.00  0.00     0.001 A 
ATOM     79  C   UNL     1      -8.275   7.600   9.472  1.00  0.00     0.001 A 
ATOM     80  C   UNL     1      -8.828   6.320   9.488  1.00  0.00     0.000 A 
ENDBRANCH  62  75
ENDBRANCH  36  37
ENDBRANCH  28  31
ENDBRANCH  26  27
ENDBRANCH  25  26
ENDBRANCH   1  25
TORSDOF 14
