REMARK SMILES CS(=O)(=O)c1ccc(C2=NN(c3ccc(C(=O)NCCCNC(=O)c4ccc(-c5c6nc(c(-c7ccccc7)c7ccc([nH]7)c(-c7ccccc7)c7nc(c(-c8ccccc8)c8ccc5[nH]8)C=C7)C=C6)cc4)cc3)[C@H](c3ccc(F)cc3)C2)cc1
REMARK SMILES IDX 19 1 18 2 16 3 17 4 15 6 12 7 13 8 74 9 14 10 73 11 11 12
REMARK SMILES IDX 9 13 10 14 83 15 75 16 8 17 5 18 6 19 85 20 7 21 84 22 2 23
REMARK SMILES IDX 1 24 3 25 4 26 76 27 77 28 82 29 78 30 81 31 79 32 80 33
REMARK SMILES IDX 20 34 21 35 22 36 23 37 24 39 25 40 26 41 72 42 27 43 71 44
REMARK SMILES IDX 28 45 29 46 30 47 65 48 31 49 70 50 64 51 66 52 32 53 69 54
REMARK SMILES IDX 63 55 62 56 33 58 55 59 40 60 54 61 41 62 44 63 53 64 67 65
REMARK SMILES IDX 42 66 43 67 52 69 68 70 45 71 34 72 35 73 39 74 36 75 38 76
REMARK SMILES IDX 37 77 56 78 57 79 61 80 58 81 60 82 59 83 46 84 47 85 51 86
REMARK SMILES IDX 48 87 50 88 49 89
REMARK H PARENT 18 5 22 38 66 57 44 68
REMARK Flexibility Score: inf
ROOT
ATOM      1  C   UNL     1       6.856   7.900  10.688  1.00  0.00     0.118 C 
ENDROOT
BRANCH   1   2
ATOM      2  N   UNL     1       7.876   7.855   9.654  1.00  0.00    -0.352 N 
ATOM      3  C   UNL     1       7.781   7.591   8.309  1.00  0.00     0.251 C 
ATOM      4  O   UNL     1       8.777   7.757   7.607  1.00  0.00    -0.269 OA
ATOM      5  H   UNL     1       8.789   8.045   9.970  1.00  0.00     0.163 HD
BRANCH   3   6
ATOM      6  C   UNL     1       6.506   7.164   7.679  1.00  0.00     0.039 A 
ATOM      7  C   UNL     1       4.091   6.455   6.416  1.00  0.00     0.060 A 
ATOM      8  C   UNL     1       5.012   7.285   5.769  1.00  0.00     0.029 A 
ATOM      9  C   UNL     1       4.420   5.939   7.671  1.00  0.00     0.029 A 
ATOM     10  C   UNL     1       6.213   7.639   6.394  1.00  0.00     0.016 A 
ATOM     11  C   UNL     1       5.624   6.273   8.289  1.00  0.00     0.016 A 
BRANCH   7  12
ATOM     12  N   UNL     1       2.870   6.120   5.851  1.00  0.00    -0.257 N 
ATOM     13  C   UNL     1       1.769   5.398   4.185  1.00  0.00     0.071 C 
ATOM     14  N   UNL     1       2.856   5.202   4.860  1.00  0.00    -0.176 NA
ATOM     15  C   UNL     1       0.922   6.560   4.624  1.00  0.00     0.091 C 
ATOM     16  C   UNL     1       1.731   7.044   5.841  1.00  0.00     0.144 C 
BRANCH  13  17
ATOM     17  C   UNL     1       1.389   4.519   3.071  1.00  0.00    -0.002 A 
ATOM     18  C   UNL     1       0.781   2.765   1.002  1.00  0.00     0.067 A 
ATOM     19  C   UNL     1       1.242   2.256   2.216  1.00  0.00     0.021 A 
ATOM     20  C   UNL     1       0.631   4.147   0.816  1.00  0.00     0.021 A 
ATOM     21  C   UNL     1       1.558   3.140   3.247  1.00  0.00     0.011 A 
ATOM     22  C   UNL     1       0.925   5.030   1.859  1.00  0.00     0.011 A 
BRANCH  18  23
ATOM     23  S   UNL     1       0.388   1.698  -0.366  1.00  0.00     0.175 S 
ATOM     24  C   UNL     1       1.135   0.126  -0.038  1.00  0.00     0.163 C 
ATOM     25  O   UNL     1       1.051   2.256  -1.526  1.00  0.00    -0.224 OA
ATOM     26  O   UNL     1      -1.054   1.522  -0.334  1.00  0.00    -0.224 OA
ENDBRANCH  18  23
ENDBRANCH  13  17
BRANCH  16  27
ATOM     27  C   UNL     1       1.052   7.042   7.209  1.00  0.00    -0.023 A 
ATOM     28  C   UNL     1      -0.038   6.221   7.541  1.00  0.00     0.009 A 
ATOM     29  C   UNL     1       1.604   7.849   8.229  1.00  0.00     0.009 A 
ATOM     30  C   UNL     1      -0.566   6.220   8.838  1.00  0.00     0.039 A 
ATOM     31  C   UNL     1       1.094   7.828   9.528  1.00  0.00     0.039 A 
ATOM     32  C   UNL     1       0.010   7.016   9.820  1.00  0.00     0.123 A 
ATOM     33  F   UNL     1      -0.479   6.988  11.067  1.00  0.00    -0.207 F 
ENDBRANCH  16  27
ENDBRANCH   7  12
ENDBRANCH   3   6
ENDBRANCH   1   2
BRANCH   1  34
ATOM     34  C   UNL     1       6.915   6.675  11.599  1.00  0.00     0.042 C 
BRANCH  34  35
ATOM     35  C   UNL     1       8.107   6.665  12.550  1.00  0.00     0.118 C 
BRANCH  35  36
ATOM     36  N   UNL     1       8.001   7.692  13.574  1.00  0.00    -0.352 N 
ATOM     37  C   UNL     1       8.036   7.593  14.941  1.00  0.00     0.251 C 
ATOM     38  H   UNL     1       7.885   8.607  13.229  1.00  0.00     0.163 HD
ATOM     39  O   UNL     1       7.719   8.571  15.615  1.00  0.00    -0.269 OA
BRANCH  37  40
ATOM     40  C   UNL     1       8.434   6.338  15.619  1.00  0.00     0.039 A 
ATOM     41  C   UNL     1       7.791   6.004  16.816  1.00  0.00     0.014 A 
ATOM     42  C   UNL     1       9.466   5.525  15.140  1.00  0.00     0.014 A 
ATOM     43  C   UNL     1       8.154   4.846  17.506  1.00  0.00     0.010 A 
ATOM     44  C   UNL     1       9.779   4.331  15.791  1.00  0.00     0.010 A 
ATOM     45  C   UNL     1       9.135   3.985  16.987  1.00  0.00    -0.014 A 
BRANCH  45  46
ATOM     46  C   UNL     1       9.473   2.722  17.692  1.00  0.00     0.031 A 
ATOM     47  C   UNL     1      10.832   2.517  18.304  1.00  0.00     0.074 A 
ATOM     48  C   UNL     1       8.549   1.744  17.768  1.00  0.00     0.049 A 
ATOM     49  N   UNL     1      11.277   1.500  19.000  1.00  0.00    -0.248 NA
ATOM     50  C   UNL     1      11.826   3.580  18.093  1.00  0.00     0.031 C 
ATOM     51  C   UNL     1       7.212   1.796  17.172  1.00  0.00     0.029 A 
ATOM     52  N   UNL     1       8.590   0.520  18.386  1.00  0.00    -0.354 N 
ATOM     53  C   UNL     1      12.601   1.796  19.300  1.00  0.00     0.074 A 
ATOM     54  C   UNL     1      12.902   3.063  18.670  1.00  0.00     0.031 C 
ATOM     55  C   UNL     1       6.546   0.675  17.490  1.00  0.00     0.029 A 
ATOM     56  C   UNL     1       7.416  -0.185  18.284  1.00  0.00     0.049 A 
ATOM     57  H   UNL     1       9.385   0.180  18.857  1.00  0.00     0.167 HD
ATOM     58  C   UNL     1      13.482   1.088  20.047  1.00  0.00     0.031 A 
ATOM     59  C   UNL     1       7.071  -1.386  18.785  1.00  0.00     0.031 A 
ATOM     60  C   UNL     1      13.184  -0.172  20.677  1.00  0.00     0.049 A 
ATOM     61  C   UNL     1       8.060  -2.143  19.625  1.00  0.00     0.074 A 
ATOM     62  C   UNL     1      13.993  -0.941  21.496  1.00  0.00     0.029 A 
ATOM     63  N   UNL     1      11.981  -0.849  20.556  1.00  0.00    -0.354 N 
ATOM     64  N   UNL     1       9.282  -1.812  19.962  1.00  0.00    -0.248 NA
ATOM     65  C   UNL     1       7.609  -3.431  20.170  1.00  0.00     0.031 C 
ATOM     66  C   UNL     1      13.295  -2.106  21.834  1.00  0.00     0.029 A 
ATOM     67  C   UNL     1      12.031  -2.035  21.270  1.00  0.00     0.049 A 
ATOM     68  H   UNL     1      11.204  -0.533  20.039  1.00  0.00     0.167 HD
ATOM     69  C   UNL     1       9.739  -2.837  20.780  1.00  0.00     0.074 A 
ATOM     70  C   UNL     1       8.653  -3.788  20.905  1.00  0.00     0.031 C 
ATOM     71  C   UNL     1      10.947  -2.977  21.377  1.00  0.00     0.031 A 
BRANCH  58  72
ATOM     72  C   UNL     1      14.862   1.662  20.218  1.00  0.00    -0.014 A 
ATOM     73  C   UNL     1      15.082   2.806  21.004  1.00  0.00     0.009 A 
ATOM     74  C   UNL     1      15.963   1.032  19.617  1.00  0.00     0.009 A 
ATOM     75  C   UNL     1      16.369   3.327  21.153  1.00  0.00     0.001 A 
ATOM     76  C   UNL     1      17.253   1.539  19.791  1.00  0.00     0.001 A 
ATOM     77  C   UNL     1      17.453   2.691  20.550  1.00  0.00     0.000 A 
ENDBRANCH  58  72
BRANCH  59  78
ATOM     78  C   UNL     1       5.711  -1.929  18.538  1.00  0.00    -0.014 A 
ATOM     79  C   UNL     1       4.771  -1.992  19.579  1.00  0.00     0.009 A 
ATOM     80  C   UNL     1       5.344  -2.384  17.263  1.00  0.00     0.009 A 
ATOM     81  C   UNL     1       3.500  -2.526  19.352  1.00  0.00     0.001 A 
ATOM     82  C   UNL     1       4.064  -2.891  17.033  1.00  0.00     0.001 A 
ATOM     83  C   UNL     1       3.146  -2.970  18.079  1.00  0.00     0.000 A 
ENDBRANCH  59  78
BRANCH  71  84
ATOM     84  C   UNL     1      11.142  -4.190  22.243  1.00  0.00    -0.014 A 
ATOM     85  C   UNL     1      11.255  -5.474  21.686  1.00  0.00     0.009 A 
ATOM     86  C   UNL     1      11.220  -4.043  23.636  1.00  0.00     0.009 A 
ATOM     87  C   UNL     1      11.396  -6.591  22.513  1.00  0.00     0.001 A 
ATOM     88  C   UNL     1      11.391  -5.158  24.458  1.00  0.00     0.001 A 
ATOM     89  C   UNL     1      11.466  -6.432  23.896  1.00  0.00     0.000 A 
ENDBRANCH  71  84
ENDBRANCH  45  46
ENDBRANCH  37  40
ENDBRANCH  35  36
ENDBRANCH  34  35
ENDBRANCH   1  34
TORSDOF 14
