REMARK SMILES COc1ccc(C(=O)NCCCNC(=O)c2ccc(-c3c4nc(c(-c5ccccc5)c5ccc([nH]5)c(-c5ccccc5)c5nc(c(-c6ccccc6)c6ccc3[nH]6)C=C5)C=C4)cc2)cc1NC(=O)c1ccccc1Cl
REMARK SMILES IDX 11 1 10 2 9 3 7 4 8 5 6 7 3 8 4 9 65 10 5 11 64 12 2 13 1 14
REMARK SMILES IDX 66 15 67 16 68 18 69 19 70 20 74 21 71 22 73 23 75 24 72 25
REMARK SMILES IDX 12 26 13 27 14 28 15 30 16 31 17 32 63 33 18 34 62 35 19 36
REMARK SMILES IDX 20 37 21 38 56 39 22 40 61 41 55 42 57 43 23 44 60 45 54 46
REMARK SMILES IDX 53 47 24 49 46 50 31 51 45 52 32 53 35 54 44 55 58 56 33 57
REMARK SMILES IDX 34 58 43 60 59 61 36 62 25 63 26 64 30 65 27 66 29 67 28 68
REMARK SMILES IDX 47 69 48 70 52 71 49 72 51 73 50 74 37 75 38 76 42 77 39 78
REMARK SMILES IDX 41 79 40 80
REMARK H PARENT 9 6 66 17 13 29 57 48 35 59
REMARK Flexibility Score: inf
ROOT
ATOM      1  C   UNL     1       5.331   6.644   0.530  1.00  0.00     0.042 C 
ENDROOT
BRANCH   1   2
ATOM      2  C   UNL     1       4.146   6.517   1.482  1.00  0.00     0.118 C 
BRANCH   2   3
ATOM      3  N   UNL     1       2.947   7.069   0.898  1.00  0.00    -0.352 N 
ATOM      4  C   UNL     1       1.814   6.497   0.389  1.00  0.00     0.251 C 
ATOM      5  O   UNL     1       0.910   7.273   0.071  1.00  0.00    -0.269 OA
ATOM      6  H   UNL     1       2.945   8.052   0.857  1.00  0.00     0.163 HD
BRANCH   4   7
ATOM      7  C   UNL     1       1.600   5.027   0.213  1.00  0.00     0.042 A 
ATOM      8  C   UNL     1       0.960   2.348  -0.344  1.00  0.00     0.142 A 
ATOM      9  C   UNL     1      -0.052   3.299  -0.271  1.00  0.00     0.049 A 
ATOM     10  C   UNL     1       2.297   2.707  -0.095  1.00  0.00     0.084 A 
ATOM     11  C   UNL     1       0.265   4.621   0.039  1.00  0.00     0.018 A 
ATOM     12  C   UNL     1       2.611   4.057   0.117  1.00  0.00     0.044 A 
BRANCH   8  13
ATOM     13  O   UNL     1       0.602   1.097  -0.781  1.00  0.00    -0.495 OA
ATOM     14  C   UNL     1       0.637   0.104   0.243  1.00  0.00     0.278 C 
ENDBRANCH   8  13
BRANCH  10  15
ATOM     15  N   UNL     1       3.260   1.683  -0.124  1.00  0.00    -0.319 N 
ATOM     16  C   UNL     1       4.490   1.522   0.464  1.00  0.00     0.257 C 
ATOM     17  H   UNL     1       2.996   0.919  -0.685  1.00  0.00     0.170 HD
ATOM     18  O   UNL     1       5.155   0.522   0.186  1.00  0.00    -0.269 OA
BRANCH  16  19
ATOM     19  C   UNL     1       5.069   2.466   1.437  1.00  0.00     0.058 A 
ATOM     20  C   UNL     1       6.360   2.935   1.138  1.00  0.00     0.015 A 
ATOM     21  C   UNL     1       4.482   2.805   2.662  1.00  0.00     0.053 A 
ATOM     22  C   UNL     1       7.032   3.779   2.023  1.00  0.00     0.001 A 
ATOM     23  C   UNL     1       5.155   3.671   3.538  1.00  0.00     0.021 A 
ATOM     24  Cl  UNL     1       2.965   2.173   3.190  1.00  0.00    -0.083 Cl
ATOM     25  C   UNL     1       6.423   4.161   3.215  1.00  0.00     0.002 A 
ENDBRANCH  16  19
ENDBRANCH  10  15
ENDBRANCH   4   7
ENDBRANCH   2   3
ENDBRANCH   1   2
BRANCH   1  26
ATOM     26  C   UNL     1       6.303   7.749   0.924  1.00  0.00     0.118 C 
BRANCH  26  27
ATOM     27  N   UNL     1       6.896   7.551   2.245  1.00  0.00    -0.352 N 
ATOM     28  C   UNL     1       8.209   7.480   2.646  1.00  0.00     0.251 C 
ATOM     29  H   UNL     1       6.242   7.451   2.974  1.00  0.00     0.163 HD
ATOM     30  O   UNL     1       8.471   7.141   3.793  1.00  0.00    -0.269 OA
BRANCH  28  31
ATOM     31  C   UNL     1       9.301   7.777   1.696  1.00  0.00     0.039 A 
ATOM     32  C   UNL     1      10.473   7.014   1.744  1.00  0.00     0.014 A 
ATOM     33  C   UNL     1       9.177   8.806   0.765  1.00  0.00     0.014 A 
ATOM     34  C   UNL     1      11.483   7.235   0.805  1.00  0.00     0.010 A 
ATOM     35  C   UNL     1      10.128   8.950  -0.234  1.00  0.00     0.010 A 
ATOM     36  C   UNL     1      11.297   8.176  -0.219  1.00  0.00    -0.014 A 
BRANCH  36  37
ATOM     37  C   UNL     1      12.307   8.405  -1.282  1.00  0.00     0.031 A 
ATOM     38  C   UNL     1      12.899   9.778  -1.456  1.00  0.00     0.074 A 
ATOM     39  C   UNL     1      12.598   7.423  -2.156  1.00  0.00     0.049 A 
ATOM     40  N   UNL     1      13.649  10.241  -2.422  1.00  0.00    -0.248 NA
ATOM     41  C   UNL     1      12.559  10.777  -0.428  1.00  0.00     0.031 C 
ATOM     42  C   UNL     1      12.056   6.063  -2.121  1.00  0.00     0.029 A 
ATOM     43  N   UNL     1      13.406   7.429  -3.265  1.00  0.00    -0.354 N 
ATOM     44  C   UNL     1      13.838  11.588  -2.136  1.00  0.00     0.074 A 
ATOM     45  C   UNL     1      13.073  11.881  -0.946  1.00  0.00     0.031 C 
ATOM     46  C   UNL     1      12.558   5.363  -3.150  1.00  0.00     0.029 A 
ATOM     47  C   UNL     1      13.414   6.236  -3.945  1.00  0.00     0.049 A 
ATOM     48  H   UNL     1      13.930   8.214  -3.546  1.00  0.00     0.167 HD
ATOM     49  C   UNL     1      14.600  12.495  -2.792  1.00  0.00     0.031 A 
ATOM     50  C   UNL     1      14.027   5.889  -5.093  1.00  0.00     0.031 A 
ATOM     51  C   UNL     1      15.372  12.191  -3.966  1.00  0.00     0.049 A 
ATOM     52  C   UNL     1      14.867   6.912  -5.807  1.00  0.00     0.074 A 
ATOM     53  C   UNL     1      16.225  13.016  -4.676  1.00  0.00     0.029 A 
ATOM     54  N   UNL     1      15.385  10.957  -4.600  1.00  0.00    -0.354 N 
ATOM     55  N   UNL     1      15.086   8.166  -5.492  1.00  0.00    -0.248 NA
ATOM     56  C   UNL     1      15.553   6.467  -7.028  1.00  0.00     0.031 C 
ATOM     57  C   UNL     1      16.714  12.296  -5.771  1.00  0.00     0.029 A 
ATOM     58  C   UNL     1      16.216  11.004  -5.706  1.00  0.00     0.049 A 
ATOM     59  H   UNL     1      14.878  10.165  -4.307  1.00  0.00     0.167 HD
ATOM     60  C   UNL     1      15.957   8.652  -6.459  1.00  0.00     0.074 A 
ATOM     61  C   UNL     1      16.237   7.553  -7.360  1.00  0.00     0.031 C 
ATOM     62  C   UNL     1      16.480   9.897  -6.589  1.00  0.00     0.031 A 
BRANCH  49  63
ATOM     63  C   UNL     1      14.622  13.899  -2.249  1.00  0.00    -0.014 A 
ATOM     64  C   UNL     1      15.197  14.190  -1.000  1.00  0.00     0.009 A 
ATOM     65  C   UNL     1      14.066  14.948  -2.997  1.00  0.00     0.009 A 
ATOM     66  C   UNL     1      15.166  15.489  -0.489  1.00  0.00     0.001 A 
ATOM     67  C   UNL     1      14.070  16.253  -2.500  1.00  0.00     0.001 A 
ATOM     68  C   UNL     1      14.606  16.520  -1.241  1.00  0.00     0.000 A 
ENDBRANCH  49  63
BRANCH  50  69
ATOM     69  C   UNL     1      13.875   4.511  -5.629  1.00  0.00    -0.014 A 
ATOM     70  C   UNL     1      14.955   3.615  -5.606  1.00  0.00     0.009 A 
ATOM     71  C   UNL     1      12.647   4.077  -6.152  1.00  0.00     0.009 A 
ATOM     72  C   UNL     1      14.815   2.323  -6.119  1.00  0.00     0.001 A 
ATOM     73  C   UNL     1      12.501   2.774  -6.635  1.00  0.00     0.001 A 
ATOM     74  C   UNL     1      13.587   1.901  -6.627  1.00  0.00     0.000 A 
ENDBRANCH  50  69
BRANCH  62  75
ATOM     75  C   UNL     1      17.438  10.125  -7.723  1.00  0.00    -0.014 A 
ATOM     76  C   UNL     1      16.997  10.183  -9.054  1.00  0.00     0.009 A 
ATOM     77  C   UNL     1      18.798  10.338  -7.447  1.00  0.00     0.009 A 
ATOM     78  C   UNL     1      17.905  10.420 -10.088  1.00  0.00     0.001 A 
ATOM     79  C   UNL     1      19.698  10.606  -8.478  1.00  0.00     0.001 A 
ATOM     80  C   UNL     1      19.252  10.638  -9.799  1.00  0.00     0.000 A 
ENDBRANCH  62  75
ENDBRANCH  36  37
ENDBRANCH  28  31
ENDBRANCH  26  27
ENDBRANCH   1  26
TORSDOF 13
