REMARK SMILES O=C(NCCCNC(=O)c1cc(-c2ccccc2)nc(Nc2nc3ccccc3s2)n1)c1ccc(-c2c3nc(c(-c4ccccc4)c4ccc([nH]4)c(-c4ccccc4)c4nc(c(-c5ccccc5)c5ccc2[nH]5)C=C4)C=C3)cc1
REMARK SMILES IDX 5 1 4 2 3 3 1 4 2 5 32 7 33 8 79 9 34 10 78 11 35 12 36 13
REMARK SMILES IDX 37 14 72 15 38 16 77 17 71 18 73 19 39 20 76 21 70 22 69 23
REMARK SMILES IDX 40 25 62 26 47 27 61 28 48 29 51 30 60 31 74 32 49 33 50 34
REMARK SMILES IDX 59 36 75 37 52 38 41 39 42 40 46 41 43 42 45 43 44 44 63 45
REMARK SMILES IDX 64 46 68 47 65 48 67 49 66 50 53 51 54 52 58 53 55 54 57 55
REMARK SMILES IDX 56 56 6 57 7 58 8 59 9 61 10 62 11 63 31 64 12 65 20 66
REMARK SMILES IDX 19 67 13 68 14 69 18 70 15 71 17 72 16 73 21 74 22 76 23 77
REMARK SMILES IDX 30 78 24 79 29 80 25 81 28 82 26 83 27 84
REMARK H PARENT 3 6 73 24 51 35 7 60 21 75
REMARK Flexibility Score: inf
ROOT
ATOM      1  C   UNL     1       4.937  -2.510   0.419  1.00  0.00     0.042 C 
ENDROOT
BRANCH   1   2
ATOM      2  C   UNL     1       4.590  -1.338  -0.488  1.00  0.00     0.118 C 
BRANCH   2   3
ATOM      3  N   UNL     1       3.159  -1.070  -0.554  1.00  0.00    -0.352 N 
ATOM      4  O   UNL     1       1.198  -0.064  -0.109  1.00  0.00    -0.269 OA
ATOM      5  C   UNL     1       2.421  -0.006  -0.091  1.00  0.00     0.251 C 
ATOM      6  H   UNL     1       2.632  -1.767  -1.007  1.00  0.00     0.163 HD
BRANCH   5   7
ATOM      7  C   UNL     1       3.093   1.192   0.458  1.00  0.00     0.039 A 
ATOM      8  C   UNL     1       4.231   1.723  -0.148  1.00  0.00     0.014 A 
ATOM      9  C   UNL     1       2.560   1.808   1.595  1.00  0.00     0.014 A 
ATOM     10  C   UNL     1       4.941   2.737   0.482  1.00  0.00     0.010 A 
ATOM     11  C   UNL     1       3.217   2.901   2.169  1.00  0.00     0.010 A 
ATOM     12  C   UNL     1       4.442   3.342   1.646  1.00  0.00    -0.014 A 
BRANCH  12  13
ATOM     13  C   UNL     1       5.207   4.449   2.274  1.00  0.00     0.031 A 
ATOM     14  C   UNL     1       5.780   4.311   3.658  1.00  0.00     0.074 A 
ATOM     15  C   UNL     1       5.426   5.575   1.566  1.00  0.00     0.049 A 
ATOM     16  N   UNL     1       6.519   5.158   4.332  1.00  0.00    -0.248 NA
ATOM     17  C   UNL     1       5.483   3.067   4.386  1.00  0.00     0.031 C 
ATOM     18  C   UNL     1       4.924   5.832   0.213  1.00  0.00     0.029 A 
ATOM     19  N   UNL     1       6.152   6.697   1.870  1.00  0.00    -0.354 N 
ATOM     20  C   UNL     1       6.747   4.566   5.568  1.00  0.00     0.074 A 
ATOM     21  C   UNL     1       6.051   3.297   5.561  1.00  0.00     0.031 C 
ATOM     22  C   UNL     1       5.412   7.003  -0.220  1.00  0.00     0.029 A 
ATOM     23  C   UNL     1       6.205   7.608   0.843  1.00  0.00     0.049 A 
ATOM     24  H   UNL     1       6.591   6.837   2.740  1.00  0.00     0.167 HD
ATOM     25  C   UNL     1       7.473   5.034   6.612  1.00  0.00     0.031 A 
ATOM     26  C   UNL     1       6.821   8.801   0.763  1.00  0.00     0.031 A 
ATOM     27  C   UNL     1       8.176   6.290   6.616  1.00  0.00     0.049 A 
ATOM     28  C   UNL     1       7.603   9.303   1.940  1.00  0.00     0.074 A 
ATOM     29  C   UNL     1       8.971   6.831   7.612  1.00  0.00     0.029 A 
ATOM     30  N   UNL     1       8.168   7.203   5.572  1.00  0.00    -0.354 N 
ATOM     31  N   UNL     1       7.833   8.715   3.088  1.00  0.00    -0.248 NA
ATOM     32  C   UNL     1       8.210  10.633   1.806  1.00  0.00     0.031 C 
ATOM     33  C   UNL     1       9.403   8.094   7.191  1.00  0.00     0.029 A 
ATOM     34  C   UNL     1       8.923   8.314   5.910  1.00  0.00     0.049 A 
ATOM     35  H   UNL     1       7.695   7.079   4.718  1.00  0.00     0.167 HD
ATOM     36  C   UNL     1       8.632   9.593   3.807  1.00  0.00     0.074 A 
ATOM     37  C   UNL     1       8.858  10.746   2.958  1.00  0.00     0.031 C 
ATOM     38  C   UNL     1       9.136   9.455   5.057  1.00  0.00     0.031 A 
BRANCH  25  39
ATOM     39  C   UNL     1       7.512   4.193   7.859  1.00  0.00    -0.014 A 
ATOM     40  C   UNL     1       8.232   2.989   7.912  1.00  0.00     0.009 A 
ATOM     41  C   UNL     1       6.837   4.630   9.011  1.00  0.00     0.009 A 
ATOM     42  C   UNL     1       8.243   2.222   9.079  1.00  0.00     0.001 A 
ATOM     43  C   UNL     1       6.872   3.874  10.184  1.00  0.00     0.001 A 
ATOM     44  C   UNL     1       7.566   2.666  10.215  1.00  0.00     0.000 A 
ENDBRANCH  25  39
BRANCH  26  45
ATOM     45  C   UNL     1       6.727   9.595  -0.488  1.00  0.00    -0.014 A 
ATOM     46  C   UNL     1       7.846   9.744  -1.321  1.00  0.00     0.009 A 
ATOM     47  C   UNL     1       5.512  10.189  -0.867  1.00  0.00     0.009 A 
ATOM     48  C   UNL     1       7.754  10.486  -2.500  1.00  0.00     0.001 A 
ATOM     49  C   UNL     1       5.417  10.906  -2.060  1.00  0.00     0.001 A 
ATOM     50  C   UNL     1       6.539  11.060  -2.872  1.00  0.00     0.000 A 
ENDBRANCH  26  45
BRANCH  38  51
ATOM     51  C   UNL     1      10.013  10.564   5.563  1.00  0.00    -0.014 A 
ATOM     52  C   UNL     1       9.477  11.806   5.938  1.00  0.00     0.009 A 
ATOM     53  C   UNL     1      11.395  10.353   5.684  1.00  0.00     0.009 A 
ATOM     54  C   UNL     1      10.315  12.828   6.388  1.00  0.00     0.001 A 
ATOM     55  C   UNL     1      12.226  11.367   6.160  1.00  0.00     0.001 A 
ATOM     56  C   UNL     1      11.688  12.607   6.501  1.00  0.00     0.000 A 
ENDBRANCH  38  51
ENDBRANCH  12  13
ENDBRANCH   5   7
ENDBRANCH   2   3
ENDBRANCH   1   2
BRANCH   1  57
ATOM     57  C   UNL     1       4.329  -3.835  -0.013  1.00  0.00     0.118 C 
BRANCH  57  58
ATOM     58  N   UNL     1       4.708  -4.209  -1.365  1.00  0.00    -0.351 N 
ATOM     59  C   UNL     1       5.505  -5.238  -1.812  1.00  0.00     0.270 C 
ATOM     60  H   UNL     1       4.336  -3.636  -2.074  1.00  0.00     0.163 HD
ATOM     61  O   UNL     1       5.804  -5.284  -3.003  1.00  0.00    -0.268 OA
BRANCH  59  62
ATOM     62  C   UNL     1       5.960  -6.294  -0.874  1.00  0.00     0.134 A 
ATOM     63  C   UNL     1       5.059  -6.945  -0.078  1.00  0.00     0.063 A 
ATOM     64  N   UNL     1       7.268  -6.573  -0.890  1.00  0.00    -0.207 NA
ATOM     65  C   UNL     1       5.595  -7.863   0.794  1.00  0.00     0.077 A 
ATOM     66  C   UNL     1       7.715  -7.522  -0.064  1.00  0.00     0.230 A 
ATOM     67  N   UNL     1       6.914  -8.171   0.801  1.00  0.00    -0.213 NA
BRANCH  65  68
ATOM     68  C   UNL     1       4.740  -8.486   1.818  1.00  0.00     0.000 A 
ATOM     69  C   UNL     1       5.127  -8.498   3.168  1.00  0.00     0.010 A 
ATOM     70  C   UNL     1       3.465  -8.986   1.494  1.00  0.00     0.010 A 
ATOM     71  C   UNL     1       4.256  -8.957   4.161  1.00  0.00     0.001 A 
ATOM     72  C   UNL     1       2.595  -9.446   2.485  1.00  0.00     0.001 A 
ATOM     73  C   UNL     1       2.988  -9.423   3.819  1.00  0.00     0.000 A 
ENDBRANCH  65  68
BRANCH  66  74
ATOM     74  N   UNL     1       9.040  -7.941  -0.151  1.00  0.00    -0.300 N 
ATOM     75  H   UNL     1       9.333  -8.694   0.411  1.00  0.00     0.172 HD
BRANCH  74  76
ATOM     76  C   UNL     1       9.941  -7.360  -0.970  1.00  0.00     0.190 A 
ATOM     77  N   UNL     1      10.013  -6.072  -1.221  1.00  0.00    -0.220 NA
ATOM     78  S   UNL     1      11.121  -8.307  -1.801  1.00  0.00    -0.097 S 
ATOM     79  C   UNL     1      10.878  -5.821  -2.263  1.00  0.00     0.084 A 
ATOM     80  C   UNL     1      11.568  -6.932  -2.744  1.00  0.00     0.056 A 
ATOM     81  C   UNL     1      11.088  -4.567  -2.868  1.00  0.00     0.030 A 
ATOM     82  C   UNL     1      12.455  -6.834  -3.829  1.00  0.00     0.021 A 
ATOM     83  C   UNL     1      11.959  -4.458  -3.954  1.00  0.00     0.002 A 
ATOM     84  C   UNL     1      12.629  -5.581  -4.430  1.00  0.00     0.002 A 
ENDBRANCH  74  76
ENDBRANCH  66  74
ENDBRANCH  59  62
ENDBRANCH  57  58
ENDBRANCH   1  57
TORSDOF 13
