REMARK SMILES CC(=O)c1c[nH]c(C(=O)N[C@H]2C=C[C@H](C(=O)NCCCNC(=O)c3ccc(-c4c5nc(c(-c6ccccc6)c6ccc([nH]6)c(-c6ccccc6)c6nc(c(-c7ccccc7)c7ccc4[nH]7)C=C6)C=C5)cc3)C2)c1
REMARK SMILES IDX 18 1 17 2 15 3 16 4 14 6 11 7 12 8 72 9 13 10 10 11 8 12
REMARK SMILES IDX 9 13 7 15 4 16 5 17 73 18 6 19 2 21 1 22 3 23 19 24 20 25
REMARK SMILES IDX 21 26 22 27 23 29 24 30 25 31 71 32 26 33 70 34 27 35 28 36
REMARK SMILES IDX 29 37 64 38 30 39 69 40 63 41 65 42 31 43 68 44 62 45 61 46
REMARK SMILES IDX 32 48 54 49 39 50 53 51 40 52 43 53 52 54 66 55 41 56 42 57
REMARK SMILES IDX 51 59 67 60 44 61 33 62 34 63 38 64 35 65 37 66 36 67 55 68
REMARK SMILES IDX 56 69 60 70 57 71 59 72 58 73 45 74 46 75 50 76 47 77 49 78
REMARK SMILES IDX 48 79
REMARK H PARENT 17 5 10 14 6 20 21 28 65 47 43 58
REMARK Flexibility Score: inf
ROOT
ATOM      1  C   UNL     1      -2.311  -0.267  -1.500  1.00  0.00     0.117 C 
ENDROOT
BRANCH   1   2
ATOM      2  N   UNL     1      -3.433  -1.067  -1.037  1.00  0.00    -0.356 N 
ATOM      3  C   UNL     1      -3.540  -2.428  -0.916  1.00  0.00     0.227 C 
ATOM      4  O   UNL     1      -4.616  -2.901  -0.555  1.00  0.00    -0.274 OA
ATOM      5  H   UNL     1      -4.232  -0.557  -0.771  1.00  0.00     0.163 HD
BRANCH   3   6
ATOM      6  C   UNL     1      -2.308  -3.271  -1.230  1.00  0.00     0.103 C 
ATOM      7  C   UNL     1      -1.840  -4.970  -2.945  1.00  0.00     0.106 C 
ATOM      8  C   UNL     1      -2.022  -5.581  -1.603  1.00  0.00    -0.006 C 
ATOM      9  C   UNL     1      -2.092  -3.470  -2.741  1.00  0.00     0.047 C 
ATOM     10  C   UNL     1      -2.346  -4.667  -0.682  1.00  0.00    -0.016 C 
BRANCH   7  11
ATOM     11  N   UNL     1      -0.604  -5.394  -3.578  1.00  0.00    -0.345 N 
ATOM     12  C   UNL     1       0.713  -5.023  -3.545  1.00  0.00     0.268 C 
ATOM     13  O   UNL     1       1.449  -5.519  -4.395  1.00  0.00    -0.268 OA
ATOM     14  H   UNL     1      -0.753  -6.148  -4.194  1.00  0.00     0.164 HD
BRANCH  12  15
ATOM     15  C   UNL     1       1.200  -4.014  -2.641  1.00  0.00     0.105 A 
ATOM     16  C   UNL     1       1.472  -2.436  -1.029  1.00  0.00     0.035 A 
ATOM     17  C   UNL     1       2.309  -2.133  -2.085  1.00  0.00     0.094 A 
ATOM     18  C   UNL     1       0.931  -3.722  -1.320  1.00  0.00     0.045 A 
ATOM     19  N   UNL     1       2.204  -3.141  -3.009  1.00  0.00    -0.356 N 
ATOM     20  H   UNL     1       2.762  -3.229  -3.815  1.00  0.00     0.166 HD
BRANCH  16  21
ATOM     21  C   UNL     1       1.155  -1.604   0.131  1.00  0.00     0.161 C 
ATOM     22  C   UNL     1       1.515  -0.141   0.079  1.00  0.00     0.093 C 
ATOM     23  O   UNL     1       0.514  -2.054   1.080  1.00  0.00    -0.294 OA
ENDBRANCH  16  21
ENDBRANCH  12  15
ENDBRANCH   7  11
ENDBRANCH   3   6
ENDBRANCH   1   2
BRANCH   1  24
ATOM     24  C   UNL     1      -2.555   0.312  -2.894  1.00  0.00     0.042 C 
BRANCH  24  25
ATOM     25  C   UNL     1      -3.676   1.348  -2.918  1.00  0.00     0.118 C 
BRANCH  25  26
ATOM     26  N   UNL     1      -3.312   2.550  -2.186  1.00  0.00    -0.352 N 
ATOM     27  C   UNL     1      -4.023   3.711  -2.015  1.00  0.00     0.251 C 
ATOM     28  H   UNL     1      -2.429   2.528  -1.750  1.00  0.00     0.163 HD
ATOM     29  O   UNL     1      -3.437   4.730  -1.665  1.00  0.00    -0.269 OA
BRANCH  27  30
ATOM     30  C   UNL     1      -5.477   3.755  -2.268  1.00  0.00     0.039 A 
ATOM     31  C   UNL     1      -6.001   4.886  -2.903  1.00  0.00     0.014 A 
ATOM     32  C   UNL     1      -6.327   2.740  -1.815  1.00  0.00     0.014 A 
ATOM     33  C   UNL     1      -7.368   4.969  -3.141  1.00  0.00     0.010 A 
ATOM     34  C   UNL     1      -7.691   2.804  -2.077  1.00  0.00     0.010 A 
ATOM     35  C   UNL     1      -8.206   3.914  -2.750  1.00  0.00    -0.014 A 
BRANCH  35  36
ATOM     36  C   UNL     1      -9.615   3.935  -3.197  1.00  0.00     0.031 A 
ATOM     37  C   UNL     1      -9.737   3.541  -4.679  1.00  0.00     0.074 A 
ATOM     38  C   UNL     1     -10.547   4.355  -2.287  1.00  0.00     0.049 A 
ATOM     39  N   UNL     1     -10.600   3.923  -5.565  1.00  0.00    -0.248 NA
ATOM     40  C   UNL     1      -8.713   2.644  -5.288  1.00  0.00     0.031 C 
ATOM     41  C   UNL     1     -10.262   4.628  -0.859  1.00  0.00     0.029 A 
ATOM     42  N   UNL     1     -11.896   4.645  -2.352  1.00  0.00    -0.354 N 
ATOM     43  C   UNL     1     -10.322   3.244  -6.774  1.00  0.00     0.074 A 
ATOM     44  C   UNL     1      -9.101   2.529  -6.563  1.00  0.00     0.031 C 
ATOM     45  C   UNL     1     -11.355   5.112  -0.229  1.00  0.00     0.029 A 
ATOM     46  C   UNL     1     -12.451   5.212  -1.172  1.00  0.00     0.049 A 
ATOM     47  H   UNL     1     -12.434   4.472  -3.157  1.00  0.00     0.167 HD
ATOM     48  C   UNL     1     -11.186   3.234  -7.833  1.00  0.00     0.031 A 
ATOM     49  C   UNL     1     -13.683   5.778  -0.979  1.00  0.00     0.031 A 
ATOM     50  C   UNL     1     -12.312   4.053  -7.545  1.00  0.00     0.049 A 
ATOM     51  C   UNL     1     -14.424   5.570  -2.228  1.00  0.00     0.074 A 
ATOM     52  C   UNL     1     -12.468   5.410  -7.450  1.00  0.00     0.029 A 
ATOM     53  N   UNL     1     -13.367   3.428  -6.926  1.00  0.00    -0.354 N 
ATOM     54  N   UNL     1     -14.929   4.440  -2.616  1.00  0.00    -0.248 NA
ATOM     55  C   UNL     1     -14.562   6.696  -3.162  1.00  0.00     0.031 C 
ATOM     56  C   UNL     1     -13.322   5.550  -6.337  1.00  0.00     0.029 A 
ATOM     57  C   UNL     1     -13.833   4.298  -5.976  1.00  0.00     0.049 A 
ATOM     58  H   UNL     1     -13.720   2.531  -7.127  1.00  0.00     0.167 HD
ATOM     59  C   UNL     1     -15.060   4.638  -3.967  1.00  0.00     0.074 A 
ATOM     60  C   UNL     1     -15.164   6.068  -4.168  1.00  0.00     0.031 C 
ATOM     61  C   UNL     1     -14.503   3.746  -4.826  1.00  0.00     0.031 A 
BRANCH  48  62
ATOM     62  C   UNL     1     -11.283   2.373  -9.061  1.00  0.00    -0.014 A 
ATOM     63  C   UNL     1     -12.171   2.799 -10.082  1.00  0.00     0.009 A 
ATOM     64  C   UNL     1     -10.843   1.048  -9.109  1.00  0.00     0.009 A 
ATOM     65  C   UNL     1     -12.700   1.912 -11.022  1.00  0.00     0.001 A 
ATOM     66  C   UNL     1     -11.346   0.165 -10.079  1.00  0.00     0.001 A 
ATOM     67  C   UNL     1     -12.300   0.585 -11.006  1.00  0.00     0.000 A 
ENDBRANCH  48  62
BRANCH  49  68
ATOM     68  C   UNL     1     -14.399   6.595   0.071  1.00  0.00    -0.014 A 
ATOM     69  C   UNL     1     -13.979   6.808   1.384  1.00  0.00     0.009 A 
ATOM     70  C   UNL     1     -15.602   7.265  -0.297  1.00  0.00     0.009 A 
ATOM     71  C   UNL     1     -14.666   7.707   2.232  1.00  0.00     0.001 A 
ATOM     72  C   UNL     1     -16.260   8.188   0.518  1.00  0.00     0.001 A 
ATOM     73  C   UNL     1     -15.780   8.422   1.790  1.00  0.00     0.000 A 
ENDBRANCH  49  68
BRANCH  61  74
ATOM     74  C   UNL     1     -14.283   2.351  -4.258  1.00  0.00    -0.014 A 
ATOM     75  C   UNL     1     -15.377   1.622  -3.766  1.00  0.00     0.009 A 
ATOM     76  C   UNL     1     -13.007   1.784  -4.083  1.00  0.00     0.009 A 
ATOM     77  C   UNL     1     -15.206   0.396  -3.108  1.00  0.00     0.001 A 
ATOM     78  C   UNL     1     -12.830   0.555  -3.426  1.00  0.00     0.001 A 
ATOM     79  C   UNL     1     -13.932  -0.137  -2.935  1.00  0.00     0.000 A 
ENDBRANCH  61  74
ENDBRANCH  35  36
ENDBRANCH  27  30
ENDBRANCH  25  26
ENDBRANCH  24  25
ENDBRANCH   1  24
TORSDOF 13
