REMARK SMILES C[C@@H]([NH2+]C[C@H]1CCC[C@@H]1C(=O)NCCCNC(=O)c1ccc(-c2c3nc(c(-c4ccccc4)c4ccc([nH]4)c(-c4ccccc4)c4nc(c(-c5ccccc5)c5ccc2[nH]5)C=C4)C=C3)cc1)c1cc(F)ccc1O
REMARK SMILES IDX 10 1 11 2 12 3 9 5 5 6 6 7 7 8 8 9 4 10 3 11 2 14 1 15 67 16
REMARK SMILES IDX 68 17 73 18 69 19 72 20 70 21 71 22 74 23 13 25 14 26 15 27
REMARK SMILES IDX 16 28 17 29 18 31 19 32 20 33 66 34 21 35 65 36 22 37 23 38
REMARK SMILES IDX 24 39 59 40 25 41 64 42 58 43 60 44 26 45 63 46 57 47 56 48
REMARK SMILES IDX 27 50 49 51 34 52 48 53 35 54 38 55 47 56 61 57 36 58 37 59
REMARK SMILES IDX 46 61 62 62 39 63 28 64 29 65 33 66 30 67 32 68 31 69 50 70
REMARK SMILES IDX 51 71 55 72 52 73 54 74 53 75 40 76 41 77 45 78 42 79 44 80
REMARK SMILES IDX 43 81
REMARK H PARENT 12 4 3 12 3 13 74 24 16 30 60 49 38 60
REMARK Flexibility Score: inf
ROOT
ATOM      1  C   UNL     1       3.388   4.162  -0.273  1.00  0.00     0.223 C 
ATOM      2  O   UNL     1       3.098   4.728  -1.326  1.00  0.00    -0.275 OA
ATOM      3  N   UNL     1       4.624   3.595  -0.168  1.00  0.00    -0.356 N 
ATOM      4  H   UNL     1       5.229   3.768  -0.925  1.00  0.00     0.163 HD
ENDROOT
BRANCH   1   5
ATOM      5  C   UNL     1       2.453   4.115   0.930  1.00  0.00     0.087 C 
ATOM      6  C   UNL     1       0.978   4.307   0.533  1.00  0.00     0.057 C 
ATOM      7  C   UNL     1       0.823   5.837   0.617  1.00  0.00     0.010 C 
ATOM      8  C   UNL     1       1.684   6.272   1.796  1.00  0.00     0.001 C 
ATOM      9  C   UNL     1       2.804   5.246   1.903  1.00  0.00     0.014 C 
BRANCH   6  10
ATOM     10  C   UNL     1      -0.068   3.616   1.440  1.00  0.00     0.265 C 
BRANCH  10  11
ATOM     11  N   UNL     1      -0.259   2.160   1.396  1.00  0.00    -0.340 N 
ATOM     12  H   UNL     1      -0.878   1.930   2.173  1.00  0.00     0.346 HD
ATOM     13  H   UNL     1      -0.587   2.017   0.441  1.00  0.00     0.346 HD
BRANCH  11  14
ATOM     14  C   UNL     1       0.876   1.217   1.479  1.00  0.00     0.214 C 
ATOM     15  C   UNL     1       0.387  -0.055   0.751  1.00  0.00     0.081 C 
BRANCH  14  16
ATOM     16  C   UNL     1       1.455   0.987   2.891  1.00  0.00     0.054 A 
ATOM     17  C   UNL     1       1.678   2.084   3.748  1.00  0.00     0.053 A 
ATOM     18  C   UNL     1       1.948  -0.238   3.381  1.00  0.00     0.124 A 
ATOM     19  C   UNL     1       2.344   1.975   4.970  1.00  0.00     0.123 A 
ATOM     20  C   UNL     1       2.627  -0.354   4.606  1.00  0.00     0.050 A 
ATOM     21  F   UNL     1       2.540   3.075   5.708  1.00  0.00    -0.207 F 
ATOM     22  C   UNL     1       2.830   0.761   5.406  1.00  0.00     0.043 A 
BRANCH  18  23
ATOM     23  O   UNL     1       1.815  -1.419   2.710  1.00  0.00    -0.507 OA
ATOM     24  H   UNL     1       1.375  -1.441   1.883  1.00  0.00     0.293 HD
ENDBRANCH  18  23
ENDBRANCH  14  16
ENDBRANCH  11  14
ENDBRANCH  10  11
ENDBRANCH   6  10
ENDBRANCH   1   5
BRANCH   3  25
ATOM     25  C   UNL     1       5.183   2.775   0.894  1.00  0.00     0.117 C 
BRANCH  25  26
ATOM     26  C   UNL     1       5.318   1.317   0.463  1.00  0.00     0.042 C 
BRANCH  26  27
ATOM     27  C   UNL     1       6.277   1.101  -0.706  1.00  0.00     0.118 C 
BRANCH  27  28
ATOM     28  N   UNL     1       7.639   1.523  -0.407  1.00  0.00    -0.352 N 
ATOM     29  C   UNL     1       8.825   0.841  -0.523  1.00  0.00     0.251 C 
ATOM     30  H   UNL     1       7.722   2.443  -0.069  1.00  0.00     0.163 HD
ATOM     31  O   UNL     1       9.852   1.328  -0.062  1.00  0.00    -0.269 OA
BRANCH  29  32
ATOM     32  C   UNL     1       8.871  -0.483  -1.179  1.00  0.00     0.039 A 
ATOM     33  C   UNL     1       9.651  -1.489  -0.602  1.00  0.00     0.014 A 
ATOM     34  C   UNL     1       8.178  -0.731  -2.366  1.00  0.00     0.014 A 
ATOM     35  C   UNL     1       9.684  -2.761  -1.178  1.00  0.00     0.010 A 
ATOM     36  C   UNL     1       8.152  -2.017  -2.899  1.00  0.00     0.010 A 
ATOM     37  C   UNL     1       8.905  -3.045  -2.311  1.00  0.00    -0.014 A 
BRANCH  37  38
ATOM     38  C   UNL     1       8.856  -4.413  -2.887  1.00  0.00     0.031 A 
ATOM     39  C   UNL     1       9.362  -4.672  -4.280  1.00  0.00     0.074 A 
ATOM     40  C   UNL     1       8.297  -5.414  -2.179  1.00  0.00     0.049 A 
ATOM     41  N   UNL     1       9.343  -5.783  -4.972  1.00  0.00    -0.248 NA
ATOM     42  C   UNL     1       9.946  -3.527  -4.997  1.00  0.00     0.031 C 
ATOM     43  C   UNL     1       7.740  -5.291  -0.830  1.00  0.00     0.029 A 
ATOM     44  N   UNL     1       8.099  -6.734  -2.500  1.00  0.00    -0.354 N 
ATOM     45  C   UNL     1       9.895  -5.468  -6.208  1.00  0.00     0.074 A 
ATOM     46  C   UNL     1      10.193  -4.052  -6.188  1.00  0.00     0.031 C 
ATOM     47  C   UNL     1       7.288  -6.490  -0.430  1.00  0.00     0.029 A 
ATOM     48  C   UNL     1       7.481  -7.455  -1.507  1.00  0.00     0.049 A 
ATOM     49  H   UNL     1       8.374  -7.127  -3.360  1.00  0.00     0.167 HD
ATOM     50  C   UNL     1      10.147  -6.285  -7.258  1.00  0.00     0.031 A 
ATOM     51  C   UNL     1       7.101  -8.746  -1.470  1.00  0.00     0.031 A 
ATOM     52  C   UNL     1       9.854  -7.693  -7.279  1.00  0.00     0.049 A 
ATOM     53  C   UNL     1       7.364  -9.625  -2.662  1.00  0.00     0.074 A 
ATOM     54  C   UNL     1      10.118  -8.614  -8.277  1.00  0.00     0.029 A 
ATOM     55  N   UNL     1       9.225  -8.384  -6.254  1.00  0.00    -0.354 N 
ATOM     56  N   UNL     1       7.946  -9.325  -3.798  1.00  0.00    -0.248 NA
ATOM     57  C   UNL     1       6.927 -11.024  -2.559  1.00  0.00     0.031 C 
ATOM     58  C   UNL     1       9.598  -9.851  -7.881  1.00  0.00     0.029 A 
ATOM     59  C   UNL     1       9.068  -9.714  -6.608  1.00  0.00     0.049 A 
ATOM     60  H   UNL     1       8.934  -7.987  -5.401  1.00  0.00     0.167 HD
ATOM     61  C   UNL     1       7.972 -10.504  -4.532  1.00  0.00     0.074 A 
ATOM     62  C   UNL     1       7.362 -11.526  -3.706  1.00  0.00     0.031 C 
ATOM     63  C   UNL     1       8.460 -10.721  -5.777  1.00  0.00     0.031 A 
BRANCH  50  64
ATOM     64  C   UNL     1      10.765  -5.667  -8.483  1.00  0.00    -0.014 A 
ATOM     65  C   UNL     1      12.090  -5.202  -8.476  1.00  0.00     0.009 A 
ATOM     66  C   UNL     1      10.023  -5.579  -9.671  1.00  0.00     0.009 A 
ATOM     67  C   UNL     1      12.645  -4.626  -9.621  1.00  0.00     0.001 A 
ATOM     68  C   UNL     1      10.591  -5.032 -10.824  1.00  0.00     0.001 A 
ATOM     69  C   UNL     1      11.897  -4.546 -10.795  1.00  0.00     0.000 A 
ENDBRANCH  50  64
BRANCH  51  70
ATOM     70  C   UNL     1       6.437  -9.294  -0.258  1.00  0.00    -0.014 A 
ATOM     71  C   UNL     1       7.101 -10.222   0.559  1.00  0.00     0.009 A 
ATOM     72  C   UNL     1       5.134  -8.901   0.083  1.00  0.00     0.009 A 
ATOM     73  C   UNL     1       6.463 -10.766   1.676  1.00  0.00     0.001 A 
ATOM     74  C   UNL     1       4.510  -9.424   1.218  1.00  0.00     0.001 A 
ATOM     75  C   UNL     1       5.170 -10.364   2.007  1.00  0.00     0.000 A 
ENDBRANCH  51  70
BRANCH  63  76
ATOM     76  C   UNL     1       8.393 -12.126  -6.309  1.00  0.00    -0.014 A 
ATOM     77  C   UNL     1       7.174 -12.708  -6.689  1.00  0.00     0.009 A 
ATOM     78  C   UNL     1       9.578 -12.863  -6.468  1.00  0.00     0.009 A 
ATOM     79  C   UNL     1       7.140 -14.013  -7.186  1.00  0.00     0.001 A 
ATOM     80  C   UNL     1       9.544 -14.155  -6.994  1.00  0.00     0.001 A 
ATOM     81  C   UNL     1       8.325 -14.732  -7.343  1.00  0.00     0.000 A 
ENDBRANCH  63  76
ENDBRANCH  37  38
ENDBRANCH  29  32
ENDBRANCH  27  28
ENDBRANCH  26  27
ENDBRANCH  25  26
ENDBRANCH   3  25
TORSDOF 15
