REMARK SMILES O=C(NCCCNC(=O)[C@@H]1CCCCN1c1ccccc1[N+](=O)[O-])c1ccc(-c2c3nc(c(-c4ccccc4)c4ccc([nH]4)c(-c4ccccc4)c4nc(c(-c5ccccc5)c5ccc2[nH]5)C=C4)C=C3)cc1
REMARK SMILES IDX 5 1 4 2 3 3 1 4 2 5 25 7 26 8 72 9 27 10 71 11 28 12 29 13
REMARK SMILES IDX 30 14 65 15 31 16 70 17 64 18 66 19 32 20 69 21 63 22 62 23
REMARK SMILES IDX 33 25 55 26 40 27 54 28 41 29 44 30 53 31 67 32 42 33 43 34
REMARK SMILES IDX 52 36 68 37 45 38 34 39 35 40 39 41 36 42 38 43 37 44 56 45
REMARK SMILES IDX 57 46 61 47 58 48 60 49 59 50 46 51 47 52 51 53 48 54 50 55
REMARK SMILES IDX 49 56 6 57 7 58 8 59 9 61 10 62 11 63 15 64 12 65 14 66
REMARK SMILES IDX 13 67 16 68 17 69 21 70 18 71 20 72 19 73 22 74 23 75 24 76
REMARK H PARENT 3 6 66 24 44 35 7 60
REMARK Flexibility Score: inf
ROOT
ATOM      1  C   UNL     1       4.637  -0.277  -2.567  1.00  0.00     0.042 C 
ENDROOT
BRANCH   1   2
ATOM      2  C   UNL     1       4.438   0.611  -1.347  1.00  0.00     0.118 C 
BRANCH   2   3
ATOM      3  N   UNL     1       3.028   0.714  -0.971  1.00  0.00    -0.352 N 
ATOM      4  O   UNL     1       1.128   0.163   0.106  1.00  0.00    -0.269 OA
ATOM      5  C   UNL     1       2.353   0.192   0.105  1.00  0.00     0.251 C 
ATOM      6  H   UNL     1       2.474   1.243  -1.589  1.00  0.00     0.163 HD
BRANCH   5   7
ATOM      7  C   UNL     1       3.108  -0.329   1.262  1.00  0.00     0.039 A 
ATOM      8  C   UNL     1       4.256   0.333   1.695  1.00  0.00     0.014 A 
ATOM      9  C   UNL     1       2.652  -1.461   1.943  1.00  0.00     0.014 A 
ATOM     10  C   UNL     1       5.044  -0.231   2.683  1.00  0.00     0.010 A 
ATOM     11  C   UNL     1       3.380  -1.956   3.030  1.00  0.00     0.010 A 
ATOM     12  C   UNL     1       4.596  -1.357   3.391  1.00  0.00    -0.014 A 
BRANCH  12  13
ATOM     13  C   UNL     1       5.391  -1.810   4.558  1.00  0.00     0.031 A 
ATOM     14  C   UNL     1       6.031  -3.167   4.593  1.00  0.00     0.074 A 
ATOM     15  C   UNL     1       5.586  -0.935   5.566  1.00  0.00     0.049 A 
ATOM     16  N   UNL     1       6.810  -3.680   5.513  1.00  0.00    -0.248 NA
ATOM     17  C   UNL     1       5.764  -4.068   3.462  1.00  0.00     0.031 C 
ATOM     18  C   UNL     1       5.005   0.411   5.637  1.00  0.00     0.029 A 
ATOM     19  N   UNL     1       6.351  -1.023   6.698  1.00  0.00    -0.354 N 
ATOM     20  C   UNL     1       7.119  -4.962   5.077  1.00  0.00     0.074 A 
ATOM     21  C   UNL     1       6.415  -5.164   3.829  1.00  0.00     0.031 C 
ATOM     22  C   UNL     1       5.491   1.045   6.713  1.00  0.00     0.029 A 
ATOM     23  C   UNL     1       6.343   0.125   7.453  1.00  0.00     0.049 A 
ATOM     24  H   UNL     1       6.857  -1.830   6.947  1.00  0.00     0.167 HD
ATOM     25  C   UNL     1       7.924  -5.881   5.663  1.00  0.00     0.031 A 
ATOM     26  C   UNL     1       6.935   0.405   8.627  1.00  0.00     0.031 A 
ATOM     27  C   UNL     1       8.607  -5.676   6.915  1.00  0.00     0.049 A 
ATOM     28  C   UNL     1       7.777  -0.654   9.274  1.00  0.00     0.074 A 
ATOM     29  C   UNL     1       9.443  -6.545   7.594  1.00  0.00     0.029 A 
ATOM     30  N   UNL     1       8.531  -4.519   7.677  1.00  0.00    -0.354 N 
ATOM     31  N   UNL     1       8.075  -1.853   8.836  1.00  0.00    -0.248 NA
ATOM     32  C   UNL     1       8.366  -0.319  10.575  1.00  0.00     0.031 C 
ATOM     33  C   UNL     1       9.829  -5.936   8.793  1.00  0.00     0.029 A 
ATOM     34  C   UNL     1       9.289  -4.660   8.829  1.00  0.00     0.049 A 
ATOM     35  H   UNL     1       8.014  -3.717   7.435  1.00  0.00     0.167 HD
ATOM     36  C   UNL     1       8.900  -2.411   9.802  1.00  0.00     0.074 A 
ATOM     37  C   UNL     1       9.083  -1.404  10.828  1.00  0.00     0.031 C 
ATOM     38  C   UNL     1       9.453  -3.648   9.840  1.00  0.00     0.031 A 
BRANCH  25  39
ATOM     39  C   UNL     1       8.095  -7.204   4.965  1.00  0.00    -0.014 A 
ATOM     40  C   UNL     1       8.824  -7.307   3.769  1.00  0.00     0.009 A 
ATOM     41  C   UNL     1       7.564  -8.371   5.537  1.00  0.00     0.009 A 
ATOM     42  C   UNL     1       8.992  -8.547   3.147  1.00  0.00     0.001 A 
ATOM     43  C   UNL     1       7.759  -9.613   4.928  1.00  0.00     0.001 A 
ATOM     44  C   UNL     1       8.466  -9.699   3.730  1.00  0.00     0.000 A 
ENDBRANCH  25  39
BRANCH  26  45
ATOM     45  C   UNL     1       6.715   1.722   9.279  1.00  0.00    -0.014 A 
ATOM     46  C   UNL     1       7.771   2.627   9.457  1.00  0.00     0.009 A 
ATOM     47  C   UNL     1       5.436   2.075   9.741  1.00  0.00     0.009 A 
ATOM     48  C   UNL     1       7.558   3.841  10.117  1.00  0.00     0.001 A 
ATOM     49  C   UNL     1       5.217   3.304  10.363  1.00  0.00     0.001 A 
ATOM     50  C   UNL     1       6.281   4.179  10.564  1.00  0.00     0.000 A 
ENDBRANCH  26  45
BRANCH  38  51
ATOM     51  C   UNL     1      10.335  -3.956  11.017  1.00  0.00    -0.014 A 
ATOM     52  C   UNL     1       9.806  -4.112  12.308  1.00  0.00     0.009 A 
ATOM     53  C   UNL     1      11.719  -4.096  10.827  1.00  0.00     0.009 A 
ATOM     54  C   UNL     1      10.651  -4.355  13.392  1.00  0.00     0.001 A 
ATOM     55  C   UNL     1      12.557  -4.375  11.907  1.00  0.00     0.001 A 
ATOM     56  C   UNL     1      12.024  -4.490  13.190  1.00  0.00     0.000 A 
ENDBRANCH  38  51
ENDBRANCH  12  13
ENDBRANCH   5   7
ENDBRANCH   2   3
ENDBRANCH   1   2
BRANCH   1  57
ATOM     57  C   UNL     1       4.039   0.341  -3.821  1.00  0.00     0.117 C 
BRANCH  57  58
ATOM     58  N   UNL     1       4.885   1.382  -4.375  1.00  0.00    -0.354 N 
ATOM     59  C   UNL     1       5.787   1.449  -5.391  1.00  0.00     0.242 C 
ATOM     60  H   UNL     1       4.781   2.242  -3.906  1.00  0.00     0.163 HD
ATOM     61  O   UNL     1       6.219   2.593  -5.604  1.00  0.00    -0.273 OA
BRANCH  59  62
ATOM     62  C   UNL     1       6.291   0.247  -6.254  1.00  0.00     0.171 C 
ATOM     63  C   UNL     1       5.527  -1.073  -6.113  1.00  0.00     0.035 C 
ATOM     64  N   UNL     1       7.752  -0.063  -6.122  1.00  0.00    -0.354 N 
ATOM     65  C   UNL     1       6.037  -2.175  -7.038  1.00  0.00     0.004 C 
ATOM     66  C   UNL     1       8.270  -1.043  -7.084  1.00  0.00     0.117 C 
ATOM     67  C   UNL     1       7.540  -2.366  -6.882  1.00  0.00     0.022 C 
BRANCH  64  68
ATOM     68  C   UNL     1       8.637   0.843  -5.551  1.00  0.00     0.116 A 
ATOM     69  C   UNL     1       8.639   0.927  -4.144  1.00  0.00     0.033 A 
ATOM     70  C   UNL     1       9.581   1.650  -6.219  1.00  0.00     0.292 A 
ATOM     71  C   UNL     1       9.526   1.753  -3.443  1.00  0.00     0.003 A 
ATOM     72  C   UNL     1      10.489   2.474  -5.521  1.00  0.00     0.088 A 
ATOM     73  C   UNL     1      10.457   2.521  -4.131  1.00  0.00     0.007 A 
BRANCH  70  74
ATOM     74  N   UNL     1       9.671   1.693  -7.673  1.00  0.00     0.064 N 
ATOM     75  O   UNL     1      10.808   1.616  -8.166  1.00  0.00    -0.258 OA
ATOM     76  O   UNL     1       8.628   1.827  -8.329  1.00  0.00    -0.258 OA
ENDBRANCH  70  74
ENDBRANCH  64  68
ENDBRANCH  59  62
ENDBRANCH  57  58
ENDBRANCH   1  57
TORSDOF 12
