REMARK SMILES NS(=O)(=O)c1ccc(-n2nc(C(=O)NCCCNC(=O)c3ccc(-c4c5nc(c(-c6ccccc6)c6ccc([nH]6)c(-c6ccccc6)c6nc(c(-c7ccccc7)c7ccc4[nH]7)C=C6)C=C5)cc3)cc2-c2cc3ccccc3s2)cc1
REMARK SMILES IDX 15 1 14 2 12 3 13 4 11 6 9 7 10 8 70 9 69 10 8 11 5 12 6 13
REMARK SMILES IDX 81 14 7 15 80 16 2 17 3 18 4 19 1 20 71 23 72 24 79 25 73 26
REMARK SMILES IDX 78 27 74 28 77 29 75 30 76 31 16 32 17 33 18 34 19 35 20 37
REMARK SMILES IDX 21 38 22 39 68 40 23 41 67 42 24 43 25 44 26 45 61 46 27 47
REMARK SMILES IDX 66 48 60 49 62 50 28 51 65 52 59 53 58 54 29 56 51 57 36 58
REMARK SMILES IDX 50 59 37 60 40 61 49 62 63 63 38 64 39 65 48 67 64 68 41 69
REMARK SMILES IDX 30 70 31 71 35 72 32 73 34 74 33 75 52 76 53 77 57 78 54 79
REMARK SMILES IDX 56 80 55 81 42 82 43 83 47 84 44 85 46 86 45 87
REMARK H PARENT 14 5 1 21 1 22 18 36 62 55 40 66
REMARK Flexibility Score: inf
ROOT
ATOM      1  C   UNL     1       2.273   6.895   9.048  1.00  0.00     0.118 C 
ENDROOT
BRANCH   1   2
ATOM      2  N   UNL     1       1.197   7.550   8.311  1.00  0.00    -0.351 N 
ATOM      3  C   UNL     1       0.774   7.405   6.998  1.00  0.00     0.271 C 
ATOM      4  O   UNL     1      -0.248   8.012   6.673  1.00  0.00    -0.267 OA
ATOM      5  H   UNL     1       0.684   8.206   8.835  1.00  0.00     0.163 HD
BRANCH   3   6
ATOM      6  C   UNL     1       1.500   6.505   6.082  1.00  0.00     0.151 A 
ATOM      7  N   UNL     1       1.743   4.863   4.713  1.00  0.00    -0.231 N 
ATOM      8  N   UNL     1       0.906   5.890   5.043  1.00  0.00    -0.162 NA
ATOM      9  C   UNL     1       2.861   4.866   5.517  1.00  0.00     0.085 A 
ATOM     10  C   UNL     1       2.845   6.104   6.130  1.00  0.00     0.066 A 
BRANCH   7  11
ATOM     11  C   UNL     1       1.446   4.055   3.595  1.00  0.00     0.065 A 
ATOM     12  C   UNL     1       0.890   2.578   1.306  1.00  0.00     0.082 A 
ATOM     13  C   UNL     1       1.358   1.930   2.454  1.00  0.00     0.024 A 
ATOM     14  C   UNL     1       0.693   3.961   1.295  1.00  0.00     0.024 A 
ATOM     15  C   UNL     1       1.665   2.675   3.597  1.00  0.00     0.030 A 
ATOM     16  C   UNL     1       0.940   4.695   2.451  1.00  0.00     0.030 A 
BRANCH  12  17
ATOM     17  S   UNL     1       0.570   1.696  -0.191  1.00  0.00     0.238 S 
ATOM     18  O   UNL     1       1.305   2.325  -1.257  1.00  0.00    -0.207 OA
ATOM     19  O   UNL     1      -0.851   1.427  -0.265  1.00  0.00    -0.207 OA
BRANCH  17  20
ATOM     20  N   UNL     1       1.306   0.202   0.032  1.00  0.00    -0.225 NA
ATOM     21  H   UNL     1       1.165  -0.374  -0.798  1.00  0.00     0.137 HD
ATOM     22  H   UNL     1       0.895  -0.262   0.842  1.00  0.00     0.137 HD
ENDBRANCH  17  20
ENDBRANCH  12  17
ENDBRANCH   7  11
BRANCH   9  23
ATOM     23  C   UNL     1       3.808   3.843   5.866  1.00  0.00     0.054 A 
ATOM     24  C   UNL     1       5.181   4.034   5.964  1.00  0.00     0.031 A 
ATOM     25  S   UNL     1       3.373   2.790   7.179  1.00  0.00    -0.134 S 
ATOM     26  C   UNL     1       5.484   4.227   7.375  1.00  0.00    -0.007 A 
ATOM     27  C   UNL     1       4.483   3.670   8.181  1.00  0.00     0.035 A 
ATOM     28  C   UNL     1       6.506   4.975   8.006  1.00  0.00     0.009 A 
ATOM     29  C   UNL     1       4.437   3.870   9.571  1.00  0.00     0.019 A 
ATOM     30  C   UNL     1       6.438   5.224   9.383  1.00  0.00     0.001 A 
ATOM     31  C   UNL     1       5.407   4.691  10.151  1.00  0.00     0.001 A 
ENDBRANCH   9  23
ENDBRANCH   3   6
ENDBRANCH   1   2
BRANCH   1  32
ATOM     32  C   UNL     1       3.574   7.710   9.020  1.00  0.00     0.042 C 
BRANCH  32  33
ATOM     33  C   UNL     1       3.646   8.728  10.138  1.00  0.00     0.118 C 
BRANCH  33  34
ATOM     34  N   UNL     1       3.824   8.137  11.475  1.00  0.00    -0.352 N 
ATOM     35  C   UNL     1       3.913   8.794  12.697  1.00  0.00     0.251 C 
ATOM     36  H   UNL     1       3.889   7.156  11.507  1.00  0.00     0.163 HD
ATOM     37  O   UNL     1       4.401   8.246  13.678  1.00  0.00    -0.269 OA
BRANCH  35  38
ATOM     38  C   UNL     1       3.396  10.172  12.780  1.00  0.00     0.039 A 
ATOM     39  C   UNL     1       4.014  11.196  13.502  1.00  0.00     0.014 A 
ATOM     40  C   UNL     1       2.287  10.439  11.994  1.00  0.00     0.014 A 
ATOM     41  C   UNL     1       3.533  12.495  13.336  1.00  0.00     0.010 A 
ATOM     42  C   UNL     1       2.077  11.712  11.568  1.00  0.00     0.010 A 
ATOM     43  C   UNL     1       2.574  12.741  12.338  1.00  0.00    -0.014 A 
BRANCH  43  44
ATOM     44  C   UNL     1       2.104  14.069  11.985  1.00  0.00     0.031 A 
ATOM     45  C   UNL     1       3.192  15.007  11.650  1.00  0.00     0.074 A 
ATOM     46  C   UNL     1       0.804  14.372  11.764  1.00  0.00     0.049 A 
ATOM     47  N   UNL     1       3.682  15.914  12.422  1.00  0.00    -0.248 NA
ATOM     48  C   UNL     1       3.949  14.800  10.406  1.00  0.00     0.031 C 
ATOM     49  C   UNL     1      -0.370  13.487  11.724  1.00  0.00     0.029 A 
ATOM     50  N   UNL     1       0.268  15.574  11.435  1.00  0.00    -0.354 N 
ATOM     51  C   UNL     1       4.649  16.563  11.671  1.00  0.00     0.074 A 
ATOM     52  C   UNL     1       4.921  15.705  10.545  1.00  0.00     0.031 C 
ATOM     53  C   UNL     1      -1.423  14.143  11.181  1.00  0.00     0.029 A 
ATOM     54  C   UNL     1      -1.056  15.536  11.009  1.00  0.00     0.049 A 
ATOM     55  H   UNL     1       0.779  16.414  11.493  1.00  0.00     0.167 HD
ATOM     56  C   UNL     1       4.922  17.879  11.893  1.00  0.00     0.031 A 
ATOM     57  C   UNL     1      -1.788  16.584  10.555  1.00  0.00     0.031 A 
ATOM     58  C   UNL     1       4.324  18.336  13.127  1.00  0.00     0.049 A 
ATOM     59  C   UNL     1      -1.136  17.815  11.061  1.00  0.00     0.074 A 
ATOM     60  C   UNL     1       4.420  17.957  14.453  1.00  0.00     0.029 A 
ATOM     61  N   UNL     1       3.138  19.029  13.021  1.00  0.00    -0.354 N 
ATOM     62  N   UNL     1      -1.091  18.125  12.325  1.00  0.00    -0.248 NA
ATOM     63  C   UNL     1      -0.122  18.439  10.227  1.00  0.00     0.031 C 
ATOM     64  C   UNL     1       3.080  18.007  14.946  1.00  0.00     0.029 A 
ATOM     65  C   UNL     1       2.258  18.503  13.932  1.00  0.00     0.049 A 
ATOM     66  H   UNL     1       2.955  19.771  12.401  1.00  0.00     0.167 HD
ATOM     67  C   UNL     1       0.201  18.591  12.525  1.00  0.00     0.074 A 
ATOM     68  C   UNL     1       0.719  18.854  11.180  1.00  0.00     0.031 C 
ATOM     69  C   UNL     1       0.826  18.441  13.730  1.00  0.00     0.031 A 
BRANCH  56  70
ATOM     70  C   UNL     1       5.320  18.842  10.803  1.00  0.00    -0.014 A 
ATOM     71  C   UNL     1       5.568  20.180  11.157  1.00  0.00     0.009 A 
ATOM     72  C   UNL     1       5.188  18.566   9.429  1.00  0.00     0.009 A 
ATOM     73  C   UNL     1       5.589  21.196  10.195  1.00  0.00     0.001 A 
ATOM     74  C   UNL     1       5.248  19.572   8.462  1.00  0.00     0.001 A 
ATOM     75  C   UNL     1       5.417  20.892   8.849  1.00  0.00     0.000 A 
ENDBRANCH  56  70
BRANCH  57  76
ATOM     76  C   UNL     1      -2.832  16.631   9.508  1.00  0.00    -0.014 A 
ATOM     77  C   UNL     1      -3.687  17.741   9.392  1.00  0.00     0.009 A 
ATOM     78  C   UNL     1      -2.784  15.729   8.430  1.00  0.00     0.009 A 
ATOM     79  C   UNL     1      -4.425  17.966   8.221  1.00  0.00     0.001 A 
ATOM     80  C   UNL     1      -3.519  15.956   7.260  1.00  0.00     0.001 A 
ATOM     81  C   UNL     1      -4.326  17.084   7.148  1.00  0.00     0.000 A 
ENDBRANCH  57  76
BRANCH  69  82
ATOM     82  C   UNL     1      -0.001  17.954  14.899  1.00  0.00    -0.014 A 
ATOM     83  C   UNL     1      -0.649  16.705  14.929  1.00  0.00     0.009 A 
ATOM     84  C   UNL     1      -0.007  18.727  16.069  1.00  0.00     0.009 A 
ATOM     85  C   UNL     1      -1.305  16.262  16.085  1.00  0.00     0.001 A 
ATOM     86  C   UNL     1      -0.644  18.278  17.228  1.00  0.00     0.001 A 
ATOM     87  C   UNL     1      -1.298  17.048  17.234  1.00  0.00     0.000 A 
ENDBRANCH  69  82
ENDBRANCH  43  44
ENDBRANCH  35  38
ENDBRANCH  33  34
ENDBRANCH  32  33
ENDBRANCH   1  32
TORSDOF 14
