REMARK SMILES Cc1ccccc1[C@@H]1[NH2+][C@@H](C(=O)NCCCNC(=O)c2ccc(-c3c4nc(c(-c5ccccc5)c5ccc([nH]5)c(-c5ccccc5)c5nc(c(-c6ccccc6)c6ccc3[nH]6)C=C5)C=C4)cc2)CC2=c3ccccc3=N[C@H]21
REMARK SMILES IDX 15 1 14 2 13 3 11 4 12 5 10 7 8 8 9 9 77 10 69 13 76 14
REMARK SMILES IDX 68 15 70 16 75 17 71 18 74 19 72 20 73 21 7 22 1 23 2 24
REMARK SMILES IDX 3 25 4 26 6 27 5 28 16 29 17 30 18 31 19 33 20 34 21 35
REMARK SMILES IDX 67 36 22 37 66 38 23 39 24 40 25 41 60 42 26 43 65 44 59 45
REMARK SMILES IDX 61 46 27 47 64 48 58 49 57 50 28 52 50 53 35 54 49 55 36 56
REMARK SMILES IDX 39 57 48 58 62 59 37 60 38 61 47 63 63 64 40 65 29 66 30 67
REMARK SMILES IDX 34 68 31 69 33 70 32 71 51 72 52 73 56 74 53 75 55 76 54 77
REMARK SMILES IDX 41 78 42 79 46 80 43 81 45 82 44 83
REMARK H PARENT 13 6 9 11 9 12 17 32 61 51 39 62
REMARK Flexibility Score: inf
ROOT
ATOM      1  C   UNL     1      -3.405   6.618   0.516  1.00  0.00     0.042 C 
ENDROOT
BRANCH   1   2
ATOM      2  C   UNL     1      -4.126   5.319   0.159  1.00  0.00     0.118 C 
BRANCH   2   3
ATOM      3  N   UNL     1      -3.554   4.540  -0.938  1.00  0.00    -0.351 N 
ATOM      4  C   UNL     1      -2.458   3.714  -0.985  1.00  0.00     0.278 C 
ATOM      5  O   UNL     1      -2.558   2.723  -1.721  1.00  0.00    -0.268 OA
ATOM      6  H   UNL     1      -4.038   4.622  -1.791  1.00  0.00     0.163 HD
BRANCH   4   7
ATOM      7  C   UNL     1      -1.082   4.091  -0.354  1.00  0.00     0.277 C 
ATOM      8  C   UNL     1       0.661   2.323   0.356  1.00  0.00     0.243 C 
ATOM      9  N   UNL     1      -0.054   3.071  -0.712  1.00  0.00    -0.327 N 
ATOM     10  C   UNL     1       0.621   2.878   1.814  1.00  0.00     0.196 C 
ATOM     11  H   UNL     1      -0.520   2.376  -1.295  1.00  0.00     0.347 HD
ATOM     12  H   UNL     1       0.686   3.627  -1.141  1.00  0.00     0.347 HD
ATOM     13  C   UNL     1      -0.702   3.511   2.042  1.00  0.00    -0.024 C 
ATOM     14  N   UNL     1       0.698   1.813   2.866  1.00  0.00    -0.270 NA
ATOM     15  C   UNL     1      -1.085   4.564   1.095  1.00  0.00     0.109 C 
ATOM     16  C   UNL     1      -1.368   2.965   3.046  1.00  0.00     0.002 A 
ATOM     17  C   UNL     1      -0.414   1.957   3.526  1.00  0.00     0.066 A 
ATOM     18  C   UNL     1      -2.663   3.136   3.614  1.00  0.00     0.010 A 
ATOM     19  C   UNL     1      -0.834   1.206   4.730  1.00  0.00     0.028 A 
ATOM     20  C   UNL     1      -2.997   2.381   4.671  1.00  0.00     0.001 A 
ATOM     21  C   UNL     1      -2.054   1.436   5.249  1.00  0.00     0.002 A 
BRANCH   8  22
ATOM     22  C   UNL     1       2.129   2.106  -0.050  1.00  0.00     0.015 A 
ATOM     23  C   UNL     1       2.678   4.618  -0.310  1.00  0.00     0.045 C 
ATOM     24  C   UNL     1       3.042   3.158  -0.320  1.00  0.00    -0.042 A 
ATOM     25  C   UNL     1       4.399   2.851  -0.542  1.00  0.00     0.004 A 
ATOM     26  C   UNL     1       4.853   1.534  -0.542  1.00  0.00     0.000 A 
ATOM     27  C   UNL     1       2.611   0.780  -0.075  1.00  0.00     0.010 A 
ATOM     28  C   UNL     1       3.956   0.498  -0.322  1.00  0.00     0.001 A 
ENDBRANCH   8  22
ENDBRANCH   4   7
ENDBRANCH   2   3
ENDBRANCH   1   2
BRANCH   1  29
ATOM     29  C   UNL     1      -4.135   7.889   0.115  1.00  0.00     0.118 C 
BRANCH  29  30
ATOM     30  N   UNL     1      -4.641   8.652   1.260  1.00  0.00    -0.352 N 
ATOM     31  C   UNL     1      -5.121   9.954   1.287  1.00  0.00     0.251 C 
ATOM     32  H   UNL     1      -4.640   8.178   2.123  1.00  0.00     0.163 HD
ATOM     33  O   UNL     1      -5.635  10.418   2.290  1.00  0.00    -0.269 OA
BRANCH  31  34
ATOM     34  C   UNL     1      -5.104  10.718   0.021  1.00  0.00     0.039 A 
ATOM     35  C   UNL     1      -6.334  11.085  -0.525  1.00  0.00     0.014 A 
ATOM     36  C   UNL     1      -3.938  10.749  -0.739  1.00  0.00     0.014 A 
ATOM     37  C   UNL     1      -6.439  11.208  -1.905  1.00  0.00     0.010 A 
ATOM     38  C   UNL     1      -4.064  10.758  -2.115  1.00  0.00     0.010 A 
ATOM     39  C   UNL     1      -5.329  10.907  -2.696  1.00  0.00    -0.014 A 
BRANCH  39  40
ATOM     40  C   UNL     1      -5.455  10.553  -4.107  1.00  0.00     0.031 A 
ATOM     41  C   UNL     1      -4.958  11.451  -5.163  1.00  0.00     0.074 A 
ATOM     42  C   UNL     1      -6.020   9.378  -4.466  1.00  0.00     0.049 A 
ATOM     43  N   UNL     1      -5.455  11.497  -6.354  1.00  0.00    -0.248 NA
ATOM     44  C   UNL     1      -3.881  12.407  -4.942  1.00  0.00     0.031 C 
ATOM     45  C   UNL     1      -6.019   8.755  -5.788  1.00  0.00     0.029 A 
ATOM     46  N   UNL     1      -6.929   8.619  -3.727  1.00  0.00    -0.354 N 
ATOM     47  C   UNL     1      -4.588  12.230  -7.124  1.00  0.00     0.074 A 
ATOM     48  C   UNL     1      -3.679  12.852  -6.186  1.00  0.00     0.031 C 
ATOM     49  C   UNL     1      -7.053   7.903  -5.864  1.00  0.00     0.029 A 
ATOM     50  C   UNL     1      -7.834   8.059  -4.650  1.00  0.00     0.049 A 
ATOM     51  H   UNL     1      -6.936   8.498  -2.750  1.00  0.00     0.167 HD
ATOM     52  C   UNL     1      -4.622  12.119  -8.481  1.00  0.00     0.031 A 
ATOM     53  C   UNL     1      -9.166   8.354  -4.601  1.00  0.00     0.031 A 
ATOM     54  C   UNL     1      -5.679  11.226  -8.954  1.00  0.00     0.049 A 
ATOM     55  C   UNL     1      -9.726   8.989  -5.859  1.00  0.00     0.074 A 
ATOM     56  C   UNL     1      -5.694   9.943  -9.479  1.00  0.00     0.029 A 
ATOM     57  N   UNL     1      -7.001  11.534  -8.671  1.00  0.00    -0.354 N 
ATOM     58  N   UNL     1      -9.015   9.358  -6.888  1.00  0.00    -0.248 NA
ATOM     59  C   UNL     1     -11.130   9.372  -5.993  1.00  0.00     0.031 C 
ATOM     60  C   UNL     1      -7.043   9.497  -9.540  1.00  0.00     0.029 A 
ATOM     61  C   UNL     1      -7.846  10.509  -9.052  1.00  0.00     0.049 A 
ATOM     62  H   UNL     1      -7.299  12.375  -8.254  1.00  0.00     0.167 HD
ATOM     63  C   UNL     1      -9.802  10.074  -7.759  1.00  0.00     0.074 A 
ATOM     64  C   UNL     1     -11.120  10.050  -7.153  1.00  0.00     0.031 C 
ATOM     65  C   UNL     1      -9.282  10.674  -8.872  1.00  0.00     0.031 A 
BRANCH  52  66
ATOM     66  C   UNL     1      -3.491  12.615  -9.348  1.00  0.00    -0.014 A 
ATOM     67  C   UNL     1      -3.152  11.921 -10.522  1.00  0.00     0.009 A 
ATOM     68  C   UNL     1      -2.690  13.726  -9.033  1.00  0.00     0.009 A 
ATOM     69  C   UNL     1      -2.009  12.237 -11.266  1.00  0.00     0.001 A 
ATOM     70  C   UNL     1      -1.518  14.019  -9.743  1.00  0.00     0.001 A 
ATOM     71  C   UNL     1      -1.170  13.263 -10.853  1.00  0.00     0.000 A 
ENDBRANCH  52  66
BRANCH  53  72
ATOM     72  C   UNL     1      -9.662   8.658  -3.228  1.00  0.00    -0.014 A 
ATOM     73  C   UNL     1      -9.599   7.650  -2.244  1.00  0.00     0.009 A 
ATOM     74  C   UNL     1      -9.878   9.981  -2.818  1.00  0.00     0.009 A 
ATOM     75  C   UNL     1      -9.640   7.974  -0.885  1.00  0.00     0.001 A 
ATOM     76  C   UNL     1      -9.938  10.298  -1.456  1.00  0.00     0.001 A 
ATOM     77  C   UNL     1      -9.785   9.301  -0.493  1.00  0.00     0.000 A 
ENDBRANCH  53  72
BRANCH  65  78
ATOM     78  C   UNL     1     -10.034  11.520  -9.879  1.00  0.00    -0.014 A 
ATOM     79  C   UNL     1     -11.415  11.464 -10.102  1.00  0.00     0.009 A 
ATOM     80  C   UNL     1      -9.306  12.391 -10.726  1.00  0.00     0.009 A 
ATOM     81  C   UNL     1     -12.042  12.295 -11.046  1.00  0.00     0.001 A 
ATOM     82  C   UNL     1      -9.920  13.205 -11.682  1.00  0.00     0.001 A 
ATOM     83  C   UNL     1     -11.296  13.170 -11.829  1.00  0.00     0.000 A 
ENDBRANCH  65  78
ENDBRANCH  39  40
ENDBRANCH  31  34
ENDBRANCH  29  30
ENDBRANCH   1  29
TORSDOF 11
