REMARK SMILES CS(=O)(=O)c1ccc(/C=C(/C(=O)NCCCNC(=O)c2ccc(-c3c4nc(c(-c5ccccc5)c5ccc([nH]5)c(-c5ccccc5)c5nc(c(-c6ccccc6)c6ccc3[nH]6)C=C5)C=C4)cc2)c2cccc(-c3ccc(S(C)(=O)=O)cc3)c2)cc1
REMARK SMILES IDX 14 1 13 2 11 3 12 4 10 6 9 7 8 8 5 9 6 10 85 11 7 12 84 13
REMARK SMILES IDX 2 14 1 15 3 16 4 17 68 18 69 19 83 20 70 21 72 22 71 23
REMARK SMILES IDX 73 24 74 25 82 26 75 27 81 28 76 29 77 30 78 31 79 32 80 33
REMARK SMILES IDX 15 34 16 35 17 36 18 37 19 39 20 40 21 41 67 42 22 43 66 44
REMARK SMILES IDX 23 45 24 46 25 47 60 48 26 49 65 50 59 51 61 52 27 53 64 54
REMARK SMILES IDX 58 55 57 56 28 58 50 59 35 60 49 61 36 62 39 63 48 64 62 65
REMARK SMILES IDX 37 66 38 67 47 69 63 70 40 71 29 72 30 73 34 74 31 75 33 76
REMARK SMILES IDX 32 77 51 78 52 79 56 80 53 81 55 82 54 83 41 84 42 85 46 86
REMARK SMILES IDX 43 87 45 88 44 89
REMARK H PARENT 13 5 17 38 61 57 39 68
REMARK Flexibility Score: inf
ROOT
ATOM      1  C   UNL     1       2.615   6.623   6.622  1.00  0.00     0.118 C 
ENDROOT
BRANCH   1   2
ATOM      2  N   UNL     1       2.595   5.608   7.659  1.00  0.00    -0.352 N 
ATOM      3  C   UNL     1       2.296   4.283   7.687  1.00  0.00     0.251 C 
ATOM      4  O   UNL     1       2.364   3.748   8.797  1.00  0.00    -0.269 OA
ATOM      5  H   UNL     1       2.856   5.958   8.541  1.00  0.00     0.163 HD
BRANCH   3   6
ATOM      6  C   UNL     1       1.978   3.463   6.456  1.00  0.00     0.047 C 
ATOM      7  C   UNL     1       1.298   3.982   5.407  1.00  0.00     0.022 C 
BRANCH   7   8
ATOM      8  C   UNL     1       0.973   3.379   4.092  1.00  0.00    -0.025 A 
ATOM      9  C   UNL     1       0.528   2.331   1.519  1.00  0.00     0.067 A 
ATOM     10  C   UNL     1       0.266   1.548   2.643  1.00  0.00     0.021 A 
ATOM     11  C   UNL     1       0.963   3.649   1.665  1.00  0.00     0.021 A 
ATOM     12  C   UNL     1       0.467   2.083   3.922  1.00  0.00     0.009 A 
ATOM     13  C   UNL     1       1.183   4.166   2.947  1.00  0.00     0.009 A 
BRANCH   9  14
ATOM     14  S   UNL     1       0.280   1.666  -0.111  1.00  0.00     0.175 S 
ATOM     15  C   UNL     1       1.128   0.108  -0.124  1.00  0.00     0.163 C 
ATOM     16  O   UNL     1       0.969   2.539  -1.043  1.00  0.00    -0.224 OA
ATOM     17  O   UNL     1      -1.143   1.413  -0.238  1.00  0.00    -0.224 OA
ENDBRANCH   9  14
ENDBRANCH   7   8
BRANCH   6  18
ATOM     18  C   UNL     1       2.287   2.008   6.517  1.00  0.00    -0.012 A 
ATOM     19  C   UNL     1       1.639   1.216   7.478  1.00  0.00     0.009 A 
ATOM     20  C   UNL     1       3.098   1.380   5.560  1.00  0.00     0.017 A 
ATOM     21  C   UNL     1       1.776  -0.169   7.474  1.00  0.00     0.001 A 
ATOM     22  C   UNL     1       3.180  -0.023   5.492  1.00  0.00    -0.018 A 
ATOM     23  C   UNL     1       2.529  -0.784   6.477  1.00  0.00     0.009 A 
BRANCH  22  24
ATOM     24  C   UNL     1       3.813  -0.674   4.337  1.00  0.00    -0.018 A 
ATOM     25  C   UNL     1       3.056  -1.545   3.529  1.00  0.00     0.010 A 
ATOM     26  C   UNL     1       5.138  -0.398   3.966  1.00  0.00     0.010 A 
ATOM     27  C   UNL     1       3.597  -2.111   2.376  1.00  0.00     0.021 A 
ATOM     28  C   UNL     1       5.692  -0.965   2.815  1.00  0.00     0.021 A 
ATOM     29  C   UNL     1       4.916  -1.818   2.028  1.00  0.00     0.067 A 
BRANCH  29  30
ATOM     30  S   UNL     1       5.568  -2.494   0.522  1.00  0.00     0.175 S 
ATOM     31  C   UNL     1       5.663  -4.235   0.846  1.00  0.00     0.163 C 
ATOM     32  O   UNL     1       4.564  -2.269  -0.499  1.00  0.00    -0.224 OA
ATOM     33  O   UNL     1       6.923  -1.997   0.364  1.00  0.00    -0.224 OA
ENDBRANCH  29  30
ENDBRANCH  22  24
ENDBRANCH   6  18
ENDBRANCH   3   6
ENDBRANCH   1   2
BRANCH   1  34
ATOM     34  C   UNL     1       1.367   7.504   6.704  1.00  0.00     0.042 C 
BRANCH  34  35
ATOM     35  C   UNL     1       1.314   8.381   7.956  1.00  0.00     0.118 C 
BRANCH  35  36
ATOM     36  N   UNL     1       2.347   9.407   7.954  1.00  0.00    -0.352 N 
ATOM     37  C   UNL     1       2.238  10.773   7.999  1.00  0.00     0.251 C 
ATOM     38  H   UNL     1       3.270   9.066   7.913  1.00  0.00     0.163 HD
ATOM     39  O   UNL     1       3.223  11.467   7.761  1.00  0.00    -0.269 OA
BRANCH  37  40
ATOM     40  C   UNL     1       0.949  11.421   8.324  1.00  0.00     0.039 A 
ATOM     41  C   UNL     1       0.576  12.568   7.616  1.00  0.00     0.014 A 
ATOM     42  C   UNL     1       0.135  10.943   9.356  1.00  0.00     0.014 A 
ATOM     43  C   UNL     1      -0.633  13.204   7.907  1.00  0.00     0.010 A 
ATOM     44  C   UNL     1      -1.101  11.538   9.599  1.00  0.00     0.010 A 
ATOM     45  C   UNL     1      -1.495  12.678   8.882  1.00  0.00    -0.014 A 
BRANCH  45  46
ATOM     46  C   UNL     1      -2.814  13.302   9.156  1.00  0.00     0.031 A 
ATOM     47  C   UNL     1      -3.102  13.921  10.496  1.00  0.00     0.074 A 
ATOM     48  C   UNL     1      -3.778  13.254   8.217  1.00  0.00     0.049 A 
ATOM     49  N   UNL     1      -4.209  14.465  10.933  1.00  0.00    -0.248 NA
ATOM     50  C   UNL     1      -2.010  13.904  11.482  1.00  0.00     0.031 C 
ATOM     51  C   UNL     1      -3.640  12.645   6.892  1.00  0.00     0.029 A 
ATOM     52  N   UNL     1      -5.069  13.718   8.238  1.00  0.00    -0.354 N 
ATOM     53  C   UNL     1      -3.955  14.836  12.248  1.00  0.00     0.074 A 
ATOM     54  C   UNL     1      -2.604  14.414  12.551  1.00  0.00     0.031 C 
ATOM     55  C   UNL     1      -4.791  12.795   6.219  1.00  0.00     0.029 A 
ATOM     56  C   UNL     1      -5.759  13.473   7.075  1.00  0.00     0.049 A 
ATOM     57  H   UNL     1      -5.463  14.182   9.011  1.00  0.00     0.167 HD
ATOM     58  C   UNL     1      -4.766  15.482  13.120  1.00  0.00     0.031 A 
ATOM     59  C   UNL     1      -7.030  13.756   6.737  1.00  0.00     0.031 A 
ATOM     60  C   UNL     1      -6.106  15.908  12.816  1.00  0.00     0.049 A 
ATOM     61  C   UNL     1      -7.913  14.468   7.722  1.00  0.00     0.074 A 
ATOM     62  C   UNL     1      -6.985  16.625  13.610  1.00  0.00     0.029 A 
ATOM     63  N   UNL     1      -6.766  15.648  11.625  1.00  0.00    -0.354 N 
ATOM     64  N   UNL     1      -7.634  14.876   8.936  1.00  0.00    -0.248 NA
ATOM     65  C   UNL     1      -9.283  14.768   7.284  1.00  0.00     0.031 C 
ATOM     66  C   UNL     1      -8.194  16.754  12.918  1.00  0.00     0.029 A 
ATOM     67  C   UNL     1      -8.049  16.166  11.671  1.00  0.00     0.049 A 
ATOM     68  H   UNL     1      -6.378  15.166  10.858  1.00  0.00     0.167 HD
ATOM     69  C   UNL     1      -8.784  15.501   9.399  1.00  0.00     0.074 A 
ATOM     70  C   UNL     1      -9.758  15.432   8.328  1.00  0.00     0.031 C 
ATOM     71  C   UNL     1      -9.011  16.081  10.603  1.00  0.00     0.031 A 
BRANCH  58  72
ATOM     72  C   UNL     1      -4.221  15.752  14.496  1.00  0.00    -0.014 A 
ATOM     73  C   UNL     1      -3.189  16.682  14.704  1.00  0.00     0.009 A 
ATOM     74  C   UNL     1      -4.761  15.081  15.605  1.00  0.00     0.009 A 
ATOM     75  C   UNL     1      -2.677  16.898  15.986  1.00  0.00     0.001 A 
ATOM     76  C   UNL     1      -4.269  15.322  16.889  1.00  0.00     0.001 A 
ATOM     77  C   UNL     1      -3.220  16.220  17.077  1.00  0.00     0.000 A 
ENDBRANCH  58  72
BRANCH  59  78
ATOM     78  C   UNL     1      -7.536  13.380   5.391  1.00  0.00    -0.014 A 
ATOM     79  C   UNL     1      -7.766  14.364   4.418  1.00  0.00     0.009 A 
ATOM     80  C   UNL     1      -7.770  12.035   5.066  1.00  0.00     0.009 A 
ATOM     81  C   UNL     1      -8.240  14.010   3.153  1.00  0.00     0.001 A 
ATOM     82  C   UNL     1      -8.217  11.682   3.792  1.00  0.00     0.001 A 
ATOM     83  C   UNL     1      -8.459  12.670   2.839  1.00  0.00     0.000 A 
ENDBRANCH  59  78
BRANCH  71  84
ATOM     84  C   UNL     1     -10.359  16.710  10.816  1.00  0.00    -0.014 A 
ATOM     85  C   UNL     1     -11.510  15.926  10.993  1.00  0.00     0.009 A 
ATOM     86  C   UNL     1     -10.472  18.108  10.876  1.00  0.00     0.009 A 
ATOM     87  C   UNL     1     -12.752  16.531  11.194  1.00  0.00     0.001 A 
ATOM     88  C   UNL     1     -11.710  18.709  11.106  1.00  0.00     0.001 A 
ATOM     89  C   UNL     1     -12.850  17.921  11.255  1.00  0.00     0.000 A 
ENDBRANCH  71  84
ENDBRANCH  45  46
ENDBRANCH  37  40
ENDBRANCH  35  36
ENDBRANCH  34  35
ENDBRANCH   1  34
TORSDOF 15
