REMARK SMILES COc1ccc([C@H]2CC(c3ccc(S(C)(=O)=O)cc3)=NN2c2ccc(C(=O)NCCCNC(=O)c3ccc(-c4c5nc(c(-c6ccccc6)c6ccc([nH]6)c(-c6ccccc6)c6nc(c(-c7ccccc7)c7ccc4[nH]7)C=C6)C=C5)cc3)cc2)cc1OC
REMARK SMILES IDX 29 1 28 2 26 3 27 4 25 6 22 7 23 8 84 9 24 10 83 11 21 12
REMARK SMILES IDX 7 13 8 14 9 15 20 16 6 17 3 18 4 19 86 20 5 21 85 22 2 23
REMARK SMILES IDX 1 24 87 25 88 26 10 27 11 28 19 29 12 30 18 31 13 32 14 33
REMARK SMILES IDX 15 34 16 35 17 36 30 37 31 38 32 39 33 40 34 42 35 43 36 44
REMARK SMILES IDX 82 45 37 46 81 47 38 48 39 49 40 50 75 51 41 52 80 53 74 54
REMARK SMILES IDX 76 55 42 56 79 57 73 58 72 59 43 61 65 62 50 63 64 64 51 65
REMARK SMILES IDX 54 66 63 67 77 68 52 69 53 70 62 72 78 73 55 74 44 75 45 76
REMARK SMILES IDX 49 77 46 78 48 79 47 80 66 81 67 82 71 83 68 84 70 85 69 86
REMARK SMILES IDX 56 87 57 88 61 89 58 90 60 91 59 92
REMARK H PARENT 28 5 32 41 76 60 54 71
REMARK Flexibility Score: inf
ROOT
ATOM      1  C   UNL     1       1.511  -1.962   8.654  1.00  0.00     0.118 C 
ENDROOT
BRANCH   1   2
ATOM      2  N   UNL     1       2.956  -1.867   8.719  1.00  0.00    -0.352 N 
ATOM      3  C   UNL     1       3.954  -2.479   8.007  1.00  0.00     0.251 C 
ATOM      4  O   UNL     1       5.114  -2.168   8.285  1.00  0.00    -0.269 OA
ATOM      5  H   UNL     1       3.283  -1.244   9.407  1.00  0.00     0.163 HD
BRANCH   3   6
ATOM      6  C   UNL     1       3.703  -3.444   6.902  1.00  0.00     0.039 A 
ATOM      7  C   UNL     1       3.372  -5.181   4.695  1.00  0.00     0.060 A 
ATOM      8  C   UNL     1       4.527  -4.402   4.830  1.00  0.00     0.029 A 
ATOM      9  C   UNL     1       2.411  -5.118   5.702  1.00  0.00     0.029 A 
ATOM     10  C   UNL     1       4.683  -3.527   5.907  1.00  0.00     0.016 A 
ATOM     11  C   UNL     1       2.592  -4.287   6.814  1.00  0.00     0.016 A 
BRANCH   7  12
ATOM     12  N   UNL     1       3.224  -5.990   3.584  1.00  0.00    -0.257 N 
ATOM     13  C   UNL     1       2.052  -6.032   2.706  1.00  0.00     0.144 C 
ATOM     14  C   UNL     1       2.492  -7.056   1.647  1.00  0.00     0.091 C 
ATOM     15  C   UNL     1       3.638  -7.689   2.390  1.00  0.00     0.071 C 
ATOM     16  N   UNL     1       4.050  -7.053   3.441  1.00  0.00    -0.176 NA
BRANCH  13  17
ATOM     17  C   UNL     1       1.709  -4.657   2.159  1.00  0.00    -0.019 A 
ATOM     18  C   UNL     1       1.171  -1.986   1.420  1.00  0.00     0.160 A 
ATOM     19  C   UNL     1       0.155  -2.802   1.937  1.00  0.00     0.051 A 
ATOM     20  C   UNL     1       2.460  -2.501   1.246  1.00  0.00     0.161 A 
ATOM     21  C   UNL     1       0.420  -4.129   2.299  1.00  0.00     0.010 A 
ATOM     22  C   UNL     1       2.705  -3.835   1.602  1.00  0.00     0.056 A 
BRANCH  18  23
ATOM     23  O   UNL     1       0.905  -0.657   1.224  1.00  0.00    -0.493 OA
ATOM     24  C   UNL     1       0.018  -0.434   0.131  1.00  0.00     0.278 C 
ENDBRANCH  18  23
BRANCH  20  25
ATOM     25  O   UNL     1       3.582  -1.867   0.786  1.00  0.00    -0.493 OA
ATOM     26  C   UNL     1       3.466  -0.538   0.306  1.00  0.00     0.278 C 
ENDBRANCH  20  25
ENDBRANCH  13  17
BRANCH  15  27
ATOM     27  C   UNL     1       4.247  -8.956   1.974  1.00  0.00    -0.002 A 
ATOM     28  C   UNL     1       4.385  -9.960   2.941  1.00  0.00     0.011 A 
ATOM     29  C   UNL     1       4.739  -9.133   0.681  1.00  0.00     0.011 A 
ATOM     30  C   UNL     1       5.012 -11.159   2.613  1.00  0.00     0.021 A 
ATOM     31  C   UNL     1       5.394 -10.325   0.357  1.00  0.00     0.021 A 
ATOM     32  C   UNL     1       5.530 -11.327   1.326  1.00  0.00     0.067 A 
BRANCH  32  33
ATOM     33  S   UNL     1       6.366 -12.846   0.928  1.00  0.00     0.175 S 
ATOM     34  C   UNL     1       7.737 -12.901   2.054  1.00  0.00     0.163 C 
ATOM     35  O   UNL     1       5.451 -13.922   1.268  1.00  0.00    -0.224 OA
ATOM     36  O   UNL     1       6.901 -12.715  -0.410  1.00  0.00    -0.224 OA
ENDBRANCH  32  33
ENDBRANCH  15  27
ENDBRANCH   7  12
ENDBRANCH   3   6
ENDBRANCH   1   2
BRANCH   1  37
ATOM     37  C   UNL     1       0.978  -2.904   9.733  1.00  0.00     0.042 C 
BRANCH  37  38
ATOM     38  C   UNL     1       1.075  -2.322  11.141  1.00  0.00     0.118 C 
BRANCH  38  39
ATOM     39  N   UNL     1       0.147  -1.219  11.336  1.00  0.00    -0.352 N 
ATOM     40  C   UNL     1      -0.850  -1.058  12.262  1.00  0.00     0.251 C 
ATOM     41  H   UNL     1       0.252  -0.471  10.704  1.00  0.00     0.163 HD
ATOM     42  O   UNL     1      -1.673  -0.159  12.112  1.00  0.00    -0.269 OA
BRANCH  40  43
ATOM     43  C   UNL     1      -0.950  -1.953  13.435  1.00  0.00     0.039 A 
ATOM     44  C   UNL     1      -2.221  -2.344  13.868  1.00  0.00     0.014 A 
ATOM     45  C   UNL     1       0.183  -2.353  14.149  1.00  0.00     0.014 A 
ATOM     46  C   UNL     1      -2.354  -3.163  14.991  1.00  0.00     0.010 A 
ATOM     47  C   UNL     1       0.055  -3.224  15.230  1.00  0.00     0.010 A 
ATOM     48  C   UNL     1      -1.215  -3.625  15.669  1.00  0.00    -0.014 A 
BRANCH  48  49
ATOM     49  C   UNL     1      -1.342  -4.524  16.842  1.00  0.00     0.031 A 
ATOM     50  C   UNL     1      -0.926  -4.061  18.210  1.00  0.00     0.074 A 
ATOM     51  C   UNL     1      -1.779  -5.785  16.663  1.00  0.00     0.049 A 
ATOM     52  N   UNL     1      -0.947  -4.715  19.344  1.00  0.00    -0.248 NA
ATOM     53  C   UNL     1      -0.391  -2.695  18.312  1.00  0.00     0.031 C 
ATOM     54  C   UNL     1      -2.157  -6.375  15.378  1.00  0.00     0.029 A 
ATOM     55  N   UNL     1      -1.968  -6.799  17.567  1.00  0.00    -0.354 N 
ATOM     56  C   UNL     1      -0.407  -3.850  20.288  1.00  0.00     0.074 A 
ATOM     57  C   UNL     1      -0.030  -2.642  19.585  1.00  0.00     0.031 C 
ATOM     58  C   UNL     1      -2.547  -7.644  15.578  1.00  0.00     0.029 A 
ATOM     59  C   UNL     1      -2.422  -7.962  16.997  1.00  0.00     0.049 A 
ATOM     60  H   UNL     1      -1.795  -6.703  18.531  1.00  0.00     0.167 HD
ATOM     61  C   UNL     1      -0.250  -4.037  21.620  1.00  0.00     0.031 A 
ATOM     62  C   UNL     1      -2.706  -9.155  17.552  1.00  0.00     0.031 A 
ATOM     63  C   UNL     1      -0.634  -5.234  22.321  1.00  0.00     0.049 A 
ATOM     64  C   UNL     1      -2.558  -9.331  19.035  1.00  0.00     0.074 A 
ATOM     65  C   UNL     1      -0.593  -5.490  23.681  1.00  0.00     0.029 A 
ATOM     66  N   UNL     1      -1.123  -6.380  21.713  1.00  0.00    -0.354 N 
ATOM     67  N   UNL     1      -2.133  -8.472  19.928  1.00  0.00    -0.248 NA
ATOM     68  C   UNL     1      -2.945 -10.636  19.586  1.00  0.00     0.031 C 
ATOM     69  C   UNL     1      -1.012  -6.810  23.890  1.00  0.00     0.029 A 
ATOM     70  C   UNL     1      -1.361  -7.357  22.665  1.00  0.00     0.049 A 
ATOM     71  H   UNL     1      -1.278  -6.484  20.746  1.00  0.00     0.167 HD
ATOM     72  C   UNL     1      -2.213  -9.126  21.150  1.00  0.00     0.074 A 
ATOM     73  C   UNL     1      -2.749 -10.446  20.884  1.00  0.00     0.031 C 
ATOM     74  C   UNL     1      -1.873  -8.674  22.382  1.00  0.00     0.031 A 
BRANCH  61  75
ATOM     75  C   UNL     1       0.384  -2.918  22.400  1.00  0.00    -0.014 A 
ATOM     76  C   UNL     1      -0.287  -1.703  22.613  1.00  0.00     0.009 A 
ATOM     77  C   UNL     1       1.673  -3.082  22.930  1.00  0.00     0.009 A 
ATOM     78  C   UNL     1       0.339  -0.658  23.298  1.00  0.00     0.001 A 
ATOM     79  C   UNL     1       2.285  -2.047  23.640  1.00  0.00     0.001 A 
ATOM     80  C   UNL     1       1.623  -0.832  23.811  1.00  0.00     0.000 A 
ENDBRANCH  61  75
BRANCH  62  81
ATOM     81  C   UNL     1      -3.181 -10.266  16.690  1.00  0.00    -0.014 A 
ATOM     82  C   UNL     1      -4.531 -10.644  16.694  1.00  0.00     0.009 A 
ATOM     83  C   UNL     1      -2.290 -10.928  15.830  1.00  0.00     0.009 A 
ATOM     84  C   UNL     1      -4.979 -11.673  15.863  1.00  0.00     0.001 A 
ATOM     85  C   UNL     1      -2.746 -11.940  14.983  1.00  0.00     0.001 A 
ATOM     86  C   UNL     1      -4.088 -12.315  15.004  1.00  0.00     0.000 A 
ENDBRANCH  62  81
BRANCH  74  87
ATOM     87  C   UNL     1      -2.077  -9.618  23.533  1.00  0.00    -0.014 A 
ATOM     88  C   UNL     1      -1.236 -10.726  23.720  1.00  0.00     0.009 A 
ATOM     89  C   UNL     1      -3.110  -9.384  24.453  1.00  0.00     0.009 A 
ATOM     90  C   UNL     1      -1.450 -11.602  24.786  1.00  0.00     0.001 A 
ATOM     91  C   UNL     1      -3.304 -10.246  25.533  1.00  0.00     0.001 A 
ATOM     92  C   UNL     1      -2.481 -11.360  25.693  1.00  0.00     0.000 A 
ENDBRANCH  74  87
ENDBRANCH  48  49
ENDBRANCH  40  43
ENDBRANCH  38  39
ENDBRANCH  37  38
ENDBRANCH   1  37
TORSDOF 16
