REMARK SMILES O=C(NCCCNC(=O)c1ccc(-c2c3nc(c(-c4ccccc4)c4ccc([nH]4)c(-c4ccccc4)c4nc(c(-c5ccccc5)c5ccc2[nH]5)C=C4)C=C3)cc1)c1ccc(NS(=O)(=O)C2=Cc3ccccc3CC2)cc1
REMARK SMILES IDX 4 1 3 2 1 3 2 4 58 6 59 7 77 8 60 9 76 10 61 11 62 12 63 14
REMARK SMILES IDX 64 15 65 16 66 17 67 18 75 19 68 20 74 21 69 22 73 23 70 24
REMARK SMILES IDX 72 25 71 26 5 27 6 28 7 29 8 30 9 32 10 33 11 34 57 35 12 36
REMARK SMILES IDX 56 37 13 38 14 39 15 40 50 41 16 42 55 43 49 44 51 45 17 46
REMARK SMILES IDX 54 47 48 48 47 49 18 51 40 52 25 53 39 54 26 55 29 56 38 57
REMARK SMILES IDX 52 58 27 59 28 60 37 62 53 63 30 64 19 65 20 66 24 67 21 68
REMARK SMILES IDX 23 69 22 70 41 71 42 72 46 73 43 74 45 75 44 76 31 77 32 78
REMARK SMILES IDX 36 79 33 80 35 81 34 82
REMARK H PARENT 3 5 62 13 7 31 51 50 29 61
REMARK Flexibility Score: inf
ROOT
ATOM      1  C   UNL     1       4.290   1.361  -0.206  1.00  0.00     0.118 C 
ENDROOT
BRANCH   1   2
ATOM      2  N   UNL     1       2.848   1.163  -0.202  1.00  0.00    -0.352 N 
ATOM      3  O   UNL     1       0.927   0.015  -0.442  1.00  0.00    -0.269 OA
ATOM      4  C   UNL     1       2.126  -0.003  -0.179  1.00  0.00     0.251 C 
ATOM      5  H   UNL     1       2.311   1.988  -0.219  1.00  0.00     0.163 HD
BRANCH   4   6
ATOM      6  C   UNL     1       2.779  -1.278   0.190  1.00  0.00     0.039 A 
ATOM      7  C   UNL     1       3.648  -1.331   1.281  1.00  0.00     0.016 A 
ATOM      8  C   UNL     1       2.428  -2.457  -0.474  1.00  0.00     0.016 A 
ATOM      9  C   UNL     1       4.207  -2.544   1.671  1.00  0.00     0.027 A 
ATOM     10  C   UNL     1       2.995  -3.676  -0.078  1.00  0.00     0.027 A 
ATOM     11  C   UNL     1       3.904  -3.719   0.985  1.00  0.00     0.049 A 
BRANCH  11  12
ATOM     12  N   UNL     1       4.339  -4.978   1.501  1.00  0.00    -0.280 N 
ATOM     13  H   UNL     1       3.672  -5.630   1.816  1.00  0.00     0.180 HD
BRANCH  12  14
ATOM     14  S   UNL     1       5.995  -5.367   1.578  1.00  0.00     0.258 S 
ATOM     15  O   UNL     1       6.053  -6.480   2.503  1.00  0.00    -0.202 OA
ATOM     16  O   UNL     1       6.390  -5.581   0.197  1.00  0.00    -0.202 OA
BRANCH  14  17
ATOM     17  C   UNL     1       6.885  -3.982   2.224  1.00  0.00     0.066 C 
ATOM     18  C   UNL     1       7.294  -4.082   3.509  1.00  0.00     0.026 C 
ATOM     19  C   UNL     1       7.864  -3.356   1.260  1.00  0.00     0.055 C 
ATOM     20  C   UNL     1       8.671  -4.629   3.678  1.00  0.00    -0.021 A 
ATOM     21  C   UNL     1       9.164  -4.170   1.224  1.00  0.00     0.041 C 
ATOM     22  C   UNL     1       9.070  -5.093   4.936  1.00  0.00     0.008 A 
ATOM     23  C   UNL     1       9.561  -4.699   2.586  1.00  0.00    -0.040 A 
ATOM     24  C   UNL     1      10.326  -5.677   5.097  1.00  0.00     0.001 A 
ATOM     25  C   UNL     1      10.808  -5.312   2.756  1.00  0.00     0.004 A 
ATOM     26  C   UNL     1      11.185  -5.804   4.006  1.00  0.00     0.000 A 
ENDBRANCH  14  17
ENDBRANCH  12  14
ENDBRANCH  11  12
ENDBRANCH   4   6
ENDBRANCH   1   2
BRANCH   1  27
ATOM     27  C   UNL     1       4.772   1.987  -1.505  1.00  0.00     0.042 C 
BRANCH  27  28
ATOM     28  C   UNL     1       4.233   3.389  -1.747  1.00  0.00     0.118 C 
BRANCH  28  29
ATOM     29  N   UNL     1       4.734   4.363  -0.785  1.00  0.00    -0.352 N 
ATOM     30  C   UNL     1       5.563   5.444  -0.968  1.00  0.00     0.251 C 
ATOM     31  H   UNL     1       4.430   4.226   0.141  1.00  0.00     0.163 HD
ATOM     32  O   UNL     1       6.013   6.042   0.005  1.00  0.00    -0.269 OA
BRANCH  30  33
ATOM     33  C   UNL     1       5.941   5.866  -2.333  1.00  0.00     0.039 A 
ATOM     34  C   UNL     1       7.269   6.215  -2.595  1.00  0.00     0.014 A 
ATOM     35  C   UNL     1       4.994   5.904  -3.358  1.00  0.00     0.014 A 
ATOM     36  C   UNL     1       7.663   6.510  -3.902  1.00  0.00     0.010 A 
ATOM     37  C   UNL     1       5.405   6.097  -4.670  1.00  0.00     0.010 A 
ATOM     38  C   UNL     1       6.744   6.403  -4.958  1.00  0.00    -0.014 A 
BRANCH  38  39
ATOM     39  C   UNL     1       7.145   6.607  -6.372  1.00  0.00     0.031 A 
ATOM     40  C   UNL     1       6.503   7.700  -7.183  1.00  0.00     0.074 A 
ATOM     41  C   UNL     1       8.008   5.753  -6.955  1.00  0.00     0.049 A 
ATOM     42  N   UNL     1       6.617   7.954  -8.462  1.00  0.00    -0.248 NA
ATOM     43  C   UNL     1       5.585   8.603  -6.470  1.00  0.00     0.031 C 
ATOM     44  C   UNL     1       8.668   4.624  -6.294  1.00  0.00     0.029 A 
ATOM     45  N   UNL     1       8.468   5.693  -8.247  1.00  0.00    -0.354 N 
ATOM     46  C   UNL     1       5.761   9.021  -8.710  1.00  0.00     0.074 A 
ATOM     47  C   UNL     1       5.103   9.337  -7.461  1.00  0.00     0.031 C 
ATOM     48  C   UNL     1       9.464   4.000  -7.177  1.00  0.00     0.029 A 
ATOM     49  C   UNL     1       9.337   4.654  -8.475  1.00  0.00     0.049 A 
ATOM     50  H   UNL     1       8.200   6.334  -8.944  1.00  0.00     0.167 HD
ATOM     51  C   UNL     1       5.554   9.690  -9.868  1.00  0.00     0.031 A 
ATOM     52  C   UNL     1       9.953   4.262  -9.606  1.00  0.00     0.031 A 
ATOM     53  C   UNL     1       6.230   9.399 -11.102  1.00  0.00     0.049 A 
ATOM     54  C   UNL     1       9.714   5.027 -10.877  1.00  0.00     0.074 A 
ATOM     55  C   UNL     1       6.142  10.065 -12.311  1.00  0.00     0.029 A 
ATOM     56  N   UNL     1       7.124   8.355 -11.281  1.00  0.00    -0.354 N 
ATOM     57  N   UNL     1       8.947   6.070 -11.080  1.00  0.00    -0.248 NA
ATOM     58  C   UNL     1      10.431   4.562 -12.073  1.00  0.00     0.031 C 
ATOM     59  C   UNL     1       6.954   9.400 -13.235  1.00  0.00     0.029 A 
ATOM     60  C   UNL     1       7.582   8.348 -12.587  1.00  0.00     0.049 A 
ATOM     61  H   UNL     1       7.394   7.715 -10.584  1.00  0.00     0.167 HD
ATOM     62  C   UNL     1       9.109   6.403 -12.418  1.00  0.00     0.074 A 
ATOM     63  C   UNL     1      10.055   5.458 -12.975  1.00  0.00     0.031 C 
ATOM     64  C   UNL     1       8.526   7.403 -13.123  1.00  0.00     0.031 A 
BRANCH  51  65
ATOM     65  C   UNL     1       4.548  10.807  -9.849  1.00  0.00    -0.014 A 
ATOM     66  C   UNL     1       4.815  12.014  -9.183  1.00  0.00     0.009 A 
ATOM     67  C   UNL     1       3.330  10.660 -10.529  1.00  0.00     0.009 A 
ATOM     68  C   UNL     1       3.864  13.037  -9.166  1.00  0.00     0.001 A 
ATOM     69  C   UNL     1       2.393  11.695 -10.534  1.00  0.00     0.001 A 
ATOM     70  C   UNL     1       2.657  12.878  -9.845  1.00  0.00     0.000 A 
ENDBRANCH  51  65
BRANCH  52  71
ATOM     71  C   UNL     1      10.871   3.095  -9.586  1.00  0.00    -0.014 A 
ATOM     72  C   UNL     1      12.258   3.283  -9.691  1.00  0.00     0.009 A 
ATOM     73  C   UNL     1      10.370   1.790  -9.464  1.00  0.00     0.009 A 
ATOM     74  C   UNL     1      13.122   2.186  -9.697  1.00  0.00     0.001 A 
ATOM     75  C   UNL     1      11.239   0.697  -9.445  1.00  0.00     0.001 A 
ATOM     76  C   UNL     1      12.613   0.894  -9.570  1.00  0.00     0.000 A 
ENDBRANCH  52  71
BRANCH  64  77
ATOM     77  C   UNL     1       8.922   7.549 -14.563  1.00  0.00    -0.014 A 
ATOM     78  C   UNL     1       8.449   6.660 -15.540  1.00  0.00     0.009 A 
ATOM     79  C   UNL     1       9.738   8.623 -14.952  1.00  0.00     0.009 A 
ATOM     80  C   UNL     1       8.810   6.830 -16.878  1.00  0.00     0.001 A 
ATOM     81  C   UNL     1      10.076   8.804 -16.293  1.00  0.00     0.001 A 
ATOM     82  C   UNL     1       9.618   7.904 -17.254  1.00  0.00     0.000 A 
ENDBRANCH  64  77
ENDBRANCH  38  39
ENDBRANCH  30  33
ENDBRANCH  28  29
ENDBRANCH  27  28
ENDBRANCH   1  27
TORSDOF 13
