REMARK SMILES CC[C@H](C)c1ccccc1Oc1cccc(F)c1C(=O)NCCCNC(=O)c1ccc(-c2c3nc(c(-c4ccccc4)c4ccc([nH]4)c(-c4ccccc4)c4nc(c(-c5ccccc5)c5ccc2[nH]5)C=C4)C=C3)cc1
REMARK SMILES IDX 22 1 21 2 19 3 20 4 18 6 12 7 13 8 14 9 16 10 15 11 17 12
REMARK SMILES IDX 11 13 10 14 5 15 6 16 7 17 9 18 8 19 3 20 4 21 2 22 1 23
REMARK SMILES IDX 23 24 24 25 25 26 26 27 27 29 28 30 29 31 75 32 30 33 74 34
REMARK SMILES IDX 31 35 32 36 33 37 68 38 34 39 73 40 67 41 69 42 35 43 72 44
REMARK SMILES IDX 66 45 65 46 36 48 58 49 43 50 57 51 44 52 47 53 56 54 70 55
REMARK SMILES IDX 45 56 46 57 55 59 71 60 48 61 37 62 38 63 42 64 39 65 41 66
REMARK SMILES IDX 40 67 59 68 60 69 64 70 61 71 63 72 62 73 49 74 50 75 54 76
REMARK SMILES IDX 51 77 53 78 52 79
REMARK H PARENT 21 5 25 28 69 47 47 58
REMARK Flexibility Score: inf
ROOT
ATOM      1  C   UNL     1      -0.157   3.739   2.398  1.00  0.00     0.118 C 
ENDROOT
BRANCH   1   2
ATOM      2  N   UNL     1       0.881   2.760   2.541  1.00  0.00    -0.352 N 
ATOM      3  C   UNL     1       1.045   1.558   1.911  1.00  0.00     0.258 C 
ATOM      4  O   UNL     1       2.154   1.035   2.053  1.00  0.00    -0.269 OA
ATOM      5  H   UNL     1       1.583   2.988   3.193  1.00  0.00     0.163 HD
BRANCH   3   6
ATOM      6  C   UNL     1       0.004   0.842   1.118  1.00  0.00     0.118 A 
ATOM      7  C   UNL     1      -0.896   1.336   0.154  1.00  0.00     0.143 A 
ATOM      8  C   UNL     1      -1.778   0.438  -0.493  1.00  0.00     0.048 A 
ATOM      9  C   UNL     1      -1.736  -0.934  -0.269  1.00  0.00     0.007 A 
ATOM     10  C   UNL     1       0.024  -0.559   1.321  1.00  0.00     0.139 A 
ATOM     11  C   UNL     1      -0.821  -1.435   0.639  1.00  0.00     0.040 A 
ATOM     12  F   UNL     1       0.845  -1.119   2.225  1.00  0.00    -0.206 F 
BRANCH   7  13
ATOM     13  O   UNL     1      -1.285   2.624  -0.073  1.00  0.00    -0.456 OA
BRANCH  13  14
ATOM     14  C   UNL     1      -0.603   3.633  -0.701  1.00  0.00     0.130 A 
ATOM     15  C   UNL     1       0.548   3.664  -1.496  1.00  0.00    -0.002 A 
ATOM     16  C   UNL     1       1.060   4.949  -1.834  1.00  0.00     0.008 A 
ATOM     17  C   UNL     1       0.432   6.141  -1.466  1.00  0.00     0.001 A 
ATOM     18  C   UNL     1      -1.274   4.854  -0.417  1.00  0.00     0.047 A 
ATOM     19  C   UNL     1      -0.761   6.095  -0.774  1.00  0.00     0.004 A 
BRANCH  15  20
ATOM     20  C   UNL     1       1.273   2.494  -2.150  1.00  0.00     0.019 C 
ATOM     21  C   UNL     1       2.132   1.660  -1.207  1.00  0.00     0.013 C 
BRANCH  20  22
ATOM     22  C   UNL     1       0.351   1.735  -3.127  1.00  0.00     0.005 C 
ATOM     23  C   UNL     1       0.758   0.302  -3.428  1.00  0.00     0.004 C 
ENDBRANCH  20  22
ENDBRANCH  15  20
ENDBRANCH  13  14
ENDBRANCH   7  13
ENDBRANCH   3   6
ENDBRANCH   1   2
BRANCH   1  24
ATOM     24  C   UNL     1      -0.334   4.660   3.582  1.00  0.00     0.042 C 
BRANCH  24  25
ATOM     25  C   UNL     1       0.776   5.697   3.687  1.00  0.00     0.118 C 
BRANCH  25  26
ATOM     26  N   UNL     1       0.709   6.743   2.661  1.00  0.00    -0.352 N 
ATOM     27  C   UNL     1       0.274   8.048   2.719  1.00  0.00     0.251 C 
ATOM     28  H   UNL     1       1.032   6.462   1.775  1.00  0.00     0.163 HD
ATOM     29  O   UNL     1       0.177   8.714   1.690  1.00  0.00    -0.269 OA
BRANCH  27  30
ATOM     30  C   UNL     1      -0.132   8.638   4.012  1.00  0.00     0.039 A 
ATOM     31  C   UNL     1      -1.278   9.435   4.082  1.00  0.00     0.014 A 
ATOM     32  C   UNL     1       0.590   8.365   5.170  1.00  0.00     0.014 A 
ATOM     33  C   UNL     1      -1.760   9.845   5.329  1.00  0.00     0.010 A 
ATOM     34  C   UNL     1       0.027   8.632   6.408  1.00  0.00     0.010 A 
ATOM     35  C   UNL     1      -1.148   9.389   6.507  1.00  0.00    -0.014 A 
BRANCH  35  36
ATOM     36  C   UNL     1      -1.687   9.702   7.856  1.00  0.00     0.031 A 
ATOM     37  C   UNL     1      -0.803  10.376   8.876  1.00  0.00     0.074 A 
ATOM     38  C   UNL     1      -2.924   9.292   8.202  1.00  0.00     0.049 A 
ATOM     39  N   UNL     1      -1.035  10.619  10.141  1.00  0.00    -0.248 NA
ATOM     40  C   UNL     1       0.541  10.781   8.428  1.00  0.00     0.031 C 
ATOM     41  C   UNL     1      -3.856   8.561   7.339  1.00  0.00     0.029 A 
ATOM     42  N   UNL     1      -3.610   9.428   9.383  1.00  0.00    -0.354 N 
ATOM     43  C   UNL     1       0.146  11.154  10.642  1.00  0.00     0.074 A 
ATOM     44  C   UNL     1       1.111  11.136   9.567  1.00  0.00     0.031 C 
ATOM     45  C   UNL     1      -5.005   8.357   8.002  1.00  0.00     0.029 A 
ATOM     46  C   UNL     1      -4.879   8.902   9.348  1.00  0.00     0.049 A 
ATOM     47  H   UNL     1      -3.228   9.862  10.180  1.00  0.00     0.167 HD
ATOM     48  C   UNL     1       0.401  11.650  11.875  1.00  0.00     0.031 A 
ATOM     49  C   UNL     1      -5.835   8.869  10.295  1.00  0.00     0.031 A 
ATOM     50  C   UNL     1      -0.577  11.724  12.925  1.00  0.00     0.049 A 
ATOM     51  C   UNL     1      -5.554   9.484  11.638  1.00  0.00     0.074 A 
ATOM     52  C   UNL     1      -0.453  12.285  14.183  1.00  0.00     0.029 A 
ATOM     53  N   UNL     1      -1.869  11.233  12.828  1.00  0.00    -0.354 N 
ATOM     54  N   UNL     1      -4.454  10.050  12.073  1.00  0.00    -0.248 NA
ATOM     55  C   UNL     1      -6.652   9.470  12.613  1.00  0.00     0.031 C 
ATOM     56  C   UNL     1      -1.663  12.104  14.860  1.00  0.00     0.029 A 
ATOM     57  C   UNL     1      -2.553  11.471  14.006  1.00  0.00     0.049 A 
ATOM     58  H   UNL     1      -2.245  10.781  12.037  1.00  0.00     0.167 HD
ATOM     59  C   UNL     1      -4.736  10.482  13.361  1.00  0.00     0.074 A 
ATOM     60  C   UNL     1      -6.115  10.130  13.629  1.00  0.00     0.031 C 
ATOM     61  C   UNL     1      -3.926  11.114  14.247  1.00  0.00     0.031 A 
BRANCH  48  62
ATOM     62  C   UNL     1       1.790  12.163  12.139  1.00  0.00    -0.014 A 
ATOM     63  C   UNL     1       2.271  13.322  11.507  1.00  0.00     0.009 A 
ATOM     64  C   UNL     1       2.630  11.481  13.032  1.00  0.00     0.009 A 
ATOM     65  C   UNL     1       3.580  13.757  11.724  1.00  0.00     0.001 A 
ATOM     66  C   UNL     1       3.927  11.938  13.274  1.00  0.00     0.001 A 
ATOM     67  C   UNL     1       4.405  13.067  12.611  1.00  0.00     0.000 A 
ENDBRANCH  48  62
BRANCH  49  68
ATOM     68  C   UNL     1      -7.164   8.274   9.996  1.00  0.00    -0.014 A 
ATOM     69  C   UNL     1      -8.289   9.100   9.840  1.00  0.00     0.009 A 
ATOM     70  C   UNL     1      -7.320   6.886   9.865  1.00  0.00     0.009 A 
ATOM     71  C   UNL     1      -9.547   8.546   9.588  1.00  0.00     0.001 A 
ATOM     72  C   UNL     1      -8.574   6.337   9.586  1.00  0.00     0.001 A 
ATOM     73  C   UNL     1      -9.688   7.166   9.458  1.00  0.00     0.000 A 
ENDBRANCH  49  68
BRANCH  61  74
ATOM     74  C   UNL     1      -4.527  11.493  15.569  1.00  0.00    -0.014 A 
ATOM     75  C   UNL     1      -4.808  10.526  16.546  1.00  0.00     0.009 A 
ATOM     76  C   UNL     1      -4.783  12.844  15.851  1.00  0.00     0.009 A 
ATOM     77  C   UNL     1      -5.369  10.902  17.767  1.00  0.00     0.001 A 
ATOM     78  C   UNL     1      -5.317  13.220  17.083  1.00  0.00     0.001 A 
ATOM     79  C   UNL     1      -5.619  12.248  18.036  1.00  0.00     0.000 A 
ENDBRANCH  61  74
ENDBRANCH  35  36
ENDBRANCH  27  30
ENDBRANCH  25  26
ENDBRANCH  24  25
ENDBRANCH   1  24
TORSDOF 14
