REMARK SMILES C[C@H]1C[C@@H]1C(=O)NC[C@@H]1CC[C@H](C(=O)NCCCNC(=O)c2ccc(-c3c4nc(c(-c5ccccc5)c5ccc([nH]5)c(-c5ccccc5)c5nc(c(-c6ccccc6)c6ccc3[nH]6)C=C5)C=C4)cc2)O1
REMARK SMILES IDX 16 1 15 2 13 3 14 4 12 6 9 7 10 8 70 9 11 10 8 11 7 12 5 13
REMARK SMILES IDX 6 14 4 16 1 17 2 18 3 19 17 20 18 21 19 22 20 23 21 25 22 26
REMARK SMILES IDX 23 27 69 28 24 29 68 30 25 31 26 32 27 33 62 34 28 35 67 36
REMARK SMILES IDX 61 37 63 38 29 39 66 40 60 41 59 42 30 44 52 45 37 46 51 47
REMARK SMILES IDX 38 48 41 49 50 50 64 51 39 52 40 53 49 55 65 56 42 57 31 58
REMARK SMILES IDX 32 59 36 60 33 61 35 62 34 63 53 64 54 65 58 66 55 67 57 68
REMARK SMILES IDX 56 69 43 70 44 71 48 72 45 73 47 74 46 75
REMARK H PARENT 15 5 7 15 19 24 63 43 41 54
REMARK Flexibility Score: inf
ROOT
ATOM      1  C   UNL     1      -2.068   2.122   3.814  1.00  0.00     0.117 C 
ENDROOT
BRANCH   1   2
ATOM      2  N   UNL     1      -2.997   2.215   4.914  1.00  0.00    -0.354 N 
ATOM      3  C   UNL     1      -4.361   2.246   4.894  1.00  0.00     0.249 C 
ATOM      4  O   UNL     1      -4.941   2.270   5.983  1.00  0.00    -0.272 OA
ATOM      5  H   UNL     1      -2.588   2.264   5.808  1.00  0.00     0.163 HD
BRANCH   3   6
ATOM      6  C   UNL     1      -5.159   2.309   3.570  1.00  0.00     0.207 C 
ATOM      7  C   UNL     1      -4.666   1.952   1.302  1.00  0.00     0.138 C 
ATOM      8  C   UNL     1      -4.422   3.427   1.569  1.00  0.00     0.037 C 
ATOM      9  O   UNL     1      -4.805   1.328   2.597  1.00  0.00    -0.363 OA
ATOM     10  C   UNL     1      -5.104   3.672   2.897  1.00  0.00     0.045 C 
BRANCH   7  11
ATOM     11  C   UNL     1      -3.595   1.167   0.509  1.00  0.00     0.147 C 
BRANCH  11  12
ATOM     12  N   UNL     1      -2.510   1.935  -0.084  1.00  0.00    -0.353 N 
ATOM     13  C   UNL     1      -1.153   1.761   0.006  1.00  0.00     0.223 C 
ATOM     14  O   UNL     1      -0.411   2.453  -0.688  1.00  0.00    -0.275 OA
ATOM     15  H   UNL     1      -2.796   2.699  -0.635  1.00  0.00     0.163 HD
BRANCH  13  16
ATOM     16  C   UNL     1      -0.564   0.841   1.013  1.00  0.00     0.081 C 
ATOM     17  C   UNL     1       1.631  -0.539   1.396  1.00  0.00     0.008 C 
ATOM     18  C   UNL     1       0.407  -0.247   0.592  1.00  0.00    -0.001 C 
ATOM     19  C   UNL     1      -0.932  -0.616   1.152  1.00  0.00     0.018 C 
ENDBRANCH  13  16
ENDBRANCH  11  12
ENDBRANCH   7  11
ENDBRANCH   3   6
ENDBRANCH   1   2
BRANCH   1  20
ATOM     20  C   UNL     1      -1.365   3.442   3.532  1.00  0.00     0.042 C 
BRANCH  20  21
ATOM     21  C   UNL     1      -0.096   3.611   4.349  1.00  0.00     0.118 C 
BRANCH  21  22
ATOM     22  N   UNL     1       0.946   2.661   3.962  1.00  0.00    -0.352 N 
ATOM     23  C   UNL     1       2.179   2.888   3.400  1.00  0.00     0.251 C 
ATOM     24  H   UNL     1       0.731   1.715   4.128  1.00  0.00     0.163 HD
ATOM     25  O   UNL     1       2.849   1.955   2.971  1.00  0.00    -0.269 OA
BRANCH  23  26
ATOM     26  C   UNL     1       2.716   4.258   3.347  1.00  0.00     0.039 A 
ATOM     27  C   UNL     1       3.379   4.710   2.203  1.00  0.00     0.014 A 
ATOM     28  C   UNL     1       2.595   5.078   4.469  1.00  0.00     0.014 A 
ATOM     29  C   UNL     1       3.886   6.011   2.172  1.00  0.00     0.010 A 
ATOM     30  C   UNL     1       3.004   6.396   4.400  1.00  0.00     0.010 A 
ATOM     31  C   UNL     1       3.682   6.866   3.265  1.00  0.00    -0.014 A 
BRANCH  31  32
ATOM     32  C   UNL     1       4.221   8.242   3.328  1.00  0.00     0.031 A 
ATOM     33  C   UNL     1       5.194   8.579   4.425  1.00  0.00     0.074 A 
ATOM     34  C   UNL     1       3.734   9.198   2.516  1.00  0.00     0.049 A 
ATOM     35  N   UNL     1       5.585   9.748   4.858  1.00  0.00    -0.248 NA
ATOM     36  C   UNL     1       5.756   7.440   5.175  1.00  0.00     0.031 C 
ATOM     37  C   UNL     1       2.772   8.988   1.433  1.00  0.00     0.029 A 
ATOM     38  N   UNL     1       3.959  10.550   2.506  1.00  0.00    -0.354 N 
ATOM     39  C   UNL     1       6.401   9.486   5.952  1.00  0.00     0.074 A 
ATOM     40  C   UNL     1       6.406   8.054   6.150  1.00  0.00     0.031 C 
ATOM     41  C   UNL     1       2.488  10.171   0.865  1.00  0.00     0.029 A 
ATOM     42  C   UNL     1       3.204  11.224   1.577  1.00  0.00     0.049 A 
ATOM     43  H   UNL     1       4.600  10.995   3.107  1.00  0.00     0.167 HD
ATOM     44  C   UNL     1       7.097  10.362   6.713  1.00  0.00     0.031 A 
ATOM     45  C   UNL     1       3.083  12.545   1.351  1.00  0.00     0.031 A 
ATOM     46  C   UNL     1       7.102  11.780   6.484  1.00  0.00     0.049 A 
ATOM     47  C   UNL     1       3.870  13.500   2.207  1.00  0.00     0.074 A 
ATOM     48  C   UNL     1       7.806  12.761   7.157  1.00  0.00     0.029 A 
ATOM     49  N   UNL     1       6.373  12.415   5.489  1.00  0.00    -0.354 N 
ATOM     50  N   UNL     1       4.665  13.242   3.219  1.00  0.00    -0.248 NA
ATOM     51  C   UNL     1       3.755  14.928   1.882  1.00  0.00     0.031 C 
ATOM     52  C   UNL     1       7.471  13.996   6.595  1.00  0.00     0.029 A 
ATOM     53  C   UNL     1       6.606  13.777   5.534  1.00  0.00     0.049 A 
ATOM     54  H   UNL     1       5.777  11.963   4.848  1.00  0.00     0.167 HD
ATOM     55  C   UNL     1       5.175  14.468   3.624  1.00  0.00     0.074 A 
ATOM     56  C   UNL     1       4.604  15.469   2.745  1.00  0.00     0.031 C 
ATOM     57  C   UNL     1       6.041  14.744   4.629  1.00  0.00     0.031 A 
BRANCH  44  58
ATOM     58  C   UNL     1       7.907   9.807   7.852  1.00  0.00    -0.014 A 
ATOM     59  C   UNL     1       9.040   9.011   7.620  1.00  0.00     0.009 A 
ATOM     60  C   UNL     1       7.549  10.104   9.176  1.00  0.00     0.009 A 
ATOM     61  C   UNL     1       9.774   8.493   8.690  1.00  0.00     0.001 A 
ATOM     62  C   UNL     1       8.304   9.613  10.243  1.00  0.00     0.001 A 
ATOM     63  C   UNL     1       9.409   8.799   9.999  1.00  0.00     0.000 A 
ENDBRANCH  44  58
BRANCH  45  64
ATOM     64  C   UNL     1       2.190  13.041   0.271  1.00  0.00    -0.014 A 
ATOM     65  C   UNL     1       2.730  13.627  -0.884  1.00  0.00     0.009 A 
ATOM     66  C   UNL     1       0.795  12.936   0.387  1.00  0.00     0.009 A 
ATOM     67  C   UNL     1       1.893  14.126  -1.884  1.00  0.00     0.001 A 
ATOM     68  C   UNL     1      -0.039  13.408  -0.629  1.00  0.00     0.001 A 
ATOM     69  C   UNL     1       0.509  14.013  -1.758  1.00  0.00     0.000 A 
ENDBRANCH  45  64
BRANCH  57  70
ATOM     70  C   UNL     1       6.481  16.170   4.788  1.00  0.00    -0.014 A 
ATOM     71  C   UNL     1       5.627  17.147   5.319  1.00  0.00     0.009 A 
ATOM     72  C   UNL     1       7.803  16.519   4.465  1.00  0.00     0.009 A 
ATOM     73  C   UNL     1       6.082  18.455   5.499  1.00  0.00     0.001 A 
ATOM     74  C   UNL     1       8.263  17.818   4.673  1.00  0.00     0.001 A 
ATOM     75  C   UNL     1       7.401  18.787   5.183  1.00  0.00     0.000 A 
ENDBRANCH  57  70
ENDBRANCH  31  32
ENDBRANCH  23  26
ENDBRANCH  21  22
ENDBRANCH  20  21
ENDBRANCH   1  20
TORSDOF 13
