REMARK SMILES Cc1nc2cc(S(=O)(=O)N3CCC(C(=O)NCCCNC(=O)c4ccc(-c5c6nc(c(-c7ccccc7)c7ccc([nH]7)c(-c7ccccc7)c7nc(c(-c8ccccc8)c8ccc5[nH]8)C=C7)C=C6)cc4)CC3)ccc2n1C1CCCC1
REMARK SMILES IDX 17 1 16 2 14 3 15 4 13 6 10 7 11 8 72 9 12 10 71 11 7 12
REMARK SMILES IDX 8 13 9 14 6 15 1 16 2 17 3 18 76 19 4 20 75 21 5 22 74 23
REMARK SMILES IDX 73 24 77 25 78 26 81 27 79 28 80 29 18 30 19 31 20 32 21 33
REMARK SMILES IDX 22 35 23 36 24 37 70 38 25 39 69 40 26 41 27 42 28 43 63 44
REMARK SMILES IDX 29 45 68 46 62 47 64 48 30 49 67 50 61 51 60 52 31 54 53 55
REMARK SMILES IDX 38 56 52 57 39 58 42 59 51 60 65 61 40 62 41 63 50 65 66 66
REMARK SMILES IDX 43 67 32 68 33 69 37 70 34 71 36 72 35 73 54 74 55 75 59 76
REMARK SMILES IDX 56 77 58 78 57 79 44 80 45 81 49 82 46 83 48 84 47 85
REMARK H PARENT 16 5 20 34 64 53 42 64
REMARK Flexibility Score: inf
ROOT
ATOM      1  C   UNL     1      -2.220  -8.284   9.370  1.00  0.00     0.117 C 
ENDROOT
BRANCH   1   2
ATOM      2  N   UNL     1      -2.727  -7.039   9.934  1.00  0.00    -0.356 N 
ATOM      3  C   UNL     1      -2.708  -5.763   9.464  1.00  0.00     0.223 C 
ATOM      4  O   UNL     1      -3.196  -4.875  10.166  1.00  0.00    -0.275 OA
ATOM      5  H   UNL     1      -3.160  -7.139  10.813  1.00  0.00     0.163 HD
BRANCH   3   6
ATOM      6  C   UNL     1      -2.119  -5.434   8.104  1.00  0.00     0.081 C 
ATOM      7  N   UNL     1      -0.828  -6.273   5.648  1.00  0.00    -0.198 NA
ATOM      8  C   UNL     1      -0.001  -5.651   6.710  1.00  0.00     0.103 C 
ATOM      9  C   UNL     1      -2.297  -6.070   5.639  1.00  0.00     0.103 C 
ATOM     10  C   UNL     1      -0.625  -5.729   8.083  1.00  0.00     0.030 C 
ATOM     11  C   UNL     1      -2.935  -6.109   7.008  1.00  0.00     0.030 C 
BRANCH   7  12
ATOM     12  S   UNL     1      -0.104  -6.224   4.081  1.00  0.00     0.243 S 
ATOM     13  O   UNL     1      -0.970  -6.971   3.184  1.00  0.00    -0.207 OA
ATOM     14  O   UNL     1       1.292  -6.549   4.237  1.00  0.00    -0.207 OA
BRANCH  12  15
ATOM     15  C   UNL     1      -0.182  -4.519   3.559  1.00  0.00     0.085 A 
ATOM     16  C   UNL     1       0.953  -0.007  -0.188  1.00  0.00     0.088 C 
ATOM     17  C   UNL     1       0.533  -0.995   0.839  1.00  0.00     0.106 A 
ATOM     18  N   UNL     1       0.767  -2.291   0.733  1.00  0.00    -0.233 NA
ATOM     19  N   UNL     1      -0.109  -0.707   2.027  1.00  0.00    -0.325 N 
ATOM     20  C   UNL     1       0.310  -2.862   1.886  1.00  0.00     0.090 A 
ATOM     21  C   UNL     1      -0.236  -1.894   2.720  1.00  0.00     0.068 A 
ATOM     22  C   UNL     1       0.343  -4.204   2.298  1.00  0.00     0.052 A 
ATOM     23  C   UNL     1      -0.756  -2.194   3.975  1.00  0.00     0.030 A 
ATOM     24  C   UNL     1      -0.724  -3.521   4.371  1.00  0.00     0.024 A 
BRANCH  19  25
ATOM     25  C   UNL     1      -0.536   0.590   2.523  1.00  0.00     0.089 C 
ATOM     26  C   UNL     1      -2.022   0.686   2.891  1.00  0.00     0.025 C 
ATOM     27  C   UNL     1       0.204   1.042   3.786  1.00  0.00     0.025 C 
ATOM     28  C   UNL     1      -2.103   1.882   3.827  1.00  0.00     0.002 C 
ATOM     29  C   UNL     1      -0.741   2.000   4.503  1.00  0.00     0.002 C 
ENDBRANCH  19  25
ENDBRANCH  12  15
ENDBRANCH   7  12
ENDBRANCH   3   6
ENDBRANCH   1   2
BRANCH   1  30
ATOM     30  C   UNL     1      -1.085  -8.874  10.201  1.00  0.00     0.042 C 
BRANCH  30  31
ATOM     31  C   UNL     1      -1.498  -9.207  11.632  1.00  0.00     0.118 C 
BRANCH  31  32
ATOM     32  N   UNL     1      -2.655 -10.073  11.703  1.00  0.00    -0.352 N 
ATOM     33  C   UNL     1      -2.845 -11.422  11.713  1.00  0.00     0.251 C 
ATOM     34  H   UNL     1      -3.500  -9.571  11.756  1.00  0.00     0.163 HD
ATOM     35  O   UNL     1      -4.008 -11.800  11.878  1.00  0.00    -0.269 OA
BRANCH  33  36
ATOM     36  C   UNL     1      -1.796 -12.439  11.450  1.00  0.00     0.039 A 
ATOM     37  C   UNL     1      -0.465 -12.175  11.124  1.00  0.00     0.014 A 
ATOM     38  C   UNL     1      -2.254 -13.769  11.404  1.00  0.00     0.014 A 
ATOM     39  C   UNL     1       0.327 -13.177  10.579  1.00  0.00     0.010 A 
ATOM     40  C   UNL     1      -1.458 -14.779  10.895  1.00  0.00     0.010 A 
ATOM     41  C   UNL     1      -0.207 -14.453  10.393  1.00  0.00    -0.014 A 
BRANCH  41  42
ATOM     42  C   UNL     1       0.592 -15.439   9.684  1.00  0.00     0.031 A 
ATOM     43  C   UNL     1       1.872 -15.798  10.349  1.00  0.00     0.074 A 
ATOM     44  C   UNL     1       0.165 -16.029   8.549  1.00  0.00     0.049 A 
ATOM     45  N   UNL     1       3.072 -15.636   9.899  1.00  0.00    -0.248 NA
ATOM     46  C   UNL     1       1.811 -16.282  11.737  1.00  0.00     0.031 C 
ATOM     47  C   UNL     1      -1.157 -15.964   7.917  1.00  0.00     0.029 A 
ATOM     48  N   UNL     1       0.826 -16.917   7.760  1.00  0.00    -0.354 N 
ATOM     49  C   UNL     1       3.926 -16.128  10.882  1.00  0.00     0.074 A 
ATOM     50  C   UNL     1       3.105 -16.399  12.036  1.00  0.00     0.031 C 
ATOM     51  C   UNL     1      -1.272 -16.966   7.014  1.00  0.00     0.029 A 
ATOM     52  C   UNL     1       0.013 -17.630   6.889  1.00  0.00     0.049 A 
ATOM     53  H   UNL     1       1.801 -17.044   7.802  1.00  0.00     0.167 HD
ATOM     54  C   UNL     1       5.225 -16.439  10.622  1.00  0.00     0.031 A 
ATOM     55  C   UNL     1       0.368 -18.727   6.173  1.00  0.00     0.031 A 
ATOM     56  C   UNL     1       5.685 -15.839   9.400  1.00  0.00     0.049 A 
ATOM     57  C   UNL     1       1.848 -18.726   6.078  1.00  0.00     0.074 A 
ATOM     58  C   UNL     1       5.888 -14.538   8.985  1.00  0.00     0.029 A 
ATOM     59  N   UNL     1       5.633 -16.598   8.255  1.00  0.00    -0.354 N 
ATOM     60  N   UNL     1       2.520 -17.820   5.427  1.00  0.00    -0.248 NA
ATOM     61  C   UNL     1       2.590 -19.444   7.103  1.00  0.00     0.031 C 
ATOM     62  C   UNL     1       5.440 -14.516   7.633  1.00  0.00     0.029 A 
ATOM     63  C   UNL     1       5.074 -15.816   7.276  1.00  0.00     0.049 A 
ATOM     64  H   UNL     1       5.939 -17.528   8.157  1.00  0.00     0.167 HD
ATOM     65  C   UNL     1       3.611 -17.542   6.236  1.00  0.00     0.074 A 
ATOM     66  C   UNL     1       3.641 -18.627   7.218  1.00  0.00     0.031 C 
ATOM     67  C   UNL     1       4.217 -16.318   6.223  1.00  0.00     0.031 A 
BRANCH  54  68
ATOM     68  C   UNL     1       5.975 -17.547  11.309  1.00  0.00    -0.014 A 
ATOM     69  C   UNL     1       5.334 -18.565  12.040  1.00  0.00     0.009 A 
ATOM     70  C   UNL     1       7.335 -17.744  11.010  1.00  0.00     0.009 A 
ATOM     71  C   UNL     1       6.004 -19.723  12.445  1.00  0.00     0.001 A 
ATOM     72  C   UNL     1       8.000 -18.920  11.380  1.00  0.00     0.001 A 
ATOM     73  C   UNL     1       7.332 -19.911  12.093  1.00  0.00     0.000 A 
ENDBRANCH  54  68
BRANCH  55  74
ATOM     74  C   UNL     1      -0.420 -19.976   6.024  1.00  0.00    -0.014 A 
ATOM     75  C   UNL     1      -1.311 -20.368   7.041  1.00  0.00     0.009 A 
ATOM     76  C   UNL     1      -0.081 -20.932   5.052  1.00  0.00     0.009 A 
ATOM     77  C   UNL     1      -1.811 -21.673   7.112  1.00  0.00     0.001 A 
ATOM     78  C   UNL     1      -0.585 -22.240   5.121  1.00  0.00     0.001 A 
ATOM     79  C   UNL     1      -1.435 -22.614   6.160  1.00  0.00     0.000 A 
ENDBRANCH  55  74
BRANCH  67  80
ATOM     80  C   UNL     1       3.776 -15.303   5.189  1.00  0.00    -0.014 A 
ATOM     81  C   UNL     1       4.766 -14.677   4.415  1.00  0.00     0.009 A 
ATOM     82  C   UNL     1       2.463 -14.803   5.112  1.00  0.00     0.009 A 
ATOM     83  C   UNL     1       4.464 -13.574   3.614  1.00  0.00     0.001 A 
ATOM     84  C   UNL     1       2.155 -13.713   4.288  1.00  0.00     0.001 A 
ATOM     85  C   UNL     1       3.160 -13.091   3.551  1.00  0.00     0.000 A 
ENDBRANCH  67  80
ENDBRANCH  41  42
ENDBRANCH  33  36
ENDBRANCH  31  32
ENDBRANCH  30  31
ENDBRANCH   1  30
TORSDOF 13
