REMARK SMILES COC(=O)C1=C(C)N(c2cccc(OC)c2)C(=O)/C1=C\c1ccc(C(=O)NCCCNC(=O)c2ccc(-c3c4nc(c(-c5ccccc5)c5ccc([nH]5)c(-c5ccccc5)c5nc(c(-c6ccccc6)c6ccc3[nH]6)C=C5)C=C4)cc2)cc1
REMARK SMILES IDX 28 1 27 2 25 3 26 4 24 6 21 7 22 8 83 9 23 10 82 11 20 12
REMARK SMILES IDX 5 13 6 14 19 15 7 16 8 17 17 18 18 19 3 20 4 21 2 22 1 23
REMARK SMILES IDX 9 24 10 25 16 26 11 27 13 28 12 29 14 30 15 31 29 32 30 33
REMARK SMILES IDX 31 34 32 35 33 37 34 38 35 39 81 40 36 41 80 42 37 43 38 44
REMARK SMILES IDX 39 45 74 46 40 47 79 48 73 49 75 50 41 51 78 52 72 53 71 54
REMARK SMILES IDX 42 56 64 57 49 58 63 59 50 60 53 61 62 62 76 63 51 64 52 65
REMARK SMILES IDX 61 67 77 68 54 69 43 70 44 71 48 72 45 73 47 74 46 75 65 76
REMARK SMILES IDX 66 77 70 78 67 79 69 80 68 81 55 82 56 83 60 84 57 85 59 86
REMARK SMILES IDX 58 87
REMARK H PARENT 27 5 31 36 75 55 53 66
REMARK Flexibility Score: inf
ROOT
ATOM      1  C   UNL     1       3.539  -2.755 -10.944  1.00  0.00     0.118 C 
ENDROOT
BRANCH   1   2
ATOM      2  N   UNL     1       4.708  -3.478 -10.477  1.00  0.00    -0.352 N 
ATOM      3  C   UNL     1       5.159  -3.769  -9.213  1.00  0.00     0.251 C 
ATOM      4  O   UNL     1       6.167  -4.468  -9.111  1.00  0.00    -0.269 OA
ATOM      5  H   UNL     1       5.283  -3.822 -11.198  1.00  0.00     0.163 HD
BRANCH   3   6
ATOM      6  C   UNL     1       4.462  -3.314  -7.980  1.00  0.00     0.039 A 
ATOM      7  C   UNL     1       3.138  -2.609  -5.604  1.00  0.00    -0.025 A 
ATOM      8  C   UNL     1       3.909  -3.771  -5.648  1.00  0.00     0.009 A 
ATOM      9  C   UNL     1       3.069  -1.781  -6.725  1.00  0.00     0.009 A 
ATOM     10  C   UNL     1       4.565  -4.122  -6.835  1.00  0.00     0.014 A 
ATOM     11  C   UNL     1       3.751  -2.117  -7.892  1.00  0.00     0.014 A 
BRANCH   7  12
ATOM     12  C   UNL     1       2.421  -2.178  -4.407  1.00  0.00     0.023 C 
ATOM     13  C   UNL     1       0.323  -1.795  -3.101  1.00  0.00     0.092 C 
ATOM     14  C   UNL     1      -0.925  -2.312  -3.159  1.00  0.00     0.039 C 
ATOM     15  C   UNL     1       1.108  -2.353  -4.187  1.00  0.00     0.057 C 
ATOM     16  C   UNL     1      -2.008  -2.060  -2.162  1.00  0.00     0.066 C 
ATOM     17  N   UNL     1      -1.034  -3.186  -4.247  1.00  0.00    -0.280 N 
ATOM     18  C   UNL     1       0.178  -3.219  -4.984  1.00  0.00     0.263 C 
ATOM     19  O   UNL     1       0.442  -3.807  -6.013  1.00  0.00    -0.268 OA
BRANCH  13  20
ATOM     20  C   UNL     1       0.845  -0.787  -2.160  1.00  0.00     0.340 C 
ATOM     21  O   UNL     1       1.621   0.099  -2.488  1.00  0.00    -0.246 OA
BRANCH  20  22
ATOM     22  O   UNL     1       0.392  -1.006  -0.903  1.00  0.00    -0.465 OA
ATOM     23  C   UNL     1       0.896  -0.074   0.054  1.00  0.00     0.282 C 
ENDBRANCH  20  22
ENDBRANCH  13  20
BRANCH  17  24
ATOM     24  C   UNL     1      -2.111  -4.050  -4.594  1.00  0.00     0.053 A 
ATOM     25  C   UNL     1      -3.447  -3.640  -4.560  1.00  0.00     0.027 A 
ATOM     26  C   UNL     1      -1.824  -5.384  -4.927  1.00  0.00     0.073 A 
ATOM     27  C   UNL     1      -4.474  -4.558  -4.802  1.00  0.00     0.006 A 
ATOM     28  C   UNL     1      -2.843  -6.313  -5.141  1.00  0.00     0.120 A 
ATOM     29  C   UNL     1      -4.170  -5.891  -5.077  1.00  0.00     0.046 A 
BRANCH  28  30
ATOM     30  O   UNL     1      -2.664  -7.646  -5.395  1.00  0.00    -0.497 OA
ATOM     31  C   UNL     1      -1.323  -8.127  -5.351  1.00  0.00     0.278 C 
ENDBRANCH  28  30
ENDBRANCH  17  24
ENDBRANCH   7  12
ENDBRANCH   3   6
ENDBRANCH   1   2
BRANCH   1  32
ATOM     32  C   UNL     1       3.909  -1.338 -11.384  1.00  0.00     0.042 C 
BRANCH  32  33
ATOM     33  C   UNL     1       4.616  -1.296 -12.735  1.00  0.00     0.118 C 
BRANCH  33  34
ATOM     34  N   UNL     1       3.724  -1.670 -13.823  1.00  0.00    -0.352 N 
ATOM     35  C   UNL     1       3.341  -0.964 -14.934  1.00  0.00     0.251 C 
ATOM     36  H   UNL     1       3.336  -2.571 -13.750  1.00  0.00     0.163 HD
ATOM     37  O   UNL     1       2.393  -1.360 -15.606  1.00  0.00    -0.269 OA
BRANCH  35  38
ATOM     38  C   UNL     1       4.052   0.271 -15.325  1.00  0.00     0.039 A 
ATOM     39  C   UNL     1       3.309   1.342 -15.828  1.00  0.00     0.014 A 
ATOM     40  C   UNL     1       5.444   0.362 -15.245  1.00  0.00     0.014 A 
ATOM     41  C   UNL     1       3.956   2.520 -16.204  1.00  0.00     0.010 A 
ATOM     42  C   UNL     1       6.080   1.563 -15.545  1.00  0.00     0.010 A 
ATOM     43  C   UNL     1       5.344   2.651 -16.035  1.00  0.00    -0.014 A 
BRANCH  43  44
ATOM     44  C   UNL     1       6.036   3.923 -16.357  1.00  0.00     0.031 A 
ATOM     45  C   UNL     1       7.072   3.975 -17.445  1.00  0.00     0.074 A 
ATOM     46  C   UNL     1       5.774   5.021 -15.622  1.00  0.00     0.049 A 
ATOM     47  N   UNL     1       7.806   4.985 -17.838  1.00  0.00    -0.248 NA
ATOM     48  C   UNL     1       7.337   2.722 -18.170  1.00  0.00     0.031 C 
ATOM     49  C   UNL     1       4.824   5.087 -14.509  1.00  0.00     0.029 A 
ATOM     50  N   UNL     1       6.289   6.290 -15.695  1.00  0.00    -0.354 N 
ATOM     51  C   UNL     1       8.631   4.486 -18.838  1.00  0.00     0.074 A 
ATOM     52  C   UNL     1       8.343   3.074 -18.957  1.00  0.00     0.031 C 
ATOM     53  C   UNL     1       4.804   6.337 -14.023  1.00  0.00     0.029 A 
ATOM     54  C   UNL     1       5.771   7.148 -14.755  1.00  0.00     0.049 A 
ATOM     55  H   UNL     1       6.966   6.561 -16.357  1.00  0.00     0.167 HD
ATOM     56  C   UNL     1       9.537   5.147 -19.599  1.00  0.00     0.031 A 
ATOM     57  C   UNL     1       6.049   8.440 -14.503  1.00  0.00     0.031 A 
ATOM     58  C   UNL     1       9.822   6.552 -19.475  1.00  0.00     0.049 A 
ATOM     59  C   UNL     1       7.067   9.149 -15.350  1.00  0.00     0.074 A 
ATOM     60  C   UNL     1      10.672   7.330 -20.241  1.00  0.00     0.029 A 
ATOM     61  N   UNL     1       9.272   7.388 -18.515  1.00  0.00    -0.354 N 
ATOM     62  N   UNL     1       7.778   8.684 -16.349  1.00  0.00    -0.248 NA
ATOM     63  C   UNL     1       7.310  10.565 -15.044  1.00  0.00     0.031 C 
ATOM     64  C   UNL     1      10.689   8.620 -19.701  1.00  0.00     0.029 A 
ATOM     65  C   UNL     1       9.793   8.665 -18.645  1.00  0.00     0.049 A 
ATOM     66  H   UNL     1       8.609   7.114 -17.840  1.00  0.00     0.167 HD
ATOM     67  C   UNL     1       8.535   9.755 -16.806  1.00  0.00     0.074 A 
ATOM     68  C   UNL     1       8.181  10.897 -15.987  1.00  0.00     0.031 C 
ATOM     69  C   UNL     1       9.441   9.789 -17.814  1.00  0.00     0.031 A 
BRANCH  56  70
ATOM     70  C   UNL     1      10.305   4.344 -20.616  1.00  0.00    -0.014 A 
ATOM     71  C   UNL     1       9.674   3.785 -21.739  1.00  0.00     0.009 A 
ATOM     72  C   UNL     1      11.688   4.162 -20.458  1.00  0.00     0.009 A 
ATOM     73  C   UNL     1      10.402   3.022 -22.655  1.00  0.00     0.001 A 
ATOM     74  C   UNL     1      12.419   3.428 -21.393  1.00  0.00     0.001 A 
ATOM     75  C   UNL     1      11.774   2.847 -22.483  1.00  0.00     0.000 A 
ENDBRANCH  56  70
BRANCH  57  76
ATOM     76  C   UNL     1       5.342   9.144 -13.401  1.00  0.00    -0.014 A 
ATOM     77  C   UNL     1       4.394  10.139 -13.680  1.00  0.00     0.009 A 
ATOM     78  C   UNL     1       5.599   8.809 -12.062  1.00  0.00     0.009 A 
ATOM     79  C   UNL     1       3.732  10.799 -12.641  1.00  0.00     0.001 A 
ATOM     80  C   UNL     1       4.913   9.447 -11.026  1.00  0.00     0.001 A 
ATOM     81  C   UNL     1       3.987  10.447 -11.316  1.00  0.00     0.000 A 
ENDBRANCH  57  76
BRANCH  69  82
ATOM     82  C   UNL     1      10.092  11.113 -18.108  1.00  0.00    -0.014 A 
ATOM     83  C   UNL     1      11.027  11.681 -17.229  1.00  0.00     0.009 A 
ATOM     84  C   UNL     1       9.793  11.782 -19.306  1.00  0.00     0.009 A 
ATOM     85  C   UNL     1      11.621  12.910 -17.527  1.00  0.00     0.001 A 
ATOM     86  C   UNL     1      10.413  12.992 -19.617  1.00  0.00     0.001 A 
ATOM     87  C   UNL     1      11.318  13.560 -18.723  1.00  0.00     0.000 A 
ENDBRANCH  69  82
ENDBRANCH  43  44
ENDBRANCH  35  38
ENDBRANCH  33  34
ENDBRANCH  32  33
ENDBRANCH   1  32
TORSDOF 15
