REMARK SMILES C[N@H+]1CCO[C@](C)(C(=O)NCCCNC(=O)c2ccc(-c3c4nc(c(-c5ccccc5)c5ccc([nH]5)c(-c5ccccc5)c5nc(c(-c6ccccc6)c6ccc3[nH]6)C=C5)C=C4)cc2)C1
REMARK SMILES IDX 13 1 12 2 11 3 10 4 8 5 9 6 6 8 1 9 2 10 3 11 65 12 4 14
REMARK SMILES IDX 5 15 7 16 14 17 15 18 16 20 17 21 18 22 64 23 19 24 63 25
REMARK SMILES IDX 20 26 21 27 22 28 57 29 23 30 62 31 56 32 58 33 24 34 61 35
REMARK SMILES IDX 55 36 54 37 25 39 47 40 32 41 46 42 33 43 36 44 45 45 59 46
REMARK SMILES IDX 34 47 35 48 44 50 60 51 37 52 26 53 27 54 31 55 28 56 30 57
REMARK SMILES IDX 29 58 48 59 49 60 53 61 50 62 52 63 51 64 38 65 39 66 43 67
REMARK SMILES IDX 40 68 42 69 41 70
REMARK H PARENT 10 7 2 13 14 19 58 38 36 49
REMARK Flexibility Score: inf
ROOT
ATOM      1  C   UNL     1      -3.191  -0.882   4.385  1.00  0.00     0.118 C 
ENDROOT
BRANCH   1   2
ATOM      2  C   UNL     1      -2.212  -0.480   3.293  1.00  0.00     0.042 C 
BRANCH   2   3
ATOM      3  C   UNL     1      -0.778  -0.901   3.578  1.00  0.00     0.117 C 
BRANCH   3   4
ATOM      4  N   UNL     1      -0.599  -2.344   3.506  1.00  0.00    -0.353 N 
ATOM      5  C   UNL     1       0.107  -3.139   2.642  1.00  0.00     0.257 C 
ATOM      6  O   UNL     1       0.036  -4.354   2.854  1.00  0.00    -0.271 OA
ATOM      7  H   UNL     1      -1.075  -2.841   4.209  1.00  0.00     0.163 HD
BRANCH   5   8
ATOM      8  C   UNL     1       0.951  -2.537   1.477  1.00  0.00     0.192 C 
ATOM      9  C   UNL     1       1.227  -0.088  -0.639  1.00  0.00     0.332 C 
ATOM     10  N   UNL     1       0.496  -1.339  -0.766  1.00  0.00    -0.333 N 
ATOM     11  C   UNL     1       1.270  -2.411  -1.413  1.00  0.00     0.290 C 
ATOM     12  C   UNL     1      -0.041  -1.839   0.509  1.00  0.00     0.308 C 
ATOM     13  H   UNL     1      -0.286  -1.094  -1.373  1.00  0.00     0.348 HD
ATOM     14  C   UNL     1       2.216  -3.183  -0.475  1.00  0.00     0.223 C 
ATOM     15  O   UNL     1       1.581  -3.615   0.738  1.00  0.00    -0.354 OA
ATOM     16  C   UNL     1       2.079  -1.703   2.107  1.00  0.00     0.059 C 
ENDBRANCH   5   8
ENDBRANCH   3   4
ENDBRANCH   2   3
ENDBRANCH   1   2
BRANCH   1  17
ATOM     17  N   UNL     1      -2.910  -0.219   5.653  1.00  0.00    -0.352 N 
ATOM     18  C   UNL     1      -3.656   0.684   6.364  1.00  0.00     0.251 C 
ATOM     19  H   UNL     1      -2.048  -0.459   6.063  1.00  0.00     0.163 HD
ATOM     20  O   UNL     1      -3.141   1.288   7.307  1.00  0.00    -0.269 OA
BRANCH  18  21
ATOM     21  C   UNL     1      -5.062   0.953   6.001  1.00  0.00     0.039 A 
ATOM     22  C   UNL     1      -5.540   2.264   6.066  1.00  0.00     0.014 A 
ATOM     23  C   UNL     1      -5.915  -0.084   5.617  1.00  0.00     0.014 A 
ATOM     24  C   UNL     1      -6.853   2.542   5.682  1.00  0.00     0.010 A 
ATOM     25  C   UNL     1      -7.189   0.206   5.143  1.00  0.00     0.010 A 
ATOM     26  C   UNL     1      -7.676   1.521   5.180  1.00  0.00    -0.014 A 
BRANCH  26  27
ATOM     27  C   UNL     1      -9.048   1.802   4.692  1.00  0.00     0.031 A 
ATOM     28  C   UNL     1     -10.235   1.163   5.356  1.00  0.00     0.074 A 
ATOM     29  C   UNL     1      -9.219   2.565   3.595  1.00  0.00     0.049 A 
ATOM     30  N   UNL     1     -11.501   1.236   5.032  1.00  0.00    -0.248 NA
ATOM     31  C   UNL     1      -9.960   0.302   6.518  1.00  0.00     0.031 C 
ATOM     32  C   UNL     1      -8.145   3.193   2.824  1.00  0.00     0.029 A 
ATOM     33  N   UNL     1     -10.363   2.929   2.932  1.00  0.00    -0.354 N 
ATOM     34  C   UNL     1     -12.167   0.410   5.929  1.00  0.00     0.074 A 
ATOM     35  C   UNL     1     -11.161  -0.193   6.775  1.00  0.00     0.031 C 
ATOM     36  C   UNL     1      -8.682   3.883   1.806  1.00  0.00     0.029 A 
ATOM     37  C   UNL     1     -10.132   3.712   1.829  1.00  0.00     0.049 A 
ATOM     38  H   UNL     1     -11.264   2.655   3.220  1.00  0.00     0.167 HD
ATOM     39  C   UNL     1     -13.498   0.187   6.051  1.00  0.00     0.031 A 
ATOM     40  C   UNL     1     -10.987   4.229   0.927  1.00  0.00     0.031 A 
ATOM     41  C   UNL     1     -14.497   0.795   5.213  1.00  0.00     0.049 A 
ATOM     42  C   UNL     1     -12.459   3.980   1.085  1.00  0.00     0.074 A 
ATOM     43  C   UNL     1     -15.874   0.699   5.305  1.00  0.00     0.029 A 
ATOM     44  N   UNL     1     -14.223   1.605   4.121  1.00  0.00    -0.354 N 
ATOM     45  N   UNL     1     -13.083   3.271   1.994  1.00  0.00    -0.248 NA
ATOM     46  C   UNL     1     -13.346   4.612   0.099  1.00  0.00     0.031 C 
ATOM     47  C   UNL     1     -16.432   1.401   4.231  1.00  0.00     0.029 A 
ATOM     48  C   UNL     1     -15.405   1.987   3.508  1.00  0.00     0.049 A 
ATOM     49  H   UNL     1     -13.322   1.869   3.825  1.00  0.00     0.167 HD
ATOM     50  C   UNL     1     -14.436   3.387   1.704  1.00  0.00     0.074 A 
ATOM     51  C   UNL     1     -14.541   4.249   0.544  1.00  0.00     0.031 C 
ATOM     52  C   UNL     1     -15.494   2.832   2.344  1.00  0.00     0.031 A 
BRANCH  39  53
ATOM     53  C   UNL     1     -13.937  -0.778   7.120  1.00  0.00    -0.014 A 
ATOM     54  C   UNL     1     -13.789  -0.479   8.485  1.00  0.00     0.009 A 
ATOM     55  C   UNL     1     -14.506  -2.007   6.755  1.00  0.00     0.009 A 
ATOM     56  C   UNL     1     -14.149  -1.413   9.458  1.00  0.00     0.001 A 
ATOM     57  C   UNL     1     -14.898  -2.926   7.731  1.00  0.00     0.001 A 
ATOM     58  C   UNL     1     -14.705  -2.635   9.081  1.00  0.00     0.000 A 
ENDBRANCH  39  53
BRANCH  40  59
ATOM     59  C   UNL     1     -10.459   5.050  -0.192  1.00  0.00    -0.014 A 
ATOM     60  C   UNL     1     -10.632   6.442  -0.200  1.00  0.00     0.009 A 
ATOM     61  C   UNL     1      -9.740   4.449  -1.238  1.00  0.00     0.009 A 
ATOM     62  C   UNL     1     -10.105   7.214  -1.238  1.00  0.00     0.001 A 
ATOM     63  C   UNL     1      -9.191   5.226  -2.260  1.00  0.00     0.001 A 
ATOM     64  C   UNL     1      -9.379   6.607  -2.262  1.00  0.00     0.000 A 
ENDBRANCH  40  59
BRANCH  52  65
ATOM     65  C   UNL     1     -16.864   3.154   1.813  1.00  0.00    -0.014 A 
ATOM     66  C   UNL     1     -17.321   2.617   0.600  1.00  0.00     0.009 A 
ATOM     67  C   UNL     1     -17.724   3.973   2.562  1.00  0.00     0.009 A 
ATOM     68  C   UNL     1     -18.602   2.920   0.132  1.00  0.00     0.001 A 
ATOM     69  C   UNL     1     -19.014   4.249   2.107  1.00  0.00     0.001 A 
ATOM     70  C   UNL     1     -19.448   3.730   0.889  1.00  0.00     0.000 A 
ENDBRANCH  52  65
ENDBRANCH  26  27
ENDBRANCH  18  21
ENDBRANCH   1  17
TORSDOF 10
