REMARK SMILES Cc1ccc(C)c(S(=O)(=O)N[C@H](CC2=c3ccccc3=NC2)C(=O)NCCCNC(=O)c2ccc(-c3c4nc(c(-c5ccccc5)c5ccc([nH]5)c(-c5ccccc5)c5nc(c(-c6ccccc6)c6ccc3[nH]6)C=C5)C=C4)cc2)c1
REMARK SMILES IDX 26 1 25 2 23 3 24 4 12 6 11 7 8 9 9 10 10 11 7 12 1 13 2 14
REMARK SMILES IDX 3 15 80 16 4 17 5 18 6 19 13 20 14 21 15 22 22 23 16 24
REMARK SMILES IDX 20 25 21 26 17 27 19 28 18 29 27 30 28 31 29 32 30 33 31 35
REMARK SMILES IDX 32 36 33 37 79 38 34 39 78 40 35 41 36 42 37 43 72 44 38 45
REMARK SMILES IDX 77 46 71 47 73 48 39 49 76 50 70 51 69 52 40 54 62 55 47 56
REMARK SMILES IDX 61 57 48 58 51 59 60 60 74 61 49 62 50 63 59 65 75 66 52 67
REMARK SMILES IDX 41 68 42 69 46 70 43 71 45 72 44 73 63 74 64 75 68 76 65 77
REMARK SMILES IDX 67 78 66 79 53 80 54 81 58 82 55 83 57 84 56 85
REMARK H PARENT 25 5 11 8 29 34 73 53 51 64
REMARK Flexibility Score: inf
ROOT
ATOM      1  C   UNL     1      -1.082   6.784  -2.419  1.00  0.00     0.117 C 
ENDROOT
BRANCH   1   2
ATOM      2  N   UNL     1       0.325   6.566  -2.091  1.00  0.00    -0.355 N 
ATOM      3  C   UNL     1       1.081   5.536  -1.601  1.00  0.00     0.238 C 
ATOM      4  O   UNL     1       2.286   5.772  -1.453  1.00  0.00    -0.273 OA
ATOM      5  H   UNL     1       0.870   7.368  -2.268  1.00  0.00     0.163 HD
BRANCH   3   6
ATOM      6  C   UNL     1       0.513   4.180  -1.168  1.00  0.00     0.163 C 
BRANCH   6   7
ATOM      7  N   UNL     1      -0.453   3.685  -2.189  1.00  0.00    -0.198 NA
ATOM      8  H   UNL     1      -1.223   3.259  -1.674  1.00  0.00     0.142 HD
BRANCH   7   9
ATOM      9  S   UNL     1       0.007   2.575  -3.363  1.00  0.00     0.241 S 
ATOM     10  O   UNL     1       1.449   2.666  -3.521  1.00  0.00    -0.207 OA
ATOM     11  O   UNL     1      -0.905   2.813  -4.444  1.00  0.00    -0.207 OA
BRANCH   9  12
ATOM     12  C   UNL     1      -0.398   1.001  -2.658  1.00  0.00     0.085 A 
ATOM     13  C   UNL     1      -1.714  -0.232   0.692  1.00  0.00     0.044 C 
ATOM     14  C   UNL     1      -1.175  -0.232  -0.707  1.00  0.00    -0.050 A 
ATOM     15  C   UNL     1      -0.828  -1.420  -1.348  1.00  0.00     0.004 A 
ATOM     16  C   UNL     1      -0.990   0.970  -1.387  1.00  0.00     0.025 A 
ATOM     17  C   UNL     1      -0.311  -1.401  -2.649  1.00  0.00     0.005 A 
ATOM     18  C   UNL     1      -0.086  -0.191  -3.328  1.00  0.00    -0.031 A 
ATOM     19  C   UNL     1       0.454  -0.261  -4.729  1.00  0.00     0.046 C 
ENDBRANCH   9  12
ENDBRANCH   7   9
ENDBRANCH   6   7
BRANCH   6  20
ATOM     20  C   UNL     1      -0.125   4.116   0.262  1.00  0.00     0.063 C 
BRANCH  20  21
ATOM     21  C   UNL     1       0.169   5.153   1.325  1.00  0.00    -0.037 C 
ATOM     22  C   UNL     1       0.609   5.046   2.583  1.00  0.00     0.001 A 
ATOM     23  C   UNL     1      -0.238   6.569   1.076  1.00  0.00     0.174 C 
ATOM     24  C   UNL     1       1.015   3.995   3.466  1.00  0.00     0.010 A 
ATOM     25  C   UNL     1       0.516   6.436   3.086  1.00  0.00     0.065 A 
ATOM     26  N   UNL     1       0.025   7.340   2.299  1.00  0.00    -0.280 NA
ATOM     27  C   UNL     1       1.370   4.306   4.728  1.00  0.00     0.001 A 
ATOM     28  C   UNL     1       0.975   6.708   4.458  1.00  0.00     0.028 A 
ATOM     29  C   UNL     1       1.381   5.677   5.211  1.00  0.00     0.002 A 
ENDBRANCH  20  21
ENDBRANCH   6  20
ENDBRANCH   3   6
ENDBRANCH   1   2
BRANCH   1  30
ATOM     30  C   UNL     1      -1.846   7.857  -1.641  1.00  0.00     0.042 C 
BRANCH  30  31
ATOM     31  C   UNL     1      -1.058   9.015  -1.062  1.00  0.00     0.118 C 
BRANCH  31  32
ATOM     32  N   UNL     1      -1.400  10.313  -1.615  1.00  0.00    -0.352 N 
ATOM     33  C   UNL     1      -0.897  11.547  -1.254  1.00  0.00     0.251 C 
ATOM     34  H   UNL     1      -2.073  10.313  -2.334  1.00  0.00     0.163 HD
ATOM     35  O   UNL     1      -1.344  12.570  -1.761  1.00  0.00    -0.269 OA
BRANCH  33  36
ATOM     36  C   UNL     1       0.304  11.601  -0.391  1.00  0.00     0.039 A 
ATOM     37  C   UNL     1       1.391  12.332  -0.874  1.00  0.00     0.014 A 
ATOM     38  C   UNL     1       0.446  10.769   0.720  1.00  0.00     0.014 A 
ATOM     39  C   UNL     1       2.661  12.045  -0.396  1.00  0.00     0.010 A 
ATOM     40  C   UNL     1       1.715  10.410   1.129  1.00  0.00     0.010 A 
ATOM     41  C   UNL     1       2.822  11.006   0.527  1.00  0.00    -0.014 A 
BRANCH  41  42
ATOM     42  C   UNL     1       4.148  10.707   1.041  1.00  0.00     0.031 A 
ATOM     43  C   UNL     1       4.470  11.518   2.234  1.00  0.00     0.074 A 
ATOM     44  C   UNL     1       4.954   9.712   0.628  1.00  0.00     0.049 A 
ATOM     45  N   UNL     1       5.109  12.640   2.266  1.00  0.00    -0.248 NA
ATOM     46  C   UNL     1       3.797  11.166   3.496  1.00  0.00     0.031 C 
ATOM     47  C   UNL     1       4.645   8.602  -0.273  1.00  0.00     0.029 A 
ATOM     48  N   UNL     1       6.229   9.442   1.027  1.00  0.00    -0.354 N 
ATOM     49  C   UNL     1       5.085  13.024   3.600  1.00  0.00     0.074 A 
ATOM     50  C   UNL     1       4.029  12.265   4.213  1.00  0.00     0.031 C 
ATOM     51  C   UNL     1       5.625   7.668  -0.180  1.00  0.00     0.029 A 
ATOM     52  C   UNL     1       6.693   8.186   0.661  1.00  0.00     0.049 A 
ATOM     53  H   UNL     1       6.777  10.086   1.533  1.00  0.00     0.167 HD
ATOM     54  C   UNL     1       6.146  13.650   4.178  1.00  0.00     0.031 A 
ATOM     55  C   UNL     1       7.853   7.618   1.077  1.00  0.00     0.031 A 
ATOM     56  C   UNL     1       7.121  14.029   3.186  1.00  0.00     0.049 A 
ATOM     57  C   UNL     1       8.748   8.711   1.522  1.00  0.00     0.074 A 
ATOM     58  C   UNL     1       7.203  14.957   2.174  1.00  0.00     0.029 A 
ATOM     59  N   UNL     1       8.060  13.058   2.933  1.00  0.00    -0.354 N 
ATOM     60  N   UNL     1       9.230   9.619   0.723  1.00  0.00    -0.248 NA
ATOM     61  C   UNL     1       8.847   9.018   2.944  1.00  0.00     0.031 C 
ATOM     62  C   UNL     1       8.041  14.372   1.180  1.00  0.00     0.029 A 
ATOM     63  C   UNL     1       8.491  13.131   1.635  1.00  0.00     0.049 A 
ATOM     64  H   UNL     1       8.378  12.400   3.592  1.00  0.00     0.167 HD
ATOM     65  C   UNL     1       9.276  10.767   1.492  1.00  0.00     0.074 A 
ATOM     66  C   UNL     1       9.203  10.304   2.872  1.00  0.00     0.031 C 
ATOM     67  C   UNL     1       9.053  11.991   0.932  1.00  0.00     0.031 A 
BRANCH  54  68
ATOM     68  C   UNL     1       6.541  13.480   5.630  1.00  0.00    -0.014 A 
ATOM     69  C   UNL     1       6.019  12.491   6.486  1.00  0.00     0.009 A 
ATOM     70  C   UNL     1       7.663  14.181   6.106  1.00  0.00     0.009 A 
ATOM     71  C   UNL     1       6.571  12.212   7.738  1.00  0.00     0.001 A 
ATOM     72  C   UNL     1       8.246  13.879   7.344  1.00  0.00     0.001 A 
ATOM     73  C   UNL     1       7.699  12.894   8.160  1.00  0.00     0.000 A 
ENDBRANCH  54  68
BRANCH  55  74
ATOM     74  C   UNL     1       8.124   6.212   1.457  1.00  0.00    -0.014 A 
ATOM     75  C   UNL     1       7.097   5.428   2.009  1.00  0.00     0.009 A 
ATOM     76  C   UNL     1       9.447   5.754   1.601  1.00  0.00     0.009 A 
ATOM     77  C   UNL     1       7.383   4.267   2.739  1.00  0.00     0.001 A 
ATOM     78  C   UNL     1       9.732   4.591   2.331  1.00  0.00     0.001 A 
ATOM     79  C   UNL     1       8.702   3.861   2.918  1.00  0.00     0.000 A 
ENDBRANCH  55  74
BRANCH  67  80
ATOM     80  C   UNL     1       9.201  12.126  -0.562  1.00  0.00    -0.014 A 
ATOM     81  C   UNL     1      10.110  13.085  -1.036  1.00  0.00     0.009 A 
ATOM     82  C   UNL     1       8.381  11.466  -1.492  1.00  0.00     0.009 A 
ATOM     83  C   UNL     1      10.175  13.407  -2.391  1.00  0.00     0.001 A 
ATOM     84  C   UNL     1       8.467  11.768  -2.856  1.00  0.00     0.001 A 
ATOM     85  C   UNL     1       9.352  12.749  -3.302  1.00  0.00     0.000 A 
ENDBRANCH  67  80
ENDBRANCH  41  42
ENDBRANCH  33  36
ENDBRANCH  31  32
ENDBRANCH  30  31
ENDBRANCH   1  30
TORSDOF 15
