REMARK SMILES COc1cc(CC(=O)N[C@@H](CC(=O)NCCCNC(=O)c2ccc(-c3c4nc(c(-c5ccccc5)c5ccc([nH]5)c(-c5ccccc5)c5nc(c(-c6ccccc6)c6ccc3[nH]6)C=C5)C=C4)cc2)c2cccs2)ccc1C
REMARK SMILES IDX 12 1 13 2 14 3 11 5 10 6 9 7 7 8 8 9 6 11 5 12 3 13 4 14
REMARK SMILES IDX 76 15 75 16 77 17 74 18 2 19 1 20 69 21 70 22 73 23 71 24
REMARK SMILES IDX 72 25 15 26 16 27 17 28 18 29 19 30 20 32 21 33 22 34 68 35
REMARK SMILES IDX 23 36 67 37 24 38 25 39 26 40 61 41 27 42 66 43 60 44 62 45
REMARK SMILES IDX 28 46 65 47 59 48 58 49 29 51 51 52 36 53 50 54 37 55 40 56
REMARK SMILES IDX 49 57 63 58 38 59 39 60 48 62 64 63 41 64 30 65 31 66 35 67
REMARK SMILES IDX 32 68 34 69 33 70 52 71 53 72 57 73 54 74 56 75 55 76 42 77
REMARK SMILES IDX 43 78 47 79 44 80 46 81 45 82
REMARK H PARENT 14 4 9 10 18 31 62 50 40 61
REMARK Flexibility Score: inf
ROOT
ATOM      1  C   UNL     1       3.457   5.416   3.618  1.00  0.00     0.222 C 
ATOM      2  O   UNL     1       3.485   6.419   2.900  1.00  0.00    -0.275 OA
ATOM      3  N   UNL     1       3.626   5.615   4.954  1.00  0.00    -0.356 N 
ATOM      4  H   UNL     1       3.864   6.537   5.208  1.00  0.00     0.163 HD
ENDROOT
BRANCH   1   5
ATOM      5  C   UNL     1       3.171   4.047   3.025  1.00  0.00     0.130 C 
BRANCH   5   6
ATOM      6  C   UNL     1       4.327   3.092   2.681  1.00  0.00     0.131 C 
BRANCH   6   7
ATOM      7  N   UNL     1       4.971   2.505   3.848  1.00  0.00    -0.348 N 
ATOM      8  C   UNL     1       4.768   1.346   4.527  1.00  0.00     0.224 C 
ATOM      9  O   UNL     1       5.465   1.156   5.530  1.00  0.00    -0.275 OA
ATOM     10  H   UNL     1       5.697   3.058   4.218  1.00  0.00     0.164 HD
BRANCH   8  11
ATOM     11  C   UNL     1       3.838   0.256   4.040  1.00  0.00     0.135 C 
BRANCH  11  12
ATOM     12  C   UNL     1       2.413   0.638   3.744  1.00  0.00    -0.035 A 
ATOM     13  C   UNL     1       0.617   0.865   2.103  1.00  0.00     0.122 A 
ATOM     14  C   UNL     1       1.925   0.502   2.434  1.00  0.00     0.051 A 
ATOM     15  C   UNL     1      -0.229   1.368   3.102  1.00  0.00    -0.009 A 
ATOM     16  C   UNL     1       0.242   1.455   4.424  1.00  0.00     0.007 A 
ATOM     17  C   UNL     1      -1.649   1.774   2.817  1.00  0.00     0.048 C 
ATOM     18  C   UNL     1       1.551   1.091   4.745  1.00  0.00     0.005 A 
BRANCH  13  19
ATOM     19  O   UNL     1       0.105   0.792   0.835  1.00  0.00    -0.496 OA
ATOM     20  C   UNL     1       0.799  -0.034  -0.094  1.00  0.00     0.278 C 
ENDBRANCH  13  19
ENDBRANCH  11  12
ENDBRANCH   8  11
ENDBRANCH   6   7
BRANCH   6  21
ATOM     21  C   UNL     1       5.444   3.617   1.798  1.00  0.00     0.027 A 
ATOM     22  C   UNL     1       5.914   4.894   1.549  1.00  0.00     0.017 A 
ATOM     23  S   UNL     1       6.404   2.455   0.940  1.00  0.00    -0.147 S 
ATOM     24  C   UNL     1       7.060   4.916   0.700  1.00  0.00     0.012 A 
ATOM     25  C   UNL     1       7.443   3.655   0.316  1.00  0.00     0.065 A 
ENDBRANCH   6  21
ENDBRANCH   5   6
ENDBRANCH   1   5
BRANCH   3  26
ATOM     26  C   UNL     1       3.511   4.688   6.066  1.00  0.00     0.117 C 
BRANCH  26  27
ATOM     27  C   UNL     1       4.871   4.200   6.539  1.00  0.00     0.042 C 
BRANCH  27  28
ATOM     28  C   UNL     1       5.549   5.094   7.562  1.00  0.00     0.118 C 
BRANCH  28  29
ATOM     29  N   UNL     1       5.634   4.473   8.884  1.00  0.00    -0.352 N 
ATOM     30  C   UNL     1       6.492   4.785   9.926  1.00  0.00     0.251 C 
ATOM     31  H   UNL     1       5.000   3.739   9.055  1.00  0.00     0.163 HD
ATOM     32  O   UNL     1       6.359   4.301  11.035  1.00  0.00    -0.269 OA
BRANCH  30  33
ATOM     33  C   UNL     1       7.514   5.819   9.666  1.00  0.00     0.039 A 
ATOM     34  C   UNL     1       7.345   7.055  10.290  1.00  0.00     0.014 A 
ATOM     35  C   UNL     1       8.374   5.661   8.580  1.00  0.00     0.014 A 
ATOM     36  C   UNL     1       7.834   8.191   9.656  1.00  0.00     0.010 A 
ATOM     37  C   UNL     1       8.792   6.797   7.910  1.00  0.00     0.010 A 
ATOM     38  C   UNL     1       8.448   8.059   8.406  1.00  0.00    -0.014 A 
BRANCH  38  39
ATOM     39  C   UNL     1       8.632   9.202   7.519  1.00  0.00     0.031 A 
ATOM     40  C   UNL     1       9.956   9.842   7.411  1.00  0.00     0.074 A 
ATOM     41  C   UNL     1       7.584   9.774   6.884  1.00  0.00     0.049 A 
ATOM     42  N   UNL     1      10.129  11.119   7.323  1.00  0.00    -0.248 NA
ATOM     43  C   UNL     1      11.199   9.082   7.446  1.00  0.00     0.031 C 
ATOM     44  C   UNL     1       7.628  10.859   5.905  1.00  0.00     0.029 A 
ATOM     45  N   UNL     1       6.233   9.634   7.145  1.00  0.00    -0.354 N 
ATOM     46  C   UNL     1      11.451  11.327   7.020  1.00  0.00     0.074 A 
ATOM     47  C   UNL     1      12.093  10.042   7.190  1.00  0.00     0.031 C 
ATOM     48  C   UNL     1       6.419  11.444   5.849  1.00  0.00     0.029 A 
ATOM     49  C   UNL     1       5.579  10.831   6.864  1.00  0.00     0.049 A 
ATOM     50  H   UNL     1       5.801   8.814   7.478  1.00  0.00     0.167 HD
ATOM     51  C   UNL     1      11.860  12.521   6.510  1.00  0.00     0.031 A 
ATOM     52  C   UNL     1       4.864  11.511   7.808  1.00  0.00     0.031 A 
ATOM     53  C   UNL     1      10.759  13.458   6.330  1.00  0.00     0.049 A 
ATOM     54  C   UNL     1       5.425  12.884   8.123  1.00  0.00     0.074 A 
ATOM     55  C   UNL     1       9.993  13.797   5.225  1.00  0.00     0.029 A 
ATOM     56  N   UNL     1      10.102  13.973   7.439  1.00  0.00    -0.354 N 
ATOM     57  N   UNL     1       6.603  13.293   7.742  1.00  0.00    -0.248 NA
ATOM     58  C   UNL     1       4.734  13.881   8.940  1.00  0.00     0.031 C 
ATOM     59  C   UNL     1       8.836  14.473   5.684  1.00  0.00     0.029 A 
ATOM     60  C   UNL     1       8.913  14.567   7.061  1.00  0.00     0.049 A 
ATOM     61  H   UNL     1      10.436  13.921   8.364  1.00  0.00     0.167 HD
ATOM     62  C   UNL     1       6.851  14.538   8.258  1.00  0.00     0.074 A 
ATOM     63  C   UNL     1       5.641  14.875   8.984  1.00  0.00     0.031 C 
ATOM     64  C   UNL     1       8.043  15.172   8.059  1.00  0.00     0.031 A 
BRANCH  51  65
ATOM     65  C   UNL     1      13.216  12.686   5.881  1.00  0.00    -0.014 A 
ATOM     66  C   UNL     1      13.362  13.473   4.724  1.00  0.00     0.009 A 
ATOM     67  C   UNL     1      14.374  12.050   6.358  1.00  0.00     0.009 A 
ATOM     68  C   UNL     1      14.569  13.529   4.019  1.00  0.00     0.001 A 
ATOM     69  C   UNL     1      15.573  12.067   5.633  1.00  0.00     0.001 A 
ATOM     70  C   UNL     1      15.666  12.798   4.455  1.00  0.00     0.000 A 
ENDBRANCH  51  65
BRANCH  52  71
ATOM     71  C   UNL     1       4.178  10.632   8.792  1.00  0.00    -0.014 A 
ATOM     72  C   UNL     1       3.085   9.863   8.347  1.00  0.00     0.009 A 
ATOM     73  C   UNL     1       4.790  10.288  10.005  1.00  0.00     0.009 A 
ATOM     74  C   UNL     1       2.690   8.713   9.037  1.00  0.00     0.001 A 
ATOM     75  C   UNL     1       4.386   9.139  10.696  1.00  0.00     0.001 A 
ATOM     76  C   UNL     1       3.363   8.334  10.195  1.00  0.00     0.000 A 
ENDBRANCH  52  71
BRANCH  64  77
ATOM     77  C   UNL     1       8.503  16.448   8.718  1.00  0.00    -0.014 A 
ATOM     78  C   UNL     1       8.036  16.916   9.952  1.00  0.00     0.009 A 
ATOM     79  C   UNL     1       9.573  17.165   8.132  1.00  0.00     0.009 A 
ATOM     80  C   UNL     1       8.586  18.059  10.552  1.00  0.00     0.001 A 
ATOM     81  C   UNL     1      10.152  18.277   8.746  1.00  0.00     0.001 A 
ATOM     82  C   UNL     1       9.649  18.732   9.955  1.00  0.00     0.000 A 
ENDBRANCH  64  77
ENDBRANCH  38  39
ENDBRANCH  30  33
ENDBRANCH  28  29
ENDBRANCH  27  28
ENDBRANCH  26  27
ENDBRANCH   3  26
TORSDOF 16
