REMARK SMILES C[C@@H]1CC[C@@H](C(=O)NCCCNC(=O)c2ccc(-c3c4nc(c(-c5ccccc5)c5ccc([nH]5)c(-c5ccccc5)c5nc(c(-c6ccccc6)c6ccc3[nH]6)C=C5)C=C4)cc2)[C@H]2C(=O)N(c3ccccc3)C(=O)[C@@H]21
REMARK SMILES IDX 10 1 9 2 8 3 6 4 7 5 5 7 1 8 2 9 3 10 75 11 4 12 63 13 73 14
REMARK SMILES IDX 64 15 66 16 74 17 65 18 67 19 68 20 72 21 69 22 71 23 70 24
REMARK SMILES IDX 11 25 12 26 13 27 14 29 15 30 16 31 62 32 17 33 61 34 18 35
REMARK SMILES IDX 19 36 20 37 55 38 21 39 60 40 54 41 56 42 22 43 59 44 53 45
REMARK SMILES IDX 52 46 23 48 45 49 30 50 44 51 31 52 34 53 43 54 57 55 32 56
REMARK SMILES IDX 33 57 42 59 58 60 35 61 24 62 25 63 29 64 26 65 28 66 27 67
REMARK SMILES IDX 46 68 47 69 51 70 48 71 50 72 49 73 36 74 37 75 41 76 38 77
REMARK SMILES IDX 40 78 39 79
REMARK H PARENT 8 6 12 28 56 47 34 58
REMARK Flexibility Score: inf
ROOT
ATOM      1  C   UNL     1      -2.560  -0.015   4.338  1.00  0.00     0.042 C 
ENDROOT
BRANCH   1   2
ATOM      2  C   UNL     1      -1.237   0.675   4.087  1.00  0.00     0.117 C 
BRANCH   2   3
ATOM      3  N   UNL     1      -0.156   0.251   4.923  1.00  0.00    -0.356 N 
ATOM      4  C   UNL     1       1.045  -0.291   4.604  1.00  0.00     0.223 C 
ATOM      5  O   UNL     1       1.840  -0.393   5.548  1.00  0.00    -0.275 OA
ATOM      6  H   UNL     1      -0.309   0.373   5.888  1.00  0.00     0.163 HD
BRANCH   4   7
ATOM      7  C   UNL     1       1.523  -0.688   3.184  1.00  0.00     0.092 C 
ATOM      8  C   UNL     1       1.867  -0.170  -0.652  1.00  0.00     0.008 C 
ATOM      9  C   UNL     1       0.983   0.505   0.387  1.00  0.00    -0.001 C 
ATOM     10  C   UNL     1       1.777   1.260   1.491  1.00  0.00     0.005 C 
ATOM     11  C   UNL     1       0.010  -0.425   1.084  1.00  0.00     0.095 C 
ATOM     12  C   UNL     1       2.447   0.364   2.542  1.00  0.00     0.014 C 
ATOM     13  C   UNL     1       0.659  -1.338   2.112  1.00  0.00     0.104 C 
ATOM     14  C   UNL     1      -0.977  -1.376   0.444  1.00  0.00     0.237 C 
ATOM     15  C   UNL     1      -0.482  -2.208   2.535  1.00  0.00     0.238 C 
ATOM     16  N   UNL     1      -1.388  -2.228   1.482  1.00  0.00    -0.250 N 
ATOM     17  O   UNL     1      -1.392  -1.253  -0.692  1.00  0.00    -0.274 OA
ATOM     18  O   UNL     1      -0.479  -2.835   3.586  1.00  0.00    -0.274 OA
BRANCH  16  19
ATOM     19  C   UNL     1      -2.602  -2.983   1.495  1.00  0.00     0.052 A 
ATOM     20  C   UNL     1      -3.336  -3.224   0.326  1.00  0.00     0.027 A 
ATOM     21  C   UNL     1      -3.144  -3.468   2.701  1.00  0.00     0.027 A 
ATOM     22  C   UNL     1      -4.556  -3.915   0.362  1.00  0.00     0.002 A 
ATOM     23  C   UNL     1      -4.371  -4.141   2.743  1.00  0.00     0.002 A 
ATOM     24  C   UNL     1      -5.078  -4.365   1.570  1.00  0.00     0.000 A 
ENDBRANCH  16  19
ENDBRANCH   4   7
ENDBRANCH   2   3
ENDBRANCH   1   2
BRANCH   1  25
ATOM     25  C   UNL     1      -3.472   0.806   5.225  1.00  0.00     0.118 C 
BRANCH  25  26
ATOM     26  N   UNL     1      -3.900   2.055   4.594  1.00  0.00    -0.352 N 
ATOM     27  C   UNL     1      -5.118   2.470   4.109  1.00  0.00     0.251 C 
ATOM     28  H   UNL     1      -3.183   2.724   4.501  1.00  0.00     0.163 HD
ATOM     29  O   UNL     1      -5.186   3.518   3.472  1.00  0.00    -0.269 OA
BRANCH  27  30
ATOM     30  C   UNL     1      -6.335   1.656   4.316  1.00  0.00     0.039 A 
ATOM     31  C   UNL     1      -7.324   1.626   3.329  1.00  0.00     0.014 A 
ATOM     32  C   UNL     1      -6.508   0.917   5.483  1.00  0.00     0.014 A 
ATOM     33  C   UNL     1      -8.431   0.785   3.482  1.00  0.00     0.010 A 
ATOM     34  C   UNL     1      -7.508  -0.037   5.556  1.00  0.00     0.010 A 
ATOM     35  C   UNL     1      -8.504  -0.093   4.574  1.00  0.00    -0.014 A 
BRANCH  35  36
ATOM     36  C   UNL     1      -9.627  -1.046   4.756  1.00  0.00     0.031 A 
ATOM     37  C   UNL     1     -10.453  -0.996   6.018  1.00  0.00     0.074 A 
ATOM     38  C   UNL     1      -9.854  -2.005   3.838  1.00  0.00     0.049 A 
ATOM     39  N   UNL     1     -11.411  -1.795   6.414  1.00  0.00    -0.248 NA
ATOM     40  C   UNL     1     -10.126   0.067   6.985  1.00  0.00     0.031 C 
ATOM     41  C   UNL     1      -9.101  -2.193   2.596  1.00  0.00     0.029 A 
ATOM     42  N   UNL     1     -10.795  -3.002   3.809  1.00  0.00    -0.354 N 
ATOM     43  C   UNL     1     -11.769  -1.350   7.681  1.00  0.00     0.074 A 
ATOM     44  C   UNL     1     -10.872  -0.271   8.022  1.00  0.00     0.031 C 
ATOM     45  C   UNL     1      -9.649  -3.200   1.898  1.00  0.00     0.029 A 
ATOM     46  C   UNL     1     -10.754  -3.764   2.667  1.00  0.00     0.049 A 
ATOM     47  H   UNL     1     -11.438  -3.158   4.537  1.00  0.00     0.167 HD
ATOM     48  C   UNL     1     -12.776  -1.773   8.481  1.00  0.00     0.031 A 
ATOM     49  C   UNL     1     -11.525  -4.797   2.281  1.00  0.00     0.031 A 
ATOM     50  C   UNL     1     -13.682  -2.832   8.132  1.00  0.00     0.049 A 
ATOM     51  C   UNL     1     -12.625  -5.267   3.191  1.00  0.00     0.074 A 
ATOM     52  C   UNL     1     -14.773  -3.305   8.838  1.00  0.00     0.029 A 
ATOM     53  N   UNL     1     -13.599  -3.583   6.969  1.00  0.00    -0.354 N 
ATOM     54  N   UNL     1     -12.992  -4.797   4.359  1.00  0.00    -0.248 NA
ATOM     55  C   UNL     1     -13.421  -6.410   2.723  1.00  0.00     0.031 C 
ATOM     56  C   UNL     1     -15.316  -4.381   8.128  1.00  0.00     0.029 A 
ATOM     57  C   UNL     1     -14.603  -4.535   6.949  1.00  0.00     0.049 A 
ATOM     58  H   UNL     1     -12.925  -3.457   6.262  1.00  0.00     0.167 HD
ATOM     59  C   UNL     1     -14.082  -5.564   4.750  1.00  0.00     0.074 A 
ATOM     60  C   UNL     1     -14.322  -6.521   3.689  1.00  0.00     0.031 C 
ATOM     61  C   UNL     1     -14.822  -5.481   5.884  1.00  0.00     0.031 A 
BRANCH  48  62
ATOM     62  C   UNL     1     -12.931  -1.083   9.811  1.00  0.00    -0.014 A 
ATOM     63  C   UNL     1     -13.294   0.273   9.894  1.00  0.00     0.009 A 
ATOM     64  C   UNL     1     -12.692  -1.791  10.999  1.00  0.00     0.009 A 
ATOM     65  C   UNL     1     -13.350   0.919  11.131  1.00  0.00     0.001 A 
ATOM     66  C   UNL     1     -12.787  -1.152  12.237  1.00  0.00     0.001 A 
ATOM     67  C   UNL     1     -13.098   0.206  12.301  1.00  0.00     0.000 A 
ENDBRANCH  48  62
BRANCH  49  68
ATOM     68  C   UNL     1     -11.316  -5.423   0.949  1.00  0.00    -0.014 A 
ATOM     69  C   UNL     1     -12.261  -5.233  -0.072  1.00  0.00     0.009 A 
ATOM     70  C   UNL     1     -10.177  -6.197   0.682  1.00  0.00     0.009 A 
ATOM     71  C   UNL     1     -12.081  -5.823  -1.324  1.00  0.00     0.001 A 
ATOM     72  C   UNL     1      -9.984  -6.761  -0.581  1.00  0.00     0.001 A 
ATOM     73  C   UNL     1     -10.940  -6.581  -1.580  1.00  0.00     0.000 A 
ENDBRANCH  49  68
BRANCH  61  74
ATOM     74  C   UNL     1     -15.983  -6.426   6.017  1.00  0.00    -0.014 A 
ATOM     75  C   UNL     1     -15.790  -7.797   6.241  1.00  0.00     0.009 A 
ATOM     76  C   UNL     1     -17.293  -5.923   5.959  1.00  0.00     0.009 A 
ATOM     77  C   UNL     1     -16.887  -8.652   6.369  1.00  0.00     0.001 A 
ATOM     78  C   UNL     1     -18.386  -6.774   6.120  1.00  0.00     0.001 A 
ATOM     79  C   UNL     1     -18.183  -8.139   6.315  1.00  0.00     0.000 A 
ENDBRANCH  61  74
ENDBRANCH  35  36
ENDBRANCH  27  30
ENDBRANCH  25  26
ENDBRANCH   1  25
TORSDOF 11
