REMARK SMILES Cc1ccccc1C(=O)Nc1ccc(N2CCC(n3c(C)nc4cccnc43)CC2)c(C(=O)NCCCNC(=O)c2ccc(-c3c4nc(c(-c5ccccc5)c5ccc([nH]5)c(-c5ccccc5)c5nc(c(-c6ccccc6)c6ccc3[nH]6)C=C5)C=C4)cc2)c1
REMARK SMILES IDX 36 1 35 2 34 3 32 4 33 5 31 7 11 8 12 9 89 10 13 11 14 12
REMARK SMILES IDX 10 13 8 14 9 15 7 17 1 18 2 19 3 20 4 21 6 22 5 23 15 24
REMARK SMILES IDX 16 25 30 26 17 27 29 28 18 29 19 30 20 31 28 32 21 33 22 34
REMARK SMILES IDX 23 35 27 36 24 37 26 38 25 39 37 40 38 41 39 42 40 44 41 45
REMARK SMILES IDX 42 46 88 47 43 48 87 49 44 50 45 51 46 52 81 53 47 54 86 55
REMARK SMILES IDX 80 56 82 57 48 58 85 59 79 60 78 61 49 63 71 64 56 65 70 66
REMARK SMILES IDX 57 67 60 68 69 69 83 70 58 71 59 72 68 74 84 75 61 76 50 77
REMARK SMILES IDX 51 78 55 79 52 80 54 81 53 82 72 83 73 84 77 85 74 86 76 87
REMARK SMILES IDX 75 88 62 89 63 90 67 91 64 92 66 93 65 94
REMARK H PARENT 34 6 10 16 38 43 82 62 60 73
REMARK Flexibility Score: inf
ROOT
ATOM      1  C   UNL     1       8.805  -2.235  -0.189  1.00  0.00     0.042 C 
ENDROOT
BRANCH   1   2
ATOM      2  C   UNL     1       7.367  -2.025   0.213  1.00  0.00     0.118 C 
BRANCH   2   3
ATOM      3  N   UNL     1       7.115  -1.084   1.270  1.00  0.00    -0.352 N 
ATOM      4  C   UNL     1       5.990  -0.307   1.444  1.00  0.00     0.253 C 
ATOM      5  O   UNL     1       5.909   0.326   2.500  1.00  0.00    -0.269 OA
ATOM      6  H   UNL     1       7.825  -0.984   1.945  1.00  0.00     0.163 HD
BRANCH   4   7
ATOM      7  C   UNL     1       4.907  -0.135   0.408  1.00  0.00     0.065 A 
ATOM      8  C   UNL     1       3.156   1.422  -0.284  1.00  0.00     0.042 A 
ATOM      9  C   UNL     1       2.790   0.578  -1.315  1.00  0.00     0.028 A 
ATOM     10  C   UNL     1       4.300   1.143   0.463  1.00  0.00     0.042 A 
ATOM     11  C   UNL     1       3.411  -0.662  -1.426  1.00  0.00     0.029 A 
ATOM     12  C   UNL     1       4.372  -1.104  -0.486  1.00  0.00     0.050 A 
BRANCH   8  13
ATOM     13  N   UNL     1       2.337   2.470   0.149  1.00  0.00    -0.322 N 
ATOM     14  C   UNL     1       0.959   2.506   0.279  1.00  0.00     0.255 C 
ATOM     15  O   UNL     1       0.424   3.578   0.568  1.00  0.00    -0.269 OA
ATOM     16  H   UNL     1       2.807   3.299   0.396  1.00  0.00     0.170 HD
BRANCH  14  17
ATOM     17  C   UNL     1       0.084   1.296   0.148  1.00  0.00     0.043 A 
ATOM     18  C   UNL     1       1.420  -0.262   1.713  1.00  0.00     0.045 C 
ATOM     19  C   UNL     1       0.303   0.043   0.760  1.00  0.00    -0.038 A 
ATOM     20  C   UNL     1      -0.597  -1.013   0.503  1.00  0.00     0.004 A 
ATOM     21  C   UNL     1      -1.760  -0.805  -0.232  1.00  0.00     0.000 A 
ATOM     22  C   UNL     1      -1.117   1.497  -0.557  1.00  0.00     0.014 A 
ATOM     23  C   UNL     1      -2.038   0.460  -0.733  1.00  0.00     0.001 A 
ENDBRANCH  14  17
ENDBRANCH   8  13
BRANCH  12  24
ATOM     24  N   UNL     1       4.552  -2.496  -0.388  1.00  0.00    -0.371 N 
ATOM     25  C   UNL     1       4.856  -3.259  -1.597  1.00  0.00     0.118 C 
ATOM     26  C   UNL     1       4.290  -3.088   0.916  1.00  0.00     0.118 C 
ATOM     27  C   UNL     1       4.806  -4.770  -1.465  1.00  0.00     0.047 C 
ATOM     28  C   UNL     1       3.988  -4.570   0.859  1.00  0.00     0.047 C 
ATOM     29  C   UNL     1       4.935  -5.344  -0.050  1.00  0.00     0.094 C 
BRANCH  29  30
ATOM     30  N   UNL     1       4.750  -6.805  -0.076  1.00  0.00    -0.310 N 
ATOM     31  C   UNL     1       3.842  -7.631   0.574  1.00  0.00     0.108 A 
ATOM     32  C   UNL     1       5.532  -7.633  -0.864  1.00  0.00     0.160 A 
ATOM     33  C   UNL     1       2.861  -7.242   1.619  1.00  0.00     0.088 C 
ATOM     34  N   UNL     1       3.951  -8.882   0.160  1.00  0.00    -0.232 NA
ATOM     35  C   UNL     1       4.995  -8.900  -0.715  1.00  0.00     0.108 A 
ATOM     36  N   UNL     1       6.574  -7.280  -1.645  1.00  0.00    -0.237 NA
ATOM     37  C   UNL     1       5.563  -9.952  -1.440  1.00  0.00     0.034 A 
ATOM     38  C   UNL     1       7.125  -8.340  -2.287  1.00  0.00     0.113 A 
ATOM     39  C   UNL     1       6.667  -9.652  -2.237  1.00  0.00     0.022 A 
ENDBRANCH  29  30
ENDBRANCH  12  24
ENDBRANCH   4   7
ENDBRANCH   2   3
ENDBRANCH   1   2
BRANCH   1  40
ATOM     40  C   UNL     1       9.483  -3.400   0.520  1.00  0.00     0.118 C 
BRANCH  40  41
ATOM     41  N   UNL     1       8.948  -4.729   0.170  1.00  0.00    -0.352 N 
ATOM     42  C   UNL     1       9.513  -6.001   0.292  1.00  0.00     0.251 C 
ATOM     43  H   UNL     1       8.042  -4.717  -0.214  1.00  0.00     0.163 HD
ATOM     44  O   UNL     1       8.842  -6.997   0.274  1.00  0.00    -0.269 OA
BRANCH  42  45
ATOM     45  C   UNL     1      10.957  -6.102   0.600  1.00  0.00     0.039 A 
ATOM     46  C   UNL     1      11.266  -6.694   1.826  1.00  0.00     0.014 A 
ATOM     47  C   UNL     1      11.821  -5.218  -0.022  1.00  0.00     0.014 A 
ATOM     48  C   UNL     1      12.223  -6.081   2.617  1.00  0.00     0.010 A 
ATOM     49  C   UNL     1      12.678  -4.529   0.808  1.00  0.00     0.010 A 
ATOM     50  C   UNL     1      12.775  -4.886   2.162  1.00  0.00    -0.014 A 
BRANCH  50  51
ATOM     51  C   UNL     1      13.220  -3.841   3.079  1.00  0.00     0.031 A 
ATOM     52  C   UNL     1      14.610  -3.348   3.019  1.00  0.00     0.074 A 
ATOM     53  C   UNL     1      12.353  -3.271   3.953  1.00  0.00     0.049 A 
ATOM     54  N   UNL     1      15.189  -2.741   3.998  1.00  0.00    -0.248 NA
ATOM     55  C   UNL     1      15.500  -3.567   1.879  1.00  0.00     0.031 C 
ATOM     56  C   UNL     1      12.541  -2.038   4.720  1.00  0.00     0.029 A 
ATOM     57  N   UNL     1      11.176  -3.784   4.477  1.00  0.00    -0.354 N 
ATOM     58  C   UNL     1      16.345  -2.197   3.505  1.00  0.00     0.074 A 
ATOM     59  C   UNL     1      16.570  -2.858   2.246  1.00  0.00     0.031 C 
ATOM     60  C   UNL     1      11.680  -2.022   5.751  1.00  0.00     0.029 A 
ATOM     61  C   UNL     1      10.994  -3.300   5.776  1.00  0.00     0.049 A 
ATOM     62  H   UNL     1      10.564  -4.395   4.007  1.00  0.00     0.167 HD
ATOM     63  C   UNL     1      16.893  -1.128   4.142  1.00  0.00     0.031 A 
ATOM     64  C   UNL     1      10.957  -4.139   6.854  1.00  0.00     0.031 A 
ATOM     65  C   UNL     1      16.317  -0.931   5.472  1.00  0.00     0.049 A 
ATOM     66  C   UNL     1      12.133  -3.973   7.805  1.00  0.00     0.074 A 
ATOM     67  C   UNL     1      15.500   0.033   6.037  1.00  0.00     0.029 A 
ATOM     68  N   UNL     1      16.365  -1.984   6.381  1.00  0.00    -0.354 N 
ATOM     69  N   UNL     1      13.147  -3.182   7.586  1.00  0.00    -0.248 NA
ATOM     70  C   UNL     1      12.293  -4.734   9.045  1.00  0.00     0.031 C 
ATOM     71  C   UNL     1      14.963  -0.506   7.243  1.00  0.00     0.029 A 
ATOM     72  C   UNL     1      15.495  -1.770   7.432  1.00  0.00     0.049 A 
ATOM     73  H   UNL     1      16.941  -2.776   6.287  1.00  0.00     0.167 HD
ATOM     74  C   UNL     1      14.109  -3.383   8.540  1.00  0.00     0.074 A 
ATOM     75  C   UNL     1      13.505  -4.326   9.463  1.00  0.00     0.031 C 
ATOM     76  C   UNL     1      15.340  -2.797   8.457  1.00  0.00     0.031 A 
BRANCH  63  77
ATOM     77  C   UNL     1      17.813  -0.140   3.466  1.00  0.00    -0.014 A 
ATOM     78  C   UNL     1      18.346   0.929   4.207  1.00  0.00     0.009 A 
ATOM     79  C   UNL     1      18.094  -0.130   2.085  1.00  0.00     0.009 A 
ATOM     80  C   UNL     1      19.115   1.936   3.604  1.00  0.00     0.001 A 
ATOM     81  C   UNL     1      18.894   0.850   1.483  1.00  0.00     0.001 A 
ATOM     82  C   UNL     1      19.399   1.890   2.244  1.00  0.00     0.000 A 
ENDBRANCH  63  77
BRANCH  64  83
ATOM     83  C   UNL     1      10.257  -5.423   6.575  1.00  0.00    -0.014 A 
ATOM     84  C   UNL     1       8.861  -5.380   6.387  1.00  0.00     0.009 A 
ATOM     85  C   UNL     1      10.959  -6.548   6.121  1.00  0.00     0.009 A 
ATOM     86  C   UNL     1       8.207  -6.369   5.647  1.00  0.00     0.001 A 
ATOM     87  C   UNL     1      10.298  -7.540   5.385  1.00  0.00     0.001 A 
ATOM     88  C   UNL     1       8.934  -7.430   5.115  1.00  0.00     0.000 A 
ENDBRANCH  64  83
BRANCH  76  89
ATOM     89  C   UNL     1      16.532  -3.126   9.326  1.00  0.00    -0.014 A 
ATOM     90  C   UNL     1      16.730  -4.354   9.972  1.00  0.00     0.009 A 
ATOM     91  C   UNL     1      17.597  -2.198   9.392  1.00  0.00     0.009 A 
ATOM     92  C   UNL     1      17.909  -4.623  10.683  1.00  0.00     0.001 A 
ATOM     93  C   UNL     1      18.792  -2.480  10.059  1.00  0.00     0.001 A 
ATOM     94  C   UNL     1      18.943  -3.691  10.717  1.00  0.00     0.000 A 
ENDBRANCH  76  89
ENDBRANCH  50  51
ENDBRANCH  42  45
ENDBRANCH  40  41
ENDBRANCH   1  40
TORSDOF 14
