REMARK SMILES CCc1cccc(C)c1Nc1ccccc1CC(=O)NCCCNC(=O)c1ccc(-c2c3nc(c(-c4ccccc4)c4ccc([nH]4)c(-c4ccccc4)c4nc(c(-c5ccccc5)c5ccc2[nH]5)C=C4)C=C3)cc1
REMARK SMILES IDX 21 1 20 2 18 3 19 4 17 6 16 7 11 8 12 9 13 10 15 11 14 12
REMARK SMILES IDX 10 13 9 15 3 16 4 17 5 18 7 19 6 20 8 21 2 22 1 23 22 24
REMARK SMILES IDX 23 25 24 26 25 27 26 29 27 30 28 31 74 32 29 33 73 34 30 35
REMARK SMILES IDX 31 36 32 37 67 38 33 39 72 40 66 41 68 42 34 43 71 44 65 45
REMARK SMILES IDX 64 46 35 48 57 49 42 50 56 51 43 52 46 53 55 54 69 55 44 56
REMARK SMILES IDX 45 57 54 59 70 60 47 61 36 62 37 63 41 64 38 65 40 66 39 67
REMARK SMILES IDX 58 68 59 69 63 70 60 71 62 72 61 73 48 74 49 75 53 76 50 77
REMARK SMILES IDX 52 78 51 79
REMARK H PARENT 20 5 10 14 24 28 68 47 46 58
REMARK Flexibility Score: inf
ROOT
ATOM      1  C   UNL     1       6.144   3.604  -3.730  1.00  0.00     0.117 C 
ENDROOT
BRANCH   1   2
ATOM      2  N   UNL     1       5.223   3.824  -2.631  1.00  0.00    -0.356 N 
ATOM      3  C   UNL     1       4.835   2.994  -1.617  1.00  0.00     0.224 C 
ATOM      4  O   UNL     1       4.429   3.544  -0.588  1.00  0.00    -0.275 OA
ATOM      5  H   UNL     1       4.809   4.718  -2.613  1.00  0.00     0.163 HD
BRANCH   3   6
ATOM      6  C   UNL     1       5.020   1.491  -1.671  1.00  0.00     0.137 C 
BRANCH   6   7
ATOM      7  C   UNL     1       4.319   0.727  -2.777  1.00  0.00    -0.015 A 
ATOM      8  C   UNL     1       2.945   0.402  -2.773  1.00  0.00     0.042 A 
ATOM      9  C   UNL     1       2.427  -0.369  -3.835  1.00  0.00     0.026 A 
ATOM     10  C   UNL     1       3.234  -0.824  -4.876  1.00  0.00     0.002 A 
ATOM     11  C   UNL     1       5.127   0.209  -3.816  1.00  0.00     0.006 A 
ATOM     12  C   UNL     1       4.590  -0.541  -4.862  1.00  0.00     0.000 A 
BRANCH   8  13
ATOM     13  N   UNL     1       2.025   0.790  -1.777  1.00  0.00    -0.355 N 
ATOM     14  H   UNL     1       1.634   0.031  -1.287  1.00  0.00     0.167 HD
BRANCH  13  15
ATOM     15  C   UNL     1       1.550   2.047  -1.339  1.00  0.00     0.045 A 
ATOM     16  C   UNL     1       1.045   2.206  -0.022  1.00  0.00    -0.024 A 
ATOM     17  C   UNL     1       0.800   3.517   0.457  1.00  0.00     0.006 A 
ATOM     18  C   UNL     1       0.981   4.638  -0.339  1.00  0.00     0.001 A 
ATOM     19  C   UNL     1       1.590   3.188  -2.183  1.00  0.00    -0.027 A 
ATOM     20  C   UNL     1       1.341   4.470  -1.663  1.00  0.00     0.005 A 
ATOM     21  C   UNL     1       1.817   3.090  -3.665  1.00  0.00     0.046 C 
BRANCH  16  22
ATOM     22  C   UNL     1       0.697   1.132   0.998  1.00  0.00     0.034 C 
ATOM     23  C   UNL     1       0.717  -0.350   0.663  1.00  0.00     0.009 C 
ENDBRANCH  16  22
ENDBRANCH  13  15
ENDBRANCH   8  13
ENDBRANCH   6   7
ENDBRANCH   3   6
ENDBRANCH   1   2
BRANCH   1  24
ATOM     24  C   UNL     1       5.489   3.398  -5.094  1.00  0.00     0.042 C 
BRANCH  24  25
ATOM     25  C   UNL     1       4.629   4.563  -5.577  1.00  0.00     0.118 C 
BRANCH  25  26
ATOM     26  N   UNL     1       5.120   5.196  -6.798  1.00  0.00    -0.352 N 
ATOM     27  C   UNL     1       4.541   6.210  -7.543  1.00  0.00     0.251 C 
ATOM     28  H   UNL     1       5.979   4.855  -7.139  1.00  0.00     0.163 HD
ATOM     29  O   UNL     1       5.136   6.706  -8.485  1.00  0.00    -0.269 OA
BRANCH  27  30
ATOM     30  C   UNL     1       3.238   6.764  -7.108  1.00  0.00     0.039 A 
ATOM     31  C   UNL     1       3.151   8.142  -6.895  1.00  0.00     0.014 A 
ATOM     32  C   UNL     1       2.182   5.926  -6.753  1.00  0.00     0.014 A 
ATOM     33  C   UNL     1       2.121   8.644  -6.104  1.00  0.00     0.010 A 
ATOM     34  C   UNL     1       1.192   6.412  -5.917  1.00  0.00     0.010 A 
ATOM     35  C   UNL     1       1.213   7.754  -5.528  1.00  0.00    -0.014 A 
BRANCH  35  36
ATOM     36  C   UNL     1       0.389   8.127  -4.384  1.00  0.00     0.031 A 
ATOM     37  C   UNL     1      -1.021   8.519  -4.543  1.00  0.00     0.074 A 
ATOM     38  C   UNL     1       0.946   8.158  -3.154  1.00  0.00     0.049 A 
ATOM     39  N   UNL     1      -1.625   9.376  -3.788  1.00  0.00    -0.248 NA
ATOM     40  C   UNL     1      -1.851   8.002  -5.621  1.00  0.00     0.031 C 
ATOM     41  C   UNL     1       0.275   8.325  -1.869  1.00  0.00     0.029 A 
ATOM     42  N   UNL     1       2.298   8.271  -2.854  1.00  0.00    -0.354 N 
ATOM     43  C   UNL     1      -2.966   9.297  -4.077  1.00  0.00     0.074 A 
ATOM     44  C   UNL     1      -3.042   8.512  -5.291  1.00  0.00     0.031 C 
ATOM     45  C   UNL     1       1.173   8.749  -0.965  1.00  0.00     0.029 A 
ATOM     46  C   UNL     1       2.418   9.009  -1.672  1.00  0.00     0.049 A 
ATOM     47  H   UNL     1       3.041   7.897  -3.381  1.00  0.00     0.167 HD
ATOM     48  C   UNL     1      -3.884   9.756  -3.178  1.00  0.00     0.031 A 
ATOM     49  C   UNL     1       3.091  10.196  -1.653  1.00  0.00     0.031 A 
ATOM     50  C   UNL     1      -3.256  10.370  -2.008  1.00  0.00     0.049 A 
ATOM     51  C   UNL     1       2.233  11.377  -1.259  1.00  0.00     0.074 A 
ATOM     52  C   UNL     1      -3.022   9.909  -0.722  1.00  0.00     0.029 A 
ATOM     53  N   UNL     1      -2.508  11.534  -2.150  1.00  0.00    -0.354 N 
ATOM     54  N   UNL     1       0.930  11.381  -1.297  1.00  0.00    -0.248 NA
ATOM     55  C   UNL     1       2.784  12.666  -0.846  1.00  0.00     0.031 C 
ATOM     56  C   UNL     1      -2.080  10.771  -0.108  1.00  0.00     0.029 A 
ATOM     57  C   UNL     1      -1.758  11.768  -1.012  1.00  0.00     0.049 A 
ATOM     58  H   UNL     1      -2.512  12.111  -2.948  1.00  0.00     0.167 HD
ATOM     59  C   UNL     1       0.468  12.621  -0.942  1.00  0.00     0.074 A 
ATOM     60  C   UNL     1       1.666  13.387  -0.654  1.00  0.00     0.031 C 
ATOM     61  C   UNL     1      -0.865  12.915  -0.928  1.00  0.00     0.031 A 
BRANCH  48  62
ATOM     62  C   UNL     1      -5.337   9.333  -3.213  1.00  0.00    -0.014 A 
ATOM     63  C   UNL     1      -6.058   9.215  -2.009  1.00  0.00     0.009 A 
ATOM     64  C   UNL     1      -6.030   8.969  -4.379  1.00  0.00     0.009 A 
ATOM     65  C   UNL     1      -7.339   8.649  -1.960  1.00  0.00     0.001 A 
ATOM     66  C   UNL     1      -7.294   8.363  -4.335  1.00  0.00     0.001 A 
ATOM     67  C   UNL     1      -7.942   8.187  -3.121  1.00  0.00     0.000 A 
ENDBRANCH  48  62
BRANCH  49  68
ATOM     68  C   UNL     1       4.211  10.280  -2.631  1.00  0.00    -0.014 A 
ATOM     69  C   UNL     1       5.327   9.437  -2.459  1.00  0.00     0.009 A 
ATOM     70  C   UNL     1       4.043  10.923  -3.866  1.00  0.00     0.009 A 
ATOM     71  C   UNL     1       6.194   9.169  -3.522  1.00  0.00     0.001 A 
ATOM     72  C   UNL     1       4.921  10.662  -4.924  1.00  0.00     0.001 A 
ATOM     73  C   UNL     1       5.975   9.762  -4.762  1.00  0.00     0.000 A 
ENDBRANCH  49  68
BRANCH  61  74
ATOM     74  C   UNL     1      -1.466  14.286  -0.747  1.00  0.00    -0.014 A 
ATOM     75  C   UNL     1      -0.798  15.485  -1.033  1.00  0.00     0.009 A 
ATOM     76  C   UNL     1      -2.827  14.392  -0.384  1.00  0.00     0.009 A 
ATOM     77  C   UNL     1      -1.440  16.726  -0.908  1.00  0.00     0.001 A 
ATOM     78  C   UNL     1      -3.483  15.623  -0.301  1.00  0.00     0.001 A 
ATOM     79  C   UNL     1      -2.783  16.794  -0.551  1.00  0.00     0.000 A 
ENDBRANCH  61  74
ENDBRANCH  35  36
ENDBRANCH  27  30
ENDBRANCH  25  26
ENDBRANCH  24  25
ENDBRANCH   1  24
TORSDOF 14
