REMARK SMILES Cc1ccc(C[C@H](C(=O)NCCCNC(=O)c2ccc(-c3c4nc(c(-c5ccccc5)c5ccc([nH]5)c(-c5ccccc5)c5nc(c(-c6ccccc6)c6ccc3[nH]6)C=C5)C=C4)cc2)[C@@H]2CCCC[C@@H]2O)cc1
REMARK SMILES IDX 12 1 11 2 10 3 8 4 9 5 7 7 6 8 5 9 1 10 2 11 3 12 73 13 4 14
REMARK SMILES IDX 72 15 65 16 66 17 70 18 67 19 69 20 68 21 71 22 13 24 14 25
REMARK SMILES IDX 15 26 16 28 17 29 18 30 64 31 19 32 63 33 20 34 21 35 22 36
REMARK SMILES IDX 57 37 23 38 62 39 56 40 58 41 24 42 61 43 55 44 54 45 25 47
REMARK SMILES IDX 47 48 32 49 46 50 33 51 36 52 45 53 59 54 34 55 35 56 44 58
REMARK SMILES IDX 60 59 37 60 26 61 27 62 31 63 28 64 30 65 29 66 48 67 49 68
REMARK SMILES IDX 53 69 50 70 52 71 51 72 38 73 39 74 43 75 40 76 42 77 41 78
REMARK H PARENT 10 6 71 23 14 27 58 46 36 57
REMARK Flexibility Score: inf
ROOT
ATOM      1  C   UNL     1      -5.876  -1.895   4.116  1.00  0.00     0.042 C 
ENDROOT
BRANCH   1   2
ATOM      2  C   UNL     1      -5.651  -1.084   2.865  1.00  0.00     0.117 C 
BRANCH   2   3
ATOM      3  N   UNL     1      -4.672  -1.532   1.925  1.00  0.00    -0.356 N 
ATOM      4  C   UNL     1      -4.560  -1.081   0.639  1.00  0.00     0.223 C 
ATOM      5  O   UNL     1      -3.539  -1.425   0.032  1.00  0.00    -0.275 OA
ATOM      6  H   UNL     1      -4.031  -2.217   2.225  1.00  0.00     0.163 HD
BRANCH   4   7
ATOM      7  C   UNL     1      -5.704  -0.263  -0.048  1.00  0.00     0.088 C 
BRANCH   7   8
ATOM      8  C   UNL     1      -5.748   1.246   0.368  1.00  0.00     0.049 C 
BRANCH   8   9
ATOM      9  C   UNL     1      -6.210   1.667   1.752  1.00  0.00    -0.047 A 
ATOM     10  C   UNL     1      -7.240   2.357   5.900  1.00  0.00     0.044 C 
ATOM     11  C   UNL     1      -6.916   2.211   4.440  1.00  0.00    -0.051 A 
ATOM     12  C   UNL     1      -7.826   1.591   3.578  1.00  0.00     0.004 A 
ATOM     13  C   UNL     1      -5.684   2.633   3.928  1.00  0.00     0.004 A 
ATOM     14  C   UNL     1      -7.490   1.349   2.238  1.00  0.00     0.004 A 
ATOM     15  C   UNL     1      -5.336   2.370   2.597  1.00  0.00     0.004 A 
ENDBRANCH   8   9
ENDBRANCH   7   8
BRANCH   7  16
ATOM     16  C   UNL     1      -5.490  -0.425  -1.618  1.00  0.00     0.030 C 
ATOM     17  C   UNL     1      -6.061   0.684  -2.523  1.00  0.00     0.007 C 
ATOM     18  C   UNL     1      -5.970  -1.801  -2.161  1.00  0.00     0.118 C 
ATOM     19  C   UNL     1      -7.579   0.626  -2.639  1.00  0.00     0.001 C 
ATOM     20  C   UNL     1      -7.488  -1.872  -2.357  1.00  0.00     0.032 C 
ATOM     21  C   UNL     1      -8.018  -0.719  -3.201  1.00  0.00     0.003 C 
BRANCH  18  22
ATOM     22  O   UNL     1      -5.587  -2.879  -1.317  1.00  0.00    -0.393 OA
ATOM     23  H   UNL     1      -6.026  -2.788  -0.457  1.00  0.00     0.210 HD
ENDBRANCH  18  22
ENDBRANCH   7  16
ENDBRANCH   4   7
ENDBRANCH   2   3
ENDBRANCH   1   2
BRANCH   1  24
ATOM     24  C   UNL     1      -4.836  -1.638   5.204  1.00  0.00     0.118 C 
BRANCH  24  25
ATOM     25  N   UNL     1      -4.766  -0.237   5.664  1.00  0.00    -0.352 N 
ATOM     26  C   UNL     1      -4.753   0.401   6.898  1.00  0.00     0.251 C 
ATOM     27  H   UNL     1      -4.718   0.400   4.915  1.00  0.00     0.163 HD
ATOM     28  O   UNL     1      -4.434   1.574   6.966  1.00  0.00    -0.269 OA
BRANCH  26  29
ATOM     29  C   UNL     1      -4.972  -0.349   8.161  1.00  0.00     0.039 A 
ATOM     30  C   UNL     1      -3.861  -0.299   9.012  1.00  0.00     0.014 A 
ATOM     31  C   UNL     1      -5.770  -1.473   8.102  1.00  0.00     0.014 A 
ATOM     32  C   UNL     1      -3.224  -1.492   9.298  1.00  0.00     0.010 A 
ATOM     33  C   UNL     1      -5.109  -2.660   8.327  1.00  0.00     0.010 A 
ATOM     34  C   UNL     1      -3.771  -2.646   8.763  1.00  0.00    -0.014 A 
BRANCH  34  35
ATOM     35  C   UNL     1      -2.981  -3.821   8.411  1.00  0.00     0.031 A 
ATOM     36  C   UNL     1      -3.361  -5.112   9.004  1.00  0.00     0.074 A 
ATOM     37  C   UNL     1      -2.024  -3.774   7.450  1.00  0.00     0.049 A 
ATOM     38  N   UNL     1      -2.634  -6.169   8.948  1.00  0.00    -0.248 NA
ATOM     39  C   UNL     1      -4.581  -5.298   9.783  1.00  0.00     0.031 C 
ATOM     40  C   UNL     1      -1.446  -4.900   6.712  1.00  0.00     0.029 A 
ATOM     41  N   UNL     1      -1.225  -2.693   7.076  1.00  0.00    -0.354 N 
ATOM     42  C   UNL     1      -3.395  -7.217   9.394  1.00  0.00     0.074 A 
ATOM     43  C   UNL     1      -4.558  -6.614   9.991  1.00  0.00     0.031 C 
ATOM     44  C   UNL     1      -0.276  -4.526   6.171  1.00  0.00     0.029 A 
ATOM     45  C   UNL     1       0.030  -3.201   6.673  1.00  0.00     0.049 A 
ATOM     46  H   UNL     1      -1.489  -1.744   7.090  1.00  0.00     0.167 HD
ATOM     47  C   UNL     1      -2.988  -8.479   9.098  1.00  0.00     0.031 A 
ATOM     48  C   UNL     1       1.171  -2.876   7.353  1.00  0.00     0.031 A 
ATOM     49  C   UNL     1      -1.634  -8.490   8.539  1.00  0.00     0.049 A 
ATOM     50  C   UNL     1       1.836  -4.044   8.066  1.00  0.00     0.074 A 
ATOM     51  C   UNL     1      -1.083  -8.702   7.287  1.00  0.00     0.029 A 
ATOM     52  N   UNL     1      -0.621  -7.939   9.306  1.00  0.00    -0.354 N 
ATOM     53  N   UNL     1       1.389  -5.270   8.058  1.00  0.00    -0.248 NA
ATOM     54  C   UNL     1       3.003  -3.894   8.940  1.00  0.00     0.031 C 
ATOM     55  C   UNL     1       0.282  -8.279   7.327  1.00  0.00     0.029 A 
ATOM     56  C   UNL     1       0.562  -7.842   8.609  1.00  0.00     0.049 A 
ATOM     57  H   UNL     1      -0.734  -7.650  10.241  1.00  0.00     0.167 HD
ATOM     58  C   UNL     1       2.084  -6.021   8.971  1.00  0.00     0.074 A 
ATOM     59  C   UNL     1       3.104  -5.122   9.480  1.00  0.00     0.031 C 
ATOM     60  C   UNL     1       1.724  -7.298   9.296  1.00  0.00     0.031 A 
BRANCH  47  61
ATOM     61  C   UNL     1      -3.873  -9.696   9.171  1.00  0.00    -0.014 A 
ATOM     62  C   UNL     1      -3.429 -10.897   8.593  1.00  0.00     0.009 A 
ATOM     63  C   UNL     1      -5.169  -9.724   9.716  1.00  0.00     0.009 A 
ATOM     64  C   UNL     1      -4.247 -12.033   8.523  1.00  0.00     0.001 A 
ATOM     65  C   UNL     1      -5.994 -10.852   9.650  1.00  0.00     0.001 A 
ATOM     66  C   UNL     1      -5.534 -12.008   9.043  1.00  0.00     0.000 A 
ENDBRANCH  47  61
BRANCH  48  67
ATOM     67  C   UNL     1       1.140  -1.474   7.860  1.00  0.00    -0.014 A 
ATOM     68  C   UNL     1       1.204  -0.431   6.914  1.00  0.00     0.009 A 
ATOM     69  C   UNL     1       0.617  -1.199   9.132  1.00  0.00     0.009 A 
ATOM     70  C   UNL     1       0.614   0.807   7.182  1.00  0.00     0.001 A 
ATOM     71  C   UNL     1       0.042   0.049   9.398  1.00  0.00     0.001 A 
ATOM     72  C   UNL     1      -0.002   1.031   8.409  1.00  0.00     0.000 A 
ENDBRANCH  48  67
BRANCH  60  73
ATOM     73  C   UNL     1       2.399  -8.134  10.355  1.00  0.00    -0.014 A 
ATOM     74  C   UNL     1       3.788  -8.175  10.526  1.00  0.00     0.009 A 
ATOM     75  C   UNL     1       1.638  -9.018  11.154  1.00  0.00     0.009 A 
ATOM     76  C   UNL     1       4.377  -9.016  11.482  1.00  0.00     0.001 A 
ATOM     77  C   UNL     1       2.221  -9.874  12.091  1.00  0.00     0.001 A 
ATOM     78  C   UNL     1       3.595  -9.865  12.263  1.00  0.00     0.000 A 
ENDBRANCH  60  73
ENDBRANCH  34  35
ENDBRANCH  26  29
ENDBRANCH  24  25
ENDBRANCH   1  24
TORSDOF 14
