REMARK SMILES Cc1cc(C(=O)NCCCNC(=O)c2ccc(-c3c4nc(c(-c5ccccc5)c5ccc([nH]5)c(-c5ccccc5)c5nc(c(-c6ccccc6)c6ccc3[nH]6)C=C5)C=C4)cc2)ccc1N[C@H](C)c1cc(F)cc(F)c1
REMARK SMILES IDX 8 1 7 2 5 3 6 4 4 6 1 7 2 8 3 9 64 10 63 11 62 12 65 13
REMARK SMILES IDX 66 15 67 16 68 17 69 18 75 19 70 20 73 21 71 22 72 23 74 24
REMARK SMILES IDX 9 25 10 26 11 27 12 28 13 30 14 31 15 32 61 33 16 34 60 35
REMARK SMILES IDX 17 36 18 37 19 38 54 39 20 40 59 41 53 42 55 43 21 44 58 45
REMARK SMILES IDX 52 46 51 47 22 49 44 50 29 51 43 52 30 53 33 54 42 55 56 56
REMARK SMILES IDX 31 57 32 58 41 60 57 61 34 62 23 63 24 64 28 65 25 66 27 67
REMARK SMILES IDX 26 68 45 69 46 70 50 71 47 72 49 73 48 74 35 75 36 76 40 77
REMARK SMILES IDX 37 78 39 79 38 80
REMARK H PARENT 7 5 65 14 11 29 55 48 33 59
REMARK Flexibility Score: inf
ROOT
ATOM      1  C   UNL     1      -0.653  10.560   2.029  1.00  0.00     0.118 C 
ENDROOT
BRANCH   1   2
ATOM      2  N   UNL     1      -1.796  10.089   2.809  1.00  0.00    -0.352 N 
ATOM      3  C   UNL     1      -2.256   8.849   3.201  1.00  0.00     0.251 C 
ATOM      4  O   UNL     1      -3.264   8.827   3.910  1.00  0.00    -0.269 OA
ATOM      5  H   UNL     1      -2.368  10.825   3.127  1.00  0.00     0.163 HD
BRANCH   3   6
ATOM      6  C   UNL     1      -1.634   7.545   2.813  1.00  0.00     0.040 A 
ATOM      7  C   UNL     1      -2.412   3.850   3.410  1.00  0.00     0.046 C 
ATOM      8  C   UNL     1      -1.726   5.061   2.833  1.00  0.00    -0.027 A 
ATOM      9  C   UNL     1      -2.243   6.338   3.206  1.00  0.00     0.019 A 
ATOM     10  C   UNL     1      -0.562   4.982   2.047  1.00  0.00     0.037 A 
ATOM     11  C   UNL     1       0.074   6.192   1.787  1.00  0.00     0.027 A 
ATOM     12  C   UNL     1      -0.449   7.436   2.121  1.00  0.00     0.016 A 
BRANCH  10  13
ATOM     13  N   UNL     1      -0.050   3.795   1.530  1.00  0.00    -0.378 N 
ATOM     14  H   UNL     1       0.050   3.030   2.142  1.00  0.00     0.161 HD
BRANCH  13  15
ATOM     15  C   UNL     1       0.353   3.613   0.114  1.00  0.00     0.106 C 
ATOM     16  C   UNL     1       0.783   2.154  -0.094  1.00  0.00     0.036 C 
BRANCH  15  17
ATOM     17  C   UNL     1       1.454   4.564  -0.345  1.00  0.00    -0.020 A 
ATOM     18  C   UNL     1       1.126   5.662  -1.169  1.00  0.00     0.045 A 
ATOM     19  C   UNL     1       2.763   4.483   0.162  1.00  0.00     0.045 A 
ATOM     20  C   UNL     1       2.052   6.682  -1.383  1.00  0.00     0.126 A 
ATOM     21  C   UNL     1       3.679   5.504  -0.094  1.00  0.00     0.126 A 
ATOM     22  F   UNL     1       1.676   7.779  -2.056  1.00  0.00    -0.207 F 
ATOM     23  C   UNL     1       3.329   6.618  -0.845  1.00  0.00     0.078 A 
ATOM     24  F   UNL     1       4.903   5.438   0.447  1.00  0.00    -0.207 F 
ENDBRANCH  15  17
ENDBRANCH  13  15
ENDBRANCH  10  13
ENDBRANCH   3   6
ENDBRANCH   1   2
BRANCH   1  25
ATOM     25  C   UNL     1      -0.805  10.313   0.519  1.00  0.00     0.042 C 
BRANCH  25  26
ATOM     26  C   UNL     1      -1.185  11.575  -0.245  1.00  0.00     0.118 C 
BRANCH  26  27
ATOM     27  N   UNL     1      -0.114  12.144  -1.066  1.00  0.00    -0.352 N 
ATOM     28  C   UNL     1      -0.039  13.417  -1.623  1.00  0.00     0.251 C 
ATOM     29  H   UNL     1       0.650  11.551  -1.248  1.00  0.00     0.163 HD
ATOM     30  O   UNL     1       0.912  13.761  -2.296  1.00  0.00    -0.269 OA
BRANCH  28  31
ATOM     31  C   UNL     1      -1.093  14.392  -1.252  1.00  0.00     0.039 A 
ATOM     32  C   UNL     1      -0.682  15.539  -0.568  1.00  0.00     0.014 A 
ATOM     33  C   UNL     1      -2.429  14.000  -1.259  1.00  0.00     0.014 A 
ATOM     34  C   UNL     1      -1.547  16.111   0.357  1.00  0.00     0.010 A 
ATOM     35  C   UNL     1      -3.259  14.509  -0.279  1.00  0.00     0.010 A 
ATOM     36  C   UNL     1      -2.782  15.500   0.585  1.00  0.00    -0.014 A 
BRANCH  36  37
ATOM     37  C   UNL     1      -3.571  15.768   1.780  1.00  0.00     0.031 A 
ATOM     38  C   UNL     1      -4.702  16.706   1.712  1.00  0.00     0.074 A 
ATOM     39  C   UNL     1      -3.262  15.210   2.972  1.00  0.00     0.049 A 
ATOM     40  N   UNL     1      -5.033  17.506   2.669  1.00  0.00    -0.248 NA
ATOM     41  C   UNL     1      -5.521  16.843   0.517  1.00  0.00     0.031 C 
ATOM     42  C   UNL     1      -4.045  15.284   4.204  1.00  0.00     0.029 A 
ATOM     43  N   UNL     1      -2.045  14.666   3.381  1.00  0.00    -0.354 N 
ATOM     44  C   UNL     1      -6.275  18.002   2.355  1.00  0.00     0.074 A 
ATOM     45  C   UNL     1      -6.480  17.657   0.964  1.00  0.00     0.031 C 
ATOM     46  C   UNL     1      -3.213  15.134   5.246  1.00  0.00     0.029 A 
ATOM     47  C   UNL     1      -1.863  15.059   4.720  1.00  0.00     0.049 A 
ATOM     48  H   UNL     1      -1.434  14.116   2.840  1.00  0.00     0.167 HD
ATOM     49  C   UNL     1      -7.079  18.498   3.337  1.00  0.00     0.031 A 
ATOM     50  C   UNL     1      -0.787  15.775   5.156  1.00  0.00     0.031 A 
ATOM     51  C   UNL     1      -6.443  18.470   4.655  1.00  0.00     0.049 A 
ATOM     52  C   UNL     1      -1.155  17.102   5.793  1.00  0.00     0.074 A 
ATOM     53  C   UNL     1      -6.597  17.667   5.776  1.00  0.00     0.029 A 
ATOM     54  N   UNL     1      -5.282  19.198   4.868  1.00  0.00    -0.354 N 
ATOM     55  N   UNL     1      -2.372  17.550   5.919  1.00  0.00    -0.248 NA
ATOM     56  C   UNL     1      -0.162  18.089   6.216  1.00  0.00     0.031 C 
ATOM     57  C   UNL     1      -5.522  17.930   6.669  1.00  0.00     0.029 A 
ATOM     58  C   UNL     1      -4.720  18.897   6.096  1.00  0.00     0.049 A 
ATOM     59  H   UNL     1      -4.906  19.845   4.228  1.00  0.00     0.167 HD
ATOM     60  C   UNL     1      -2.349  18.849   6.363  1.00  0.00     0.074 A 
ATOM     61  C   UNL     1      -0.937  19.140   6.532  1.00  0.00     0.031 C 
ATOM     62  C   UNL     1      -3.497  19.581   6.503  1.00  0.00     0.031 A 
BRANCH  49  63
ATOM     63  C   UNL     1      -8.559  18.720   3.125  1.00  0.00    -0.014 A 
ATOM     64  C   UNL     1      -9.453  18.556   4.197  1.00  0.00     0.009 A 
ATOM     65  C   UNL     1      -9.138  19.038   1.885  1.00  0.00     0.009 A 
ATOM     66  C   UNL     1     -10.842  18.581   4.016  1.00  0.00     0.001 A 
ATOM     67  C   UNL     1     -10.525  19.016   1.684  1.00  0.00     0.001 A 
ATOM     68  C   UNL     1     -11.379  18.771   2.750  1.00  0.00     0.000 A 
ENDBRANCH  49  63
BRANCH  50  69
ATOM     69  C   UNL     1       0.446  15.524   4.362  1.00  0.00    -0.014 A 
ATOM     70  C   UNL     1       1.020  14.238   4.440  1.00  0.00     0.009 A 
ATOM     71  C   UNL     1       0.771  16.343   3.272  1.00  0.00     0.009 A 
ATOM     72  C   UNL     1       1.773  13.730   3.379  1.00  0.00     0.001 A 
ATOM     73  C   UNL     1       1.540  15.832   2.220  1.00  0.00     0.001 A 
ATOM     74  C   UNL     1       1.998  14.515   2.252  1.00  0.00     0.000 A 
ENDBRANCH  50  69
BRANCH  62  75
ATOM     75  C   UNL     1      -3.613  21.012   6.994  1.00  0.00    -0.014 A 
ATOM     76  C   UNL     1      -2.635  21.691   7.730  1.00  0.00     0.009 A 
ATOM     77  C   UNL     1      -4.822  21.718   6.780  1.00  0.00     0.009 A 
ATOM     78  C   UNL     1      -2.816  23.021   8.146  1.00  0.00     0.001 A 
ATOM     79  C   UNL     1      -5.018  23.034   7.207  1.00  0.00     0.001 A 
ATOM     80  C   UNL     1      -4.003  23.694   7.878  1.00  0.00     0.000 A 
ENDBRANCH  62  75
ENDBRANCH  36  37
ENDBRANCH  28  31
ENDBRANCH  26  27
ENDBRANCH  25  26
ENDBRANCH   1  25
TORSDOF 13
