REMARK SMILES Cc1nnc(SCC[C@H]2CCC[C@]2([NH2+]C(C)C)C(=O)NCCCNC(=O)c2ccc(-c3c4nc(c(-c5ccccc5)c5ccc([nH]5)c(-c5ccccc5)c5nc(c(-c6ccccc6)c6ccc3[nH]6)C=C5)C=C4)cc2)o1
REMARK SMILES IDX 21 1 20 2 18 3 19 4 13 6 9 7 10 8 11 9 12 10 8 11 7 12 6 13
REMARK SMILES IDX 5 14 1 15 2 16 3 17 75 18 4 19 14 20 15 23 16 24 17 25 22 26
REMARK SMILES IDX 23 27 24 28 25 29 26 31 27 32 28 33 74 34 29 35 73 36 30 37
REMARK SMILES IDX 31 38 32 39 67 40 33 41 72 42 66 43 68 44 34 45 71 46 65 47
REMARK SMILES IDX 64 48 35 50 57 51 42 52 56 53 43 54 46 55 55 56 69 57 44 58
REMARK SMILES IDX 45 59 54 61 70 62 47 63 36 64 37 65 41 66 38 67 40 68 39 69
REMARK SMILES IDX 58 70 59 71 63 72 60 73 62 74 61 75 48 76 49 77 53 78 50 79
REMARK SMILES IDX 52 80 51 81
REMARK H PARENT 20 5 14 21 14 22 24 30 68 49 46 60
REMARK Flexibility Score: inf
ROOT
ATOM      1  C   UNL     1       3.967   2.339   0.064  1.00  0.00     0.118 C 
ENDROOT
BRANCH   1   2
ATOM      2  N   UNL     1       3.704   1.504  -1.076  1.00  0.00    -0.351 N 
ATOM      3  C   UNL     1       3.232   0.240  -1.145  1.00  0.00     0.281 C 
ATOM      4  O   UNL     1       3.505  -0.342  -2.203  1.00  0.00    -0.268 OA
ATOM      5  H   UNL     1       3.900   1.919  -1.947  1.00  0.00     0.163 HD
BRANCH   3   6
ATOM      6  C   UNL     1       2.320  -0.411  -0.027  1.00  0.00     0.178 C 
ATOM      7  C   UNL     1       3.005  -0.751   1.333  1.00  0.00     0.061 C 
ATOM      8  C   UNL     1       4.021  -1.816   0.935  1.00  0.00     0.011 C 
ATOM      9  C   UNL     1       3.321  -2.624  -0.143  1.00  0.00     0.008 C 
ATOM     10  C   UNL     1       2.064  -1.832  -0.552  1.00  0.00     0.079 C 
BRANCH   7  11
ATOM     11  C   UNL     1       2.109  -1.232   2.544  1.00  0.00     0.022 C 
BRANCH  11  12
ATOM     12  C   UNL     1       0.833  -2.112   2.418  1.00  0.00     0.080 C 
BRANCH  12  13
ATOM     13  S   UNL     1       1.044  -3.924   2.577  1.00  0.00    -0.065 SA
BRANCH  13  14
ATOM     14  C   UNL     1       0.723  -4.528   0.973  1.00  0.00     0.276 A 
ATOM     15  C   UNL     1       2.127  -5.792  -1.994  1.00  0.00     0.113 C 
ATOM     16  C   UNL     1       1.194  -5.285  -0.967  1.00  0.00     0.214 A 
ATOM     17  N   UNL     1       0.066  -4.620  -1.096  1.00  0.00    -0.112 NA
ATOM     18  O   UNL     1       1.618  -5.348   0.332  1.00  0.00    -0.416 OA
ATOM     19  N   UNL     1      -0.251  -4.144   0.171  1.00  0.00    -0.101 NA
ENDBRANCH  13  14
ENDBRANCH  12  13
ENDBRANCH  11  12
ENDBRANCH   7  11
BRANCH   6  20
ATOM     20  N   UNL     1       1.179   0.486   0.231  1.00  0.00    -0.331 N 
ATOM     21  H   UNL     1       1.553   1.344   0.636  1.00  0.00     0.347 HD
ATOM     22  H   UNL     1       0.560  -0.056   0.836  1.00  0.00     0.347 HD
BRANCH  20  23
ATOM     23  C   UNL     1       0.337   0.870  -0.903  1.00  0.00     0.176 C 
ATOM     24  C   UNL     1      -0.797  -0.127  -1.130  1.00  0.00     0.075 C 
ATOM     25  C   UNL     1      -0.246   2.246  -0.561  1.00  0.00     0.075 C 
ENDBRANCH  20  23
ENDBRANCH   6  20
ENDBRANCH   3   6
ENDBRANCH   1   2
BRANCH   1  26
ATOM     26  C   UNL     1       5.420   2.165   0.499  1.00  0.00     0.042 C 
BRANCH  26  27
ATOM     27  C   UNL     1       6.428   2.303  -0.645  1.00  0.00     0.118 C 
BRANCH  27  28
ATOM     28  N   UNL     1       6.321   3.582  -1.334  1.00  0.00    -0.352 N 
ATOM     29  C   UNL     1       7.235   4.599  -1.433  1.00  0.00     0.251 C 
ATOM     30  H   UNL     1       5.466   3.738  -1.797  1.00  0.00     0.163 HD
ATOM     31  O   UNL     1       6.898   5.696  -1.862  1.00  0.00    -0.269 OA
BRANCH  29  32
ATOM     32  C   UNL     1       8.626   4.367  -1.001  1.00  0.00     0.039 A 
ATOM     33  C   UNL     1       9.251   5.319  -0.195  1.00  0.00     0.014 A 
ATOM     34  C   UNL     1       9.306   3.212  -1.395  1.00  0.00     0.014 A 
ATOM     35  C   UNL     1      10.546   5.083   0.268  1.00  0.00     0.010 A 
ATOM     36  C   UNL     1      10.563   2.940  -0.868  1.00  0.00     0.010 A 
ATOM     37  C   UNL     1      11.198   3.877  -0.039  1.00  0.00    -0.014 A 
BRANCH  37  38
ATOM     38  C   UNL     1      12.551   3.581   0.491  1.00  0.00     0.031 A 
ATOM     39  C   UNL     1      13.709   3.416  -0.454  1.00  0.00     0.074 A 
ATOM     40  C   UNL     1      12.722   3.400   1.814  1.00  0.00     0.049 A 
ATOM     41  N   UNL     1      14.952   3.104  -0.188  1.00  0.00    -0.248 NA
ATOM     42  C   UNL     1      13.429   3.597  -1.887  1.00  0.00     0.031 C 
ATOM     43  C   UNL     1      11.668   3.491   2.828  1.00  0.00     0.029 A 
ATOM     44  N   UNL     1      13.850   3.098   2.535  1.00  0.00    -0.354 N 
ATOM     45  C   UNL     1      15.593   3.034  -1.418  1.00  0.00     0.074 A 
ATOM     46  C   UNL     1      14.594   3.282  -2.433  1.00  0.00     0.031 C 
ATOM     47  C   UNL     1      12.205   3.281   4.040  1.00  0.00     0.029 A 
ATOM     48  C   UNL     1      13.629   3.000   3.887  1.00  0.00     0.049 A 
ATOM     49  H   UNL     1      14.733   2.963   2.122  1.00  0.00     0.167 HD
ATOM     50  C   UNL     1      16.902   2.805  -1.679  1.00  0.00     0.031 A 
ATOM     51  C   UNL     1      14.478   2.713   4.891  1.00  0.00     0.031 A 
ATOM     52  C   UNL     1      17.897   2.571  -0.668  1.00  0.00     0.049 A 
ATOM     53  C   UNL     1      15.924   2.454   4.574  1.00  0.00     0.074 A 
ATOM     54  C   UNL     1      19.259   2.386  -0.825  1.00  0.00     0.029 A 
ATOM     55  N   UNL     1      17.634   2.488   0.691  1.00  0.00    -0.354 N 
ATOM     56  N   UNL     1      16.529   2.461   3.410  1.00  0.00    -0.248 NA
ATOM     57  C   UNL     1      16.807   2.159   5.711  1.00  0.00     0.031 C 
ATOM     58  C   UNL     1      19.813   2.140   0.436  1.00  0.00     0.029 A 
ATOM     59  C   UNL     1      18.805   2.230   1.383  1.00  0.00     0.049 A 
ATOM     60  H   UNL     1      16.746   2.596   1.103  1.00  0.00     0.167 HD
ATOM     61  C   UNL     1      17.866   2.200   3.678  1.00  0.00     0.074 A 
ATOM     62  C   UNL     1      17.986   2.056   5.114  1.00  0.00     0.031 C 
ATOM     63  C   UNL     1      18.904   2.089   2.812  1.00  0.00     0.031 A 
BRANCH  50  64
ATOM     64  C   UNL     1      17.327   2.792  -3.122  1.00  0.00    -0.014 A 
ATOM     65  C   UNL     1      17.341   3.968  -3.888  1.00  0.00     0.009 A 
ATOM     66  C   UNL     1      17.747   1.591  -3.716  1.00  0.00     0.009 A 
ATOM     67  C   UNL     1      17.728   3.936  -5.230  1.00  0.00     0.001 A 
ATOM     68  C   UNL     1      18.163   1.567  -5.048  1.00  0.00     0.001 A 
ATOM     69  C   UNL     1      18.143   2.736  -5.807  1.00  0.00     0.000 A 
ENDBRANCH  50  64
BRANCH  51  70
ATOM     70  C   UNL     1      13.988   2.674   6.293  1.00  0.00    -0.014 A 
ATOM     71  C   UNL     1      14.367   3.669   7.207  1.00  0.00     0.009 A 
ATOM     72  C   UNL     1      13.144   1.640   6.728  1.00  0.00     0.009 A 
ATOM     73  C   UNL     1      13.932   3.615   8.534  1.00  0.00     0.001 A 
ATOM     74  C   UNL     1      12.687   1.605   8.047  1.00  0.00     0.001 A 
ATOM     75  C   UNL     1      13.090   2.586   8.951  1.00  0.00     0.000 A 
ENDBRANCH  51  70
BRANCH  63  76
ATOM     76  C   UNL     1      20.262   1.834   3.400  1.00  0.00    -0.014 A 
ATOM     77  C   UNL     1      20.599   0.586   3.946  1.00  0.00     0.009 A 
ATOM     78  C   UNL     1      21.233   2.848   3.369  1.00  0.00     0.009 A 
ATOM     79  C   UNL     1      21.870   0.370   4.481  1.00  0.00     0.001 A 
ATOM     80  C   UNL     1      22.512   2.620   3.876  1.00  0.00     0.001 A 
ATOM     81  C   UNL     1      22.826   1.385   4.441  1.00  0.00     0.000 A 
ENDBRANCH  63  76
ENDBRANCH  37  38
ENDBRANCH  29  32
ENDBRANCH  27  28
ENDBRANCH  26  27
ENDBRANCH   1  26
TORSDOF 16
