REMARK SMILES O=C(NCCCNC(=O)[C@H]1C[N@H+](Cc2ccc(Cl)c(Cl)c2)CC12CCCCC2)c1ccc(-c2c3nc(c(-c4ccccc4)c4ccc([nH]4)c(-c4ccccc4)c4nc(c(-c5ccccc5)c5ccc2[nH]5)C=C4)C=C3)cc1
REMARK SMILES IDX 5 1 4 2 3 3 1 4 2 5 29 7 30 8 76 9 31 10 75 11 32 12 33 13
REMARK SMILES IDX 34 14 69 15 35 16 74 17 68 18 70 19 36 20 73 21 67 22 66 23
REMARK SMILES IDX 37 25 59 26 44 27 58 28 45 29 48 30 57 31 71 32 46 33 47 34
REMARK SMILES IDX 56 36 72 37 49 38 38 39 39 40 43 41 40 42 42 43 41 44 60 45
REMARK SMILES IDX 61 46 65 47 62 48 64 49 63 50 50 51 51 52 55 53 52 54 54 55
REMARK SMILES IDX 53 56 6 57 7 58 8 59 9 61 10 62 11 63 23 64 12 65 22 66
REMARK SMILES IDX 24 67 28 68 25 70 27 71 26 72 13 73 14 74 15 75 21 76 16 77
REMARK SMILES IDX 19 78 17 79 20 80 18 81
REMARK H PARENT 3 6 70 24 48 35 7 60 12 69
REMARK Flexibility Score: inf
ROOT
ATOM      1  C   UNL     1       3.943  -2.502  -0.620  1.00  0.00     0.042 C 
ENDROOT
BRANCH   1   2
ATOM      2  C   UNL     1       3.922  -1.084  -1.179  1.00  0.00     0.118 C 
BRANCH   2   3
ATOM      3  N   UNL     1       2.582  -0.524  -1.172  1.00  0.00    -0.352 N 
ATOM      4  O   UNL     1       0.815   0.589  -0.344  1.00  0.00    -0.269 OA
ATOM      5  C   UNL     1       2.034   0.439  -0.359  1.00  0.00     0.251 C 
ATOM      6  H   UNL     1       1.974  -0.890  -1.854  1.00  0.00     0.163 HD
BRANCH   5   7
ATOM      7  C   UNL     1       2.885   1.293   0.506  1.00  0.00     0.039 A 
ATOM      8  C   UNL     1       4.108   1.798   0.061  1.00  0.00     0.014 A 
ATOM      9  C   UNL     1       2.408   1.666   1.769  1.00  0.00     0.014 A 
ATOM     10  C   UNL     1       4.905   2.558   0.914  1.00  0.00     0.010 A 
ATOM     11  C   UNL     1       3.168   2.508   2.590  1.00  0.00     0.010 A 
ATOM     12  C   UNL     1       4.436   2.944   2.180  1.00  0.00    -0.014 A 
BRANCH  12  13
ATOM     13  C   UNL     1       5.260   3.856   3.020  1.00  0.00     0.031 A 
ATOM     14  C   UNL     1       5.794   3.423   4.359  1.00  0.00     0.074 A 
ATOM     15  C   UNL     1       5.548   5.089   2.556  1.00  0.00     0.049 A 
ATOM     16  N   UNL     1       6.562   4.083   5.191  1.00  0.00    -0.248 NA
ATOM     17  C   UNL     1       5.411   2.084   4.832  1.00  0.00     0.031 C 
ATOM     18  C   UNL     1       5.079   5.644   1.283  1.00  0.00     0.029 A 
ATOM     19  N   UNL     1       6.326   6.089   3.085  1.00  0.00    -0.354 N 
ATOM     20  C   UNL     1       6.729   3.255   6.295  1.00  0.00     0.074 A 
ATOM     21  C   UNL     1       5.966   2.052   6.036  1.00  0.00     0.031 C 
ATOM     22  C   UNL     1       5.632   6.852   1.099  1.00  0.00     0.029 A 
ATOM     23  C   UNL     1       6.443   7.185   2.264  1.00  0.00     0.049 A 
ATOM     24  H   UNL     1       6.759   6.026   3.967  1.00  0.00     0.167 HD
ATOM     25  C   UNL     1       7.453   3.473   7.420  1.00  0.00     0.031 A 
ATOM     26  C   UNL     1       7.123   8.334   2.426  1.00  0.00     0.031 A 
ATOM     27  C   UNL     1       8.224   4.662   7.677  1.00  0.00     0.049 A 
ATOM     28  C   UNL     1       7.916   8.549   3.681  1.00  0.00     0.074 A 
ATOM     29  C   UNL     1       9.022   4.953   8.772  1.00  0.00     0.029 A 
ATOM     30  N   UNL     1       8.293   5.758   6.832  1.00  0.00    -0.354 N 
ATOM     31  N   UNL     1       8.093   7.737   4.694  1.00  0.00    -0.248 NA
ATOM     32  C   UNL     1       8.604   9.841   3.812  1.00  0.00     0.031 C 
ATOM     33  C   UNL     1       9.539   6.243   8.608  1.00  0.00     0.029 A 
ATOM     34  C   UNL     1       9.104   6.734   7.388  1.00  0.00     0.049 A 
ATOM     35  H   UNL     1       7.833   5.832   5.964  1.00  0.00     0.167 HD
ATOM     36  C   UNL     1       8.933   8.409   5.572  1.00  0.00     0.074 A 
ATOM     37  C   UNL     1       9.242   9.687   4.964  1.00  0.00     0.031 C 
ATOM     38  C   UNL     1       9.405   8.001   6.774  1.00  0.00     0.031 A 
BRANCH  25  39
ATOM     39  C   UNL     1       7.423   2.407   8.481  1.00  0.00    -0.014 A 
ATOM     40  C   UNL     1       8.093   1.186   8.311  1.00  0.00     0.009 A 
ATOM     41  C   UNL     1       6.743   2.646   9.686  1.00  0.00     0.009 A 
ATOM     42  C   UNL     1       8.054   0.213   9.313  1.00  0.00     0.001 A 
ATOM     43  C   UNL     1       6.728   1.683  10.696  1.00  0.00     0.001 A 
ATOM     44  C   UNL     1       7.375   0.463  10.505  1.00  0.00     0.000 A 
ENDBRANCH  25  39
BRANCH  26  45
ATOM     45  C   UNL     1       7.093   9.369   1.360  1.00  0.00    -0.014 A 
ATOM     46  C   UNL     1       8.235   9.624   0.586  1.00  0.00     0.009 A 
ATOM     47  C   UNL     1       5.923  10.101   1.107  1.00  0.00     0.009 A 
ATOM     48  C   UNL     1       8.211  10.606  -0.407  1.00  0.00     0.001 A 
ATOM     49  C   UNL     1       5.893  11.061   0.094  1.00  0.00     0.001 A 
ATOM     50  C   UNL     1       7.039  11.319  -0.656  1.00  0.00     0.000 A 
ENDBRANCH  26  45
BRANCH  38  51
ATOM     51  C   UNL     1      10.340   8.933   7.490  1.00  0.00    -0.014 A 
ATOM     52  C   UNL     1       9.877  10.112   8.095  1.00  0.00     0.009 A 
ATOM     53  C   UNL     1      11.705   8.616   7.572  1.00  0.00     0.009 A 
ATOM     54  C   UNL     1      10.770  10.974   8.734  1.00  0.00     0.001 A 
ATOM     55  C   UNL     1      12.591   9.466   8.235  1.00  0.00     0.001 A 
ATOM     56  C   UNL     1      12.124  10.649   8.806  1.00  0.00     0.000 A 
ENDBRANCH  38  51
ENDBRANCH  12  13
ENDBRANCH   5   7
ENDBRANCH   2   3
ENDBRANCH   1   2
BRANCH   1  57
ATOM     57  C   UNL     1       3.782  -3.582  -1.686  1.00  0.00     0.117 C 
BRANCH  57  58
ATOM     58  N   UNL     1       4.906  -3.597  -2.606  1.00  0.00    -0.356 N 
ATOM     59  C   UNL     1       6.031  -4.363  -2.649  1.00  0.00     0.229 C 
ATOM     60  H   UNL     1       4.843  -2.933  -3.330  1.00  0.00     0.163 HD
ATOM     61  O   UNL     1       6.848  -4.090  -3.530  1.00  0.00    -0.275 OA
BRANCH  59  62
ATOM     62  C   UNL     1       6.238  -5.516  -1.668  1.00  0.00     0.145 C 
ATOM     63  C   UNL     1       7.197  -6.537  -2.292  1.00  0.00     0.276 C 
ATOM     64  C   UNL     1       6.853  -5.219  -0.262  1.00  0.00     0.037 C 
ATOM     65  N   UNL     1       7.744  -7.307  -1.185  1.00  0.00    -0.330 N 
ATOM     66  C   UNL     1       7.881  -6.380  -0.064  1.00  0.00     0.270 C 
ATOM     67  C   UNL     1       7.560  -3.840  -0.193  1.00  0.00     0.014 C 
ATOM     68  C   UNL     1       5.762  -5.313   0.833  1.00  0.00     0.014 C 
ATOM     69  H   UNL     1       8.667  -7.662  -1.433  1.00  0.00     0.348 HD
ATOM     70  C   UNL     1       7.930  -3.374   1.220  1.00  0.00     0.001 C 
ATOM     71  C   UNL     1       6.237  -4.917   2.226  1.00  0.00     0.001 C 
ATOM     72  C   UNL     1       6.779  -3.500   2.211  1.00  0.00     0.000 C 
BRANCH  65  73
ATOM     73  C   UNL     1       7.172  -8.630  -0.931  1.00  0.00     0.299 C 
BRANCH  73  74
ATOM     74  C   UNL     1       5.731  -8.698  -0.470  1.00  0.00     0.008 A 
ATOM     75  C   UNL     1       4.674  -8.544  -1.378  1.00  0.00     0.011 A 
ATOM     76  C   UNL     1       5.427  -8.877   0.889  1.00  0.00     0.031 A 
ATOM     77  C   UNL     1       3.356  -8.443  -0.927  1.00  0.00     0.022 A 
ATOM     78  C   UNL     1       4.104  -8.789   1.344  1.00  0.00     0.060 A 
ATOM     79  C   UNL     1       3.071  -8.541   0.436  1.00  0.00     0.059 A 
ATOM     80  Cl  UNL     1       3.830  -8.924   3.044  1.00  0.00    -0.083 Cl
ATOM     81  Cl  UNL     1       1.433  -8.308   0.931  1.00  0.00    -0.083 Cl
ENDBRANCH  73  74
ENDBRANCH  65  73
ENDBRANCH  59  62
ENDBRANCH  57  58
ENDBRANCH   1  57
TORSDOF 12
