REMARK SMILES C[C@H]1CCCCN1C(=O)N1Cc2nc[nH]c2C[C@H]1C(=O)NCCCNC(=O)c1ccc(-c2c3nc(c(-c4ccccc4)c4ccc([nH]4)c(-c4ccccc4)c4nc(c(-c5ccccc5)c5ccc2[nH]5)C=C4)C=C3)cc1
REMARK SMILES IDX 23 1 22 2 21 3 19 4 20 5 18 7 10 8 11 9 12 10 17 11 13 12
REMARK SMILES IDX 16 13 14 14 15 15 8 17 9 18 7 19 1 20 2 21 3 22 4 23 6 24
REMARK SMILES IDX 5 25 24 26 25 27 26 28 27 30 28 31 29 32 75 33 30 34 74 35
REMARK SMILES IDX 31 36 32 37 33 38 68 39 34 40 73 41 67 42 69 43 35 44 72 45
REMARK SMILES IDX 66 46 65 47 36 49 58 50 43 51 57 52 44 53 47 54 56 55 70 56
REMARK SMILES IDX 45 57 46 58 55 60 71 61 48 62 37 63 38 64 42 65 39 66 41 67
REMARK SMILES IDX 40 68 59 69 60 70 64 71 61 72 63 73 62 74 49 75 50 76 54 77
REMARK SMILES IDX 51 78 53 79 52 80
REMARK H PARENT 21 6 15 16 25 29 69 48 47 59
REMARK Flexibility Score: inf
ROOT
ATOM      1  C   UNL     1       4.369  -0.985  -4.427  1.00  0.00     0.042 C 
ENDROOT
BRANCH   1   2
ATOM      2  C   UNL     1       5.324  -1.228  -3.263  1.00  0.00     0.117 C 
BRANCH   2   3
ATOM      3  N   UNL     1       4.965  -0.526  -2.044  1.00  0.00    -0.354 N 
ATOM      4  C   UNL     1       4.584  -1.063  -0.851  1.00  0.00     0.243 C 
ATOM      5  O   UNL     1       5.239  -0.670   0.128  1.00  0.00    -0.273 OA
ATOM      6  H   UNL     1       5.001   0.457  -2.085  1.00  0.00     0.163 HD
BRANCH   4   7
ATOM      7  C   UNL     1       3.489  -2.158  -0.647  1.00  0.00     0.182 C 
ATOM      8  N   UNL     1       2.205  -2.104  -1.438  1.00  0.00    -0.306 N 
ATOM      9  C   UNL     1       2.181  -2.764  -2.777  1.00  0.00     0.180 C 
ATOM     10  C   UNL     1       3.277  -3.759  -2.956  1.00  0.00     0.081 A 
ATOM     11  C   UNL     1       4.184  -3.555  -0.619  1.00  0.00     0.091 C 
ATOM     12  N   UNL     1       3.666  -4.284  -4.165  1.00  0.00    -0.240 NA
ATOM     13  C   UNL     1       4.175  -4.116  -1.982  1.00  0.00     0.042 A 
ATOM     14  C   UNL     1       4.775  -4.950  -3.918  1.00  0.00     0.197 A 
ATOM     15  N   UNL     1       5.110  -4.904  -2.589  1.00  0.00    -0.348 N 
ATOM     16  H   UNL     1       5.875  -5.350  -2.158  1.00  0.00     0.167 HD
BRANCH   8  17
ATOM     17  C   UNL     1       0.970  -2.146  -0.815  1.00  0.00     0.321 C 
ATOM     18  O   UNL     1       0.252  -3.131  -1.039  1.00  0.00    -0.248 OA
BRANCH  17  19
ATOM     19  N   UNL     1       0.479  -1.115  -0.025  1.00  0.00    -0.322 N 
ATOM     20  C   UNL     1       2.387   0.652   0.179  1.00  0.00     0.031 C 
ATOM     21  C   UNL     1       0.949   0.243   0.364  1.00  0.00     0.083 C 
ATOM     22  C   UNL     1       0.059   1.337  -0.261  1.00  0.00     0.025 C 
ATOM     23  C   UNL     1      -1.402   1.144   0.125  1.00  0.00     0.004 C 
ATOM     24  C   UNL     1      -0.927  -1.308   0.408  1.00  0.00     0.121 C 
ATOM     25  C   UNL     1      -1.853  -0.265  -0.229  1.00  0.00     0.022 C 
ENDBRANCH  17  19
ENDBRANCH   8  17
ENDBRANCH   4   7
ENDBRANCH   2   3
ENDBRANCH   1   2
BRANCH   1  26
ATOM     26  C   UNL     1       4.990  -0.143  -5.512  1.00  0.00     0.118 C 
BRANCH  26  27
ATOM     27  N   UNL     1       6.092  -0.810  -6.215  1.00  0.00    -0.352 N 
ATOM     28  C   UNL     1       6.878  -0.288  -7.237  1.00  0.00     0.251 C 
ATOM     29  H   UNL     1       6.298  -1.731  -5.932  1.00  0.00     0.163 HD
ATOM     30  O   UNL     1       7.550  -0.991  -7.963  1.00  0.00    -0.269 OA
BRANCH  28  31
ATOM     31  C   UNL     1       6.859   1.178  -7.398  1.00  0.00     0.039 A 
ATOM     32  C   UNL     1       6.657   1.799  -8.631  1.00  0.00     0.014 A 
ATOM     33  C   UNL     1       6.867   1.907  -6.218  1.00  0.00     0.014 A 
ATOM     34  C   UNL     1       6.360   3.160  -8.636  1.00  0.00     0.010 A 
ATOM     35  C   UNL     1       6.274   3.133  -6.215  1.00  0.00     0.010 A 
ATOM     36  C   UNL     1       6.134   3.812  -7.412  1.00  0.00    -0.014 A 
BRANCH  36  37
ATOM     37  C   UNL     1       5.645   5.179  -7.323  1.00  0.00     0.031 A 
ATOM     38  C   UNL     1       4.426   5.427  -8.126  1.00  0.00     0.074 A 
ATOM     39  C   UNL     1       6.129   6.074  -6.431  1.00  0.00     0.049 A 
ATOM     40  N   UNL     1       4.365   6.019  -9.271  1.00  0.00    -0.248 NA
ATOM     41  C   UNL     1       3.164   4.786  -7.718  1.00  0.00     0.031 C 
ATOM     42  C   UNL     1       7.112   5.862  -5.355  1.00  0.00     0.029 A 
ATOM     43  N   UNL     1       5.765   7.368  -6.232  1.00  0.00    -0.354 N 
ATOM     44  C   UNL     1       3.017   6.054  -9.604  1.00  0.00     0.074 A 
ATOM     45  C   UNL     1       2.369   5.097  -8.745  1.00  0.00     0.031 C 
ATOM     46  C   UNL     1       7.084   6.901  -4.490  1.00  0.00     0.029 A 
ATOM     47  C   UNL     1       6.240   7.935  -5.053  1.00  0.00     0.049 A 
ATOM     48  H   UNL     1       5.207   7.866  -6.873  1.00  0.00     0.167 HD
ATOM     49  C   UNL     1       2.517   7.096 -10.325  1.00  0.00     0.031 A 
ATOM     50  C   UNL     1       5.970   9.177  -4.583  1.00  0.00     0.031 A 
ATOM     51  C   UNL     1       3.585   7.895 -10.882  1.00  0.00     0.049 A 
ATOM     52  C   UNL     1       5.523   9.979  -5.741  1.00  0.00     0.074 A 
ATOM     53  C   UNL     1       4.607   7.695 -11.785  1.00  0.00     0.029 A 
ATOM     54  N   UNL     1       3.929   8.996 -10.136  1.00  0.00    -0.354 N 
ATOM     55  N   UNL     1       6.300  10.287  -6.738  1.00  0.00    -0.248 NA
ATOM     56  C   UNL     1       4.098  10.071  -6.005  1.00  0.00     0.031 C 
ATOM     57  C   UNL     1       5.707   8.451 -11.277  1.00  0.00     0.029 A 
ATOM     58  C   UNL     1       5.289   9.143 -10.137  1.00  0.00     0.049 A 
ATOM     59  H   UNL     1       3.295   9.588  -9.671  1.00  0.00     0.167 HD
ATOM     60  C   UNL     1       5.495  10.159  -7.859  1.00  0.00     0.074 A 
ATOM     61  C   UNL     1       4.128  10.167  -7.338  1.00  0.00     0.031 C 
ATOM     62  C   UNL     1       6.026   9.765  -9.055  1.00  0.00     0.031 A 
BRANCH  49  63
ATOM     63  C   UNL     1       1.144   7.693 -10.093  1.00  0.00    -0.014 A 
ATOM     64  C   UNL     1       0.768   8.810 -10.864  1.00  0.00     0.009 A 
ATOM     65  C   UNL     1       0.344   7.409  -8.971  1.00  0.00     0.009 A 
ATOM     66  C   UNL     1      -0.289   9.644 -10.479  1.00  0.00     0.001 A 
ATOM     67  C   UNL     1      -0.736   8.218  -8.604  1.00  0.00     0.001 A 
ATOM     68  C   UNL     1      -1.034   9.353  -9.342  1.00  0.00     0.000 A 
ENDBRANCH  49  63
BRANCH  50  69
ATOM     69  C   UNL     1       5.801   9.654  -3.194  1.00  0.00    -0.014 A 
ATOM     70  C   UNL     1       5.851  11.027  -2.896  1.00  0.00     0.009 A 
ATOM     71  C   UNL     1       5.273   8.792  -2.217  1.00  0.00     0.009 A 
ATOM     72  C   UNL     1       5.340  11.523  -1.688  1.00  0.00     0.001 A 
ATOM     73  C   UNL     1       4.762   9.288  -1.012  1.00  0.00     0.001 A 
ATOM     74  C   UNL     1       4.779  10.655  -0.755  1.00  0.00     0.000 A 
ENDBRANCH  50  69
BRANCH  62  75
ATOM     75  C   UNL     1       7.530   9.803  -9.195  1.00  0.00    -0.014 A 
ATOM     76  C   UNL     1       8.412   9.007  -8.443  1.00  0.00     0.009 A 
ATOM     77  C   UNL     1       8.065  10.600 -10.218  1.00  0.00     0.009 A 
ATOM     78  C   UNL     1       9.790   9.032  -8.694  1.00  0.00     0.001 A 
ATOM     79  C   UNL     1       9.435  10.609 -10.482  1.00  0.00     0.001 A 
ATOM     80  C   UNL     1      10.299   9.830  -9.717  1.00  0.00     0.000 A 
ENDBRANCH  62  75
ENDBRANCH  36  37
ENDBRANCH  28  31
ENDBRANCH  26  27
ENDBRANCH   1  26
TORSDOF 12
