REMARK SMILES CCc1cc(/C=C/C(=O)NCCCNC(=O)c2ccc(-c3c4nc(c(-c5ccccc5)c5ccc([nH]5)c(-c5ccccc5)c5nc(c(-c6ccccc6)c6ccc3[nH]6)C=C5)C=C4)cc2)cc(C(=O)c2ccccc2)c1
REMARK SMILES IDX 11 1 10 2 8 3 9 4 7 6 6 7 5 8 3 9 4 10 75 11 66 12 65 13
REMARK SMILES IDX 2 14 1 15 67 16 68 17 69 18 70 19 74 20 71 21 73 22 72 23
REMARK SMILES IDX 12 24 13 25 14 26 15 27 16 29 17 30 18 31 64 32 19 33 63 34
REMARK SMILES IDX 20 35 21 36 22 37 57 38 23 39 62 40 56 41 58 42 24 43 61 44
REMARK SMILES IDX 55 45 54 46 25 48 47 49 32 50 46 51 33 52 36 53 45 54 59 55
REMARK SMILES IDX 34 56 35 57 44 59 60 60 37 61 26 62 27 63 31 64 28 65 30 66
REMARK SMILES IDX 29 67 48 68 49 69 53 70 50 71 52 72 51 73 38 74 39 75 43 76
REMARK SMILES IDX 40 77 42 78 41 79
REMARK H PARENT 10 5 14 28 58 47 36 58
REMARK Flexibility Score: inf
ROOT
ATOM      1  C   UNL     1      -0.596  -8.566  -1.888  1.00  0.00     0.118 C 
ENDROOT
BRANCH   1   2
ATOM      2  N   UNL     1      -1.764  -7.951  -2.494  1.00  0.00    -0.352 N 
ATOM      3  C   UNL     1      -2.019  -6.653  -2.804  1.00  0.00     0.244 C 
ATOM      4  O   UNL     1      -3.032  -6.369  -3.440  1.00  0.00    -0.270 OA
ATOM      5  H   UNL     1      -2.490  -8.578  -2.717  1.00  0.00     0.163 HD
BRANCH   3   6
ATOM      6  C   UNL     1      -1.064  -5.578  -2.452  1.00  0.00     0.072 C 
ATOM      7  C   UNL     1      -0.509  -5.434  -1.240  1.00  0.00     0.014 C 
BRANCH   7   8
ATOM      8  C   UNL     1       0.380  -4.327  -0.869  1.00  0.00    -0.024 A 
ATOM      9  C   UNL     1       0.918  -1.942  -0.816  1.00  0.00    -0.047 A 
ATOM     10  C   UNL     1       0.104  -3.004  -1.241  1.00  0.00     0.011 A 
ATOM     11  C   UNL     1       2.044  -2.231  -0.036  1.00  0.00     0.016 A 
ATOM     12  C   UNL     1       2.302  -3.541   0.388  1.00  0.00     0.023 A 
ATOM     13  C   UNL     1       1.479  -4.587  -0.042  1.00  0.00     0.020 A 
BRANCH   9  14
ATOM     14  C   UNL     1       0.572  -0.530  -1.231  1.00  0.00     0.032 C 
ATOM     15  C   UNL     1       0.833   0.525  -0.161  1.00  0.00     0.009 C 
ENDBRANCH   9  14
BRANCH  12  16
ATOM     16  C   UNL     1       3.444  -3.854   1.291  1.00  0.00     0.193 C 
ATOM     17  O   UNL     1       3.963  -4.966   1.258  1.00  0.00    -0.289 OA
BRANCH  16  18
ATOM     18  C   UNL     1       3.970  -2.835   2.235  1.00  0.00     0.022 A 
ATOM     19  C   UNL     1       5.354  -2.705   2.378  1.00  0.00     0.012 A 
ATOM     20  C   UNL     1       3.108  -2.016   2.976  1.00  0.00     0.012 A 
ATOM     21  C   UNL     1       5.876  -1.724   3.222  1.00  0.00     0.001 A 
ATOM     22  C   UNL     1       3.634  -1.035   3.817  1.00  0.00     0.001 A 
ATOM     23  C   UNL     1       5.016  -0.884   3.933  1.00  0.00     0.000 A 
ENDBRANCH  16  18
ENDBRANCH  12  16
ENDBRANCH   7   8
ENDBRANCH   3   6
ENDBRANCH   1   2
BRANCH   1  24
ATOM     24  C   UNL     1      -0.871  -9.014  -0.453  1.00  0.00     0.042 C 
BRANCH  24  25
ATOM     25  C   UNL     1      -1.790 -10.228  -0.350  1.00  0.00     0.118 C 
BRANCH  25  26
ATOM     26  N   UNL     1      -1.164 -11.436  -0.863  1.00  0.00    -0.352 N 
ATOM     27  C   UNL     1      -0.931 -12.643  -0.255  1.00  0.00     0.251 C 
ATOM     28  H   UNL     1      -0.858 -11.379  -1.798  1.00  0.00     0.163 HD
ATOM     29  O   UNL     1      -0.196 -13.459  -0.803  1.00  0.00    -0.269 OA
BRANCH  27  30
ATOM     30  C   UNL     1      -1.548 -12.977   1.048  1.00  0.00     0.039 A 
ATOM     31  C   UNL     1      -0.795 -13.704   1.976  1.00  0.00     0.014 A 
ATOM     32  C   UNL     1      -2.878 -12.654   1.334  1.00  0.00     0.014 A 
ATOM     33  C   UNL     1      -1.360 -14.076   3.198  1.00  0.00     0.010 A 
ATOM     34  C   UNL     1      -3.421 -12.969   2.579  1.00  0.00     0.010 A 
ATOM     35  C   UNL     1      -2.673 -13.697   3.517  1.00  0.00    -0.014 A 
BRANCH  35  36
ATOM     36  C   UNL     1      -3.282 -14.071   4.818  1.00  0.00     0.031 A 
ATOM     37  C   UNL     1      -4.452 -15.017   4.865  1.00  0.00     0.074 A 
ATOM     38  C   UNL     1      -2.817 -13.519   5.955  1.00  0.00     0.049 A 
ATOM     39  N   UNL     1      -5.146 -15.422   5.899  1.00  0.00    -0.248 NA
ATOM     40  C   UNL     1      -4.920 -15.560   3.579  1.00  0.00     0.031 C 
ATOM     41  C   UNL     1      -1.718 -12.555   6.042  1.00  0.00     0.029 A 
ATOM     42  N   UNL     1      -3.219 -13.683   7.257  1.00  0.00    -0.354 N 
ATOM     43  C   UNL     1      -6.145 -16.241   5.387  1.00  0.00     0.074 A 
ATOM     44  C   UNL     1      -5.990 -16.249   3.949  1.00  0.00     0.031 C 
ATOM     45  C   UNL     1      -1.522 -12.228   7.330  1.00  0.00     0.029 A 
ATOM     46  C   UNL     1      -2.498 -12.932   8.154  1.00  0.00     0.049 A 
ATOM     47  H   UNL     1      -3.953 -14.283   7.523  1.00  0.00     0.167 HD
ATOM     48  C   UNL     1      -7.097 -16.936   6.055  1.00  0.00     0.031 A 
ATOM     49  C   UNL     1      -2.614 -12.820   9.490  1.00  0.00     0.031 A 
ATOM     50  C   UNL     1      -7.235 -16.952   7.487  1.00  0.00     0.049 A 
ATOM     51  C   UNL     1      -3.658 -13.627  10.209  1.00  0.00     0.074 A 
ATOM     52  C   UNL     1      -8.124 -17.679   8.259  1.00  0.00     0.029 A 
ATOM     53  N   UNL     1      -6.460 -16.207   8.361  1.00  0.00    -0.354 N 
ATOM     54  N   UNL     1      -4.548 -14.452   9.715  1.00  0.00    -0.248 NA
ATOM     55  C   UNL     1      -3.701 -13.498  11.672  1.00  0.00     0.031 C 
ATOM     56  C   UNL     1      -7.913 -17.343   9.601  1.00  0.00     0.029 A 
ATOM     57  C   UNL     1      -6.861 -16.445   9.665  1.00  0.00     0.049 A 
ATOM     58  H   UNL     1      -5.732 -15.600   8.095  1.00  0.00     0.167 HD
ATOM     59  C   UNL     1      -5.237 -14.962  10.807  1.00  0.00     0.074 A 
ATOM     60  C   UNL     1      -4.651 -14.366  11.990  1.00  0.00     0.031 C 
ATOM     61  C   UNL     1      -6.264 -15.846  10.830  1.00  0.00     0.031 A 
BRANCH  48  62
ATOM     62  C   UNL     1      -8.073 -17.737   5.239  1.00  0.00    -0.014 A 
ATOM     63  C   UNL     1      -7.682 -18.916   4.585  1.00  0.00     0.009 A 
ATOM     64  C   UNL     1      -9.415 -17.332   5.163  1.00  0.00     0.009 A 
ATOM     65  C   UNL     1      -8.607 -19.654   3.844  1.00  0.00     0.001 A 
ATOM     66  C   UNL     1     -10.344 -18.086   4.444  1.00  0.00     0.001 A 
ATOM     67  C   UNL     1      -9.938 -19.241   3.778  1.00  0.00     0.000 A 
ENDBRANCH  48  62
BRANCH  49  68
ATOM     68  C   UNL     1      -1.703 -11.920  10.243  1.00  0.00    -0.014 A 
ATOM     69  C   UNL     1      -0.697 -12.449  11.066  1.00  0.00     0.009 A 
ATOM     70  C   UNL     1      -1.840 -10.526  10.149  1.00  0.00     0.009 A 
ATOM     71  C   UNL     1       0.132 -11.601  11.804  1.00  0.00     0.001 A 
ATOM     72  C   UNL     1      -0.991  -9.681  10.866  1.00  0.00     0.001 A 
ATOM     73  C   UNL     1      -0.013 -10.219  11.700  1.00  0.00     0.000 A 
ENDBRANCH  49  68
BRANCH  61  74
ATOM     74  C   UNL     1      -6.792 -16.248  12.177  1.00  0.00    -0.014 A 
ATOM     75  C   UNL     1      -7.565 -15.368  12.950  1.00  0.00     0.009 A 
ATOM     76  C   UNL     1      -6.534 -17.538  12.665  1.00  0.00     0.009 A 
ATOM     77  C   UNL     1      -8.039 -15.761  14.202  1.00  0.00     0.001 A 
ATOM     78  C   UNL     1      -7.032 -17.938  13.906  1.00  0.00     0.001 A 
ATOM     79  C   UNL     1      -7.776 -17.046  14.678  1.00  0.00     0.000 A 
ENDBRANCH  61  74
ENDBRANCH  35  36
ENDBRANCH  27  30
ENDBRANCH  25  26
ENDBRANCH  24  25
ENDBRANCH   1  24
TORSDOF 14
