REMARK SMILES Cc1cc(F)c([C@@H](C)[N@@H+]2C[C@H](C)[C@H](C(=O)NCCCNC(=O)c3ccc(-c4c5nc(c(-c6ccccc6)c6ccc([nH]6)c(-c6ccccc6)c6nc(c(-c7ccccc7)c7ccc4[nH]7)C=C6)C=C5)cc3)C2)cc1F
REMARK SMILES IDX 18 1 17 2 16 3 14 4 15 5 13 7 9 8 10 9 71 10 11 12 12 13
REMARK SMILES IDX 7 14 8 15 6 16 1 17 2 18 3 19 73 20 4 21 72 22 74 23 5 24
REMARK SMILES IDX 19 25 20 26 21 27 22 29 23 30 24 31 70 32 25 33 69 34 26 35
REMARK SMILES IDX 27 36 28 37 63 38 29 39 68 40 62 41 64 42 30 43 67 44 61 45
REMARK SMILES IDX 60 46 31 48 53 49 38 50 52 51 39 52 42 53 51 54 65 55 40 56
REMARK SMILES IDX 41 57 50 59 66 60 43 61 32 62 33 63 37 64 34 65 36 66 35 67
REMARK SMILES IDX 54 68 55 69 59 70 56 71 58 72 57 73 44 74 45 75 49 76 46 77
REMARK SMILES IDX 48 78 47 79
REMARK H PARENT 16 6 9 11 20 28 64 47 42 58
REMARK Flexibility Score: inf
ROOT
ATOM      1  C   UNL     1       0.977  -1.940   3.066  1.00  0.00     0.042 C 
ENDROOT
BRANCH   1   2
ATOM      2  C   UNL     1      -0.124  -1.517   4.028  1.00  0.00     0.117 C 
BRANCH   2   3
ATOM      3  N   UNL     1       0.114  -1.988   5.378  1.00  0.00    -0.356 N 
ATOM      4  C   UNL     1       0.267  -1.316   6.548  1.00  0.00     0.229 C 
ATOM      5  O   UNL     1       0.530  -2.006   7.541  1.00  0.00    -0.275 OA
ATOM      6  H   UNL     1       0.177  -2.967   5.461  1.00  0.00     0.163 HD
BRANCH   4   7
ATOM      7  C   UNL     1       0.167   0.199   6.692  1.00  0.00     0.142 C 
ATOM      8  N   UNL     1      -0.622   2.225   5.733  1.00  0.00    -0.328 N 
ATOM      9  C   UNL     1       0.778   2.434   6.065  1.00  0.00     0.266 C 
ATOM     10  C   UNL     1      -1.058   0.883   6.092  1.00  0.00     0.276 C 
ATOM     11  H   UNL     1      -1.153   2.836   6.355  1.00  0.00     0.348 HD
ATOM     12  C   UNL     1       1.384   1.049   6.307  1.00  0.00     0.059 C 
ATOM     13  C   UNL     1       2.225   0.596   5.122  1.00  0.00     0.015 C 
BRANCH   8  14
ATOM     14  C   UNL     1      -1.194   2.904   4.569  1.00  0.00     0.215 C 
ATOM     15  C   UNL     1      -2.719   3.031   4.715  1.00  0.00     0.081 C 
BRANCH  14  16
ATOM     16  C   UNL     1      -0.741   2.353   3.222  1.00  0.00     0.048 A 
ATOM     17  C   UNL     1       0.868   0.644  -0.429  1.00  0.00     0.047 C 
ATOM     18  C   UNL     1       0.288   1.255   0.807  1.00  0.00    -0.012 A 
ATOM     19  C   UNL     1      -0.920   0.797   1.340  1.00  0.00     0.046 A 
ATOM     20  C   UNL     1       0.934   2.309   1.450  1.00  0.00     0.126 A 
ATOM     21  C   UNL     1      -1.417   1.338   2.530  1.00  0.00     0.132 A 
ATOM     22  C   UNL     1       0.433   2.855   2.632  1.00  0.00     0.052 A 
ATOM     23  F   UNL     1       2.078   2.796   0.948  1.00  0.00    -0.207 F 
ATOM     24  F   UNL     1      -2.535   0.795   3.030  1.00  0.00    -0.206 F 
ENDBRANCH  14  16
ENDBRANCH   8  14
ENDBRANCH   4   7
ENDBRANCH   2   3
ENDBRANCH   1   2
BRANCH   1  25
ATOM     25  C   UNL     1       0.798  -3.352   2.536  1.00  0.00     0.118 C 
BRANCH  25  26
ATOM     26  N   UNL     1      -0.207  -3.441   1.481  1.00  0.00    -0.352 N 
ATOM     27  C   UNL     1      -0.117  -3.483   0.106  1.00  0.00     0.251 C 
ATOM     28  H   UNL     1      -1.131  -3.478   1.818  1.00  0.00     0.163 HD
ATOM     29  O   UNL     1      -1.145  -3.386  -0.552  1.00  0.00    -0.269 OA
BRANCH  27  30
ATOM     30  C   UNL     1       1.188  -3.582  -0.597  1.00  0.00     0.039 A 
ATOM     31  C   UNL     1       2.262  -4.293  -0.073  1.00  0.00     0.014 A 
ATOM     32  C   UNL     1       1.337  -2.956  -1.842  1.00  0.00     0.014 A 
ATOM     33  C   UNL     1       3.525  -4.171  -0.642  1.00  0.00     0.010 A 
ATOM     34  C   UNL     1       2.581  -2.945  -2.487  1.00  0.00     0.010 A 
ATOM     35  C   UNL     1       3.705  -3.496  -1.859  1.00  0.00    -0.014 A 
BRANCH  35  36
ATOM     36  C   UNL     1       5.072  -3.399  -2.440  1.00  0.00     0.031 A 
ATOM     37  C   UNL     1       5.727  -2.060  -2.667  1.00  0.00     0.074 A 
ATOM     38  C   UNL     1       5.761  -4.529  -2.698  1.00  0.00     0.049 A 
ATOM     39  N   UNL     1       6.931  -1.800  -3.115  1.00  0.00    -0.248 NA
ATOM     40  C   UNL     1       4.934  -0.858  -2.363  1.00  0.00     0.031 C 
ATOM     41  C   UNL     1       5.245  -5.889  -2.518  1.00  0.00     0.029 A 
ATOM     42  N   UNL     1       7.052  -4.720  -3.124  1.00  0.00    -0.354 N 
ATOM     43  C   UNL     1       7.028  -0.415  -3.171  1.00  0.00     0.074 A 
ATOM     44  C   UNL     1       5.754   0.114  -2.737  1.00  0.00     0.031 C 
ATOM     45  C   UNL     1       6.229  -6.768  -2.753  1.00  0.00     0.029 A 
ATOM     46  C   UNL     1       7.421  -6.043  -3.179  1.00  0.00     0.049 A 
ATOM     47  H   UNL     1       7.655  -3.981  -3.367  1.00  0.00     0.167 HD
ATOM     48  C   UNL     1       8.085   0.347  -3.540  1.00  0.00     0.031 A 
ATOM     49  C   UNL     1       8.582  -6.621  -3.541  1.00  0.00     0.031 A 
ATOM     50  C   UNL     1       9.362  -0.177  -3.947  1.00  0.00     0.049 A 
ATOM     51  C   UNL     1       9.730  -5.756  -3.969  1.00  0.00     0.074 A 
ATOM     52  C   UNL     1      10.502   0.522  -4.303  1.00  0.00     0.029 A 
ATOM     53  N   UNL     1       9.670  -1.525  -4.047  1.00  0.00    -0.354 N 
ATOM     54  N   UNL     1       9.804  -4.448  -4.001  1.00  0.00    -0.248 NA
ATOM     55  C   UNL     1      10.950  -6.441  -4.418  1.00  0.00     0.031 C 
ATOM     56  C   UNL     1      11.482  -0.401  -4.674  1.00  0.00     0.029 A 
ATOM     57  C   UNL     1      10.973  -1.677  -4.490  1.00  0.00     0.049 A 
ATOM     58  H   UNL     1       9.054  -2.263  -3.835  1.00  0.00     0.167 HD
ATOM     59  C   UNL     1      11.075  -4.152  -4.472  1.00  0.00     0.074 A 
ATOM     60  C   UNL     1      11.749  -5.417  -4.686  1.00  0.00     0.031 C 
ATOM     61  C   UNL     1      11.629  -2.939  -4.711  1.00  0.00     0.031 A 
BRANCH  48  62
ATOM     62  C   UNL     1       7.911   1.841  -3.542  1.00  0.00    -0.014 A 
ATOM     63  C   UNL     1       7.894   2.536  -4.763  1.00  0.00     0.009 A 
ATOM     64  C   UNL     1       7.850   2.572  -2.346  1.00  0.00     0.009 A 
ATOM     65  C   UNL     1       7.827   3.930  -4.787  1.00  0.00     0.001 A 
ATOM     66  C   UNL     1       7.755   3.966  -2.373  1.00  0.00     0.001 A 
ATOM     67  C   UNL     1       7.751   4.644  -3.592  1.00  0.00     0.000 A 
ENDBRANCH  48  62
BRANCH  49  68
ATOM     68  C   UNL     1       8.694  -8.103  -3.519  1.00  0.00    -0.014 A 
ATOM     69  C   UNL     1       7.954  -8.884  -4.423  1.00  0.00     0.009 A 
ATOM     70  C   UNL     1       9.485  -8.748  -2.558  1.00  0.00     0.009 A 
ATOM     71  C   UNL     1       7.976 -10.277  -4.345  1.00  0.00     0.001 A 
ATOM     72  C   UNL     1       9.531 -10.144  -2.502  1.00  0.00     0.001 A 
ATOM     73  C   UNL     1       8.768 -10.906  -3.386  1.00  0.00     0.000 A 
ENDBRANCH  49  68
BRANCH  61  74
ATOM     74  C   UNL     1      13.036  -2.907  -5.235  1.00  0.00    -0.014 A 
ATOM     75  C   UNL     1      14.078  -2.452  -4.413  1.00  0.00     0.009 A 
ATOM     76  C   UNL     1      13.314  -3.237  -6.570  1.00  0.00     0.009 A 
ATOM     77  C   UNL     1      15.371  -2.316  -4.920  1.00  0.00     0.001 A 
ATOM     78  C   UNL     1      14.613  -3.124  -7.067  1.00  0.00     0.001 A 
ATOM     79  C   UNL     1      15.638  -2.655  -6.245  1.00  0.00     0.000 A 
ENDBRANCH  61  74
ENDBRANCH  35  36
ENDBRANCH  27  30
ENDBRANCH  25  26
ENDBRANCH   1  25
TORSDOF 12
