REMARK SMILES O=C(NCCCNC(=O)c1ccc(-c2ccc(OCc3ccccc3)cc2)nc1)c1ccc(-c2c3nc(c(-c4ccccc4)c4ccc([nH]4)c(-c4ccccc4)c4nc(c(-c5ccccc5)c5ccc2[nH]5)C=C4)C=C3)cc1
REMARK SMILES IDX 6 1 5 2 4 3 3 4 1 5 2 6 30 8 31 9 77 10 32 11 76 12 33 13
REMARK SMILES IDX 34 14 35 15 70 16 36 17 75 18 69 19 71 20 37 21 74 22 68 23
REMARK SMILES IDX 67 24 38 26 60 27 45 28 59 29 46 30 49 31 58 32 72 33 47 34
REMARK SMILES IDX 48 35 57 37 73 38 50 39 39 40 40 41 44 42 41 43 43 44 42 45
REMARK SMILES IDX 61 46 62 47 66 48 63 49 65 50 64 51 51 52 52 53 56 54 53 55
REMARK SMILES IDX 55 56 54 57 7 58 8 59 9 61 10 62 11 63 29 64 12 65 28 66
REMARK SMILES IDX 13 67 14 68 15 69 27 70 16 71 26 72 17 73 18 74 19 75 20 76
REMARK SMILES IDX 21 77 25 78 22 79 24 80 23 81
REMARK H PARENT 3 7 71 25 49 36 7 60
REMARK Flexibility Score: inf
ROOT
ATOM      1  C   UNL     1       4.312  -3.514   1.033  1.00  0.00     0.118 C 
ENDROOT
BRANCH   1   2
ATOM      2  C   UNL     1       4.890  -2.108   1.095  1.00  0.00     0.042 C 
BRANCH   2   3
ATOM      3  C   UNL     1       4.539  -1.255  -0.114  1.00  0.00     0.118 C 
BRANCH   3   4
ATOM      4  N   UNL     1       3.106  -1.021  -0.240  1.00  0.00    -0.352 N 
ATOM      5  O   UNL     1       1.155   0.089  -0.052  1.00  0.00    -0.269 OA
ATOM      6  C   UNL     1       2.383   0.136  -0.099  1.00  0.00     0.251 C 
ATOM      7  H   UNL     1       2.573  -1.819  -0.461  1.00  0.00     0.163 HD
BRANCH   6   8
ATOM      8  C   UNL     1       3.075   1.435   0.018  1.00  0.00     0.039 A 
ATOM      9  C   UNL     1       4.180   1.725  -0.783  1.00  0.00     0.014 A 
ATOM     10  C   UNL     1       2.601   2.386   0.927  1.00  0.00     0.014 A 
ATOM     11  C   UNL     1       4.913   2.881  -0.556  1.00  0.00     0.010 A 
ATOM     12  C   UNL     1       3.275   3.602   1.073  1.00  0.00     0.010 A 
ATOM     13  C   UNL     1       4.455   3.845   0.356  1.00  0.00    -0.014 A 
BRANCH  13  14
ATOM     14  C   UNL     1       5.191   5.127   0.476  1.00  0.00     0.031 A 
ATOM     15  C   UNL     1       5.854   5.532   1.761  1.00  0.00     0.074 A 
ATOM     16  C   UNL     1       5.284   5.916  -0.613  1.00  0.00     0.049 A 
ATOM     17  N   UNL     1       6.562   6.604   2.017  1.00  0.00    -0.248 NA
ATOM     18  C   UNL     1       5.700   4.626   2.910  1.00  0.00     0.031 C 
ATOM     19  C   UNL     1       4.680   5.627  -1.917  1.00  0.00     0.029 A 
ATOM     20  N   UNL     1       5.940   7.103  -0.807  1.00  0.00    -0.354 N 
ATOM     21  C   UNL     1       6.919   6.514   3.356  1.00  0.00     0.074 A 
ATOM     22  C   UNL     1       6.329   5.295   3.867  1.00  0.00     0.031 C 
ATOM     23  C   UNL     1       5.043   6.577  -2.790  1.00  0.00     0.029 A 
ATOM     24  C   UNL     1       5.841   7.577  -2.092  1.00  0.00     0.049 A 
ATOM     25  H   UNL     1       6.435   7.570  -0.095  1.00  0.00     0.167 HD
ATOM     26  C   UNL     1       7.672   7.368   4.090  1.00  0.00     0.031 A 
ATOM     27  C   UNL     1       6.321   8.702  -2.649  1.00  0.00     0.031 A 
ATOM     28  C   UNL     1       8.252   8.583   3.577  1.00  0.00     0.049 A 
ATOM     29  C   UNL     1       7.113   9.651  -1.802  1.00  0.00     0.074 A 
ATOM     30  C   UNL     1       9.056   9.499   4.234  1.00  0.00     0.029 A 
ATOM     31  N   UNL     1       8.082   9.056   2.284  1.00  0.00    -0.354 N 
ATOM     32  N   UNL     1       7.469   9.534  -0.546  1.00  0.00    -0.248 NA
ATOM     33  C   UNL     1       7.568  10.887  -2.449  1.00  0.00     0.031 C 
ATOM     34  C   UNL     1       9.325  10.554   3.355  1.00  0.00     0.029 A 
ATOM     35  C   UNL     1       8.740  10.266   2.133  1.00  0.00     0.049 A 
ATOM     36  H   UNL     1       7.570   8.599   1.579  1.00  0.00     0.167 HD
ATOM     37  C   UNL     1       8.202  10.674  -0.254  1.00  0.00     0.074 A 
ATOM     38  C   UNL     1       8.259  11.458  -1.472  1.00  0.00     0.031 C 
ATOM     39  C   UNL     1       8.776  11.040   0.918  1.00  0.00     0.031 A 
BRANCH  26  40
ATOM     40  C   UNL     1       7.881   7.037   5.543  1.00  0.00    -0.014 A 
ATOM     41  C   UNL     1       8.699   5.967   5.942  1.00  0.00     0.009 A 
ATOM     42  C   UNL     1       7.276   7.830   6.531  1.00  0.00     0.009 A 
ATOM     43  C   UNL     1       8.876   5.678   7.297  1.00  0.00     0.001 A 
ATOM     44  C   UNL     1       7.477   7.556   7.885  1.00  0.00     0.001 A 
ATOM     45  C   UNL     1       8.269   6.475   8.267  1.00  0.00     0.000 A 
ENDBRANCH  26  40
BRANCH  27  46
ATOM     46  C   UNL     1       6.045   8.990  -4.080  1.00  0.00    -0.014 A 
ATOM     47  C   UNL     1       7.075   8.940  -5.030  1.00  0.00     0.009 A 
ATOM     48  C   UNL     1       4.741   9.289  -4.506  1.00  0.00     0.009 A 
ATOM     49  C   UNL     1       6.807   9.200  -6.375  1.00  0.00     0.001 A 
ATOM     50  C   UNL     1       4.470   9.517  -5.855  1.00  0.00     0.001 A 
ATOM     51  C   UNL     1       5.505   9.480  -6.788  1.00  0.00     0.000 A 
ENDBRANCH  27  46
BRANCH  39  52
ATOM     52  C   UNL     1       9.534  12.337   0.926  1.00  0.00    -0.014 A 
ATOM     53  C   UNL     1       8.867  13.571   0.871  1.00  0.00     0.009 A 
ATOM     54  C   UNL     1      10.934  12.322   1.012  1.00  0.00     0.009 A 
ATOM     55  C   UNL     1       9.591  14.764   0.864  1.00  0.00     0.001 A 
ATOM     56  C   UNL     1      11.654  13.518   1.036  1.00  0.00     0.001 A 
ATOM     57  C   UNL     1      10.983  14.736   0.952  1.00  0.00     0.000 A 
ENDBRANCH  39  52
ENDBRANCH  13  14
ENDBRANCH   6   8
ENDBRANCH   3   4
ENDBRANCH   2   3
ENDBRANCH   1   2
BRANCH   1  58
ATOM     58  N   UNL     1       4.803  -4.245  -0.126  1.00  0.00    -0.352 N 
ATOM     59  C   UNL     1       5.740  -5.241  -0.193  1.00  0.00     0.252 C 
ATOM     60  H   UNL     1       4.403  -3.986  -0.987  1.00  0.00     0.163 HD
ATOM     61  O   UNL     1       6.240  -5.541  -1.277  1.00  0.00    -0.269 OA
BRANCH  59  62
ATOM     62  C   UNL     1       6.138  -5.969   1.016  1.00  0.00     0.058 A 
ATOM     63  C   UNL     1       5.201  -6.431   1.936  1.00  0.00     0.018 A 
ATOM     64  C   UNL     1       7.472  -6.286   1.216  1.00  0.00     0.125 A 
ATOM     65  C   UNL     1       5.637  -7.154   3.037  1.00  0.00     0.030 A 
ATOM     66  N   UNL     1       7.923  -6.994   2.280  1.00  0.00    -0.255 NA
ATOM     67  C   UNL     1       6.997  -7.443   3.165  1.00  0.00     0.070 A 
BRANCH  67  68
ATOM     68  C   UNL     1       7.486  -8.334   4.222  1.00  0.00     0.000 A 
ATOM     69  C   UNL     1       8.617  -8.024   4.987  1.00  0.00     0.014 A 
ATOM     70  C   UNL     1       6.818  -9.541   4.488  1.00  0.00     0.014 A 
ATOM     71  C   UNL     1       9.028  -8.871   6.023  1.00  0.00     0.047 A 
ATOM     72  C   UNL     1       7.236 -10.392   5.509  1.00  0.00     0.047 A 
ATOM     73  C   UNL     1       8.324 -10.043   6.305  1.00  0.00     0.119 A 
BRANCH  73  74
ATOM     74  O   UNL     1       8.753 -10.726   7.410  1.00  0.00    -0.489 OA
BRANCH  74  75
ATOM     75  C   UNL     1       7.961 -11.826   7.879  1.00  0.00     0.265 C 
BRANCH  75  76
ATOM     76  C   UNL     1       6.603 -11.463   8.453  1.00  0.00    -0.011 A 
ATOM     77  C   UNL     1       6.266 -10.149   8.812  1.00  0.00     0.007 A 
ATOM     78  C   UNL     1       5.643 -12.472   8.629  1.00  0.00     0.007 A 
ATOM     79  C   UNL     1       4.986  -9.841   9.276  1.00  0.00     0.000 A 
ATOM     80  C   UNL     1       4.369 -12.166   9.111  1.00  0.00     0.000 A 
ATOM     81  C   UNL     1       4.037 -10.849   9.423  1.00  0.00     0.000 A 
ENDBRANCH  75  76
ENDBRANCH  74  75
ENDBRANCH  73  74
ENDBRANCH  67  68
ENDBRANCH  59  62
ENDBRANCH   1  58
TORSDOF 14
