REMARK SMILES C[C@H]1CC[C@@](Nc2ccc(C(N)=O)nn2)(C(=O)NCCCNC(=O)c2ccc(-c3c4nc(c(-c5ccccc5)c5ccc([nH]5)c(-c5ccccc5)c5nc(c(-c6ccccc6)c6ccc3[nH]6)C=C5)C=C4)cc2)CC1
REMARK SMILES IDX 19 1 18 2 16 3 17 4 5 6 1 7 2 8 74 9 3 10 73 11 4 12 6 13
REMARK SMILES IDX 7 15 8 16 15 17 9 18 14 19 10 20 11 21 12 22 13 23 20 26
REMARK SMILES IDX 21 27 22 28 23 29 24 31 25 32 26 33 72 34 27 35 71 36 28 37
REMARK SMILES IDX 29 38 30 39 65 40 31 41 70 42 64 43 66 44 32 45 69 46 63 47
REMARK SMILES IDX 62 48 33 50 55 51 40 52 54 53 41 54 44 55 53 56 67 57 42 58
REMARK SMILES IDX 43 59 52 61 68 62 45 63 34 64 35 65 39 66 36 67 38 68 37 69
REMARK SMILES IDX 56 70 57 71 61 72 58 73 60 74 59 75 46 76 47 77 51 78 48 79
REMARK SMILES IDX 50 80 49 81
REMARK H PARENT 18 5 6 14 12 24 12 25 22 30 66 49 44 60
REMARK Flexibility Score: inf
ROOT
ATOM      1  C   UNL     1      -3.244   2.243  -1.911  1.00  0.00     0.117 C 
ENDROOT
BRANCH   1   2
ATOM      2  N   UNL     1      -2.445   1.157  -2.450  1.00  0.00    -0.354 N 
ATOM      3  C   UNL     1      -1.891   0.072  -1.837  1.00  0.00     0.245 C 
ATOM      4  O   UNL     1      -1.389  -0.770  -2.589  1.00  0.00    -0.272 OA
ATOM      5  H   UNL     1      -2.275   1.214  -3.418  1.00  0.00     0.163 HD
BRANCH   3   6
ATOM      6  C   UNL     1      -1.929  -0.107  -0.278  1.00  0.00     0.118 C 
ATOM      7  C   UNL     1       2.472  -0.085  -0.052  1.00  0.00     0.007 C 
ATOM      8  C   UNL     1       1.020  -0.141   0.424  1.00  0.00    -0.014 C 
ATOM      9  C   UNL     1       0.316  -1.389  -0.123  1.00  0.00     0.006 C 
ATOM     10  C   UNL     1       0.286   1.141   0.029  1.00  0.00     0.006 C 
ATOM     11  C   UNL     1      -1.197  -1.407   0.142  1.00  0.00     0.039 C 
ATOM     12  C   UNL     1      -1.191   1.070   0.413  1.00  0.00     0.039 C 
BRANCH   6  13
ATOM     13  N   UNL     1      -3.324  -0.184   0.253  1.00  0.00    -0.354 N 
ATOM     14  H   UNL     1      -3.457  -0.100   1.224  1.00  0.00     0.163 HD
BRANCH  13  15
ATOM     15  C   UNL     1      -4.440  -0.368  -0.545  1.00  0.00     0.149 A 
ATOM     16  C   UNL     1      -4.511  -1.304  -1.567  1.00  0.00     0.051 A 
ATOM     17  N   UNL     1      -5.444   0.526  -0.387  1.00  0.00    -0.132 NA
ATOM     18  C   UNL     1      -5.545  -1.230  -2.502  1.00  0.00     0.040 A 
ATOM     19  N   UNL     1      -6.458   0.629  -1.315  1.00  0.00    -0.143 NA
ATOM     20  C   UNL     1      -6.480  -0.222  -2.365  1.00  0.00     0.150 A 
BRANCH  20  21
ATOM     21  C   UNL     1      -7.493   0.032  -3.427  1.00  0.00     0.269 C 
ATOM     22  N   UNL     1      -8.239   1.173  -3.305  1.00  0.00    -0.364 N 
ATOM     23  O   UNL     1      -7.627  -0.718  -4.388  1.00  0.00    -0.268 OA
ATOM     24  H   UNL     1      -8.115   1.761  -2.525  1.00  0.00     0.160 HD
ATOM     25  H   UNL     1      -8.899   1.407  -3.997  1.00  0.00     0.160 HD
ENDBRANCH  20  21
ENDBRANCH  13  15
ENDBRANCH   6  13
ENDBRANCH   3   6
ENDBRANCH   1   2
BRANCH   1  26
ATOM     26  C   UNL     1      -2.625   3.592  -2.216  1.00  0.00     0.042 C 
BRANCH  26  27
ATOM     27  C   UNL     1      -2.628   3.910  -3.702  1.00  0.00     0.118 C 
BRANCH  27  28
ATOM     28  N   UNL     1      -3.977   4.010  -4.249  1.00  0.00    -0.352 N 
ATOM     29  C   UNL     1      -4.598   5.076  -4.849  1.00  0.00     0.251 C 
ATOM     30  H   UNL     1      -4.521   3.192  -4.176  1.00  0.00     0.163 HD
ATOM     31  O   UNL     1      -5.806   5.053  -5.056  1.00  0.00    -0.269 OA
BRANCH  29  32
ATOM     32  C   UNL     1      -3.800   6.259  -5.222  1.00  0.00     0.039 A 
ATOM     33  C   UNL     1      -4.306   7.532  -4.957  1.00  0.00     0.014 A 
ATOM     34  C   UNL     1      -2.542   6.104  -5.809  1.00  0.00     0.014 A 
ATOM     35  C   UNL     1      -3.515   8.651  -5.220  1.00  0.00     0.010 A 
ATOM     36  C   UNL     1      -1.718   7.209  -5.969  1.00  0.00     0.010 A 
ATOM     37  C   UNL     1      -2.201   8.495  -5.689  1.00  0.00    -0.014 A 
BRANCH  37  38
ATOM     38  C   UNL     1      -1.315   9.661  -5.917  1.00  0.00     0.031 A 
ATOM     39  C   UNL     1      -0.790   9.941  -7.298  1.00  0.00     0.074 A 
ATOM     40  C   UNL     1      -0.929  10.422  -4.875  1.00  0.00     0.049 A 
ATOM     41  N   UNL     1       0.057  10.859  -7.689  1.00  0.00    -0.248 NA
ATOM     42  C   UNL     1      -1.253   9.053  -8.379  1.00  0.00     0.031 C 
ATOM     43  C   UNL     1      -1.335  10.227  -3.481  1.00  0.00     0.029 A 
ATOM     44  N   UNL     1      -0.098  11.513  -4.828  1.00  0.00    -0.354 N 
ATOM     45  C   UNL     1       0.238  10.647  -9.050  1.00  0.00     0.074 A 
ATOM     46  C   UNL     1      -0.534   9.478  -9.406  1.00  0.00     0.031 C 
ATOM     47  C   UNL     1      -0.776  11.183  -2.722  1.00  0.00     0.029 A 
ATOM     48  C   UNL     1       0.063  12.028  -3.564  1.00  0.00     0.049 A 
ATOM     49  H   UNL     1       0.342  11.891  -5.624  1.00  0.00     0.167 HD
ATOM     50  C   UNL     1       0.963  11.375  -9.932  1.00  0.00     0.031 A 
ATOM     51  C   UNL     1       0.812  13.060  -3.132  1.00  0.00     0.031 A 
ATOM     52  C   UNL     1       1.722  12.543  -9.577  1.00  0.00     0.049 A 
ATOM     53  C   UNL     1       1.625  13.840  -4.128  1.00  0.00     0.074 A 
ATOM     54  C   UNL     1       2.451  13.380 -10.403  1.00  0.00     0.029 A 
ATOM     55  N   UNL     1       1.850  13.038  -8.289  1.00  0.00    -0.354 N 
ATOM     56  N   UNL     1       1.734  13.667  -5.423  1.00  0.00    -0.248 NA
ATOM     57  C   UNL     1       2.408  14.967  -3.603  1.00  0.00     0.031 C 
ATOM     58  C   UNL     1       3.066  14.350  -9.606  1.00  0.00     0.029 A 
ATOM     59  C   UNL     1       2.665  14.157  -8.294  1.00  0.00     0.049 A 
ATOM     60  H   UNL     1       1.424  12.652  -7.490  1.00  0.00     0.167 HD
ATOM     61  C   UNL     1       2.570  14.681  -5.872  1.00  0.00     0.074 A 
ATOM     62  C   UNL     1       2.926  15.474  -4.713  1.00  0.00     0.031 C 
ATOM     63  C   UNL     1       3.004  14.935  -7.131  1.00  0.00     0.031 A 
BRANCH  50  64
ATOM     64  C   UNL     1       0.967  10.921 -11.366  1.00  0.00    -0.014 A 
ATOM     65  C   UNL     1      -0.187  11.009 -12.161  1.00  0.00     0.009 A 
ATOM     66  C   UNL     1       2.149  10.428 -11.939  1.00  0.00     0.009 A 
ATOM     67  C   UNL     1      -0.168  10.576 -13.488  1.00  0.00     0.001 A 
ATOM     68  C   UNL     1       2.175  10.027 -13.276  1.00  0.00     0.001 A 
ATOM     69  C   UNL     1       1.014  10.091 -14.046  1.00  0.00     0.000 A 
ENDBRANCH  50  64
BRANCH  51  70
ATOM     70  C   UNL     1       0.825  13.423  -1.690  1.00  0.00    -0.014 A 
ATOM     71  C   UNL     1       0.248  14.624  -1.250  1.00  0.00     0.009 A 
ATOM     72  C   UNL     1       1.429  12.576  -0.746  1.00  0.00     0.009 A 
ATOM     73  C   UNL     1       0.305  14.986   0.098  1.00  0.00     0.001 A 
ATOM     74  C   UNL     1       1.455  12.925   0.606  1.00  0.00     0.001 A 
ATOM     75  C   UNL     1       0.905  14.135   1.025  1.00  0.00     0.000 A 
ENDBRANCH  51  70
BRANCH  63  76
ATOM     76  C   UNL     1       3.873  16.145  -7.329  1.00  0.00    -0.014 A 
ATOM     77  C   UNL     1       5.198  16.181  -6.867  1.00  0.00     0.009 A 
ATOM     78  C   UNL     1       3.369  17.250  -8.034  1.00  0.00     0.009 A 
ATOM     79  C   UNL     1       5.987  17.313  -7.076  1.00  0.00     0.001 A 
ATOM     80  C   UNL     1       4.170  18.367  -8.270  1.00  0.00     0.001 A 
ATOM     81  C   UNL     1       5.475  18.402  -7.782  1.00  0.00     0.000 A 
ENDBRANCH  63  76
ENDBRANCH  37  38
ENDBRANCH  29  32
ENDBRANCH  27  28
ENDBRANCH  26  27
ENDBRANCH   1  26
TORSDOF 13
