REMARK SMILES O=C(NCCCNC(=O)[C@H]1C[C@](O)(c2ccc(F)cc2)[C@@H](c2ccc(F)cc2)O1)c1ccc(-c2c3nc(c(-c4ccccc4)c4ccc([nH]4)c(-c4ccccc4)c4nc(c(-c5ccccc5)c5ccc2[nH]5)C=C4)C=C3)cc1
REMARK SMILES IDX 4 1 3 2 1 3 2 4 30 6 31 7 77 8 32 9 76 10 33 11 34 12 35 13
REMARK SMILES IDX 70 14 36 15 75 16 69 17 71 18 37 19 74 20 68 21 67 22 38 24
REMARK SMILES IDX 60 25 45 26 59 27 46 28 49 29 58 30 72 31 47 32 48 33 57 35
REMARK SMILES IDX 73 36 50 37 39 38 40 39 44 40 41 41 43 42 42 43 61 44 62 45
REMARK SMILES IDX 66 46 63 47 65 48 64 49 51 50 52 51 56 52 53 53 55 54 54 55
REMARK SMILES IDX 5 56 6 57 7 58 8 59 9 61 10 62 11 63 29 64 12 65 21 66 14 67
REMARK SMILES IDX 15 68 20 69 16 70 19 71 17 72 18 73 13 74 22 76 23 77 28 78
REMARK SMILES IDX 24 79 27 80 25 81 26 82
REMARK H PARENT 3 5 71 23 49 34 7 60 13 75
REMARK Flexibility Score: inf
ROOT
ATOM      1  C   UNL     1       6.791  -3.322   0.837  1.00  0.00     0.118 C 
ENDROOT
BRANCH   1   2
ATOM      2  N   UNL     1       6.928  -1.949   1.309  1.00  0.00    -0.352 N 
ATOM      3  O   UNL     1       6.716  -0.143   2.623  1.00  0.00    -0.269 OA
ATOM      4  C   UNL     1       6.657  -1.364   2.523  1.00  0.00     0.251 C 
ATOM      5  H   UNL     1       7.281  -1.327   0.633  1.00  0.00     0.163 HD
BRANCH   4   6
ATOM      6  C   UNL     1       6.264  -2.171   3.701  1.00  0.00     0.039 A 
ATOM      7  C   UNL     1       6.869  -3.393   3.987  1.00  0.00     0.014 A 
ATOM      8  C   UNL     1       5.293  -1.664   4.574  1.00  0.00     0.014 A 
ATOM      9  C   UNL     1       6.381  -4.186   5.022  1.00  0.00     0.010 A 
ATOM     10  C   UNL     1       4.872  -2.418   5.675  1.00  0.00     0.010 A 
ATOM     11  C   UNL     1       5.377  -3.710   5.880  1.00  0.00    -0.014 A 
BRANCH  11  12
ATOM     12  C   UNL     1       4.897  -4.577   6.990  1.00  0.00     0.031 A 
ATOM     13  C   UNL     1       3.475  -5.069   7.036  1.00  0.00     0.074 A 
ATOM     14  C   UNL     1       5.770  -4.969   7.940  1.00  0.00     0.049 A 
ATOM     15  N   UNL     1       2.918  -5.903   7.881  1.00  0.00    -0.248 NA
ATOM     16  C   UNL     1       2.554  -4.557   6.009  1.00  0.00     0.031 C 
ATOM     17  C   UNL     1       7.174  -4.557   8.018  1.00  0.00     0.029 A 
ATOM     18  N   UNL     1       5.618  -5.828   8.999  1.00  0.00    -0.354 N 
ATOM     19  C   UNL     1       1.584  -5.996   7.503  1.00  0.00     0.074 A 
ATOM     20  C   UNL     1       1.406  -5.115   6.370  1.00  0.00     0.031 C 
ATOM     21  C   UNL     1       7.770  -5.214   9.023  1.00  0.00     0.029 A 
ATOM     22  C   UNL     1       6.780  -6.046   9.698  1.00  0.00     0.049 A 
ATOM     23  H   UNL     1       4.759  -6.247   9.235  1.00  0.00     0.167 HD
ATOM     24  C   UNL     1       0.598  -6.752   8.045  1.00  0.00     0.031 A 
ATOM     25  C   UNL     1       7.028  -6.829  10.764  1.00  0.00     0.031 A 
ATOM     26  C   UNL     1       0.773  -7.637   9.167  1.00  0.00     0.049 A 
ATOM     27  C   UNL     1       5.912  -7.641  11.354  1.00  0.00     0.074 A 
ATOM     28  C   UNL     1      -0.158  -8.476   9.757  1.00  0.00     0.029 A 
ATOM     29  N   UNL     1       1.954  -7.792   9.874  1.00  0.00    -0.354 N 
ATOM     30  N   UNL     1       4.671  -7.755  10.951  1.00  0.00    -0.248 NA
ATOM     31  C   UNL     1       6.237  -8.435  12.546  1.00  0.00     0.031 C 
ATOM     32  C   UNL     1       0.447  -9.099  10.854  1.00  0.00     0.029 A 
ATOM     33  C   UNL     1       1.770  -8.693  10.911  1.00  0.00     0.049 A 
ATOM     34  H   UNL     1       2.800  -7.331   9.670  1.00  0.00     0.167 HD
ATOM     35  C   UNL     1       4.072  -8.651  11.825  1.00  0.00     0.074 A 
ATOM     36  C   UNL     1       5.092  -9.065  12.767  1.00  0.00     0.031 C 
ATOM     37  C   UNL     1       2.791  -9.093  11.845  1.00  0.00     0.031 A 
BRANCH  24  38
ATOM     38  C   UNL     1      -0.778  -6.632   7.446  1.00  0.00    -0.014 A 
ATOM     39  C   UNL     1      -1.078  -7.164   6.182  1.00  0.00     0.009 A 
ATOM     40  C   UNL     1      -1.802  -6.013   8.181  1.00  0.00     0.009 A 
ATOM     41  C   UNL     1      -2.365  -7.047   5.652  1.00  0.00     0.001 A 
ATOM     42  C   UNL     1      -3.095  -5.921   7.660  1.00  0.00     0.001 A 
ATOM     43  C   UNL     1      -3.373  -6.430   6.393  1.00  0.00     0.000 A 
ENDBRANCH  24  38
BRANCH  25  44
ATOM     44  C   UNL     1       8.398  -6.888  11.338  1.00  0.00    -0.014 A 
ATOM     45  C   UNL     1       9.171  -8.052  11.219  1.00  0.00     0.009 A 
ATOM     46  C   UNL     1       8.938  -5.778  12.006  1.00  0.00     0.009 A 
ATOM     47  C   UNL     1      10.451  -8.110  11.776  1.00  0.00     0.001 A 
ATOM     48  C   UNL     1      10.229  -5.829  12.535  1.00  0.00     0.001 A 
ATOM     49  C   UNL     1      10.980  -6.997  12.428  1.00  0.00     0.000 A 
ENDBRANCH  25  44
BRANCH  37  50
ATOM     50  C   UNL     1       2.434 -10.103  12.899  1.00  0.00    -0.014 A 
ATOM     51  C   UNL     1       2.330  -9.742  14.251  1.00  0.00     0.009 A 
ATOM     52  C   UNL     1       2.183 -11.433  12.527  1.00  0.00     0.009 A 
ATOM     53  C   UNL     1       2.021 -10.704  15.216  1.00  0.00     0.001 A 
ATOM     54  C   UNL     1       1.845 -12.385  13.490  1.00  0.00     0.001 A 
ATOM     55  C   UNL     1       1.776 -12.023  14.834  1.00  0.00     0.000 A 
ENDBRANCH  37  50
ENDBRANCH  11  12
ENDBRANCH   4   6
ENDBRANCH   1   2
BRANCH   1  56
ATOM     56  C   UNL     1       5.635  -3.516  -0.139  1.00  0.00     0.042 C 
BRANCH  56  57
ATOM     57  C   UNL     1       5.752  -2.718  -1.432  1.00  0.00     0.117 C 
BRANCH  57  58
ATOM     58  N   UNL     1       6.974  -2.977  -2.166  1.00  0.00    -0.354 N 
ATOM     59  C   UNL     1       7.176  -3.796  -3.239  1.00  0.00     0.249 C 
ATOM     60  H   UNL     1       7.770  -2.495  -1.845  1.00  0.00     0.163 HD
ATOM     61  O   UNL     1       8.287  -3.761  -3.771  1.00  0.00    -0.272 OA
BRANCH  59  62
ATOM     62  C   UNL     1       6.022  -4.688  -3.751  1.00  0.00     0.211 C 
ATOM     63  C   UNL     1       6.424  -5.528  -4.963  1.00  0.00     0.085 C 
ATOM     64  O   UNL     1       5.552  -5.572  -2.726  1.00  0.00    -0.357 OA
ATOM     65  C   UNL     1       6.098  -6.976  -4.599  1.00  0.00     0.123 C 
ATOM     66  C   UNL     1       5.933  -6.919  -3.055  1.00  0.00     0.186 C 
BRANCH  65  67
ATOM     67  C   UNL     1       4.890  -7.461  -5.418  1.00  0.00    -0.013 A 
ATOM     68  C   UNL     1       5.054  -7.657  -6.810  1.00  0.00     0.010 A 
ATOM     69  C   UNL     1       3.622  -7.731  -4.874  1.00  0.00     0.010 A 
ATOM     70  C   UNL     1       4.009  -8.117  -7.614  1.00  0.00     0.039 A 
ATOM     71  C   UNL     1       2.579  -8.210  -5.677  1.00  0.00     0.039 A 
ATOM     72  C   UNL     1       2.782  -8.399  -7.037  1.00  0.00     0.123 A 
ATOM     73  F   UNL     1       1.779  -8.855  -7.798  1.00  0.00    -0.207 F 
ENDBRANCH  65  67
BRANCH  65  74
ATOM     74  O   UNL     1       7.192  -7.812  -4.999  1.00  0.00    -0.382 OA
ATOM     75  H   UNL     1       7.991  -7.554  -4.513  1.00  0.00     0.212 HD
ENDBRANCH  65  74
BRANCH  66  76
ATOM     76  C   UNL     1       7.096  -7.329  -2.160  1.00  0.00    -0.016 A 
ATOM     77  C   UNL     1       8.401  -6.841  -2.332  1.00  0.00     0.009 A 
ATOM     78  C   UNL     1       6.854  -8.213  -1.089  1.00  0.00     0.009 A 
ATOM     79  C   UNL     1       9.424  -7.204  -1.451  1.00  0.00     0.039 A 
ATOM     80  C   UNL     1       7.880  -8.590  -0.221  1.00  0.00     0.039 A 
ATOM     81  C   UNL     1       9.154  -8.074  -0.405  1.00  0.00     0.123 A 
ATOM     82  F   UNL     1      10.135  -8.421   0.438  1.00  0.00    -0.207 F 
ENDBRANCH  66  76
ENDBRANCH  59  62
ENDBRANCH  57  58
ENDBRANCH  56  57
ENDBRANCH   1  56
TORSDOF 13
