REMARK SMILES CN1C(=O)C[C@@H](C(=O)NCCCNC(=O)c2ccc(-c3c4nc(c(-c5ccccc5)c5ccc([nH]5)c(-c5ccccc5)c5nc(c(-c6ccccc6)c6ccc3[nH]6)C=C5)C=C4)cc2)C12CCN(C(=O)c1ccccc1-n1cccn1)CC2
REMARK SMILES IDX 11 1 10 2 9 3 7 4 8 5 6 7 1 8 2 9 3 10 64 11 4 12 5 13 65 14
REMARK SMILES IDX 82 15 66 16 81 17 67 18 68 19 69 20 70 21 71 22 75 23 72 24
REMARK SMILES IDX 74 25 73 26 76 27 77 28 80 29 78 30 79 31 12 32 13 33 14 34
REMARK SMILES IDX 15 36 16 37 17 38 63 39 18 40 62 41 19 42 20 43 21 44 56 45
REMARK SMILES IDX 22 46 61 47 55 48 57 49 23 50 60 51 54 52 53 53 24 55 46 56
REMARK SMILES IDX 31 57 45 58 32 59 35 60 44 61 58 62 33 63 34 64 43 66 59 67
REMARK SMILES IDX 36 68 25 69 26 70 30 71 27 72 29 73 28 74 47 75 48 76 52 77
REMARK SMILES IDX 49 78 51 79 50 80 37 81 38 82 42 83 39 84 41 85 40 86
REMARK H PARENT 9 6 13 35 57 54 35 65
REMARK Flexibility Score: inf
ROOT
ATOM      1  C   UNL     1      -2.655  -1.026   0.894  1.00  0.00     0.042 C 
ENDROOT
BRANCH   1   2
ATOM      2  C   UNL     1      -2.563   0.163   1.854  1.00  0.00     0.117 C 
BRANCH   2   3
ATOM      3  N   UNL     1      -2.314  -0.199   3.245  1.00  0.00    -0.356 N 
ATOM      4  C   UNL     1      -1.270  -0.046   4.097  1.00  0.00     0.226 C 
ATOM      5  O   UNL     1      -1.460  -0.442   5.254  1.00  0.00    -0.275 OA
ATOM      6  H   UNL     1      -3.079  -0.660   3.660  1.00  0.00     0.163 HD
BRANCH   4   7
ATOM      7  C   UNL     1       0.112   0.506   3.736  1.00  0.00     0.113 C 
ATOM      8  C   UNL     1       1.053   0.043   0.147  1.00  0.00     0.147 C 
ATOM      9  N   UNL     1       0.719   0.489   1.486  1.00  0.00    -0.339 N 
ATOM     10  C   UNL     1       0.341   1.803   1.742  1.00  0.00     0.223 C 
ATOM     11  C   UNL     1       0.942  -0.299   2.711  1.00  0.00     0.058 C 
ATOM     12  O   UNL     1       0.214   2.696   0.926  1.00  0.00    -0.275 OA
ATOM     13  C   UNL     1       0.060   1.940   3.212  1.00  0.00     0.116 C 
ATOM     14  C   UNL     1       0.500  -1.773   2.615  1.00  0.00     0.051 C 
ATOM     15  C   UNL     1       2.473  -0.262   3.029  1.00  0.00     0.051 C 
ATOM     16  C   UNL     1       0.937  -2.612   3.811  1.00  0.00     0.122 C 
ATOM     17  C   UNL     1       2.924  -1.234   4.124  1.00  0.00     0.122 C 
ATOM     18  N   UNL     1       2.386  -2.572   3.896  1.00  0.00    -0.338 N 
ATOM     19  C   UNL     1       3.247  -3.666   3.787  1.00  0.00     0.256 C 
ATOM     20  O   UNL     1       4.470  -3.571   3.860  1.00  0.00    -0.269 OA
BRANCH  19  21
ATOM     21  C   UNL     1       2.692  -5.034   3.624  1.00  0.00     0.065 A 
ATOM     22  C   UNL     1       2.868  -5.892   4.724  1.00  0.00     0.016 A 
ATOM     23  C   UNL     1       1.977  -5.491   2.506  1.00  0.00     0.077 A 
ATOM     24  C   UNL     1       2.310  -7.173   4.725  1.00  0.00     0.001 A 
ATOM     25  C   UNL     1       1.366  -6.760   2.543  1.00  0.00     0.029 A 
ATOM     26  C   UNL     1       1.547  -7.600   3.642  1.00  0.00     0.002 A 
BRANCH  23  27
ATOM     27  N   UNL     1       1.853  -4.746   1.311  1.00  0.00    -0.240 N 
ATOM     28  C   UNL     1       2.762  -3.886   0.735  1.00  0.00     0.115 A 
ATOM     29  N   UNL     1       0.724  -4.845   0.557  1.00  0.00    -0.177 NA
ATOM     30  C   UNL     1       2.183  -3.398  -0.413  1.00  0.00     0.042 A 
ATOM     31  C   UNL     1       0.919  -4.004  -0.458  1.00  0.00     0.135 A 
ENDBRANCH  23  27
ENDBRANCH  19  21
ENDBRANCH   4   7
ENDBRANCH   2   3
ENDBRANCH   1   2
BRANCH   1  32
ATOM     32  C   UNL     1      -3.821  -1.964   1.181  1.00  0.00     0.118 C 
BRANCH  32  33
ATOM     33  N   UNL     1      -5.097  -1.340   0.863  1.00  0.00    -0.352 N 
ATOM     34  C   UNL     1      -5.942  -1.548  -0.199  1.00  0.00     0.251 C 
ATOM     35  H   UNL     1      -5.401  -0.662   1.509  1.00  0.00     0.163 HD
ATOM     36  O   UNL     1      -6.807  -0.715  -0.456  1.00  0.00    -0.269 OA
BRANCH  34  37
ATOM     37  C   UNL     1      -5.821  -2.761  -1.039  1.00  0.00     0.039 A 
ATOM     38  C   UNL     1      -6.025  -2.654  -2.418  1.00  0.00     0.014 A 
ATOM     39  C   UNL     1      -5.563  -4.010  -0.470  1.00  0.00     0.014 A 
ATOM     40  C   UNL     1      -5.912  -3.786  -3.229  1.00  0.00     0.010 A 
ATOM     41  C   UNL     1      -5.368  -5.121  -1.287  1.00  0.00     0.010 A 
ATOM     42  C   UNL     1      -5.546  -5.023  -2.675  1.00  0.00    -0.014 A 
BRANCH  42  43
ATOM     43  C   UNL     1      -5.337  -6.223  -3.524  1.00  0.00     0.031 A 
ATOM     44  C   UNL     1      -6.202  -7.441  -3.346  1.00  0.00     0.074 A 
ATOM     45  C   UNL     1      -4.317  -6.245  -4.404  1.00  0.00     0.049 A 
ATOM     46  N   UNL     1      -6.114  -8.610  -3.930  1.00  0.00    -0.248 NA
ATOM     47  C   UNL     1      -7.294  -7.341  -2.364  1.00  0.00     0.031 C 
ATOM     48  C   UNL     1      -3.385  -5.142  -4.650  1.00  0.00     0.029 A 
ATOM     49  N   UNL     1      -3.885  -7.238  -5.248  1.00  0.00    -0.354 N 
ATOM     50  C   UNL     1      -7.121  -9.388  -3.371  1.00  0.00     0.074 A 
ATOM     51  C   UNL     1      -7.777  -8.575  -2.370  1.00  0.00     0.031 C 
ATOM     52  C   UNL     1      -2.506  -5.512  -5.594  1.00  0.00     0.029 A 
ATOM     53  C   UNL     1      -2.778  -6.891  -5.984  1.00  0.00     0.049 A 
ATOM     54  H   UNL     1      -4.327  -8.115  -5.319  1.00  0.00     0.167 HD
ATOM     55  C   UNL     1      -7.477 -10.659  -3.674  1.00  0.00     0.031 A 
ATOM     56  C   UNL     1      -2.048  -7.608  -6.859  1.00  0.00     0.031 A 
ATOM     57  C   UNL     1      -6.825 -11.464  -4.673  1.00  0.00     0.049 A 
ATOM     58  C   UNL     1      -2.441  -9.029  -7.152  1.00  0.00     0.074 A 
ATOM     59  C   UNL     1      -7.154 -12.739  -5.101  1.00  0.00     0.029 A 
ATOM     60  N   UNL     1      -5.704 -11.078  -5.391  1.00  0.00    -0.354 N 
ATOM     61  N   UNL     1      -3.445  -9.723  -6.674  1.00  0.00    -0.248 NA
ATOM     62  C   UNL     1      -1.600  -9.764  -8.108  1.00  0.00     0.031 C 
ATOM     63  C   UNL     1      -6.190 -13.150  -6.027  1.00  0.00     0.029 A 
ATOM     64  C   UNL     1      -5.301 -12.106  -6.226  1.00  0.00     0.049 A 
ATOM     65  H   UNL     1      -5.261 -10.201  -5.318  1.00  0.00     0.167 HD
ATOM     66  C   UNL     1      -3.367 -10.970  -7.281  1.00  0.00     0.074 A 
ATOM     67  C   UNL     1      -2.233 -10.927  -8.181  1.00  0.00     0.031 C 
ATOM     68  C   UNL     1      -4.161 -12.054  -7.106  1.00  0.00     0.031 A 
BRANCH  55  69
ATOM     69  C   UNL     1      -8.613 -11.267  -2.896  1.00  0.00    -0.014 A 
ATOM     70  C   UNL     1      -9.933 -10.812  -3.049  1.00  0.00     0.009 A 
ATOM     71  C   UNL     1      -8.364 -12.336  -2.020  1.00  0.00     0.009 A 
ATOM     72  C   UNL     1     -10.971 -11.384  -2.309  1.00  0.00     0.001 A 
ATOM     73  C   UNL     1      -9.408 -12.929  -1.307  1.00  0.00     0.001 A 
ATOM     74  C   UNL     1     -10.708 -12.445  -1.444  1.00  0.00     0.000 A 
ENDBRANCH  55  69
BRANCH  56  75
ATOM     75  C   UNL     1      -0.862  -6.994  -7.513  1.00  0.00    -0.014 A 
ATOM     76  C   UNL     1      -0.875  -6.702  -8.886  1.00  0.00     0.009 A 
ATOM     77  C   UNL     1       0.288  -6.691  -6.767  1.00  0.00     0.009 A 
ATOM     78  C   UNL     1       0.248  -6.142  -9.500  1.00  0.00     0.001 A 
ATOM     79  C   UNL     1       1.397  -6.101  -7.377  1.00  0.00     0.001 A 
ATOM     80  C   UNL     1       1.379  -5.836  -8.745  1.00  0.00     0.000 A 
ENDBRANCH  56  75
BRANCH  68  81
ATOM     81  C   UNL     1      -3.837 -13.282  -7.910  1.00  0.00    -0.014 A 
ATOM     82  C   UNL     1      -2.704 -14.061  -7.623  1.00  0.00     0.009 A 
ATOM     83  C   UNL     1      -4.702 -13.694  -8.936  1.00  0.00     0.009 A 
ATOM     84  C   UNL     1      -2.431 -15.210  -8.367  1.00  0.00     0.001 A 
ATOM     85  C   UNL     1      -4.444 -14.861  -9.656  1.00  0.00     0.001 A 
ATOM     86  C   UNL     1      -3.304 -15.613  -9.377  1.00  0.00     0.000 A 
ENDBRANCH  68  81
ENDBRANCH  42  43
ENDBRANCH  34  37
ENDBRANCH  32  33
ENDBRANCH   1  32
TORSDOF 12
