REMARK SMILES C[N@H+]1CCO[C@H](CNC(=O)N2CC[C@@](C)(C(=O)NCCCNC(=O)c3ccc(-c4c5nc(c(-c6ccccc6)c6ccc([nH]6)c(-c6ccccc6)c6nc(c(-c7ccccc7)c7ccc4[nH]7)C=C6)C=C5)cc3)C2)C1
REMARK SMILES IDX 19 1 18 2 16 3 17 4 14 6 11 7 12 8 73 9 13 10 15 11 9 12
REMARK SMILES IDX 8 13 10 15 7 16 6 17 1 18 2 19 3 20 74 21 4 23 5 24 20 25
REMARK SMILES IDX 21 26 22 27 23 28 24 30 25 31 26 32 72 33 27 34 71 35 28 36
REMARK SMILES IDX 29 37 30 38 65 39 31 40 70 41 64 42 66 43 32 44 69 45 63 46
REMARK SMILES IDX 62 47 33 49 55 50 40 51 54 52 41 53 44 54 53 55 67 56 42 57
REMARK SMILES IDX 43 58 52 60 68 61 45 62 34 63 35 64 39 65 36 66 38 67 37 68
REMARK SMILES IDX 56 69 57 70 61 71 58 72 60 73 59 74 46 75 47 76 51 77 48 78
REMARK SMILES IDX 50 79 49 80
REMARK H PARENT 18 5 8 14 2 22 22 29 66 48 44 59
REMARK Flexibility Score: inf
ROOT
ATOM      1  C   UNL     1      -1.899   1.538   8.296  1.00  0.00     0.117 C 
ENDROOT
BRANCH   1   2
ATOM      2  N   UNL     1      -0.686   1.541   7.497  1.00  0.00    -0.356 N 
ATOM      3  C   UNL     1       0.273   0.633   7.208  1.00  0.00     0.227 C 
ATOM      4  O   UNL     1       1.273   1.112   6.654  1.00  0.00    -0.274 OA
ATOM      5  H   UNL     1      -0.525   2.410   7.062  1.00  0.00     0.163 HD
BRANCH   3   6
ATOM      6  C   UNL     1       0.168  -0.889   7.401  1.00  0.00     0.066 C 
ATOM      7  N   UNL     1       1.156  -2.341   5.756  1.00  0.00    -0.324 N 
ATOM      8  C   UNL     1       2.238  -1.935   6.628  1.00  0.00     0.122 C 
ATOM      9  C   UNL     1      -0.012  -1.512   5.993  1.00  0.00     0.138 C 
ATOM     10  C   UNL     1       1.551  -1.415   7.876  1.00  0.00     0.040 C 
ATOM     11  C   UNL     1      -0.893  -1.430   8.356  1.00  0.00     0.024 C 
BRANCH   7  12
ATOM     12  C   UNL     1       1.257  -3.473   5.011  1.00  0.00     0.317 C 
ATOM     13  N   UNL     1       0.404  -3.716   3.995  1.00  0.00    -0.335 N 
ATOM     14  H   UNL     1       0.267  -4.673   3.812  1.00  0.00     0.165 HD
ATOM     15  O   UNL     1       2.123  -4.322   5.226  1.00  0.00    -0.249 OA
BRANCH  13  16
ATOM     16  C   UNL     1      -0.353  -2.834   3.117  1.00  0.00     0.155 C 
BRANCH  16  17
ATOM     17  C   UNL     1       0.486  -2.362   1.914  1.00  0.00     0.192 C 
ATOM     18  C   UNL     1       1.189  -0.018  -0.107  1.00  0.00     0.332 C 
ATOM     19  N   UNL     1       0.261  -1.128  -0.301  1.00  0.00    -0.333 N 
ATOM     20  C   UNL     1       0.929  -2.300  -0.906  1.00  0.00     0.290 C 
ATOM     21  C   UNL     1      -0.401  -1.540   0.952  1.00  0.00     0.296 C 
ATOM     22  H   UNL     1      -0.454  -0.779  -0.941  1.00  0.00     0.348 HD
ATOM     23  C   UNL     1       1.773  -3.125   0.085  1.00  0.00     0.222 C 
ATOM     24  O   UNL     1       0.996  -3.523   1.223  1.00  0.00    -0.365 OA
ENDBRANCH  16  17
ENDBRANCH  13  16
ENDBRANCH   7  12
ENDBRANCH   3   6
ENDBRANCH   1   2
BRANCH   1  25
ATOM     25  C   UNL     1      -1.653   2.119   9.687  1.00  0.00     0.042 C 
BRANCH  25  26
ATOM     26  C   UNL     1      -1.362   3.620   9.677  1.00  0.00     0.118 C 
BRANCH  26  27
ATOM     27  N   UNL     1      -2.496   4.404   9.201  1.00  0.00    -0.352 N 
ATOM     28  C   UNL     1      -3.326   5.273   9.868  1.00  0.00     0.251 C 
ATOM     29  H   UNL     1      -2.701   4.292   8.244  1.00  0.00     0.163 HD
ATOM     30  O   UNL     1      -4.360   5.657   9.333  1.00  0.00    -0.269 OA
BRANCH  28  31
ATOM     31  C   UNL     1      -2.989   5.731  11.232  1.00  0.00     0.039 A 
ATOM     32  C   UNL     1      -3.999   5.786  12.197  1.00  0.00     0.014 A 
ATOM     33  C   UNL     1      -1.688   6.122  11.556  1.00  0.00     0.014 A 
ATOM     34  C   UNL     1      -3.683   6.141  13.511  1.00  0.00     0.010 A 
ATOM     35  C   UNL     1      -1.361   6.401  12.879  1.00  0.00     0.010 A 
ATOM     36  C   UNL     1      -2.351   6.397  13.873  1.00  0.00    -0.014 A 
BRANCH  36  37
ATOM     37  C   UNL     1      -1.957   6.615  15.287  1.00  0.00     0.031 A 
ATOM     38  C   UNL     1      -1.344   7.919  15.714  1.00  0.00     0.074 A 
ATOM     39  C   UNL     1      -2.061   5.598  16.165  1.00  0.00     0.049 A 
ATOM     40  N   UNL     1      -0.825   8.246  16.870  1.00  0.00    -0.248 NA
ATOM     41  C   UNL     1      -1.286   8.987  14.704  1.00  0.00     0.031 C 
ATOM     42  C   UNL     1      -2.613   4.274  15.869  1.00  0.00     0.029 A 
ATOM     43  N   UNL     1      -1.687   5.512  17.484  1.00  0.00    -0.354 N 
ATOM     44  C   UNL     1      -0.364   9.548  16.722  1.00  0.00     0.074 A 
ATOM     45  C   UNL     1      -0.625   9.935  15.352  1.00  0.00     0.031 C 
ATOM     46  C   UNL     1      -2.558   3.516  16.975  1.00  0.00     0.029 A 
ATOM     47  C   UNL     1      -1.918   4.277  18.042  1.00  0.00     0.049 A 
ATOM     48  H   UNL     1      -1.292   6.264  17.982  1.00  0.00     0.167 HD
ATOM     49  C   UNL     1       0.213  10.352  17.646  1.00  0.00     0.031 A 
ATOM     50  C   UNL     1      -1.624   3.800  19.266  1.00  0.00     0.031 A 
ATOM     51  C   UNL     1       0.473   9.964  19.007  1.00  0.00     0.049 A 
ATOM     52  C   UNL     1      -0.931   4.695  20.255  1.00  0.00     0.074 A 
ATOM     53  C   UNL     1       1.000  10.727  20.034  1.00  0.00     0.029 A 
ATOM     54  N   UNL     1       0.235   8.701  19.527  1.00  0.00    -0.354 N 
ATOM     55  N   UNL     1      -0.567   5.947  20.121  1.00  0.00    -0.248 NA
ATOM     56  C   UNL     1      -0.606   4.110  21.564  1.00  0.00     0.031 C 
ATOM     57  C   UNL     1       1.143   9.907  21.158  1.00  0.00     0.029 A 
ATOM     58  C   UNL     1       0.645   8.651  20.849  1.00  0.00     0.049 A 
ATOM     59  H   UNL     1      -0.165   7.951  19.031  1.00  0.00     0.167 HD
ATOM     60  C   UNL     1       0.012   6.305  21.331  1.00  0.00     0.074 A 
ATOM     61  C   UNL     1      -0.069   5.145  22.195  1.00  0.00     0.031 C 
ATOM     62  C   UNL     1       0.564   7.488  21.694  1.00  0.00     0.031 A 
BRANCH  49  63
ATOM     63  C   UNL     1       0.620  11.733  17.210  1.00  0.00    -0.014 A 
ATOM     64  C   UNL     1      -0.338  12.715  16.909  1.00  0.00     0.009 A 
ATOM     65  C   UNL     1       1.981  12.071  17.143  1.00  0.00     0.009 A 
ATOM     66  C   UNL     1       0.059  13.994  16.514  1.00  0.00     0.001 A 
ATOM     67  C   UNL     1       2.375  13.360  16.777  1.00  0.00     0.001 A 
ATOM     68  C   UNL     1       1.415  14.317  16.453  1.00  0.00     0.000 A 
ENDBRANCH  49  63
BRANCH  50  69
ATOM     69  C   UNL     1      -1.970   2.399  19.623  1.00  0.00    -0.014 A 
ATOM     70  C   UNL     1      -2.968   2.131  20.572  1.00  0.00     0.009 A 
ATOM     71  C   UNL     1      -1.300   1.321  19.023  1.00  0.00     0.009 A 
ATOM     72  C   UNL     1      -3.270   0.815  20.930  1.00  0.00     0.001 A 
ATOM     73  C   UNL     1      -1.626   0.005  19.359  1.00  0.00     0.001 A 
ATOM     74  C   UNL     1      -2.603  -0.246  20.320  1.00  0.00     0.000 A 
ENDBRANCH  50  69
BRANCH  62  75
ATOM     75  C   UNL     1       1.112   7.596  23.089  1.00  0.00    -0.014 A 
ATOM     76  C   UNL     1       2.305   6.953  23.451  1.00  0.00     0.009 A 
ATOM     77  C   UNL     1       0.458   8.402  24.034  1.00  0.00     0.009 A 
ATOM     78  C   UNL     1       2.822   7.099  24.740  1.00  0.00     0.001 A 
ATOM     79  C   UNL     1       0.993   8.570  25.312  1.00  0.00     0.001 A 
ATOM     80  C   UNL     1       2.170   7.913  25.666  1.00  0.00     0.000 A 
ENDBRANCH  62  75
ENDBRANCH  36  37
ENDBRANCH  28  31
ENDBRANCH  26  27
ENDBRANCH  25  26
ENDBRANCH   1  25
TORSDOF 13
