REMARK SMILES O=C(C[C@@H]1C[N@@H+]([C@H]2CCO[C@]3(CCOC3)C2)CCO1)NCCCNC(=O)c1ccc(-c2c3nc(c(-c4ccccc4)c4ccc([nH]4)c(-c4ccccc4)c4nc(c(-c5ccccc5)c5ccc2[nH]5)C=C4)C=C3)cc1
REMARK SMILES IDX 22 1 21 2 20 3 1 4 2 5 3 7 4 8 5 9 19 10 6 11 18 12 17 13
REMARK SMILES IDX 7 15 8 16 16 17 9 18 11 19 10 20 12 21 15 22 13 23 14 24
REMARK SMILES IDX 23 25 24 26 25 27 26 29 27 30 28 31 74 32 29 33 73 34 30 35
REMARK SMILES IDX 31 36 32 37 67 38 33 39 72 40 66 41 68 42 34 43 71 44 65 45
REMARK SMILES IDX 64 46 35 48 57 49 42 50 56 51 43 52 46 53 55 54 69 55 44 56
REMARK SMILES IDX 45 57 54 59 70 60 47 61 36 62 37 63 41 64 38 65 40 66 39 67
REMARK SMILES IDX 58 68 59 69 63 70 60 71 62 72 61 73 48 74 49 75 53 76 50 77
REMARK SMILES IDX 52 78 51 79
REMARK H PARENT 20 6 6 14 24 28 68 47 46 58
REMARK Flexibility Score: inf
ROOT
ATOM      1  C   UNL     1       7.072   2.775  -4.464  1.00  0.00     0.042 C 
ENDROOT
BRANCH   1   2
ATOM      2  C   UNL     1       6.579   1.641  -3.576  1.00  0.00     0.117 C 
BRANCH   2   3
ATOM      3  N   UNL     1       6.891   0.338  -4.127  1.00  0.00    -0.356 N 
ATOM      4  O   UNL     1       8.252  -0.374  -2.413  1.00  0.00    -0.275 OA
ATOM      5  C   UNL     1       7.668  -0.592  -3.470  1.00  0.00     0.222 C 
ATOM      6  H   UNL     1       6.531   0.105  -5.013  1.00  0.00     0.163 HD
BRANCH   5   7
ATOM      7  C   UNL     1       7.708  -1.944  -4.154  1.00  0.00     0.138 C 
BRANCH   7   8
ATOM      8  C   UNL     1       6.293  -2.523  -4.180  1.00  0.00     0.182 C 
ATOM      9  C   UNL     1       6.133  -3.758  -3.268  1.00  0.00     0.295 C 
ATOM     10  O   UNL     1       5.927  -2.840  -5.534  1.00  0.00    -0.366 OA
ATOM     11  N   UNL     1       4.755  -4.296  -3.258  1.00  0.00    -0.328 N 
ATOM     12  C   UNL     1       4.548  -3.242  -5.577  1.00  0.00     0.222 C 
ATOM     13  C   UNL     1       4.266  -4.433  -4.642  1.00  0.00     0.291 C 
ATOM     14  H   UNL     1       4.753  -5.250  -2.899  1.00  0.00     0.348 HD
BRANCH  11  15
ATOM     15  C   UNL     1       3.868  -3.707  -2.229  1.00  0.00     0.189 C 
ATOM     16  C   UNL     1       3.684  -2.182  -2.261  1.00  0.00     0.093 C 
ATOM     17  C   UNL     1       2.491  -4.401  -2.142  1.00  0.00     0.103 C 
ATOM     18  C   UNL     1       2.736  -1.698  -1.178  1.00  0.00     0.167 C 
ATOM     19  C   UNL     1       1.591  -3.786  -1.049  1.00  0.00     0.099 C 
ATOM     20  O   UNL     1       1.489  -2.374  -1.248  1.00  0.00    -0.372 OA
ATOM     21  C   UNL     1       2.009  -4.142   0.374  1.00  0.00     0.066 C 
ATOM     22  C   UNL     1       0.188  -4.389  -1.102  1.00  0.00     0.195 C 
ATOM     23  C   UNL     1       1.171  -5.353   0.743  1.00  0.00     0.163 C 
ATOM     24  O   UNL     1       0.234  -5.581  -0.313  1.00  0.00    -0.378 OA
ENDBRANCH  11  15
ENDBRANCH   7   8
ENDBRANCH   5   7
ENDBRANCH   2   3
ENDBRANCH   1   2
BRANCH   1  25
ATOM     25  C   UNL     1       6.477   2.787  -5.869  1.00  0.00     0.118 C 
BRANCH  25  26
ATOM     26  N   UNL     1       5.042   3.028  -5.890  1.00  0.00    -0.352 N 
ATOM     27  C   UNL     1       4.302   3.849  -6.703  1.00  0.00     0.251 C 
ATOM     28  H   UNL     1       4.524   2.526  -5.219  1.00  0.00     0.163 HD
ATOM     29  O   UNL     1       3.099   3.991  -6.477  1.00  0.00    -0.269 OA
BRANCH  27  30
ATOM     30  C   UNL     1       4.924   4.584  -7.828  1.00  0.00     0.039 A 
ATOM     31  C   UNL     1       4.503   5.894  -8.080  1.00  0.00     0.014 A 
ATOM     32  C   UNL     1       5.875   3.991  -8.665  1.00  0.00     0.014 A 
ATOM     33  C   UNL     1       5.059   6.619  -9.137  1.00  0.00     0.010 A 
ATOM     34  C   UNL     1       6.481   4.739  -9.675  1.00  0.00     0.010 A 
ATOM     35  C   UNL     1       6.068   6.054  -9.934  1.00  0.00    -0.014 A 
BRANCH  35  36
ATOM     36  C   UNL     1       6.666   6.818 -11.059  1.00  0.00     0.031 A 
ATOM     37  C   UNL     1       6.460   6.367 -12.480  1.00  0.00     0.074 A 
ATOM     38  C   UNL     1       7.420   7.906 -10.807  1.00  0.00     0.049 A 
ATOM     39  N   UNL     1       6.899   6.905 -13.591  1.00  0.00    -0.248 NA
ATOM     40  C   UNL     1       5.676   5.137 -12.680  1.00  0.00     0.031 C 
ATOM     41  C   UNL     1       7.735   8.431  -9.477  1.00  0.00     0.029 A 
ATOM     42  N   UNL     1       8.056   8.768 -11.664  1.00  0.00    -0.354 N 
ATOM     43  C   UNL     1       6.460   6.074 -14.614  1.00  0.00     0.074 A 
ATOM     44  C   UNL     1       5.764   4.969 -13.991  1.00  0.00     0.031 C 
ATOM     45  C   UNL     1       8.477   9.542  -9.609  1.00  0.00     0.029 A 
ATOM     46  C   UNL     1       8.713   9.793 -11.027  1.00  0.00     0.049 A 
ATOM     47  H   UNL     1       8.043   8.663 -12.643  1.00  0.00     0.167 HD
ATOM     48  C   UNL     1       6.602   6.223 -15.953  1.00  0.00     0.031 A 
ATOM     49  C   UNL     1       9.418  10.825 -11.528  1.00  0.00     0.031 A 
ATOM     50  C   UNL     1       7.277   7.327 -16.580  1.00  0.00     0.049 A 
ATOM     51  C   UNL     1       9.547  10.979 -13.018  1.00  0.00     0.074 A 
ATOM     52  C   UNL     1       7.430   7.590 -17.931  1.00  0.00     0.029 A 
ATOM     53  N   UNL     1       7.910   8.354 -15.899  1.00  0.00    -0.354 N 
ATOM     54  N   UNL     1       9.069  10.219 -13.973  1.00  0.00    -0.248 NA
ATOM     55  C   UNL     1      10.297  12.149 -13.498  1.00  0.00     0.031 C 
ATOM     56  C   UNL     1       8.188   8.759 -18.066  1.00  0.00     0.029 A 
ATOM     57  C   UNL     1       8.464   9.248 -16.800  1.00  0.00     0.049 A 
ATOM     58  H   UNL     1       7.958   8.436 -14.919  1.00  0.00     0.167 HD
ATOM     59  C   UNL     1       9.429  10.836 -15.164  1.00  0.00     0.074 A 
ATOM     60  C   UNL     1      10.155  12.039 -14.811  1.00  0.00     0.031 C 
ATOM     61  C   UNL     1       9.177  10.444 -16.436  1.00  0.00     0.031 A 
BRANCH  48  62
ATOM     62  C   UNL     1       6.011   5.156 -16.831  1.00  0.00    -0.014 A 
ATOM     63  C   UNL     1       4.620   5.024 -16.977  1.00  0.00     0.009 A 
ATOM     64  C   UNL     1       6.853   4.287 -17.541  1.00  0.00     0.009 A 
ATOM     65  C   UNL     1       4.086   4.019 -17.785  1.00  0.00     0.001 A 
ATOM     66  C   UNL     1       6.316   3.301 -18.371  1.00  0.00     0.001 A 
ATOM     67  C   UNL     1       4.934   3.161 -18.484  1.00  0.00     0.000 A 
ENDBRANCH  48  62
BRANCH  49  68
ATOM     68  C   UNL     1      10.027  11.824 -10.613  1.00  0.00    -0.014 A 
ATOM     69  C   UNL     1       9.490  13.117 -10.515  1.00  0.00     0.009 A 
ATOM     70  C   UNL     1      11.152  11.495  -9.842  1.00  0.00     0.009 A 
ATOM     71  C   UNL     1      10.086  14.069  -9.685  1.00  0.00     0.001 A 
ATOM     72  C   UNL     1      11.729  12.441  -8.993  1.00  0.00     0.001 A 
ATOM     73  C   UNL     1      11.202  13.730  -8.923  1.00  0.00     0.000 A 
ENDBRANCH  49  68
BRANCH  61  74
ATOM     74  C   UNL     1       9.647  11.349 -17.539  1.00  0.00    -0.014 A 
ATOM     75  C   UNL     1      11.007  11.462 -17.865  1.00  0.00     0.009 A 
ATOM     76  C   UNL     1       8.706  12.081 -18.281  1.00  0.00     0.009 A 
ATOM     77  C   UNL     1      11.418  12.320 -18.888  1.00  0.00     0.001 A 
ATOM     78  C   UNL     1       9.117  12.916 -19.320  1.00  0.00     0.001 A 
ATOM     79  C   UNL     1      10.473  13.043 -19.616  1.00  0.00     0.000 A 
ENDBRANCH  61  74
ENDBRANCH  35  36
ENDBRANCH  27  30
ENDBRANCH  25  26
ENDBRANCH   1  25
TORSDOF 12
