REMARK SMILES Cc1c(NC(=O)c2ccc(Br)cc2N)cccc1C(=O)NCCCNC(=O)c1ccc(-c2c3nc(c(-c4ccccc4)c4ccc([nH]4)c(-c4ccccc4)c4nc(c(-c5ccccc5)c5ccc2[nH]5)C=C4)C=C3)cc1
REMARK SMILES IDX 22 1 21 2 19 3 20 4 18 6 1 7 2 8 3 9 15 10 17 11 16 12 4 13
REMARK SMILES IDX 5 14 6 16 7 17 8 18 13 19 9 20 12 21 10 22 11 23 14 24 23 27
REMARK SMILES IDX 24 28 25 29 26 30 27 32 28 33 29 34 75 35 30 36 74 37 31 38
REMARK SMILES IDX 32 39 33 40 68 41 34 42 73 43 67 44 69 45 35 46 72 47 66 48
REMARK SMILES IDX 65 49 36 51 58 52 43 53 57 54 44 55 47 56 56 57 70 58 45 59
REMARK SMILES IDX 46 60 55 62 71 63 48 64 37 65 38 66 42 67 39 68 41 69 40 70
REMARK SMILES IDX 59 71 60 72 64 73 61 74 63 75 62 76 49 77 50 78 54 79 51 80
REMARK SMILES IDX 53 81 52 82
REMARK H PARENT 21 5 4 15 14 25 14 26 25 31 69 50 47 61
REMARK Flexibility Score: inf
ROOT
ATOM      1  C   UNL     1       3.556   1.533   0.414  1.00  0.00     0.118 C 
ENDROOT
BRANCH   1   2
ATOM      2  N   UNL     1       2.402   2.301  -0.033  1.00  0.00    -0.352 N 
ATOM      3  C   UNL     1       1.055   2.085  -0.182  1.00  0.00     0.251 C 
ATOM      4  O   UNL     1       0.425   3.056  -0.618  1.00  0.00    -0.269 OA
ATOM      5  H   UNL     1       2.654   3.215  -0.298  1.00  0.00     0.163 HD
BRANCH   3   6
ATOM      6  C   UNL     1       0.264   0.846   0.154  1.00  0.00     0.044 A 
ATOM      7  C   UNL     1       1.952  -0.953  -0.509  1.00  0.00     0.047 C 
ATOM      8  C   UNL     1       0.652  -0.506   0.077  1.00  0.00    -0.015 A 
ATOM      9  C   UNL     1      -0.276  -1.538   0.381  1.00  0.00     0.045 A 
ATOM     10  C   UNL     1      -1.613  -1.254   0.632  1.00  0.00     0.026 A 
ATOM     11  C   UNL     1      -1.098   1.099   0.438  1.00  0.00     0.014 A 
ATOM     12  C   UNL     1      -2.026   0.072   0.650  1.00  0.00     0.003 A 
BRANCH   9  13
ATOM     13  N   UNL     1       0.218  -2.849   0.415  1.00  0.00    -0.322 N 
ATOM     14  C   UNL     1      -0.213  -4.010  -0.173  1.00  0.00     0.257 C 
ATOM     15  H   UNL     1       1.028  -2.956   0.964  1.00  0.00     0.170 HD
ATOM     16  O   UNL     1       0.403  -5.047   0.085  1.00  0.00    -0.269 OA
BRANCH  14  17
ATOM     17  C   UNL     1      -1.337  -4.070  -1.138  1.00  0.00     0.063 A 
ATOM     18  C   UNL     1      -2.180  -5.184  -0.968  1.00  0.00     0.017 A 
ATOM     19  C   UNL     1      -1.552  -3.180  -2.212  1.00  0.00     0.045 A 
ATOM     20  C   UNL     1      -3.260  -5.397  -1.820  1.00  0.00     0.016 A 
ATOM     21  C   UNL     1      -2.660  -3.402  -3.045  1.00  0.00     0.042 A 
ATOM     22  C   UNL     1      -3.505  -4.494  -2.845  1.00  0.00     0.020 A 
ATOM     23  Br  UNL     1      -4.967  -4.770  -4.010  1.00  0.00    -0.051 Br
BRANCH  19  24
ATOM     24  N   UNL     1      -0.649  -2.203  -2.621  1.00  0.00    -0.398 N 
ATOM     25  H   UNL     1       0.145  -2.007  -2.073  1.00  0.00     0.156 HD
ATOM     26  H   UNL     1      -0.805  -1.708  -3.457  1.00  0.00     0.156 HD
ENDBRANCH  19  24
ENDBRANCH  14  17
ENDBRANCH   9  13
ENDBRANCH   3   6
ENDBRANCH   1   2
BRANCH   1  27
ATOM     27  C   UNL     1       4.264   0.866  -0.771  1.00  0.00     0.042 C 
BRANCH  27  28
ATOM     28  C   UNL     1       5.588   1.457  -1.197  1.00  0.00     0.118 C 
BRANCH  28  29
ATOM     29  N   UNL     1       6.731   0.570  -0.966  1.00  0.00    -0.352 N 
ATOM     30  C   UNL     1       8.043   0.740  -1.393  1.00  0.00     0.251 C 
ATOM     31  H   UNL     1       6.548  -0.246  -0.446  1.00  0.00     0.163 HD
ATOM     32  O   UNL     1       8.926  -0.027  -1.068  1.00  0.00    -0.269 OA
BRANCH  30  33
ATOM     33  C   UNL     1       8.346   1.986  -2.138  1.00  0.00     0.039 A 
ATOM     34  C   UNL     1       9.077   2.943  -1.432  1.00  0.00     0.014 A 
ATOM     35  C   UNL     1       7.521   2.344  -3.199  1.00  0.00     0.014 A 
ATOM     36  C   UNL     1       8.711   4.275  -1.558  1.00  0.00     0.010 A 
ATOM     37  C   UNL     1       7.088   3.655  -3.254  1.00  0.00     0.010 A 
ATOM     38  C   UNL     1       7.616   4.595  -2.363  1.00  0.00    -0.014 A 
BRANCH  38  39
ATOM     39  C   UNL     1       6.973   5.900  -2.310  1.00  0.00     0.031 A 
ATOM     40  C   UNL     1       7.388   6.898  -3.314  1.00  0.00     0.074 A 
ATOM     41  C   UNL     1       6.092   6.251  -1.342  1.00  0.00     0.049 A 
ATOM     42  N   UNL     1       7.517   8.158  -3.074  1.00  0.00    -0.248 NA
ATOM     43  C   UNL     1       7.767   6.520  -4.671  1.00  0.00     0.031 C 
ATOM     44  C   UNL     1       5.365   7.519  -1.256  1.00  0.00     0.029 A 
ATOM     45  N   UNL     1       5.817   5.644  -0.114  1.00  0.00    -0.354 N 
ATOM     46  C   UNL     1       7.672   8.781  -4.288  1.00  0.00     0.074 A 
ATOM     47  C   UNL     1       7.944   7.719  -5.229  1.00  0.00     0.031 C 
ATOM     48  C   UNL     1       5.044   7.744   0.028  1.00  0.00     0.029 A 
ATOM     49  C   UNL     1       5.655   6.690   0.814  1.00  0.00     0.049 A 
ATOM     50  H   UNL     1       5.750   4.678   0.065  1.00  0.00     0.167 HD
ATOM     51  C   UNL     1       7.390  10.109  -4.404  1.00  0.00     0.031 A 
ATOM     52  C   UNL     1       6.450   6.877   1.910  1.00  0.00     0.031 A 
ATOM     53  C   UNL     1       7.007  10.700  -3.119  1.00  0.00     0.049 A 
ATOM     54  C   UNL     1       7.154   8.224   1.937  1.00  0.00     0.074 A 
ATOM     55  C   UNL     1       5.787  11.047  -2.558  1.00  0.00     0.029 A 
ATOM     56  N   UNL     1       7.925  10.717  -2.076  1.00  0.00    -0.354 N 
ATOM     57  N   UNL     1       7.091   9.107   0.979  1.00  0.00    -0.248 NA
ATOM     58  C   UNL     1       8.081   8.629   2.991  1.00  0.00     0.031 C 
ATOM     59  C   UNL     1       5.981  11.261  -1.165  1.00  0.00     0.029 A 
ATOM     60  C   UNL     1       7.320  11.071  -0.881  1.00  0.00     0.049 A 
ATOM     61  H   UNL     1       8.881  10.506  -2.174  1.00  0.00     0.167 HD
ATOM     62  C   UNL     1       7.960  10.142   1.229  1.00  0.00     0.074 A 
ATOM     63  C   UNL     1       8.557   9.790   2.506  1.00  0.00     0.031 C 
ATOM     64  C   UNL     1       8.130  11.167   0.334  1.00  0.00     0.031 A 
BRANCH  51  65
ATOM     65  C   UNL     1       7.158  10.770  -5.744  1.00  0.00    -0.014 A 
ATOM     66  C   UNL     1       6.279  11.863  -5.841  1.00  0.00     0.009 A 
ATOM     67  C   UNL     1       7.722  10.330  -6.955  1.00  0.00     0.009 A 
ATOM     68  C   UNL     1       5.896  12.402  -7.078  1.00  0.00     0.001 A 
ATOM     69  C   UNL     1       7.308  10.828  -8.199  1.00  0.00     0.001 A 
ATOM     70  C   UNL     1       6.382  11.859  -8.260  1.00  0.00     0.000 A 
ENDBRANCH  51  65
BRANCH  52  71
ATOM     71  C   UNL     1       7.016   5.611   2.449  1.00  0.00    -0.014 A 
ATOM     72  C   UNL     1       6.114   4.686   3.011  1.00  0.00     0.009 A 
ATOM     73  C   UNL     1       8.265   5.156   2.009  1.00  0.00     0.009 A 
ATOM     74  C   UNL     1       6.374   3.315   2.944  1.00  0.00     0.001 A 
ATOM     75  C   UNL     1       8.527   3.783   1.967  1.00  0.00     0.001 A 
ATOM     76  C   UNL     1       7.560   2.864   2.373  1.00  0.00     0.000 A 
ENDBRANCH  52  71
BRANCH  64  77
ATOM     77  C   UNL     1       9.067  12.360   0.461  1.00  0.00    -0.014 A 
ATOM     78  C   UNL     1       9.751  12.740   1.620  1.00  0.00     0.009 A 
ATOM     79  C   UNL     1       9.254  13.208  -0.660  1.00  0.00     0.009 A 
ATOM     80  C   UNL     1      10.628  13.839   1.638  1.00  0.00     0.001 A 
ATOM     81  C   UNL     1      10.117  14.308  -0.649  1.00  0.00     0.001 A 
ATOM     82  C   UNL     1      10.820  14.614   0.502  1.00  0.00     0.000 A 
ENDBRANCH  64  77
ENDBRANCH  38  39
ENDBRANCH  30  33
ENDBRANCH  28  29
ENDBRANCH  27  28
ENDBRANCH   1  27
TORSDOF 13
