REMARK SMILES N#Cc1ccn2cc(C(=O)NCCCNC(=O)c3ccc(-c4c5nc(c(-c6ccccc6)c6ccc([nH]6)c(-c6ccccc6)c6nc(c(-c7ccccc7)c7ccc4[nH]7)C=C6)C=C5)cc3)nc2c1
REMARK SMILES IDX 13 1 12 2 11 3 9 4 10 5 8 7 3 8 4 9 68 10 5 11 67 12 6 13
REMARK SMILES IDX 66 14 7 15 2 16 1 17 14 18 15 19 16 20 17 22 18 23 19 24
REMARK SMILES IDX 65 25 20 26 64 27 21 28 22 29 23 30 58 31 24 32 63 33 57 34
REMARK SMILES IDX 59 35 25 36 62 37 56 38 55 39 26 41 48 42 33 43 47 44 34 45
REMARK SMILES IDX 37 46 46 47 60 48 35 49 36 50 45 52 61 53 38 54 27 55 28 56
REMARK SMILES IDX 32 57 29 58 31 59 30 60 49 61 50 62 54 63 51 64 53 65 52 66
REMARK SMILES IDX 39 67 40 68 44 69 41 70 43 71 42 72
REMARK H PARENT 11 6 15 21 59 40 37 51
REMARK Flexibility Score: inf
ROOT
ATOM      1  C   UNL     1       8.266   5.561   1.051  1.00  0.00     0.042 C 
ENDROOT
BRANCH   1   2
ATOM      2  C   UNL     1       8.274   4.702  -0.213  1.00  0.00     0.118 C 
BRANCH   2   3
ATOM      3  N   UNL     1       9.330   3.700  -0.184  1.00  0.00    -0.351 N 
ATOM      4  C   UNL     1       9.293   2.332  -0.109  1.00  0.00     0.271 C 
ATOM      5  O   UNL     1      10.379   1.738  -0.103  1.00  0.00    -0.267 OA
ATOM      6  H   UNL     1      10.239   4.074  -0.226  1.00  0.00     0.163 HD
BRANCH   4   7
ATOM      7  C   UNL     1       8.028   1.601  -0.059  1.00  0.00     0.147 A 
ATOM      8  C   UNL     1       3.845  -0.013  -0.076  1.00  0.00     0.057 A 
ATOM      9  C   UNL     1       4.559  -1.288  -0.089  1.00  0.00     0.038 A 
ATOM     10  C   UNL     1       4.500   1.164  -0.047  1.00  0.00     0.067 A 
ATOM     11  C   UNL     1       5.905  -1.277  -0.084  1.00  0.00     0.094 A 
ATOM     12  C   UNL     1       5.919   1.171  -0.037  1.00  0.00     0.138 A 
ATOM     13  N   UNL     1       6.571  -0.054  -0.063  1.00  0.00    -0.306 N 
ATOM     14  N   UNL     1       6.770   2.169  -0.012  1.00  0.00    -0.223 NA
ATOM     15  C   UNL     1       7.911   0.219  -0.070  1.00  0.00     0.127 A 
BRANCH   8  16
ATOM     16  C   UNL     1       2.325  -0.013  -0.076  1.00  0.00     0.099 C 
ATOM     17  N   UNL     1       1.064  -0.013  -0.076  1.00  0.00    -0.192 NA
ENDBRANCH   8  16
ENDBRANCH   4   7
ENDBRANCH   2   3
ENDBRANCH   1   2
BRANCH   1  18
ATOM     18  C   UNL     1       9.563   6.346   1.260  1.00  0.00     0.118 C 
BRANCH  18  19
ATOM     19  N   UNL     1       9.918   7.213   0.153  1.00  0.00    -0.352 N 
ATOM     20  C   UNL     1       9.649   8.506  -0.189  1.00  0.00     0.251 C 
ATOM     21  H   UNL     1      10.488   6.760  -0.510  1.00  0.00     0.163 HD
ATOM     22  O   UNL     1      10.264   8.948  -1.163  1.00  0.00    -0.269 OA
BRANCH  20  23
ATOM     23  C   UNL     1       8.616   9.364   0.448  1.00  0.00     0.039 A 
ATOM     24  C   UNL     1       7.848   9.024   1.562  1.00  0.00     0.014 A 
ATOM     25  C   UNL     1       8.334  10.567  -0.229  1.00  0.00     0.014 A 
ATOM     26  C   UNL     1       6.721   9.770   1.884  1.00  0.00     0.010 A 
ATOM     27  C   UNL     1       7.226  11.328   0.102  1.00  0.00     0.010 A 
ATOM     28  C   UNL     1       6.378  10.875   1.104  1.00  0.00    -0.014 A 
BRANCH  28  29
ATOM     29  C   UNL     1       5.123  11.556   1.386  1.00  0.00     0.031 A 
ATOM     30  C   UNL     1       5.051  12.236   2.709  1.00  0.00     0.074 A 
ATOM     31  C   UNL     1       4.139  11.638   0.468  1.00  0.00     0.049 A 
ATOM     32  N   UNL     1       4.188  12.051   3.653  1.00  0.00    -0.248 NA
ATOM     33  C   UNL     1       6.134  13.166   3.066  1.00  0.00     0.031 C 
ATOM     34  C   UNL     1       4.173  11.256  -0.948  1.00  0.00     0.029 A 
ATOM     35  N   UNL     1       2.913  12.209   0.592  1.00  0.00    -0.354 N 
ATOM     36  C   UNL     1       4.533  12.927   4.682  1.00  0.00     0.074 A 
ATOM     37  C   UNL     1       5.794  13.514   4.308  1.00  0.00     0.031 C 
ATOM     38  C   UNL     1       3.143  11.852  -1.594  1.00  0.00     0.029 A 
ATOM     39  C   UNL     1       2.305  12.525  -0.616  1.00  0.00     0.049 A 
ATOM     40  H   UNL     1       2.491  12.385   1.464  1.00  0.00     0.167 HD
ATOM     41  C   UNL     1       3.683  13.213   5.708  1.00  0.00     0.031 A 
ATOM     42  C   UNL     1       1.248  13.360  -0.787  1.00  0.00     0.031 A 
ATOM     43  C   UNL     1       2.625  12.247   5.805  1.00  0.00     0.049 A 
ATOM     44  C   UNL     1       0.560  13.469   0.523  1.00  0.00     0.074 A 
ATOM     45  C   UNL     1       2.580  10.900   6.100  1.00  0.00     0.029 A 
ATOM     46  N   UNL     1       1.423  12.546   5.209  1.00  0.00    -0.354 N 
ATOM     47  N   UNL     1      -0.060  12.475   1.092  1.00  0.00    -0.248 NA
ATOM     48  C   UNL     1       0.972  14.545   1.412  1.00  0.00     0.031 C 
ATOM     49  C   UNL     1       1.599  10.371   5.216  1.00  0.00     0.029 A 
ATOM     50  C   UNL     1       1.045  11.435   4.500  1.00  0.00     0.049 A 
ATOM     51  H   UNL     1       0.929  13.395   5.278  1.00  0.00     0.167 HD
ATOM     52  C   UNL     1       0.270  12.579   2.434  1.00  0.00     0.074 A 
ATOM     53  C   UNL     1       0.843  13.917   2.584  1.00  0.00     0.031 C 
ATOM     54  C   UNL     1       0.329  11.480   3.244  1.00  0.00     0.031 A 
BRANCH  41  55
ATOM     55  C   UNL     1       3.633  14.528   6.440  1.00  0.00    -0.014 A 
ATOM     56  C   UNL     1       4.270  15.694   5.980  1.00  0.00     0.009 A 
ATOM     57  C   UNL     1       2.703  14.687   7.486  1.00  0.00     0.009 A 
ATOM     58  C   UNL     1       3.977  16.954   6.509  1.00  0.00     0.001 A 
ATOM     59  C   UNL     1       2.378  15.952   7.991  1.00  0.00     0.001 A 
ATOM     60  C   UNL     1       3.011  17.086   7.496  1.00  0.00     0.000 A 
ENDBRANCH  41  55
BRANCH  42  61
ATOM     61  C   UNL     1       1.092  14.398  -1.838  1.00  0.00    -0.014 A 
ATOM     62  C   UNL     1       2.223  14.939  -2.478  1.00  0.00     0.009 A 
ATOM     63  C   UNL     1      -0.129  15.076  -1.996  1.00  0.00     0.009 A 
ATOM     64  C   UNL     1       2.153  16.136  -3.198  1.00  0.00     0.001 A 
ATOM     65  C   UNL     1      -0.199  16.279  -2.715  1.00  0.00     0.001 A 
ATOM     66  C   UNL     1       0.945  16.817  -3.300  1.00  0.00     0.000 A 
ENDBRANCH  42  61
BRANCH  54  67
ATOM     67  C   UNL     1      -0.120  10.142   2.699  1.00  0.00    -0.014 A 
ATOM     68  C   UNL     1      -0.993   9.370   3.483  1.00  0.00     0.009 A 
ATOM     69  C   UNL     1       0.469   9.536   1.574  1.00  0.00     0.009 A 
ATOM     70  C   UNL     1      -1.243   8.031   3.176  1.00  0.00     0.001 A 
ATOM     71  C   UNL     1       0.196   8.201   1.251  1.00  0.00     0.001 A 
ATOM     72  C   UNL     1      -0.648   7.446   2.061  1.00  0.00     0.000 A 
ENDBRANCH  54  67
ENDBRANCH  28  29
ENDBRANCH  20  23
ENDBRANCH  18  19
ENDBRANCH   1  18
TORSDOF 11
