REMARK SMILES CCNC(=S)N/N=C\c1ccc(-c2ccc(C(=O)NCCCNC(=O)c3ccc(-c4c5nc(c(-c6ccccc6)c6ccc([nH]6)c(-c6ccccc6)c6nc(c(-c7ccccc7)c7ccc4[nH]7)C=C6)C=C5)cc3)c(Cl)c2)o1
REMARK SMILES IDX 17 1 18 2 19 3 16 5 13 6 14 7 76 8 15 9 74 10 75 11 12 12
REMARK SMILES IDX 9 13 10 14 77 15 11 16 8 17 7 18 6 19 4 21 5 22 3 23 2 25
REMARK SMILES IDX 1 26 20 27 21 28 22 29 23 30 24 31 25 33 26 34 27 35 73 36
REMARK SMILES IDX 28 37 72 38 29 39 30 40 31 41 66 42 32 43 71 44 65 45 67 46
REMARK SMILES IDX 33 47 70 48 64 49 63 50 34 52 56 53 41 54 55 55 42 56 45 57
REMARK SMILES IDX 54 58 68 59 43 60 44 61 53 63 69 64 46 65 35 66 36 67 40 68
REMARK SMILES IDX 37 69 39 70 38 71 57 72 58 73 62 74 59 75 61 76 60 77 47 78
REMARK SMILES IDX 48 79 52 80 49 81 51 82 50 83
REMARK H PARENT 19 4 6 20 3 24 23 32 67 51 45 62
REMARK Flexibility Score: inf
ROOT
ATOM      1  C   UNL     1       7.356  -0.013   1.661  1.00  0.00     0.252 C 
ATOM      2  O   UNL     1       8.376   0.338   1.054  1.00  0.00    -0.269 OA
ATOM      3  N   UNL     1       7.530  -0.172   3.006  1.00  0.00    -0.352 N 
ATOM      4  H   UNL     1       8.450   0.034   3.287  1.00  0.00     0.163 HD
ENDROOT
BRANCH   1   5
ATOM      5  C   UNL     1       6.099  -0.145   0.860  1.00  0.00     0.058 A 
ATOM      6  C   UNL     1       4.059  -0.304  -1.125  1.00  0.00     0.019 A 
ATOM      7  C   UNL     1       5.084   0.615  -1.269  1.00  0.00     0.013 A 
ATOM      8  C   UNL     1       4.032  -1.109   0.015  1.00  0.00     0.033 A 
ATOM      9  C   UNL     1       6.078   0.698  -0.283  1.00  0.00     0.016 A 
ATOM     10  C   UNL     1       5.049  -1.061   0.986  1.00  0.00     0.054 A 
ATOM     11  Cl  UNL     1       4.904  -2.307   2.159  1.00  0.00    -0.083 Cl
BRANCH   6  12
ATOM     12  C   UNL     1       3.065  -0.528  -2.152  1.00  0.00     0.134 A 
ATOM     13  C   UNL     1       1.001  -0.422  -2.868  1.00  0.00     0.147 A 
ATOM     14  C   UNL     1       1.642  -1.349  -3.665  1.00  0.00     0.053 A 
ATOM     15  O   UNL     1       1.888   0.131  -1.988  1.00  0.00    -0.455 OA
ATOM     16  C   UNL     1       2.981  -1.408  -3.209  1.00  0.00     0.051 A 
BRANCH  13  17
ATOM     17  C   UNL     1      -0.374  -0.033  -2.747  1.00  0.00     0.180 C 
ATOM     18  N   UNL     1      -1.376  -0.784  -2.380  1.00  0.00    -0.178 NA
BRANCH  18  19
ATOM     19  N   UNL     1      -1.126  -2.067  -1.984  1.00  0.00    -0.254 N 
ATOM     20  H   UNL     1      -1.602  -2.766  -2.487  1.00  0.00     0.193 HD
BRANCH  19  21
ATOM     21  C   UNL     1      -0.312  -2.514  -0.992  1.00  0.00     0.186 C 
ATOM     22  S   UNL     1       0.134  -4.128  -0.979  1.00  0.00    -0.039 S 
BRANCH  21  23
ATOM     23  N   UNL     1       0.134  -1.730   0.013  1.00  0.00    -0.362 N 
ATOM     24  H   UNL     1       0.924  -2.073   0.490  1.00  0.00     0.162 HD
BRANCH  23  25
ATOM     25  C   UNL     1      -0.374  -0.456   0.497  1.00  0.00     0.112 C 
ATOM     26  C   UNL     1       0.525   0.116   1.579  1.00  0.00     0.027 C 
ENDBRANCH  23  25
ENDBRANCH  21  23
ENDBRANCH  19  21
ENDBRANCH  18  19
ENDBRANCH  13  17
ENDBRANCH   6  12
ENDBRANCH   1   5
BRANCH   3  27
ATOM     27  C   UNL     1       6.694  -0.568   4.123  1.00  0.00     0.118 C 
BRANCH  27  28
ATOM     28  C   UNL     1       6.987  -2.016   4.532  1.00  0.00     0.042 C 
BRANCH  28  29
ATOM     29  C   UNL     1       8.283  -2.211   5.314  1.00  0.00     0.118 C 
BRANCH  29  30
ATOM     30  N   UNL     1       8.178  -1.737   6.684  1.00  0.00    -0.352 N 
ATOM     31  C   UNL     1       8.284  -2.422   7.867  1.00  0.00     0.251 C 
ATOM     32  H   UNL     1       8.004  -0.772   6.778  1.00  0.00     0.163 HD
ATOM     33  O   UNL     1       7.945  -1.867   8.915  1.00  0.00    -0.269 OA
BRANCH  31  34
ATOM     34  C   UNL     1       8.787  -3.814   7.915  1.00  0.00     0.039 A 
ATOM     35  C   UNL     1       8.192  -4.713   8.808  1.00  0.00     0.014 A 
ATOM     36  C   UNL     1       9.874  -4.229   7.141  1.00  0.00     0.014 A 
ATOM     37  C   UNL     1       8.651  -6.032   8.887  1.00  0.00     0.010 A 
ATOM     38  C   UNL     1      10.286  -5.562   7.169  1.00  0.00     0.010 A 
ATOM     39  C   UNL     1       9.684  -6.476   8.047  1.00  0.00    -0.014 A 
BRANCH  39  40
ATOM     40  C   UNL     1      10.149  -7.887   8.075  1.00  0.00     0.031 A 
ATOM     41  C   UNL     1      11.553  -8.218   8.504  1.00  0.00     0.074 A 
ATOM     42  C   UNL     1       9.328  -8.868   7.653  1.00  0.00     0.049 A 
ATOM     43  N   UNL     1      12.159  -9.379   8.525  1.00  0.00    -0.248 NA
ATOM     44  C   UNL     1      12.395  -7.094   8.944  1.00  0.00     0.031 C 
ATOM     45  C   UNL     1       7.955  -8.679   7.179  1.00  0.00     0.029 A 
ATOM     46  N   UNL     1       9.533 -10.221   7.544  1.00  0.00    -0.354 N 
ATOM     47  C   UNL     1      13.455  -9.122   8.956  1.00  0.00     0.074 A 
ATOM     48  C   UNL     1      13.560  -7.692   9.145  1.00  0.00     0.031 C 
ATOM     49  C   UNL     1       7.435  -9.873   6.852  1.00  0.00     0.029 A 
ATOM     50  C   UNL     1       8.447 -10.905   7.053  1.00  0.00     0.049 A 
ATOM     51  H   UNL     1      10.378 -10.660   7.795  1.00  0.00     0.167 HD
ATOM     52  C   UNL     1      14.463  -9.998   9.188  1.00  0.00     0.031 A 
ATOM     53  C   UNL     1       8.286 -12.214   6.784  1.00  0.00     0.031 A 
ATOM     54  C   UNL     1      14.355 -11.422   9.013  1.00  0.00     0.049 A 
ATOM     55  C   UNL     1       9.420 -13.165   7.043  1.00  0.00     0.074 A 
ATOM     56  C   UNL     1      15.301 -12.397   9.278  1.00  0.00     0.029 A 
ATOM     57  N   UNL     1      13.233 -12.074   8.527  1.00  0.00    -0.354 N 
ATOM     58  N   UNL     1      10.618 -12.912   7.511  1.00  0.00    -0.248 NA
ATOM     59  C   UNL     1       9.175 -14.584   6.748  1.00  0.00     0.031 C 
ATOM     60  C   UNL     1      14.768 -13.636   8.906  1.00  0.00     0.029 A 
ATOM     61  C   UNL     1      13.471 -13.437   8.462  1.00  0.00     0.049 A 
ATOM     62  H   UNL     1      12.392 -11.634   8.265  1.00  0.00     0.167 HD
ATOM     63  C   UNL     1      11.259 -14.142   7.593  1.00  0.00     0.074 A 
ATOM     64  C   UNL     1      10.312 -15.140   7.140  1.00  0.00     0.031 C 
ATOM     65  C   UNL     1      12.519 -14.418   8.010  1.00  0.00     0.031 A 
BRANCH  52  66
ATOM     66  C   UNL     1      15.779  -9.433   9.648  1.00  0.00    -0.014 A 
ATOM     67  C   UNL     1      15.928  -8.885  10.932  1.00  0.00     0.009 A 
ATOM     68  C   UNL     1      16.895  -9.480   8.798  1.00  0.00     0.009 A 
ATOM     69  C   UNL     1      17.155  -8.358  11.340  1.00  0.00     0.001 A 
ATOM     70  C   UNL     1      18.129  -8.980   9.219  1.00  0.00     0.001 A 
ATOM     71  C   UNL     1      18.255  -8.410  10.485  1.00  0.00     0.000 A 
ENDBRANCH  52  66
BRANCH  53  72
ATOM     72  C   UNL     1       6.989 -12.708   6.251  1.00  0.00    -0.014 A 
ATOM     73  C   UNL     1       6.137 -13.478   7.057  1.00  0.00     0.009 A 
ATOM     74  C   UNL     1       6.595 -12.410   4.937  1.00  0.00     0.009 A 
ATOM     75  C   UNL     1       4.928 -13.961   6.550  1.00  0.00     0.001 A 
ATOM     76  C   UNL     1       5.373 -12.870   4.442  1.00  0.00     0.001 A 
ATOM     77  C   UNL     1       4.545 -13.653   5.245  1.00  0.00     0.000 A 
ENDBRANCH  53  72
BRANCH  65  78
ATOM     78  C   UNL     1      12.934 -15.862   8.031  1.00  0.00    -0.014 A 
ATOM     79  C   UNL     1      13.200 -16.563   6.845  1.00  0.00     0.009 A 
ATOM     80  C   UNL     1      13.102 -16.517   9.262  1.00  0.00     0.009 A 
ATOM     81  C   UNL     1      13.596 -17.901   6.891  1.00  0.00     0.001 A 
ATOM     82  C   UNL     1      13.525 -17.845   9.305  1.00  0.00     0.001 A 
ATOM     83  C   UNL     1      13.763 -18.539   8.120  1.00  0.00     0.000 A 
ENDBRANCH  65  78
ENDBRANCH  39  40
ENDBRANCH  31  34
ENDBRANCH  29  30
ENDBRANCH  28  29
ENDBRANCH  27  28
ENDBRANCH   3  27
TORSDOF 16
