REMARK SMILES C[C@H](Nc1nccc(-c2cc(C(=O)NCCCNC(=O)c3ccc(-c4c5nc(c(-c6ccccc6)c6ccc([nH]6)c(-c6ccccc6)c6nc(c(-c7ccccc7)c7ccc4[nH]7)C=C6)C=C5)cc3)ccn2)n1)c1cn2ccsc2n1
REMARK SMILES IDX 15 1 14 2 12 3 13 4 11 6 9 7 10 8 71 9 70 10 69 11 8 12 4 13
REMARK SMILES IDX 5 14 72 15 6 16 7 17 3 18 2 20 1 21 73 22 74 23 80 24 75 25
REMARK SMILES IDX 79 26 76 27 78 28 77 29 16 30 17 31 18 32 19 33 20 35 21 36
REMARK SMILES IDX 22 37 68 38 23 39 67 40 24 41 25 42 26 43 61 44 27 45 66 46
REMARK SMILES IDX 60 47 62 48 28 49 65 50 59 51 58 52 29 54 51 55 36 56 50 57
REMARK SMILES IDX 37 58 40 59 49 60 63 61 38 62 39 63 48 65 64 66 41 67 30 68
REMARK SMILES IDX 31 69 35 70 32 71 34 72 33 73 52 74 53 75 57 76 54 77 56 78
REMARK SMILES IDX 55 79 42 80 43 81 47 82 44 83 46 84 45 85
REMARK H PARENT 14 5 3 19 18 34 62 53 40 64
REMARK Flexibility Score: inf
ROOT
ATOM      1  C   UNL     1       7.718  -2.839   1.796  1.00  0.00     0.118 C 
ENDROOT
BRANCH   1   2
ATOM      2  N   UNL     1       7.903  -4.188   1.293  1.00  0.00    -0.352 N 
ATOM      3  C   UNL     1       7.272  -4.939   0.336  1.00  0.00     0.251 C 
ATOM      4  O   UNL     1       7.702  -6.075   0.141  1.00  0.00    -0.269 OA
ATOM      5  H   UNL     1       8.640  -4.667   1.735  1.00  0.00     0.163 HD
BRANCH   3   6
ATOM      6  C   UNL     1       6.158  -4.435  -0.511  1.00  0.00     0.043 A 
ATOM      7  C   UNL     1       4.575  -2.769  -1.194  1.00  0.00     0.090 A 
ATOM      8  C   UNL     1       5.420  -3.296  -0.228  1.00  0.00     0.044 A 
ATOM      9  N   UNL     1       4.304  -3.421  -2.348  1.00  0.00    -0.255 NA
ATOM     10  C   UNL     1       4.909  -4.612  -2.540  1.00  0.00     0.112 A 
ATOM     11  C   UNL     1       5.859  -5.136  -1.680  1.00  0.00     0.034 A 
BRANCH   7  12
ATOM     12  C   UNL     1       4.029  -1.422  -1.000  1.00  0.00     0.094 A 
ATOM     13  C   UNL     1       2.227  -0.139  -0.405  1.00  0.00     0.223 A 
ATOM     14  N   UNL     1       2.943   0.992  -0.418  1.00  0.00    -0.222 NA
ATOM     15  N   UNL     1       2.730  -1.351  -0.662  1.00  0.00    -0.211 NA
ATOM     16  C   UNL     1       4.250   0.882  -0.700  1.00  0.00     0.117 A 
ATOM     17  C   UNL     1       4.852  -0.309  -1.008  1.00  0.00     0.051 A 
BRANCH  13  18
ATOM     18  N   UNL     1       0.923  -0.028  -0.017  1.00  0.00    -0.346 N 
ATOM     19  H   UNL     1       0.348   0.688  -0.374  1.00  0.00     0.164 HD
BRANCH  18  20
ATOM     20  C   UNL     1       0.407  -0.991   0.935  1.00  0.00     0.130 C 
ATOM     21  C   UNL     1       0.933  -0.635   2.336  1.00  0.00     0.038 C 
BRANCH  20  22
ATOM     22  C   UNL     1      -1.098  -1.045   0.966  1.00  0.00     0.082 A 
ATOM     23  C   UNL     1      -1.922  -2.166   0.958  1.00  0.00     0.119 A 
ATOM     24  N   UNL     1      -1.847   0.130   1.008  1.00  0.00    -0.222 NA
ATOM     25  N   UNL     1      -3.182  -1.658   0.977  1.00  0.00    -0.297 N 
ATOM     26  C   UNL     1      -3.075  -0.301   0.999  1.00  0.00     0.193 A 
ATOM     27  C   UNL     1      -4.464  -2.155   0.983  1.00  0.00     0.104 A 
ATOM     28  S   UNL     1      -4.639   0.450   1.026  1.00  0.00    -0.105 S 
ATOM     29  C   UNL     1      -5.373  -1.165   1.007  1.00  0.00     0.087 A 
ENDBRANCH  20  22
ENDBRANCH  18  20
ENDBRANCH  13  18
ENDBRANCH   7  12
ENDBRANCH   3   6
ENDBRANCH   1   2
BRANCH   1  30
ATOM     30  C   UNL     1       6.923  -2.860   3.100  1.00  0.00     0.042 C 
BRANCH  30  31
ATOM     31  C   UNL     1       7.803  -3.252   4.282  1.00  0.00     0.118 C 
BRANCH  31  32
ATOM     32  N   UNL     1       8.881  -2.288   4.484  1.00  0.00    -0.352 N 
ATOM     33  C   UNL     1       9.124  -1.436   5.528  1.00  0.00     0.251 C 
ATOM     34  H   UNL     1       9.538  -2.243   3.753  1.00  0.00     0.163 HD
ATOM     35  O   UNL     1       9.902  -0.501   5.386  1.00  0.00    -0.269 OA
BRANCH  33  36
ATOM     36  C   UNL     1       8.445  -1.654   6.816  1.00  0.00     0.039 A 
ATOM     37  C   UNL     1       8.001  -0.549   7.542  1.00  0.00     0.014 A 
ATOM     38  C   UNL     1       8.261  -2.949   7.306  1.00  0.00     0.014 A 
ATOM     39  C   UNL     1       7.317  -0.752   8.737  1.00  0.00     0.010 A 
ATOM     40  C   UNL     1       7.482  -3.152   8.435  1.00  0.00     0.010 A 
ATOM     41  C   UNL     1       7.012  -2.054   9.167  1.00  0.00    -0.014 A 
BRANCH  41  42
ATOM     42  C   UNL     1       6.186  -2.282  10.374  1.00  0.00     0.031 A 
ATOM     43  C   UNL     1       6.745  -3.038  11.544  1.00  0.00     0.074 A 
ATOM     44  C   UNL     1       4.915  -1.839  10.394  1.00  0.00     0.049 A 
ATOM     45  N   UNL     1       6.159  -3.349  12.673  1.00  0.00    -0.248 NA
ATOM     46  C   UNL     1       8.129  -3.525  11.431  1.00  0.00     0.031 C 
ATOM     47  C   UNL     1       4.254  -1.115   9.305  1.00  0.00     0.029 A 
ATOM     48  N   UNL     1       3.952  -1.926  11.367  1.00  0.00    -0.354 N 
ATOM     49  C   UNL     1       7.100  -4.068  13.397  1.00  0.00     0.074 A 
ATOM     50  C   UNL     1       8.270  -4.204  12.559  1.00  0.00     0.031 C 
ATOM     51  C   UNL     1       3.014  -0.780   9.690  1.00  0.00     0.029 A 
ATOM     52  C   UNL     1       2.766  -1.327  11.019  1.00  0.00     0.049 A 
ATOM     53  H   UNL     1       4.098  -2.375  12.231  1.00  0.00     0.167 HD
ATOM     54  C   UNL     1       7.002  -4.556  14.656  1.00  0.00     0.031 A 
ATOM     55  C   UNL     1       1.601  -1.242  11.687  1.00  0.00     0.031 A 
ATOM     56  C   UNL     1       5.826  -4.438  15.476  1.00  0.00     0.049 A 
ATOM     57  C   UNL     1       1.496  -1.863  13.051  1.00  0.00     0.074 A 
ATOM     58  C   UNL     1       5.641  -4.872  16.776  1.00  0.00     0.029 A 
ATOM     59  N   UNL     1       4.631  -3.864  15.070  1.00  0.00    -0.354 N 
ATOM     60  N   UNL     1       2.417  -2.482  13.750  1.00  0.00    -0.248 NA
ATOM     61  C   UNL     1       0.194  -1.765  13.723  1.00  0.00     0.031 C 
ATOM     62  C   UNL     1       4.308  -4.649  17.123  1.00  0.00     0.029 A 
ATOM     63  C   UNL     1       3.690  -3.977  16.081  1.00  0.00     0.049 A 
ATOM     64  H   UNL     1       4.474  -3.440  14.196  1.00  0.00     0.167 HD
ATOM     65  C   UNL     1       1.815  -2.814  14.957  1.00  0.00     0.074 A 
ATOM     66  C   UNL     1       0.460  -2.308  14.902  1.00  0.00     0.031 C 
ATOM     67  C   UNL     1       2.341  -3.476  16.016  1.00  0.00     0.031 A 
BRANCH  54  68
ATOM     68  C   UNL     1       8.190  -5.294  15.210  1.00  0.00    -0.014 A 
ATOM     69  C   UNL     1       9.411  -4.646  15.456  1.00  0.00     0.009 A 
ATOM     70  C   UNL     1       8.071  -6.656  15.529  1.00  0.00     0.009 A 
ATOM     71  C   UNL     1      10.501  -5.358  15.961  1.00  0.00     0.001 A 
ATOM     72  C   UNL     1       9.146  -7.354  16.077  1.00  0.00     0.001 A 
ATOM     73  C   UNL     1      10.365  -6.709  16.278  1.00  0.00     0.000 A 
ENDBRANCH  54  68
BRANCH  55  74
ATOM     74  C   UNL     1       0.430  -0.563  11.068  1.00  0.00    -0.014 A 
ATOM     75  C   UNL     1      -0.118   0.594  11.644  1.00  0.00     0.009 A 
ATOM     76  C   UNL     1      -0.165  -1.088   9.909  1.00  0.00     0.009 A 
ATOM     77  C   UNL     1      -1.264   1.179  11.100  1.00  0.00     0.001 A 
ATOM     78  C   UNL     1      -1.280  -0.473   9.341  1.00  0.00     0.001 A 
ATOM     79  C   UNL     1      -1.840   0.649   9.947  1.00  0.00     0.000 A 
ENDBRANCH  55  74
BRANCH  67  80
ATOM     80  C   UNL     1       1.467  -3.650  17.230  1.00  0.00    -0.014 A 
ATOM     81  C   UNL     1       0.316  -4.454  17.206  1.00  0.00     0.009 A 
ATOM     82  C   UNL     1       1.830  -3.024  18.434  1.00  0.00     0.009 A 
ATOM     83  C   UNL     1      -0.479  -4.583  18.346  1.00  0.00     0.001 A 
ATOM     84  C   UNL     1       1.062  -3.196  19.585  1.00  0.00     0.001 A 
ATOM     85  C   UNL     1      -0.101  -3.961  19.536  1.00  0.00     0.000 A 
ENDBRANCH  67  80
ENDBRANCH  41  42
ENDBRANCH  33  36
ENDBRANCH  31  32
ENDBRANCH  30  31
ENDBRANCH   1  30
TORSDOF 14
