REMARK SMILES Cc1c(NCc2ccc(-c3ccc(Cl)cc3)o2)cccc1C(=O)NCCCNC(=O)c1ccc(-c2c3nc(c(-c4ccccc4)c4ccc([nH]4)c(-c4ccccc4)c4nc(c(-c5ccccc5)c5ccc2[nH]5)C=C4)C=C3)cc1
REMARK SMILES IDX 25 1 24 2 22 3 23 4 21 6 1 7 2 8 3 9 18 10 20 11 19 12 4 13
REMARK SMILES IDX 5 15 6 16 7 17 17 18 8 19 9 20 10 21 11 22 16 23 12 24 15 25
REMARK SMILES IDX 13 26 14 27 26 28 27 29 28 30 29 31 30 33 31 34 32 35 78 36
REMARK SMILES IDX 33 37 77 38 34 39 35 40 36 41 71 42 37 43 76 44 70 45 72 46
REMARK SMILES IDX 38 47 75 48 69 49 68 50 39 52 61 53 46 54 60 55 47 56 50 57
REMARK SMILES IDX 59 58 73 59 48 60 49 61 58 63 74 64 51 65 40 66 41 67 45 68
REMARK SMILES IDX 42 69 44 70 43 71 62 72 63 73 67 74 64 75 66 76 65 77 52 78
REMARK SMILES IDX 53 79 57 80 54 81 56 82 55 83
REMARK H PARENT 24 5 4 14 28 32 72 51 50 62
REMARK Flexibility Score: inf
ROOT
ATOM      1  C   UNL     1       3.439   1.416   0.399  1.00  0.00     0.118 C 
ENDROOT
BRANCH   1   2
ATOM      2  N   UNL     1       2.349   2.206  -0.152  1.00  0.00    -0.352 N 
ATOM      3  C   UNL     1       1.012   1.994  -0.392  1.00  0.00     0.251 C 
ATOM      4  O   UNL     1       0.406   2.956  -0.876  1.00  0.00    -0.269 OA
ATOM      5  H   UNL     1       2.638   3.109  -0.416  1.00  0.00     0.163 HD
BRANCH   3   6
ATOM      6  C   UNL     1       0.213   0.761  -0.062  1.00  0.00     0.044 A 
ATOM      7  C   UNL     1       1.875  -1.008  -0.820  1.00  0.00     0.047 C 
ATOM      8  C   UNL     1       0.601  -0.593  -0.162  1.00  0.00    -0.015 A 
ATOM      9  C   UNL     1      -0.269  -1.638   0.258  1.00  0.00     0.038 A 
ATOM     10  C   UNL     1      -1.600  -1.325   0.535  1.00  0.00     0.026 A 
ATOM     11  C   UNL     1      -1.133   1.024   0.263  1.00  0.00     0.014 A 
ATOM     12  C   UNL     1      -2.038  -0.005   0.519  1.00  0.00     0.003 A 
BRANCH   9  13
ATOM     13  N   UNL     1       0.205  -2.937   0.335  1.00  0.00    -0.378 N 
ATOM     14  H   UNL     1       1.094  -3.066   0.738  1.00  0.00     0.161 HD
BRANCH  13  15
ATOM     15  C   UNL     1      -0.493  -4.126  -0.127  1.00  0.00     0.188 C 
BRANCH  15  16
ATOM     16  C   UNL     1       0.010  -4.658  -1.430  1.00  0.00     0.123 A 
ATOM     17  C   UNL     1       0.515  -4.074  -2.574  1.00  0.00     0.048 A 
ATOM     18  O   UNL     1      -0.024  -6.014  -1.587  1.00  0.00    -0.459 OA
ATOM     19  C   UNL     1       0.875  -5.128  -3.446  1.00  0.00     0.051 A 
ATOM     20  C   UNL     1       0.488  -6.293  -2.821  1.00  0.00     0.134 A 
BRANCH  20  21
ATOM     21  C   UNL     1       0.479  -7.689  -3.217  1.00  0.00     0.017 A 
ATOM     22  C   UNL     1       1.579  -8.260  -3.872  1.00  0.00     0.013 A 
ATOM     23  C   UNL     1      -0.666  -8.468  -2.999  1.00  0.00     0.013 A 
ATOM     24  C   UNL     1       1.530  -9.588  -4.305  1.00  0.00     0.021 A 
ATOM     25  C   UNL     1      -0.721  -9.790  -3.444  1.00  0.00     0.021 A 
ATOM     26  C   UNL     1       0.377 -10.344  -4.096  1.00  0.00     0.041 A 
ATOM     27  Cl  UNL     1       0.305 -11.969  -4.656  1.00  0.00    -0.084 Cl
ENDBRANCH  20  21
ENDBRANCH  15  16
ENDBRANCH  13  15
ENDBRANCH   9  13
ENDBRANCH   3   6
ENDBRANCH   1   2
BRANCH   1  28
ATOM     28  C   UNL     1       4.285   0.784  -0.715  1.00  0.00     0.042 C 
BRANCH  28  29
ATOM     29  C   UNL     1       5.611   1.452  -1.021  1.00  0.00     0.118 C 
BRANCH  29  30
ATOM     30  N   UNL     1       6.743   0.519  -0.927  1.00  0.00    -0.352 N 
ATOM     31  C   UNL     1       8.038   0.696  -1.388  1.00  0.00     0.251 C 
ATOM     32  H   UNL     1       6.558  -0.339  -0.481  1.00  0.00     0.163 HD
ATOM     33  O   UNL     1       8.928  -0.095  -1.135  1.00  0.00    -0.269 OA
BRANCH  31  34
ATOM     34  C   UNL     1       8.318   1.962  -2.096  1.00  0.00     0.039 A 
ATOM     35  C   UNL     1       9.011   2.931  -1.370  1.00  0.00     0.014 A 
ATOM     36  C   UNL     1       7.520   2.294  -3.188  1.00  0.00     0.014 A 
ATOM     37  C   UNL     1       8.665   4.262  -1.549  1.00  0.00     0.010 A 
ATOM     38  C   UNL     1       7.115   3.611  -3.307  1.00  0.00     0.010 A 
ATOM     39  C   UNL     1       7.621   4.574  -2.425  1.00  0.00    -0.014 A 
BRANCH  39  40
ATOM     40  C   UNL     1       6.965   5.875  -2.401  1.00  0.00     0.031 A 
ATOM     41  C   UNL     1       7.367   6.888  -3.387  1.00  0.00     0.074 A 
ATOM     42  C   UNL     1       6.085   6.228  -1.436  1.00  0.00     0.049 A 
ATOM     43  N   UNL     1       7.517   8.141  -3.113  1.00  0.00    -0.248 NA
ATOM     44  C   UNL     1       7.695   6.538  -4.761  1.00  0.00     0.031 C 
ATOM     45  C   UNL     1       5.330   7.478  -1.362  1.00  0.00     0.029 A 
ATOM     46  N   UNL     1       5.886   5.643  -0.187  1.00  0.00    -0.354 N 
ATOM     47  C   UNL     1       7.641   8.793  -4.315  1.00  0.00     0.074 A 
ATOM     48  C   UNL     1       7.860   7.751  -5.294  1.00  0.00     0.031 C 
ATOM     49  C   UNL     1       5.050   7.730  -0.074  1.00  0.00     0.029 A 
ATOM     50  C   UNL     1       5.683   6.696   0.723  1.00  0.00     0.049 A 
ATOM     51  H   UNL     1       5.887   4.680   0.018  1.00  0.00     0.167 HD
ATOM     52  C   UNL     1       7.378  10.127  -4.399  1.00  0.00     0.031 A 
ATOM     53  C   UNL     1       6.439   6.888   1.841  1.00  0.00     0.031 A 
ATOM     54  C   UNL     1       7.005  10.712  -3.111  1.00  0.00     0.049 A 
ATOM     55  C   UNL     1       7.130   8.236   1.887  1.00  0.00     0.074 A 
ATOM     56  C   UNL     1       5.796  11.106  -2.558  1.00  0.00     0.029 A 
ATOM     57  N   UNL     1       7.918  10.706  -2.066  1.00  0.00    -0.354 N 
ATOM     58  N   UNL     1       7.059   9.139   0.949  1.00  0.00    -0.248 NA
ATOM     59  C   UNL     1       8.068   8.613   2.942  1.00  0.00     0.031 C 
ATOM     60  C   UNL     1       5.994  11.349  -1.172  1.00  0.00     0.029 A 
ATOM     61  C   UNL     1       7.324  11.109  -0.883  1.00  0.00     0.049 A 
ATOM     62  H   UNL     1       8.864  10.448  -2.155  1.00  0.00     0.167 HD
ATOM     63  C   UNL     1       7.947  10.156   1.211  1.00  0.00     0.074 A 
ATOM     64  C   UNL     1       8.552   9.777   2.475  1.00  0.00     0.031 C 
ATOM     65  C   UNL     1       8.130  11.190   0.332  1.00  0.00     0.031 A 
BRANCH  52  66
ATOM     66  C   UNL     1       7.159  10.809  -5.728  1.00  0.00    -0.014 A 
ATOM     67  C   UNL     1       6.245  11.873  -5.829  1.00  0.00     0.009 A 
ATOM     68  C   UNL     1       7.778  10.413  -6.926  1.00  0.00     0.009 A 
ATOM     69  C   UNL     1       5.877  12.418  -7.066  1.00  0.00     0.001 A 
ATOM     70  C   UNL     1       7.378  10.916  -8.172  1.00  0.00     0.001 A 
ATOM     71  C   UNL     1       6.413  11.911  -8.241  1.00  0.00     0.000 A 
ENDBRANCH  52  66
BRANCH  53  72
ATOM     72  C   UNL     1       7.000   5.630   2.400  1.00  0.00    -0.014 A 
ATOM     73  C   UNL     1       6.099   4.703   2.961  1.00  0.00     0.009 A 
ATOM     74  C   UNL     1       8.274   5.187   2.018  1.00  0.00     0.009 A 
ATOM     75  C   UNL     1       6.412   3.342   3.003  1.00  0.00     0.001 A 
ATOM     76  C   UNL     1       8.585   3.824   2.075  1.00  0.00     0.001 A 
ATOM     77  C   UNL     1       7.641   2.900   2.522  1.00  0.00     0.000 A 
ENDBRANCH  53  72
BRANCH  65  78
ATOM     78  C   UNL     1       9.078  12.371   0.473  1.00  0.00    -0.014 A 
ATOM     79  C   UNL     1       9.745  12.745   1.644  1.00  0.00     0.009 A 
ATOM     80  C   UNL     1       9.285  13.219  -0.644  1.00  0.00     0.009 A 
ATOM     81  C   UNL     1      10.624  13.842   1.679  1.00  0.00     0.001 A 
ATOM     82  C   UNL     1      10.148  14.319  -0.616  1.00  0.00     0.001 A 
ATOM     83  C   UNL     1      10.833  14.622   0.547  1.00  0.00     0.000 A 
ENDBRANCH  65  78
ENDBRANCH  39  40
ENDBRANCH  31  34
ENDBRANCH  29  30
ENDBRANCH  28  29
ENDBRANCH   1  28
TORSDOF 14
