REMARK SMILES CCOc1cc(N2CCC[C@@H](C(=O)NCCCNC(=O)c3ccc(-c4c5nc(c(-c6ccccc6)c6ccc([nH]6)c(-c6ccccc6)c6nc(c(-c7ccccc7)c7ccc4[nH]7)C=C6)C=C5)cc3)C2)nc(SC)n1
REMARK SMILES IDX 15 1 14 2 12 3 13 4 11 6 7 7 8 8 69 9 9 10 10 11 6 12 4 13
REMARK SMILES IDX 5 14 74 15 71 16 70 17 3 18 2 19 1 20 72 21 73 22 16 23
REMARK SMILES IDX 17 24 18 25 19 26 20 28 21 29 22 30 68 31 23 32 67 33 24 34
REMARK SMILES IDX 25 35 26 36 61 37 27 38 66 39 60 40 62 41 28 42 65 43 59 44
REMARK SMILES IDX 58 45 29 47 51 48 36 49 50 50 37 51 40 52 49 53 63 54 38 55
REMARK SMILES IDX 39 56 48 58 64 59 41 60 30 61 31 62 35 63 32 64 34 65 33 66
REMARK SMILES IDX 52 67 53 68 57 69 54 70 56 71 55 72 42 73 43 74 47 75 44 76
REMARK SMILES IDX 46 77 45 78
REMARK H PARENT 14 5 18 27 62 46 40 57
REMARK Flexibility Score: inf
ROOT
ATOM      1  C   UNL     1       5.969  -1.765   3.757  1.00  0.00     0.117 C 
ENDROOT
BRANCH   1   2
ATOM      2  N   UNL     1       6.298  -3.140   3.419  1.00  0.00    -0.356 N 
ATOM      3  C   UNL     1       6.621  -3.728   2.237  1.00  0.00     0.224 C 
ATOM      4  O   UNL     1       6.791  -4.950   2.244  1.00  0.00    -0.275 OA
ATOM      5  H   UNL     1       6.283  -3.758   4.186  1.00  0.00     0.163 HD
BRANCH   3   6
ATOM      6  C   UNL     1       6.779  -2.936   0.952  1.00  0.00     0.098 C 
ATOM      7  N   UNL     1       5.654  -1.409  -0.596  1.00  0.00    -0.356 N 
ATOM      8  C   UNL     1       6.698  -0.398  -0.507  1.00  0.00     0.118 C 
ATOM      9  C   UNL     1       5.455  -2.305   0.531  1.00  0.00     0.131 C 
ATOM     10  C   UNL     1       8.034  -1.077  -0.234  1.00  0.00     0.022 C 
ATOM     11  C   UNL     1       7.971  -1.970   1.003  1.00  0.00     0.017 C 
BRANCH   7  12
ATOM     12  C   UNL     1       4.682  -1.250  -1.556  1.00  0.00     0.137 A 
ATOM     13  C   UNL     1       2.467  -1.106  -2.285  1.00  0.00     0.219 A 
ATOM     14  C   UNL     1       3.344  -1.294  -1.247  1.00  0.00     0.115 A 
ATOM     15  N   UNL     1       2.832  -1.000  -3.567  1.00  0.00    -0.187 NA
ATOM     16  C   UNL     1       4.153  -1.030  -3.781  1.00  0.00     0.192 A 
ATOM     17  N   UNL     1       5.088  -1.085  -2.820  1.00  0.00    -0.205 NA
BRANCH  13  18
ATOM     18  O   UNL     1       1.118  -1.136  -2.026  1.00  0.00    -0.478 OA
BRANCH  18  19
ATOM     19  C   UNL     1       0.650   0.129  -1.543  1.00  0.00     0.228 C 
ATOM     20  C   UNL     1       0.664   0.174  -0.020  1.00  0.00     0.049 C 
ENDBRANCH  18  19
ENDBRANCH  13  18
BRANCH  16  21
ATOM     21  S   UNL     1       4.711  -1.070  -5.470  1.00  0.00    -0.089 SA
ATOM     22  C   UNL     1       6.385  -1.729  -5.217  1.00  0.00     0.094 C 
ENDBRANCH  16  21
ENDBRANCH   7  12
ENDBRANCH   3   6
ENDBRANCH   1   2
BRANCH   1  23
ATOM     23  C   UNL     1       4.487  -1.596   4.074  1.00  0.00     0.042 C 
BRANCH  23  24
ATOM     24  C   UNL     1       4.044  -2.308   5.344  1.00  0.00     0.118 C 
BRANCH  24  25
ATOM     25  N   UNL     1       4.671  -1.754   6.535  1.00  0.00    -0.352 N 
ATOM     26  C   UNL     1       4.105  -1.157   7.630  1.00  0.00     0.251 C 
ATOM     27  H   UNL     1       5.654  -1.819   6.557  1.00  0.00     0.163 HD
ATOM     28  O   UNL     1       4.824  -0.558   8.433  1.00  0.00    -0.269 OA
BRANCH  26  29
ATOM     29  C   UNL     1       2.646  -1.208   7.849  1.00  0.00     0.039 A 
ATOM     30  C   UNL     1       1.995  -0.070   8.334  1.00  0.00     0.014 A 
ATOM     31  C   UNL     1       1.920  -2.379   7.609  1.00  0.00     0.014 A 
ATOM     32  C   UNL     1       0.612  -0.089   8.522  1.00  0.00     0.010 A 
ATOM     33  C   UNL     1       0.533  -2.370   7.717  1.00  0.00     0.010 A 
ATOM     34  C   UNL     1      -0.135  -1.228   8.183  1.00  0.00    -0.014 A 
BRANCH  34  35
ATOM     35  C   UNL     1      -1.613  -1.248   8.313  1.00  0.00     0.031 A 
ATOM     36  C   UNL     1      -2.277  -2.201   9.269  1.00  0.00     0.074 A 
ATOM     37  C   UNL     1      -2.361  -0.451   7.526  1.00  0.00     0.049 A 
ATOM     38  N   UNL     1      -3.553  -2.408   9.475  1.00  0.00    -0.248 NA
ATOM     39  C   UNL     1      -1.392  -3.050  10.083  1.00  0.00     0.031 C 
ATOM     40  C   UNL     1      -1.841   0.492   6.533  1.00  0.00     0.029 A 
ATOM     41  N   UNL     1      -3.724  -0.314   7.432  1.00  0.00    -0.354 N 
ATOM     42  C   UNL     1      -3.623  -3.419  10.426  1.00  0.00     0.074 A 
ATOM     43  C   UNL     1      -2.264  -3.819  10.718  1.00  0.00     0.031 C 
ATOM     44  C   UNL     1      -2.869   1.127   5.950  1.00  0.00     0.029 A 
ATOM     45  C   UNL     1      -4.120   0.608   6.493  1.00  0.00     0.049 A 
ATOM     46  H   UNL     1      -4.356  -0.826   7.985  1.00  0.00     0.167 HD
ATOM     47  C   UNL     1      -4.717  -3.953  11.018  1.00  0.00     0.031 A 
ATOM     48  C   UNL     1      -5.352   0.986   6.105  1.00  0.00     0.031 A 
ATOM     49  C   UNL     1      -6.069  -3.551  10.732  1.00  0.00     0.049 A 
ATOM     50  C   UNL     1      -6.552   0.362   6.762  1.00  0.00     0.074 A 
ATOM     51  C   UNL     1      -7.242  -3.996  11.315  1.00  0.00     0.029 A 
ATOM     52  N   UNL     1      -6.426  -2.611   9.777  1.00  0.00    -0.354 N 
ATOM     53  N   UNL     1      -6.598  -0.546   7.706  1.00  0.00    -0.248 NA
ATOM     54  C   UNL     1      -7.870   0.825   6.305  1.00  0.00     0.031 C 
ATOM     55  C   UNL     1      -8.314  -3.365  10.675  1.00  0.00     0.029 A 
ATOM     56  C   UNL     1      -7.804  -2.481   9.737  1.00  0.00     0.049 A 
ATOM     57  H   UNL     1      -5.795  -2.111   9.212  1.00  0.00     0.167 HD
ATOM     58  C   UNL     1      -7.946  -0.742   7.978  1.00  0.00     0.074 A 
ATOM     59  C   UNL     1      -8.683   0.154   7.110  1.00  0.00     0.031 C 
ATOM     60  C   UNL     1      -8.523  -1.586   8.867  1.00  0.00     0.031 A 
BRANCH  47  61
ATOM     61  C   UNL     1      -4.494  -5.041  12.033  1.00  0.00    -0.014 A 
ATOM     62  C   UNL     1      -3.906  -4.766  13.278  1.00  0.00     0.009 A 
ATOM     63  C   UNL     1      -4.909  -6.353  11.754  1.00  0.00     0.009 A 
ATOM     64  C   UNL     1      -3.702  -5.790  14.207  1.00  0.00     0.001 A 
ATOM     65  C   UNL     1      -4.732  -7.368  12.697  1.00  0.00     0.001 A 
ATOM     66  C   UNL     1      -4.119  -7.088  13.917  1.00  0.00     0.000 A 
ENDBRANCH  47  61
BRANCH  48  67
ATOM     67  C   UNL     1      -5.516   2.015   5.045  1.00  0.00    -0.014 A 
ATOM     68  C   UNL     1      -6.009   3.290   5.359  1.00  0.00     0.009 A 
ATOM     69  C   UNL     1      -5.185   1.726   3.712  1.00  0.00     0.009 A 
ATOM     70  C   UNL     1      -6.194   4.245   4.357  1.00  0.00     0.001 A 
ATOM     71  C   UNL     1      -5.343   2.692   2.716  1.00  0.00     0.001 A 
ATOM     72  C   UNL     1      -5.857   3.947   3.037  1.00  0.00     0.000 A 
ENDBRANCH  48  67
BRANCH  60  73
ATOM     73  C   UNL     1     -10.022  -1.555   8.974  1.00  0.00    -0.014 A 
ATOM     74  C   UNL     1     -10.838  -2.075   7.958  1.00  0.00     0.009 A 
ATOM     75  C   UNL     1     -10.623  -1.033  10.130  1.00  0.00     0.009 A 
ATOM     76  C   UNL     1     -12.229  -2.041   8.084  1.00  0.00     0.001 A 
ATOM     77  C   UNL     1     -12.012  -1.029  10.267  1.00  0.00     0.001 A 
ATOM     78  C   UNL     1     -12.813  -1.524   9.240  1.00  0.00     0.000 A 
ENDBRANCH  60  73
ENDBRANCH  34  35
ENDBRANCH  26  29
ENDBRANCH  24  25
ENDBRANCH  23  24
ENDBRANCH   1  23
TORSDOF 14
