REMARK SMILES CCc1nc(=O)n([C@H]2CCCOC2)c(CC)c1CC(=O)NCCCNC(=O)c1ccc(-c2c3nc(c(-c4ccccc4)c4ccc([nH]4)c(-c4ccccc4)c4nc(c(-c5ccccc5)c5ccc2[nH]5)C=C4)C=C3)cc1
REMARK SMILES IDX 23 1 22 2 21 3 19 4 20 5 18 7 17 8 3 9 4 10 5 11 14 12 6 13
REMARK SMILES IDX 7 14 2 15 1 16 15 17 16 18 8 19 9 20 13 21 10 22 12 23 11 24
REMARK SMILES IDX 24 25 25 26 26 27 27 29 28 30 29 31 75 32 30 33 74 34 31 35
REMARK SMILES IDX 32 36 33 37 68 38 34 39 73 40 67 41 69 42 35 43 72 44 66 45
REMARK SMILES IDX 65 46 36 48 58 49 43 50 57 51 44 52 47 53 56 54 70 55 45 56
REMARK SMILES IDX 46 57 55 59 71 60 48 61 37 62 38 63 42 64 39 65 41 66 40 67
REMARK SMILES IDX 59 68 60 69 64 70 61 71 63 72 62 73 49 74 50 75 54 76 51 77
REMARK SMILES IDX 53 78 52 79
REMARK H PARENT 21 6 25 28 69 47 47 58
REMARK Flexibility Score: inf
ROOT
ATOM      1  C   UNL     1       5.795   0.475  -6.040  1.00  0.00     0.042 C 
ENDROOT
BRANCH   1   2
ATOM      2  C   UNL     1       6.803   0.034  -7.086  1.00  0.00     0.117 C 
BRANCH   2   3
ATOM      3  N   UNL     1       7.437  -1.221  -6.752  1.00  0.00    -0.356 N 
ATOM      4  C   UNL     1       7.207  -2.458  -7.270  1.00  0.00     0.224 C 
ATOM      5  O   UNL     1       7.924  -3.386  -6.893  1.00  0.00    -0.275 OA
ATOM      6  H   UNL     1       8.130  -1.175  -6.054  1.00  0.00     0.163 HD
BRANCH   4   7
ATOM      7  C   UNL     1       6.117  -2.665  -8.319  1.00  0.00     0.139 C 
BRANCH   7   8
ATOM      8  C   UNL     1       4.683  -2.497  -7.854  1.00  0.00     0.003 A 
ATOM      9  C   UNL     1       3.817  -1.507  -8.568  1.00  0.00     0.051 A 
ATOM     10  N   UNL     1       2.665  -1.134  -8.132  1.00  0.00    -0.198 NA
ATOM     11  C   UNL     1       2.156  -1.680  -6.995  1.00  0.00     0.348 A 
ATOM     12  C   UNL     1       4.074  -3.170  -6.838  1.00  0.00     0.028 A 
ATOM     13  O   UNL     1       1.193  -1.143  -6.447  1.00  0.00    -0.246 OA
ATOM     14  N   UNL     1       2.734  -2.871  -6.485  1.00  0.00    -0.291 N 
BRANCH   9  15
ATOM     15  C   UNL     1       4.268  -0.788  -9.849  1.00  0.00     0.053 C 
ATOM     16  C   UNL     1       4.505  -1.660 -11.066  1.00  0.00     0.011 C 
ENDBRANCH   9  15
BRANCH  12  17
ATOM     17  C   UNL     1       4.884  -4.163  -6.026  1.00  0.00     0.051 C 
ATOM     18  C   UNL     1       5.335  -3.587  -4.682  1.00  0.00     0.010 C 
ENDBRANCH  12  17
BRANCH  14  19
ATOM     19  C   UNL     1       1.833  -3.571  -5.501  1.00  0.00     0.118 C 
ATOM     20  C   UNL     1       0.465  -3.942  -6.154  1.00  0.00     0.030 C 
ATOM     21  C   UNL     1       2.231  -4.859  -4.744  1.00  0.00     0.185 C 
ATOM     22  C   UNL     1       0.593  -5.171  -7.047  1.00  0.00     0.031 C 
ATOM     23  O   UNL     1       2.368  -5.995  -5.601  1.00  0.00    -0.379 OA
ATOM     24  C   UNL     1       1.162  -6.346  -6.268  1.00  0.00     0.160 C 
ENDBRANCH  14  19
ENDBRANCH   7   8
ENDBRANCH   4   7
ENDBRANCH   2   3
ENDBRANCH   1   2
BRANCH   1  25
ATOM     25  C   UNL     1       6.444   0.851  -4.717  1.00  0.00     0.118 C 
BRANCH  25  26
ATOM     26  N   UNL     1       7.401   1.947  -4.848  1.00  0.00    -0.352 N 
ATOM     27  C   UNL     1       7.405   3.195  -4.275  1.00  0.00     0.251 C 
ATOM     28  H   UNL     1       8.165   1.762  -5.442  1.00  0.00     0.163 HD
ATOM     29  O   UNL     1       8.197   4.048  -4.660  1.00  0.00    -0.269 OA
BRANCH  27  30
ATOM     30  C   UNL     1       6.430   3.509  -3.213  1.00  0.00     0.039 A 
ATOM     31  C   UNL     1       6.146   2.566  -2.226  1.00  0.00     0.014 A 
ATOM     32  C   UNL     1       5.763   4.735  -3.231  1.00  0.00     0.014 A 
ATOM     33  C   UNL     1       5.049   2.753  -1.401  1.00  0.00     0.010 A 
ATOM     34  C   UNL     1       4.736   4.972  -2.314  1.00  0.00     0.010 A 
ATOM     35  C   UNL     1       4.330   3.958  -1.433  1.00  0.00    -0.014 A 
BRANCH  35  36
ATOM     36  C   UNL     1       3.159   4.126  -0.537  1.00  0.00     0.031 A 
ATOM     37  C   UNL     1       1.780   4.341  -1.103  1.00  0.00     0.074 A 
ATOM     38  C   UNL     1       3.336   4.020   0.794  1.00  0.00     0.049 A 
ATOM     39  N   UNL     1       0.648   4.494  -0.463  1.00  0.00    -0.248 NA
ATOM     40  C   UNL     1       1.651   4.397  -2.568  1.00  0.00     0.031 C 
ATOM     41  C   UNL     1       4.621   3.780   1.455  1.00  0.00     0.029 A 
ATOM     42  N   UNL     1       2.436   4.066   1.828  1.00  0.00    -0.354 N 
ATOM     43  C   UNL     1      -0.319   4.685  -1.443  1.00  0.00     0.074 A 
ATOM     44  C   UNL     1       0.360   4.664  -2.719  1.00  0.00     0.031 C 
ATOM     45  C   UNL     1       4.418   3.635   2.770  1.00  0.00     0.029 A 
ATOM     46  C   UNL     1       3.007   3.862   3.061  1.00  0.00     0.049 A 
ATOM     47  H   UNL     1       1.473   4.229   1.700  1.00  0.00     0.167 HD
ATOM     48  C   UNL     1      -1.654   4.849  -1.289  1.00  0.00     0.031 A 
ATOM     49  C   UNL     1       2.469   3.876   4.295  1.00  0.00     0.031 A 
ATOM     50  C   UNL     1      -2.323   4.848  -0.014  1.00  0.00     0.049 A 
ATOM     51  C   UNL     1       0.995   4.121   4.441  1.00  0.00     0.074 A 
ATOM     52  C   UNL     1      -3.677   4.979   0.241  1.00  0.00     0.029 A 
ATOM     53  N   UNL     1      -1.695   4.706   1.215  1.00  0.00    -0.354 N 
ATOM     54  N   UNL     1       0.093   4.286   3.504  1.00  0.00    -0.248 NA
ATOM     55  C   UNL     1       0.462   4.180   5.808  1.00  0.00     0.031 C 
ATOM     56  C   UNL     1      -3.859   5.001   1.623  1.00  0.00     0.029 A 
ATOM     57  C   UNL     1      -2.632   4.787   2.232  1.00  0.00     0.049 A 
ATOM     58  H   UNL     1      -0.729   4.569   1.344  1.00  0.00     0.167 HD
ATOM     59  C   UNL     1      -1.116   4.451   4.165  1.00  0.00     0.074 A 
ATOM     60  C   UNL     1      -0.836   4.343   5.582  1.00  0.00     0.031 C 
ATOM     61  C   UNL     1      -2.345   4.676   3.640  1.00  0.00     0.031 A 
BRANCH  48  62
ATOM     62  C   UNL     1      -2.499   5.058  -2.518  1.00  0.00    -0.014 A 
ATOM     63  C   UNL     1      -3.170   6.280  -2.699  1.00  0.00     0.009 A 
ATOM     64  C   UNL     1      -2.731   4.019  -3.433  1.00  0.00     0.009 A 
ATOM     65  C   UNL     1      -4.073   6.449  -3.751  1.00  0.00     0.001 A 
ATOM     66  C   UNL     1      -3.609   4.203  -4.505  1.00  0.00     0.001 A 
ATOM     67  C   UNL     1      -4.289   5.411  -4.654  1.00  0.00     0.000 A 
ENDBRANCH  48  62
BRANCH  49  68
ATOM     68  C   UNL     1       3.348   3.646   5.472  1.00  0.00    -0.014 A 
ATOM     69  C   UNL     1       4.372   4.558   5.787  1.00  0.00     0.009 A 
ATOM     70  C   UNL     1       3.224   2.481   6.242  1.00  0.00     0.009 A 
ATOM     71  C   UNL     1       5.276   4.288   6.815  1.00  0.00     0.001 A 
ATOM     72  C   UNL     1       4.106   2.232   7.297  1.00  0.00     0.001 A 
ATOM     73  C   UNL     1       5.140   3.127   7.572  1.00  0.00     0.000 A 
ENDBRANCH  49  68
BRANCH  61  74
ATOM     74  C   UNL     1      -3.506   4.810   4.588  1.00  0.00    -0.014 A 
ATOM     75  C   UNL     1      -4.532   3.849   4.570  1.00  0.00     0.009 A 
ATOM     76  C   UNL     1      -3.652   5.942   5.402  1.00  0.00     0.009 A 
ATOM     77  C   UNL     1      -5.691   4.034   5.324  1.00  0.00     0.001 A 
ATOM     78  C   UNL     1      -4.797   6.106   6.185  1.00  0.00     0.001 A 
ATOM     79  C   UNL     1      -5.821   5.161   6.134  1.00  0.00     0.000 A 
ENDBRANCH  61  74
ENDBRANCH  35  36
ENDBRANCH  27  30
ENDBRANCH  25  26
ENDBRANCH   1  25
TORSDOF 14
