REMARK SMILES NS(=O)(=O)c1ccc(-n2nc(C(F)F)cc2-c2ccc(C(=O)NCCCNC(=O)c3ccc(-c4c5nc(c(-c6ccccc6)c6ccc([nH]6)c(-c6ccccc6)c6nc(c(-c7ccccc7)c7ccc4[nH]7)C=C6)C=C5)cc3)cc2)cc1
REMARK SMILES IDX 24 1 23 2 21 3 22 4 20 6 17 7 18 8 79 9 19 10 78 11 16 12
REMARK SMILES IDX 9 13 10 14 11 15 15 16 8 17 5 18 6 19 81 20 7 21 80 22 2 23
REMARK SMILES IDX 3 24 4 25 1 26 12 29 13 30 14 31 25 32 26 33 27 34 28 35
REMARK SMILES IDX 29 37 30 38 31 39 77 40 32 41 76 42 33 43 34 44 35 45 70 46
REMARK SMILES IDX 36 47 75 48 69 49 71 50 37 51 74 52 68 53 67 54 38 56 60 57
REMARK SMILES IDX 45 58 59 59 46 60 49 61 58 62 72 63 47 64 48 65 57 67 73 68
REMARK SMILES IDX 50 69 39 70 40 71 44 72 41 73 43 74 42 75 61 76 62 77 66 78
REMARK SMILES IDX 63 79 65 80 64 81 51 82 52 83 56 84 53 85 55 86 54 87
REMARK H PARENT 23 5 1 27 1 28 27 36 71 55 49 66
REMARK Flexibility Score: inf
ROOT
ATOM      1  C   UNL     1       0.398  -1.467 -11.607  1.00  0.00     0.118 C 
ENDROOT
BRANCH   1   2
ATOM      2  N   UNL     1      -0.565  -1.973 -10.639  1.00  0.00    -0.352 N 
ATOM      3  C   UNL     1      -0.922  -1.514  -9.392  1.00  0.00     0.251 C 
ATOM      4  O   UNL     1      -1.852  -2.069  -8.810  1.00  0.00    -0.269 OA
ATOM      5  H   UNL     1      -1.043  -2.785 -10.926  1.00  0.00     0.163 HD
BRANCH   3   6
ATOM      6  C   UNL     1      -0.257  -0.342  -8.759  1.00  0.00     0.039 A 
ATOM      7  C   UNL     1       0.874   1.966  -7.628  1.00  0.00     0.000 A 
ATOM      8  C   UNL     1      -0.445   1.607  -7.323  1.00  0.00     0.011 A 
ATOM      9  C   UNL     1       1.635   1.147  -8.455  1.00  0.00     0.011 A 
ATOM     10  C   UNL     1      -1.009   0.459  -7.890  1.00  0.00     0.014 A 
ATOM     11  C   UNL     1       1.083  -0.015  -8.975  1.00  0.00     0.014 A 
BRANCH   7  12
ATOM     12  C   UNL     1       1.498   3.151  -7.067  1.00  0.00     0.075 A 
ATOM     13  N   UNL     1       1.741   3.365  -5.719  1.00  0.00    -0.233 N 
ATOM     14  N   UNL     1       2.178   4.627  -5.481  1.00  0.00    -0.166 NA
ATOM     15  C   UNL     1       2.421   5.141  -6.702  1.00  0.00     0.129 A 
ATOM     16  C   UNL     1       1.963   4.273  -7.718  1.00  0.00     0.060 A 
BRANCH  13  17
ATOM     17  C   UNL     1       1.557   2.438  -4.663  1.00  0.00     0.065 A 
ATOM     18  C   UNL     1       0.914   0.561  -2.719  1.00  0.00     0.082 A 
ATOM     19  C   UNL     1       1.624   0.155  -3.850  1.00  0.00     0.024 A 
ATOM     20  C   UNL     1       0.564   1.904  -2.531  1.00  0.00     0.024 A 
ATOM     21  C   UNL     1       1.938   1.096  -4.828  1.00  0.00     0.030 A 
ATOM     22  C   UNL     1       0.914   2.855  -3.494  1.00  0.00     0.030 A 
BRANCH  18  23
ATOM     23  S   UNL     1       0.426  -0.641  -1.519  1.00  0.00     0.238 S 
ATOM     24  O   UNL     1       1.129  -1.884  -1.778  1.00  0.00    -0.207 OA
ATOM     25  O   UNL     1      -0.999  -0.575  -1.352  1.00  0.00    -0.207 OA
BRANCH  23  26
ATOM     26  N   UNL     1       1.107  -0.040  -0.108  1.00  0.00    -0.225 NA
ATOM     27  H   UNL     1       0.886  -0.664   0.668  1.00  0.00     0.137 HD
ATOM     28  H   UNL     1       0.729   0.888   0.084  1.00  0.00     0.137 HD
ENDBRANCH  23  26
ENDBRANCH  18  23
ENDBRANCH  13  17
BRANCH  15  29
ATOM     29  C   UNL     1       3.093   6.464  -6.919  1.00  0.00     0.393 C 
ATOM     30  F   UNL     1       2.639   7.431  -6.079  1.00  0.00    -0.203 F 
ATOM     31  F   UNL     1       4.438   6.372  -6.723  1.00  0.00    -0.203 F 
ENDBRANCH  15  29
ENDBRANCH   7  12
ENDBRANCH   3   6
ENDBRANCH   1   2
BRANCH   1  32
ATOM     32  C   UNL     1       1.753  -2.180 -11.496  1.00  0.00     0.042 C 
BRANCH  32  33
ATOM     33  C   UNL     1       1.806  -3.461 -12.303  1.00  0.00     0.118 C 
BRANCH  33  34
ATOM     34  N   UNL     1       1.826  -3.203 -13.742  1.00  0.00    -0.352 N 
ATOM     35  C   UNL     1       1.750  -4.114 -14.776  1.00  0.00     0.251 C 
ATOM     36  H   UNL     1       1.905  -2.259 -14.008  1.00  0.00     0.163 HD
ATOM     37  O   UNL     1       2.116  -3.816 -15.905  1.00  0.00    -0.269 OA
BRANCH  35  38
ATOM     38  C   UNL     1       1.225  -5.457 -14.490  1.00  0.00     0.039 A 
ATOM     39  C   UNL     1       1.822  -6.601 -15.026  1.00  0.00     0.014 A 
ATOM     40  C   UNL     1       0.145  -5.554 -13.620  1.00  0.00     0.014 A 
ATOM     41  C   UNL     1       1.372  -7.852 -14.610  1.00  0.00     0.010 A 
ATOM     42  C   UNL     1      -0.168  -6.769 -13.076  1.00  0.00     0.010 A 
ATOM     43  C   UNL     1       0.386  -7.926 -13.618  1.00  0.00    -0.014 A 
BRANCH  43  44
ATOM     44  C   UNL     1      -0.026  -9.202 -13.041  1.00  0.00     0.031 A 
ATOM     45  C   UNL     1       1.062  -9.974 -12.376  1.00  0.00     0.074 A 
ATOM     46  C   UNL     1      -1.335  -9.491 -12.863  1.00  0.00     0.049 A 
ATOM     47  N   UNL     1       1.466 -11.175 -12.632  1.00  0.00    -0.248 NA
ATOM     48  C   UNL     1       1.872  -9.279 -11.358  1.00  0.00     0.031 C 
ATOM     49  C   UNL     1      -2.489  -8.629 -13.165  1.00  0.00     0.029 A 
ATOM     50  N   UNL     1      -1.912 -10.538 -12.214  1.00  0.00    -0.354 N 
ATOM     51  C   UNL     1       2.449 -11.458 -11.684  1.00  0.00     0.074 A 
ATOM     52  C   UNL     1       2.780 -10.207 -11.054  1.00  0.00     0.031 C 
ATOM     53  C   UNL     1      -3.562  -9.047 -12.463  1.00  0.00     0.029 A 
ATOM     54  C   UNL     1      -3.227 -10.304 -11.824  1.00  0.00     0.049 A 
ATOM     55  H   UNL     1      -1.442 -11.384 -12.036  1.00  0.00     0.167 HD
ATOM     56  C   UNL     1       2.723 -12.735 -11.295  1.00  0.00     0.031 A 
ATOM     57  C   UNL     1      -3.984 -11.064 -10.998  1.00  0.00     0.031 A 
ATOM     58  C   UNL     1       2.165 -13.698 -12.207  1.00  0.00     0.049 A 
ATOM     59  C   UNL     1      -3.343 -12.392 -10.914  1.00  0.00     0.074 A 
ATOM     60  C   UNL     1       2.343 -14.014 -13.537  1.00  0.00     0.029 A 
ATOM     61  N   UNL     1       0.972 -14.264 -11.829  1.00  0.00    -0.354 N 
ATOM     62  N   UNL     1      -3.246 -13.212 -11.920  1.00  0.00    -0.248 NA
ATOM     63  C   UNL     1      -2.433 -12.648  -9.810  1.00  0.00     0.031 C 
ATOM     64  C   UNL     1       1.046 -14.378 -14.006  1.00  0.00     0.029 A 
ATOM     65  C   UNL     1       0.159 -14.327 -12.928  1.00  0.00     0.049 A 
ATOM     66  H   UNL     1       0.742 -14.572 -10.923  1.00  0.00     0.167 HD
ATOM     67  C   UNL     1      -1.995 -13.795 -11.779  1.00  0.00     0.074 A 
ATOM     68  C   UNL     1      -1.605 -13.515 -10.400  1.00  0.00     0.031 C 
ATOM     69  C   UNL     1      -1.282 -14.192 -12.874  1.00  0.00     0.031 A 
BRANCH  56  70
ATOM     70  C   UNL     1       3.087 -13.118  -9.877  1.00  0.00    -0.014 A 
ATOM     71  C   UNL     1       3.360 -14.469  -9.591  1.00  0.00     0.009 A 
ATOM     72  C   UNL     1       2.883 -12.272  -8.770  1.00  0.00     0.009 A 
ATOM     73  C   UNL     1       3.352 -14.955  -8.276  1.00  0.00     0.001 A 
ATOM     74  C   UNL     1       2.918 -12.744  -7.455  1.00  0.00     0.001 A 
ATOM     75  C   UNL     1       3.123 -14.093  -7.209  1.00  0.00     0.000 A 
ENDBRANCH  56  70
BRANCH  57  76
ATOM     76  C   UNL     1      -5.067 -10.644 -10.085  1.00  0.00    -0.014 A 
ATOM     77  C   UNL     1      -6.026 -11.562  -9.633  1.00  0.00     0.009 A 
ATOM     78  C   UNL     1      -5.009  -9.389  -9.450  1.00  0.00     0.009 A 
ATOM     79  C   UNL     1      -6.871 -11.249  -8.559  1.00  0.00     0.001 A 
ATOM     80  C   UNL     1      -5.853  -9.076  -8.379  1.00  0.00     0.001 A 
ATOM     81  C   UNL     1      -6.775 -10.012  -7.925  1.00  0.00     0.000 A 
ENDBRANCH  57  76
BRANCH  69  82
ATOM     82  C   UNL     1      -2.003 -14.258 -14.198  1.00  0.00    -0.014 A 
ATOM     83  C   UNL     1      -2.530 -13.128 -14.850  1.00  0.00     0.009 A 
ATOM     84  C   UNL     1      -2.004 -15.482 -14.883  1.00  0.00     0.009 A 
ATOM     85  C   UNL     1      -3.057 -13.229 -16.142  1.00  0.00     0.001 A 
ATOM     86  C   UNL     1      -2.510 -15.577 -16.181  1.00  0.00     0.001 A 
ATOM     87  C   UNL     1      -3.039 -14.452 -16.809  1.00  0.00     0.000 A 
ENDBRANCH  69  82
ENDBRANCH  43  44
ENDBRANCH  35  38
ENDBRANCH  33  34
ENDBRANCH  32  33
ENDBRANCH   1  32
TORSDOF 15
