REMARK SMILES O=C(NCCCNC(=O)[C@@H]1[C@@H](C(=O)N2CCN(c3cccc(Cl)c3)CC2)[C@H]2CC[C@@H]1O2)c1ccc(-c2c3nc(c(-c4ccccc4)c4ccc([nH]4)c(-c4ccccc4)c4nc(c(-c5ccccc5)c5ccc2[nH]5)C=C4)C=C3)cc1
REMARK SMILES IDX 5 1 4 2 3 3 1 4 2 5 32 7 33 8 79 9 34 10 78 11 35 12 36 13
REMARK SMILES IDX 37 14 72 15 38 16 77 17 71 18 73 19 39 20 76 21 70 22 69 23
REMARK SMILES IDX 40 25 62 26 47 27 61 28 48 29 51 30 60 31 74 32 49 33 50 34
REMARK SMILES IDX 59 36 75 37 52 38 41 39 42 40 46 41 43 42 45 43 44 44 63 45
REMARK SMILES IDX 64 46 68 47 65 48 67 49 66 50 53 51 54 52 58 53 55 54 57 55
REMARK SMILES IDX 56 56 6 57 7 58 8 59 9 61 10 62 11 63 30 64 27 65 29 66
REMARK SMILES IDX 31 67 28 68 12 69 13 70 14 71 15 72 26 73 16 74 25 75 17 76
REMARK SMILES IDX 18 77 19 78 24 79 20 80 22 81 21 82 23 83
REMARK H PARENT 3 6 73 24 51 35 7 60
REMARK Flexibility Score: inf
ROOT
ATOM      1  C   UNL     1       4.660   1.296   2.147  1.00  0.00     0.042 C 
ENDROOT
BRANCH   1   2
ATOM      2  C   UNL     1       4.395   0.031   1.349  1.00  0.00     0.118 C 
BRANCH   2   3
ATOM      3  N   UNL     1       2.974  -0.161   1.071  1.00  0.00    -0.352 N 
ATOM      4  O   UNL     1       1.055  -0.048  -0.101  1.00  0.00    -0.269 OA
ATOM      5  C   UNL     1       2.286  -0.086  -0.112  1.00  0.00     0.251 C 
ATOM      6  H   UNL     1       2.424  -0.378   1.857  1.00  0.00     0.163 HD
BRANCH   5   7
ATOM      7  C   UNL     1       3.011  -0.051  -1.397  1.00  0.00     0.039 A 
ATOM      8  C   UNL     1       4.139  -0.849  -1.593  1.00  0.00     0.014 A 
ATOM      9  C   UNL     1       2.534   0.753  -2.437  1.00  0.00     0.014 A 
ATOM     10  C   UNL     1       4.877  -0.730  -2.761  1.00  0.00     0.010 A 
ATOM     11  C   UNL     1       3.216   0.788  -3.656  1.00  0.00     0.010 A 
ATOM     12  C   UNL     1       4.406   0.064  -3.818  1.00  0.00    -0.014 A 
BRANCH  12  13
ATOM     13  C   UNL     1       5.135   0.041  -5.109  1.00  0.00     0.031 A 
ATOM     14  C   UNL     1       5.791   1.275  -5.657  1.00  0.00     0.074 A 
ATOM     15  C   UNL     1       5.225  -1.130  -5.769  1.00  0.00     0.049 A 
ATOM     16  N   UNL     1       6.487   1.413  -6.757  1.00  0.00    -0.248 NA
ATOM     17  C   UNL     1       5.646   2.514  -4.878  1.00  0.00     0.031 C 
ATOM     18  C   UNL     1       4.628  -2.396  -5.329  1.00  0.00     0.029 A 
ATOM     19  N   UNL     1       5.871  -1.457  -6.933  1.00  0.00    -0.354 N 
ATOM     20  C   UNL     1       6.849   2.752  -6.812  1.00  0.00     0.074 A 
ATOM     21  C   UNL     1       6.271   3.393  -5.650  1.00  0.00     0.031 C 
ATOM     22  C   UNL     1       4.984  -3.369  -6.178  1.00  0.00     0.029 A 
ATOM     23  C   UNL     1       5.766  -2.787  -7.261  1.00  0.00     0.049 A 
ATOM     24  H   UNL     1       6.362  -0.803  -7.480  1.00  0.00     0.167 HD
ATOM     25  C   UNL     1       7.598   3.387  -7.747  1.00  0.00     0.031 A 
ATOM     26  C   UNL     1       6.229  -3.464  -8.326  1.00  0.00     0.031 A 
ATOM     27  C   UNL     1       8.160   2.743  -8.906  1.00  0.00     0.049 A 
ATOM     28  C   UNL     1       7.005  -2.721  -9.372  1.00  0.00     0.074 A 
ATOM     29  C   UNL     1       8.950   3.294  -9.900  1.00  0.00     0.029 A 
ATOM     30  N   UNL     1       7.984   1.406  -9.232  1.00  0.00    -0.354 N 
ATOM     31  N   UNL     1       7.364  -1.461  -9.394  1.00  0.00    -0.248 NA
ATOM     32  C   UNL     1       7.440  -3.496 -10.541  1.00  0.00     0.031 C 
ATOM     33  C   UNL     1       9.202   2.306 -10.858  1.00  0.00     0.029 A 
ATOM     34  C   UNL     1       8.627   1.122 -10.427  1.00  0.00     0.049 A 
ATOM     35  H   UNL     1       7.478   0.755  -8.694  1.00  0.00     0.167 HD
ATOM     36  C   UNL     1       8.086  -1.295 -10.567  1.00  0.00     0.074 A 
ATOM     37  C   UNL     1       8.133  -2.590 -11.216  1.00  0.00     0.031 C 
ATOM     38  C   UNL     1       8.658  -0.171 -11.062  1.00  0.00     0.031 A 
BRANCH  25  39
ATOM     39  C   UNL     1       7.827   4.864  -7.571  1.00  0.00    -0.014 A 
ATOM     40  C   UNL     1       8.660   5.360  -6.556  1.00  0.00     0.009 A 
ATOM     41  C   UNL     1       7.239   5.770  -8.467  1.00  0.00     0.009 A 
ATOM     42  C   UNL     1       8.872   6.735  -6.422  1.00  0.00     0.001 A 
ATOM     43  C   UNL     1       7.476   7.141  -8.350  1.00  0.00     0.001 A 
ATOM     44  C   UNL     1       8.284   7.623  -7.322  1.00  0.00     0.000 A 
ENDBRANCH  25  39
BRANCH  26  45
ATOM     45  C   UNL     1       5.949  -4.917  -8.461  1.00  0.00    -0.014 A 
ATOM     46  C   UNL     1       6.986  -5.857  -8.372  1.00  0.00     0.009 A 
ATOM     47  C   UNL     1       4.637  -5.371  -8.674  1.00  0.00     0.009 A 
ATOM     48  C   UNL     1       6.718  -7.220  -8.519  1.00  0.00     0.001 A 
ATOM     49  C   UNL     1       4.368  -6.736  -8.785  1.00  0.00     0.001 A 
ATOM     50  C   UNL     1       5.410  -7.658  -8.719  1.00  0.00     0.000 A 
ENDBRANCH  26  45
BRANCH  38  51
ATOM     51  C   UNL     1       9.415  -0.305 -12.353  1.00  0.00    -0.014 A 
ATOM     52  C   UNL     1       8.752  -0.518 -13.572  1.00  0.00     0.009 A 
ATOM     53  C   UNL     1      10.815  -0.193 -12.350  1.00  0.00     0.009 A 
ATOM     54  C   UNL     1       9.479  -0.653 -14.756  1.00  0.00     0.001 A 
ATOM     55  C   UNL     1      11.536  -0.295 -13.540  1.00  0.00     0.001 A 
ATOM     56  C   UNL     1      10.869  -0.536 -14.740  1.00  0.00     0.000 A 
ENDBRANCH  38  51
ENDBRANCH  12  13
ENDBRANCH   5   7
ENDBRANCH   2   3
ENDBRANCH   1   2
BRANCH   1  57
ATOM     57  C   UNL     1       4.072   1.241   3.547  1.00  0.00     0.117 C 
BRANCH  57  58
ATOM     58  N   UNL     1       4.834   0.381   4.443  1.00  0.00    -0.356 N 
ATOM     59  C   UNL     1       5.733   0.628   5.428  1.00  0.00     0.226 C 
ATOM     60  H   UNL     1       4.659  -0.578   4.306  1.00  0.00     0.163 HD
ATOM     61  O   UNL     1       6.189  -0.364   6.010  1.00  0.00    -0.275 OA
BRANCH  59  62
ATOM     62  C   UNL     1       6.210   2.012   5.853  1.00  0.00     0.122 C 
ATOM     63  C   UNL     1       5.108   3.033   6.115  1.00  0.00     0.122 C 
ATOM     64  C   UNL     1       7.041   2.666   4.746  1.00  0.00     0.132 C 
ATOM     65  C   UNL     1       5.540   4.175   5.168  1.00  0.00     0.132 C 
ATOM     66  C   UNL     1       7.888   3.796   5.330  1.00  0.00     0.035 C 
ATOM     67  O   UNL     1       6.044   3.428   4.028  1.00  0.00    -0.373 OA
ATOM     68  C   UNL     1       6.836   4.879   5.577  1.00  0.00     0.035 C 
BRANCH  63  69
ATOM     69  C   UNL     1       4.796   3.536   7.515  1.00  0.00     0.229 C 
ATOM     70  O   UNL     1       4.758   4.747   7.744  1.00  0.00    -0.274 OA
ATOM     71  N   UNL     1       4.246   2.635   8.407  1.00  0.00    -0.339 N 
ATOM     72  C   UNL     1       3.193   3.118   9.309  1.00  0.00     0.141 C 
ATOM     73  C   UNL     1       4.789   1.320   8.780  1.00  0.00     0.141 C 
ATOM     74  C   UNL     1       2.049   2.091   9.408  1.00  0.00     0.138 C 
ATOM     75  C   UNL     1       3.698   0.253   8.998  1.00  0.00     0.138 C 
ATOM     76  N   UNL     1       2.597   0.790   9.806  1.00  0.00    -0.368 N 
BRANCH  76  77
ATOM     77  C   UNL     1       2.098   0.139  10.910  1.00  0.00     0.038 A 
ATOM     78  C   UNL     1       2.938  -0.264  11.956  1.00  0.00     0.026 A 
ATOM     79  C   UNL     1       0.724  -0.097  11.046  1.00  0.00     0.046 A 
ATOM     80  C   UNL     1       2.424  -0.856  13.114  1.00  0.00     0.004 A 
ATOM     81  C   UNL     1       0.211  -0.707  12.191  1.00  0.00     0.043 A 
ATOM     82  C   UNL     1       1.055  -1.080  13.232  1.00  0.00     0.020 A 
ATOM     83  Cl  UNL     1      -1.482  -0.996  12.318  1.00  0.00    -0.084 Cl
ENDBRANCH  76  77
ENDBRANCH  63  69
ENDBRANCH  59  62
ENDBRANCH  57  58
ENDBRANCH   1  57
TORSDOF 12
