REMARK SMILES Cc1cccc(C)c1Nc1ccccc1CC(=O)NCCCNC(=O)c1ccc(-c2c3nc(c(-c4ccccc4)c4ccc([nH]4)c(-c4ccccc4)c4nc(c(-c5ccccc5)c5ccc2[nH]5)C=C4)C=C3)cc1
REMARK SMILES IDX 20 1 19 2 17 3 18 4 16 6 15 7 10 8 11 9 12 10 14 11 13 12
REMARK SMILES IDX 9 13 8 15 1 16 2 17 3 18 4 19 6 20 5 21 7 22 21 23 22 24
REMARK SMILES IDX 23 25 24 26 25 28 26 29 27 30 73 31 28 32 72 33 29 34 30 35
REMARK SMILES IDX 31 36 66 37 32 38 71 39 65 40 67 41 33 42 70 43 64 44 63 45
REMARK SMILES IDX 34 47 56 48 41 49 55 50 42 51 45 52 54 53 68 54 43 55 44 56
REMARK SMILES IDX 53 58 69 59 46 60 35 61 36 62 40 63 37 64 39 65 38 66 57 67
REMARK SMILES IDX 58 68 62 69 59 70 61 71 60 72 47 73 48 74 52 75 49 76 51 77
REMARK SMILES IDX 50 78
REMARK H PARENT 19 5 9 14 23 27 67 46 45 57
REMARK Flexibility Score: inf
ROOT
ATOM      1  C   UNL     1       0.583   3.820   2.934  1.00  0.00     0.117 C 
ENDROOT
BRANCH   1   2
ATOM      2  N   UNL     1      -0.501   3.515   3.846  1.00  0.00    -0.356 N 
ATOM      3  C   UNL     1      -1.667   2.856   3.581  1.00  0.00     0.224 C 
ATOM      4  O   UNL     1      -2.527   2.809   4.463  1.00  0.00    -0.275 OA
ATOM      5  H   UNL     1      -0.382   3.822   4.773  1.00  0.00     0.163 HD
BRANCH   3   6
ATOM      6  C   UNL     1      -1.861   2.174   2.238  1.00  0.00     0.137 C 
BRANCH   6   7
ATOM      7  C   UNL     1      -2.140   3.128   1.093  1.00  0.00    -0.015 A 
ATOM      8  C   UNL     1      -1.353   3.180  -0.078  1.00  0.00     0.042 A 
ATOM      9  C   UNL     1      -1.640   4.168  -1.039  1.00  0.00     0.026 A 
ATOM     10  C   UNL     1      -2.700   5.060  -0.877  1.00  0.00     0.002 A 
ATOM     11  C   UNL     1      -3.224   4.021   1.230  1.00  0.00     0.006 A 
ATOM     12  C   UNL     1      -3.501   4.977   0.253  1.00  0.00     0.000 A 
BRANCH   8  13
ATOM     13  N   UNL     1      -0.326   2.270  -0.393  1.00  0.00    -0.355 N 
ATOM     14  H   UNL     1       0.491   2.703  -0.732  1.00  0.00     0.167 HD
BRANCH  13  15
ATOM     15  C   UNL     1      -0.229   0.860  -0.323  1.00  0.00     0.044 A 
ATOM     16  C   UNL     1       2.299   1.135  -0.013  1.00  0.00     0.046 C 
ATOM     17  C   UNL     1       1.055   0.289  -0.102  1.00  0.00    -0.027 A 
ATOM     18  C   UNL     1       1.191  -1.099   0.068  1.00  0.00     0.005 A 
ATOM     19  C   UNL     1       0.079  -1.930   0.025  1.00  0.00     0.001 A 
ATOM     20  C   UNL     1      -1.347  -0.003  -0.417  1.00  0.00    -0.027 A 
ATOM     21  C   UNL     1      -1.177  -1.386  -0.215  1.00  0.00     0.005 A 
ATOM     22  C   UNL     1      -2.736   0.465  -0.763  1.00  0.00     0.046 C 
ENDBRANCH  13  15
ENDBRANCH   8  13
ENDBRANCH   6   7
ENDBRANCH   3   6
ENDBRANCH   1   2
BRANCH   1  23
ATOM     23  C   UNL     1       0.490   5.246   2.399  1.00  0.00     0.042 C 
BRANCH  23  24
ATOM     24  C   UNL     1       0.672   6.316   3.471  1.00  0.00     0.118 C 
BRANCH  24  25
ATOM     25  N   UNL     1       1.994   6.270   4.083  1.00  0.00    -0.352 N 
ATOM     26  C   UNL     1       2.949   7.244   4.192  1.00  0.00     0.251 C 
ATOM     27  H   UNL     1       2.237   5.402   4.481  1.00  0.00     0.163 HD
ATOM     28  O   UNL     1       4.086   6.943   4.563  1.00  0.00    -0.269 OA
BRANCH  26  29
ATOM     29  C   UNL     1       2.638   8.646   3.853  1.00  0.00     0.039 A 
ATOM     30  C   UNL     1       3.580   9.390   3.136  1.00  0.00     0.014 A 
ATOM     31  C   UNL     1       1.439   9.239   4.258  1.00  0.00     0.014 A 
ATOM     32  C   UNL     1       3.290  10.704   2.767  1.00  0.00     0.010 A 
ATOM     33  C   UNL     1       1.122  10.525   3.831  1.00  0.00     0.010 A 
ATOM     34  C   UNL     1       2.042  11.268   3.076  1.00  0.00    -0.014 A 
BRANCH  34  35
ATOM     35  C   UNL     1       1.668  12.617   2.586  1.00  0.00     0.031 A 
ATOM     36  C   UNL     1       1.420  13.740   3.552  1.00  0.00     0.074 A 
ATOM     37  C   UNL     1       1.484  12.808   1.265  1.00  0.00     0.049 A 
ATOM     38  N   UNL     1       1.025  14.965   3.308  1.00  0.00    -0.248 NA
ATOM     39  C   UNL     1       1.620  13.445   4.980  1.00  0.00     0.031 C 
ATOM     40  C   UNL     1       1.660  11.787   0.229  1.00  0.00     0.029 A 
ATOM     41  N   UNL     1       1.100  13.925   0.568  1.00  0.00    -0.354 N 
ATOM     42  C   UNL     1       0.916  15.580   4.549  1.00  0.00     0.074 A 
ATOM     43  C   UNL     1       1.244  14.584   5.545  1.00  0.00     0.031 C 
ATOM     44  C   UNL     1       1.411  12.333  -0.972  1.00  0.00     0.029 A 
ATOM     45  C   UNL     1       1.013  13.724  -0.788  1.00  0.00     0.049 A 
ATOM     46  H   UNL     1       0.905  14.789   0.999  1.00  0.00     0.167 HD
ATOM     47  C   UNL     1       0.586  16.863   4.831  1.00  0.00     0.031 A 
ATOM     48  C   UNL     1       0.641  14.561  -1.774  1.00  0.00     0.031 A 
ATOM     49  C   UNL     1       0.262  17.853   3.838  1.00  0.00     0.049 A 
ATOM     50  C   UNL     1       0.244  15.968  -1.429  1.00  0.00     0.074 A 
ATOM     51  C   UNL     1      -0.024  19.195   4.020  1.00  0.00     0.029 A 
ATOM     52  N   UNL     1       0.169  17.605   2.477  1.00  0.00    -0.354 N 
ATOM     53  N   UNL     1       0.217  16.556  -0.258  1.00  0.00    -0.248 NA
ATOM     54  C   UNL     1      -0.173  16.828  -2.546  1.00  0.00     0.031 C 
ATOM     55  C   UNL     1      -0.348  19.746   2.775  1.00  0.00     0.029 A 
ATOM     56  C   UNL     1      -0.206  18.761   1.811  1.00  0.00     0.049 A 
ATOM     57  H   UNL     1       0.345  16.737   2.047  1.00  0.00     0.167 HD
ATOM     58  C   UNL     1      -0.200  17.858  -0.497  1.00  0.00     0.074 A 
ATOM     59  C   UNL     1      -0.393  17.980  -1.928  1.00  0.00     0.031 C 
ATOM     60  C   UNL     1      -0.408  18.862   0.389  1.00  0.00     0.031 A 
BRANCH  47  61
ATOM     61  C   UNL     1       0.546  17.267   6.279  1.00  0.00    -0.014 A 
ATOM     62  C   UNL     1       1.722  17.381   7.037  1.00  0.00     0.009 A 
ATOM     63  C   UNL     1      -0.683  17.579   6.882  1.00  0.00     0.009 A 
ATOM     64  C   UNL     1       1.665  17.764   8.380  1.00  0.00     0.001 A 
ATOM     65  C   UNL     1      -0.734  17.990   8.216  1.00  0.00     0.001 A 
ATOM     66  C   UNL     1       0.438  18.073   8.966  1.00  0.00     0.000 A 
ENDBRANCH  47  61
BRANCH  48  67
ATOM     67  C   UNL     1       0.628  14.091  -3.184  1.00  0.00    -0.014 A 
ATOM     68  C   UNL     1       1.570  14.577  -4.103  1.00  0.00     0.009 A 
ATOM     69  C   UNL     1      -0.327  13.159  -3.618  1.00  0.00     0.009 A 
ATOM     70  C   UNL     1       1.541  14.156  -5.434  1.00  0.00     0.001 A 
ATOM     71  C   UNL     1      -0.335  12.717  -4.943  1.00  0.00     0.001 A 
ATOM     72  C   UNL     1       0.593  13.223  -5.852  1.00  0.00     0.000 A 
ENDBRANCH  48  67
BRANCH  60  73
ATOM     73  C   UNL     1      -0.855  20.184  -0.169  1.00  0.00    -0.014 A 
ATOM     74  C   UNL     1      -2.157  20.359  -0.664  1.00  0.00     0.009 A 
ATOM     75  C   UNL     1       0.025  21.276  -0.166  1.00  0.00     0.009 A 
ATOM     76  C   UNL     1      -2.556  21.595  -1.176  1.00  0.00     0.001 A 
ATOM     77  C   UNL     1      -0.386  22.518  -0.651  1.00  0.00     0.001 A 
ATOM     78  C   UNL     1      -1.673  22.674  -1.164  1.00  0.00     0.000 A 
ENDBRANCH  60  73
ENDBRANCH  34  35
ENDBRANCH  26  29
ENDBRANCH  24  25
ENDBRANCH  23  24
ENDBRANCH   1  23
TORSDOF 13
