REMARK SMILES Cc1cc(-c2cc(C(=O)NCCCNC(=O)c3ccc(-c4c5nc(c(-c6ccccc6)c6ccc([nH]6)c(-c6ccccc6)c6nc(c(-c7ccccc7)c7ccc4[nH]7)C=C6)C=C5)cc3)c[nH]c2=O)ccc1Cl
REMARK SMILES IDX 12 1 11 2 10 3 8 4 9 5 7 7 5 8 6 9 67 10 66 11 68 12 65 13
REMARK SMILES IDX 4 15 1 16 2 17 3 18 71 19 70 20 72 21 69 22 13 23 14 24
REMARK SMILES IDX 15 25 16 27 17 28 18 29 64 30 19 31 63 32 20 33 21 34 22 35
REMARK SMILES IDX 57 36 23 37 62 38 56 39 58 40 24 41 61 42 55 43 54 44 25 46
REMARK SMILES IDX 47 47 32 48 46 49 33 50 36 51 45 52 59 53 34 54 35 55 44 57
REMARK SMILES IDX 60 58 37 59 26 60 27 61 31 62 28 63 30 64 29 65 48 66 49 67
REMARK SMILES IDX 53 68 50 69 52 70 51 71 38 72 39 73 43 74 40 75 42 76 41 77
REMARK H PARENT 10 6 66 14 14 26 58 45 36 56
REMARK Flexibility Score: inf
ROOT
ATOM      1  C   UNL     1      -4.300  -1.602   4.134  1.00  0.00     0.042 C 
ENDROOT
BRANCH   1   2
ATOM      2  C   UNL     1      -5.183  -2.285   3.088  1.00  0.00     0.118 C 
BRANCH   2   3
ATOM      3  N   UNL     1      -6.445  -1.586   2.924  1.00  0.00    -0.352 N 
ATOM      4  C   UNL     1      -6.883  -0.655   2.032  1.00  0.00     0.252 C 
ATOM      5  O   UNL     1      -8.046  -0.267   2.160  1.00  0.00    -0.269 OA
ATOM      6  H   UNL     1      -7.121  -1.834   3.595  1.00  0.00     0.163 HD
BRANCH   4   7
ATOM      7  C   UNL     1      -6.036  -0.152   0.902  1.00  0.00     0.056 A 
ATOM      8  C   UNL     1      -3.899   0.264  -0.217  1.00  0.00     0.048 A 
ATOM      9  C   UNL     1      -4.590  -0.092   0.882  1.00  0.00     0.029 A 
ATOM     10  C   UNL     1      -4.654   0.758  -1.413  1.00  0.00     0.255 A 
ATOM     11  N   UNL     1      -6.026   0.754  -1.286  1.00  0.00    -0.328 N 
ATOM     12  O   UNL     1      -4.101   1.150  -2.433  1.00  0.00    -0.269 OA
ATOM     13  C   UNL     1      -6.700   0.303  -0.176  1.00  0.00     0.099 A 
ATOM     14  H   UNL     1      -6.558   1.097  -2.040  1.00  0.00     0.169 HD
BRANCH   8  15
ATOM     15  C   UNL     1      -2.434   0.144  -0.203  1.00  0.00    -0.012 A 
ATOM     16  C   UNL     1       0.642   2.383  -0.048  1.00  0.00     0.046 C 
ATOM     17  C   UNL     1      -0.212   1.148  -0.092  1.00  0.00    -0.032 A 
ATOM     18  C   UNL     1      -1.611   1.276  -0.171  1.00  0.00     0.014 A 
ATOM     19  C   UNL     1       0.350  -0.139  -0.058  1.00  0.00     0.044 A 
ATOM     20  C   UNL     1      -0.465  -1.271  -0.102  1.00  0.00     0.021 A 
ATOM     21  Cl  UNL     1       2.057  -0.380   0.048  1.00  0.00    -0.084 Cl
ATOM     22  C   UNL     1      -1.850  -1.130  -0.174  1.00  0.00     0.010 A 
ENDBRANCH   8  15
ENDBRANCH   4   7
ENDBRANCH   2   3
ENDBRANCH   1   2
BRANCH   1  23
ATOM     23  C   UNL     1      -4.739  -1.865   5.573  1.00  0.00     0.118 C 
BRANCH  23  24
ATOM     24  N   UNL     1      -4.512  -3.247   5.962  1.00  0.00    -0.352 N 
ATOM     25  C   UNL     1      -3.854  -3.774   7.042  1.00  0.00     0.251 C 
ATOM     26  H   UNL     1      -4.894  -3.915   5.348  1.00  0.00     0.163 HD
ATOM     27  O   UNL     1      -3.602  -4.977   7.049  1.00  0.00    -0.269 OA
BRANCH  25  28
ATOM     28  C   UNL     1      -3.446  -2.938   8.195  1.00  0.00     0.039 A 
ATOM     29  C   UNL     1      -2.268  -3.278   8.869  1.00  0.00     0.014 A 
ATOM     30  C   UNL     1      -4.246  -1.901   8.684  1.00  0.00     0.014 A 
ATOM     31  C   UNL     1      -1.889  -2.581  10.018  1.00  0.00     0.010 A 
ATOM     32  C   UNL     1      -3.833  -1.161   9.793  1.00  0.00     0.010 A 
ATOM     33  C   UNL     1      -2.667  -1.512  10.488  1.00  0.00    -0.014 A 
BRANCH  33  34
ATOM     34  C   UNL     1      -2.287  -0.792  11.730  1.00  0.00     0.031 A 
ATOM     35  C   UNL     1      -3.150  -0.890  12.960  1.00  0.00     0.074 A 
ATOM     36  C   UNL     1      -1.173  -0.036  11.750  1.00  0.00     0.049 A 
ATOM     37  N   UNL     1      -2.973  -0.348  14.139  1.00  0.00    -0.248 NA
ATOM     38  C   UNL     1      -4.385  -1.683  12.845  1.00  0.00     0.031 C 
ATOM     39  C   UNL     1      -0.272   0.174  10.616  1.00  0.00     0.029 A 
ATOM     40  N   UNL     1      -0.608   0.692  12.766  1.00  0.00    -0.354 N 
ATOM     41  C   UNL     1      -4.079  -0.716  14.895  1.00  0.00     0.074 A 
ATOM     42  C   UNL     1      -4.943  -1.488  14.030  1.00  0.00     0.031 C 
ATOM     43  C   UNL     1       0.750   0.952  11.008  1.00  0.00     0.029 A 
ATOM     44  C   UNL     1       0.563   1.315  12.409  1.00  0.00     0.049 A 
ATOM     45  H   UNL     1      -1.003   0.762  13.665  1.00  0.00     0.167 HD
ATOM     46  C   UNL     1      -4.346  -0.452  16.197  1.00  0.00     0.031 A 
ATOM     47  C   UNL     1       1.399   2.083  13.132  1.00  0.00     0.031 A 
ATOM     48  C   UNL     1      -3.481   0.300  17.066  1.00  0.00     0.049 A 
ATOM     49  C   UNL     1       1.097   2.338  14.582  1.00  0.00     0.074 A 
ATOM     50  C   UNL     1      -3.636   0.575  18.414  1.00  0.00     0.029 A 
ATOM     51  N   UNL     1      -2.293   0.895  16.670  1.00  0.00    -0.354 N 
ATOM     52  N   UNL     1       0.079   1.927  15.299  1.00  0.00    -0.248 NA
ATOM     53  C   UNL     1       2.073   3.146  15.326  1.00  0.00     0.031 C 
ATOM     54  C   UNL     1      -2.560   1.371  18.824  1.00  0.00     0.029 A 
ATOM     55  C   UNL     1      -1.711   1.549  17.744  1.00  0.00     0.049 A 
ATOM     56  H   UNL     1      -1.919   0.859  15.760  1.00  0.00     0.167 HD
ATOM     57  C   UNL     1       0.306   2.402  16.584  1.00  0.00     0.074 A 
ATOM     58  C   UNL     1       1.565   3.117  16.550  1.00  0.00     0.031 C 
ATOM     59  C   UNL     1      -0.460   2.258  17.693  1.00  0.00     0.031 A 
BRANCH  46  60
ATOM     60  C   UNL     1      -5.639  -0.981  16.756  1.00  0.00    -0.014 A 
ATOM     61  C   UNL     1      -5.830  -2.355  16.975  1.00  0.00     0.009 A 
ATOM     62  C   UNL     1      -6.673  -0.091  17.087  1.00  0.00     0.009 A 
ATOM     63  C   UNL     1      -7.045  -2.830  17.473  1.00  0.00     0.001 A 
ATOM     64  C   UNL     1      -7.876  -0.567  17.613  1.00  0.00     0.001 A 
ATOM     65  C   UNL     1      -8.065  -1.936  17.795  1.00  0.00     0.000 A 
ENDBRANCH  46  60
BRANCH  47  66
ATOM     66  C   UNL     1       2.626   2.636  12.504  1.00  0.00    -0.014 A 
ATOM     67  C   UNL     1       3.888   2.116  12.832  1.00  0.00     0.009 A 
ATOM     68  C   UNL     1       2.542   3.681  11.572  1.00  0.00     0.009 A 
ATOM     69  C   UNL     1       5.043   2.649  12.258  1.00  0.00     0.001 A 
ATOM     70  C   UNL     1       3.698   4.194  10.980  1.00  0.00     0.001 A 
ATOM     71  C   UNL     1       4.947   3.684  11.329  1.00  0.00     0.000 A 
ENDBRANCH  47  66
BRANCH  59  72
ATOM     72  C   UNL     1       0.066   2.858  18.966  1.00  0.00    -0.014 A 
ATOM     73  C   UNL     1       0.076   4.247  19.168  1.00  0.00     0.009 A 
ATOM     74  C   UNL     1       0.540   2.017  19.985  1.00  0.00     0.009 A 
ATOM     75  C   UNL     1       0.589   4.783  20.351  1.00  0.00     0.001 A 
ATOM     76  C   UNL     1       1.027   2.555  21.177  1.00  0.00     0.001 A 
ATOM     77  C   UNL     1       1.062   3.937  21.354  1.00  0.00     0.000 A 
ENDBRANCH  59  72
ENDBRANCH  33  34
ENDBRANCH  25  28
ENDBRANCH  23  24
ENDBRANCH   1  23
TORSDOF 11
