REMARK SMILES Cc1cc(=O)c(Oc2ccc(C(=O)NCCCNC(=O)c3ccc(-c4c5nc(c(-c6ccccc6)c6ccc([nH]6)c(-c6ccccc6)c6nc(c(-c7ccccc7)c7ccc4[nH]7)C=C6)C=C5)cc3)cc2)c(-c2ccc(S(C)(=O)=O)cc2)o1
REMARK SMILES IDX 15 1 14 2 12 3 13 4 11 6 8 7 9 8 70 9 10 10 69 11 7 12 6 13
REMARK SMILES IDX 1 14 2 15 3 16 82 17 4 18 71 19 5 20 72 21 73 22 81 23 74 24
REMARK SMILES IDX 80 25 75 26 76 27 77 28 78 29 79 30 16 31 17 32 18 33 19 34
REMARK SMILES IDX 20 36 21 37 22 38 68 39 23 40 67 41 24 42 25 43 26 44 61 45
REMARK SMILES IDX 27 46 66 47 60 48 62 49 28 50 65 51 59 52 58 53 29 55 51 56
REMARK SMILES IDX 36 57 50 58 37 59 40 60 49 61 63 62 38 63 39 64 48 66 64 67
REMARK SMILES IDX 41 68 30 69 31 70 35 71 32 72 34 73 33 74 52 75 53 76 57 77
REMARK SMILES IDX 54 78 56 79 55 80 42 81 43 82 47 83 44 84 46 85 45 86
REMARK H PARENT 14 5 18 35 62 54 40 65
REMARK Flexibility Score: inf
ROOT
ATOM      1  C   UNL     1      -6.377  -7.648  -0.487  1.00  0.00     0.118 C 
ENDROOT
BRANCH   1   2
ATOM      2  N   UNL     1      -6.439  -7.313  -1.899  1.00  0.00    -0.352 N 
ATOM      3  C   UNL     1      -5.461  -7.122  -2.848  1.00  0.00     0.251 C 
ATOM      4  O   UNL     1      -5.806  -7.007  -4.023  1.00  0.00    -0.269 OA
ATOM      5  H   UNL     1      -7.354  -7.201  -2.243  1.00  0.00     0.163 HD
BRANCH   3   6
ATOM      6  C   UNL     1      -4.030  -6.930  -2.495  1.00  0.00     0.040 A 
ATOM      7  C   UNL     1      -1.573  -5.976  -1.606  1.00  0.00     0.127 A 
ATOM      8  C   UNL     1      -2.031  -5.598  -2.861  1.00  0.00     0.048 A 
ATOM      9  C   UNL     1      -2.207  -7.008  -0.918  1.00  0.00     0.048 A 
ATOM     10  C   UNL     1      -3.286  -6.040  -3.285  1.00  0.00     0.017 A 
ATOM     11  C   UNL     1      -3.413  -7.520  -1.393  1.00  0.00     0.017 A 
BRANCH   7  12
ATOM     12  O   UNL     1      -0.457  -5.451  -1.028  1.00  0.00    -0.449 OA
BRANCH  12  13
ATOM     13  C   UNL     1      -0.291  -4.104  -0.734  1.00  0.00     0.217 A 
ATOM     14  C   UNL     1       0.861  -0.014   0.056  1.00  0.00     0.088 C 
ATOM     15  C   UNL     1       0.553  -1.466  -0.125  1.00  0.00     0.105 A 
ATOM     16  C   UNL     1       1.455  -2.428   0.075  1.00  0.00     0.098 A 
ATOM     17  O   UNL     1      -0.739  -1.732  -0.525  1.00  0.00    -0.457 OA
ATOM     18  C   UNL     1       1.068  -3.823  -0.166  1.00  0.00     0.228 A 
ATOM     19  C   UNL     1      -1.129  -3.035  -0.829  1.00  0.00     0.180 A 
ATOM     20  O   UNL     1       1.865  -4.719   0.100  1.00  0.00    -0.285 OA
BRANCH  19  21
ATOM     21  C   UNL     1      -2.536  -3.031  -1.276  1.00  0.00     0.021 A 
ATOM     22  C   UNL     1      -2.868  -2.464  -2.520  1.00  0.00     0.013 A 
ATOM     23  C   UNL     1      -3.557  -3.571  -0.480  1.00  0.00     0.013 A 
ATOM     24  C   UNL     1      -4.180  -2.516  -3.001  1.00  0.00     0.021 A 
ATOM     25  C   UNL     1      -4.875  -3.614  -0.951  1.00  0.00     0.021 A 
ATOM     26  C   UNL     1      -5.176  -3.100  -2.215  1.00  0.00     0.067 A 
BRANCH  26  27
ATOM     27  S   UNL     1      -6.816  -3.277  -2.884  1.00  0.00     0.175 S 
ATOM     28  C   UNL     1      -7.498  -1.647  -2.766  1.00  0.00     0.163 C 
ATOM     29  O   UNL     1      -6.676  -3.594  -4.290  1.00  0.00    -0.224 OA
ATOM     30  O   UNL     1      -7.573  -4.135  -1.987  1.00  0.00    -0.224 OA
ENDBRANCH  26  27
ENDBRANCH  19  21
ENDBRANCH  12  13
ENDBRANCH   7  12
ENDBRANCH   3   6
ENDBRANCH   1   2
BRANCH   1  31
ATOM     31  C   UNL     1      -7.410  -6.965   0.394  1.00  0.00     0.042 C 
BRANCH  31  32
ATOM     32  C   UNL     1      -8.859  -7.165  -0.009  1.00  0.00     0.118 C 
BRANCH  32  33
ATOM     33  N   UNL     1      -9.302  -8.553   0.058  1.00  0.00    -0.352 N 
ATOM     34  C   UNL     1     -10.065  -9.247   0.968  1.00  0.00     0.251 C 
ATOM     35  H   UNL     1      -8.994  -9.103  -0.699  1.00  0.00     0.163 HD
ATOM     36  O   UNL     1     -10.187 -10.464   0.837  1.00  0.00    -0.269 OA
BRANCH  34  37
ATOM     37  C   UNL     1     -10.706  -8.580   2.128  1.00  0.00     0.039 A 
ATOM     38  C   UNL     1     -11.214  -7.289   2.042  1.00  0.00     0.014 A 
ATOM     39  C   UNL     1     -10.832  -9.278   3.336  1.00  0.00     0.014 A 
ATOM     40  C   UNL     1     -11.607  -6.618   3.194  1.00  0.00     0.010 A 
ATOM     41  C   UNL     1     -11.370  -8.648   4.467  1.00  0.00     0.010 A 
ATOM     42  C   UNL     1     -11.704  -7.288   4.425  1.00  0.00    -0.014 A 
BRANCH  42  43
ATOM     43  C   UNL     1     -12.183  -6.532   5.616  1.00  0.00     0.031 A 
ATOM     44  C   UNL     1     -11.320  -6.362   6.840  1.00  0.00     0.074 A 
ATOM     45  C   UNL     1     -13.378  -5.909   5.553  1.00  0.00     0.049 A 
ATOM     46  N   UNL     1     -11.537  -5.621   7.899  1.00  0.00    -0.248 NA
ATOM     47  C   UNL     1     -10.059  -7.118   6.892  1.00  0.00     0.031 C 
ATOM     48  C   UNL     1     -14.313  -5.999   4.428  1.00  0.00     0.029 A 
ATOM     49  N   UNL     1     -13.989  -5.036   6.419  1.00  0.00    -0.354 N 
ATOM     50  C   UNL     1     -10.451  -5.830   8.742  1.00  0.00     0.074 A 
ATOM     51  C   UNL     1      -9.597  -6.800   8.094  1.00  0.00     0.031 C 
ATOM     52  C   UNL     1     -15.322  -5.142   4.625  1.00  0.00     0.029 A 
ATOM     53  C   UNL     1     -15.158  -4.504   5.926  1.00  0.00     0.049 A 
ATOM     54  H   UNL     1     -13.626  -4.812   7.307  1.00  0.00     0.167 HD
ATOM     55  C   UNL     1     -10.182  -5.253   9.938  1.00  0.00     0.031 A 
ATOM     56  C   UNL     1     -16.010  -3.602   6.451  1.00  0.00     0.031 A 
ATOM     57  C   UNL     1     -11.032  -4.283  10.581  1.00  0.00     0.049 A 
ATOM     58  C   UNL     1     -15.704  -3.005   7.794  1.00  0.00     0.074 A 
ATOM     59  C   UNL     1     -10.825  -3.624  11.781  1.00  0.00     0.029 A 
ATOM     60  N   UNL     1     -12.246  -3.835  10.085  1.00  0.00    -0.354 N 
ATOM     61  N   UNL     1     -14.653  -3.186   8.556  1.00  0.00    -0.248 NA
ATOM     62  C   UNL     1     -16.698  -2.076   8.347  1.00  0.00     0.031 C 
ATOM     63  C   UNL     1     -11.947  -2.838  12.048  1.00  0.00     0.029 A 
ATOM     64  C   UNL     1     -12.816  -2.936  10.973  1.00  0.00     0.049 A 
ATOM     65  H   UNL     1     -12.645  -4.113   9.229  1.00  0.00     0.167 HD
ATOM     66  C   UNL     1     -14.856  -2.392   9.677  1.00  0.00     0.074 A 
ATOM     67  C   UNL     1     -16.110  -1.696   9.474  1.00  0.00     0.031 C 
ATOM     68  C   UNL     1     -14.075  -2.262  10.778  1.00  0.00     0.031 A 
BRANCH  55  69
ATOM     69  C   UNL     1      -8.914  -5.650  10.651  1.00  0.00    -0.014 A 
ATOM     70  C   UNL     1      -8.986  -6.323  11.882  1.00  0.00     0.009 A 
ATOM     71  C   UNL     1      -7.653  -5.269  10.163  1.00  0.00     0.009 A 
ATOM     72  C   UNL     1      -7.829  -6.587  12.618  1.00  0.00     0.001 A 
ATOM     73  C   UNL     1      -6.494  -5.566  10.885  1.00  0.00     0.001 A 
ATOM     74  C   UNL     1      -6.584  -6.212  12.117  1.00  0.00     0.000 A 
ENDBRANCH  55  69
BRANCH  56  75
ATOM     75  C   UNL     1     -17.221  -3.208   5.680  1.00  0.00    -0.014 A 
ATOM     76  C   UNL     1     -18.226  -4.149   5.399  1.00  0.00     0.009 A 
ATOM     77  C   UNL     1     -17.351  -1.909   5.165  1.00  0.00     0.009 A 
ATOM     78  C   UNL     1     -19.310  -3.813   4.587  1.00  0.00     0.001 A 
ATOM     79  C   UNL     1     -18.458  -1.564   4.386  1.00  0.00     0.001 A 
ATOM     80  C   UNL     1     -19.428  -2.519   4.085  1.00  0.00     0.000 A 
ENDBRANCH  56  75
BRANCH  68  81
ATOM     81  C   UNL     1     -14.553  -1.336  11.866  1.00  0.00    -0.014 A 
ATOM     82  C   UNL     1     -13.821  -0.178  12.174  1.00  0.00     0.009 A 
ATOM     83  C   UNL     1     -15.685  -1.645  12.636  1.00  0.00     0.009 A 
ATOM     84  C   UNL     1     -14.204   0.644  13.235  1.00  0.00     0.001 A 
ATOM     85  C   UNL     1     -16.090  -0.799  13.671  1.00  0.00     0.001 A 
ATOM     86  C   UNL     1     -15.344   0.338  13.976  1.00  0.00     0.000 A 
ENDBRANCH  68  81
ENDBRANCH  42  43
ENDBRANCH  34  37
ENDBRANCH  32  33
ENDBRANCH  31  32
ENDBRANCH   1  31
TORSDOF 14
