REMARK SMILES C[C@H](NC(=O)N1CC[C@@H](C(=O)NCCCNC(=O)c2ccc(-c3c4nc(c(-c5ccccc5)c5ccc([nH]5)c(-c5ccccc5)c5nc(c(-c6ccccc6)c6ccc3[nH]6)C=C5)C=C4)cc2)[C@H]1C)c1ccc(Cl)cc1
REMARK SMILES IDX 13 1 12 2 10 3 11 4 9 6 6 7 7 8 67 9 8 10 68 11 4 12 3 13
REMARK SMILES IDX 5 15 2 16 1 17 69 18 70 19 75 20 71 21 74 22 72 23 73 24
REMARK SMILES IDX 14 25 15 26 16 27 17 28 18 30 19 31 20 32 66 33 21 34 65 35
REMARK SMILES IDX 22 36 23 37 24 38 59 39 25 40 64 41 58 42 60 43 26 44 63 45
REMARK SMILES IDX 57 46 56 47 27 49 49 50 34 51 48 52 35 53 38 54 47 55 61 56
REMARK SMILES IDX 36 57 37 58 46 60 62 61 39 62 28 63 29 64 33 65 30 66 32 67
REMARK SMILES IDX 31 68 50 69 51 70 55 71 52 72 54 73 53 74 40 75 41 76 45 77
REMARK SMILES IDX 42 78 44 79 43 80
REMARK H PARENT 12 5 3 14 16 29 60 48 38 59
REMARK Flexibility Score: inf
ROOT
ATOM      1  C   UNL     1      -0.917   5.082   2.901  1.00  0.00     0.117 C 
ENDROOT
BRANCH   1   2
ATOM      2  N   UNL     1       0.462   5.558   2.977  1.00  0.00    -0.356 N 
ATOM      3  C   UNL     1       1.562   5.449   2.187  1.00  0.00     0.225 C 
ATOM      4  O   UNL     1       2.579   6.007   2.620  1.00  0.00    -0.275 OA
ATOM      5  H   UNL     1       0.634   6.081   3.793  1.00  0.00     0.163 HD
BRANCH   3   6
ATOM      6  C   UNL     1       1.658   4.683   0.867  1.00  0.00     0.102 C 
ATOM      7  N   UNL     1       1.094   2.697  -0.357  1.00  0.00    -0.321 N 
ATOM      8  C   UNL     1       0.781   3.869  -1.169  1.00  0.00     0.122 C 
ATOM      9  C   UNL     1       1.729   3.132   0.906  1.00  0.00     0.096 C 
ATOM     10  C   UNL     1       0.625   5.019  -0.199  1.00  0.00     0.037 C 
ATOM     11  C   UNL     1       1.099   2.568   2.148  1.00  0.00     0.032 C 
BRANCH   7  12
ATOM     12  C   UNL     1       1.313   1.551  -1.058  1.00  0.00     0.318 C 
ATOM     13  N   UNL     1       1.150   0.313  -0.586  1.00  0.00    -0.331 N 
ATOM     14  H   UNL     1       1.520  -0.322  -1.241  1.00  0.00     0.165 HD
ATOM     15  O   UNL     1       1.582   1.594  -2.265  1.00  0.00    -0.249 OA
BRANCH  13  16
ATOM     16  C   UNL     1       0.623  -0.446   0.549  1.00  0.00     0.111 C 
ATOM     17  C   UNL     1       1.631  -0.685   1.680  1.00  0.00     0.036 C 
BRANCH  16  18
ATOM     18  C   UNL     1      -0.836  -0.242   0.945  1.00  0.00    -0.026 A 
ATOM     19  C   UNL     1      -1.552   0.942   0.732  1.00  0.00     0.007 A 
ATOM     20  C   UNL     1      -1.535  -1.323   1.524  1.00  0.00     0.007 A 
ATOM     21  C   UNL     1      -2.897   1.063   1.102  1.00  0.00     0.021 A 
ATOM     22  C   UNL     1      -2.888  -1.219   1.868  1.00  0.00     0.021 A 
ATOM     23  C   UNL     1      -3.562  -0.021   1.661  1.00  0.00     0.041 A 
ATOM     24  Cl  UNL     1      -5.223   0.116   2.083  1.00  0.00    -0.084 Cl
ENDBRANCH  16  18
ENDBRANCH  13  16
ENDBRANCH   7  12
ENDBRANCH   3   6
ENDBRANCH   1   2
BRANCH   1  25
ATOM     25  C   UNL     1      -1.265   4.026   3.958  1.00  0.00     0.042 C 
BRANCH  25  26
ATOM     26  C   UNL     1      -1.350   4.537   5.387  1.00  0.00     0.118 C 
BRANCH  26  27
ATOM     27  N   UNL     1      -2.690   4.981   5.725  1.00  0.00    -0.352 N 
ATOM     28  C   UNL     1      -3.720   4.336   6.363  1.00  0.00     0.251 C 
ATOM     29  H   UNL     1      -2.896   5.903   5.448  1.00  0.00     0.163 HD
ATOM     30  O   UNL     1      -4.846   4.839   6.303  1.00  0.00    -0.269 OA
BRANCH  28  31
ATOM     31  C   UNL     1      -3.541   3.067   7.117  1.00  0.00     0.039 A 
ATOM     32  C   UNL     1      -4.614   2.166   7.164  1.00  0.00     0.014 A 
ATOM     33  C   UNL     1      -2.401   2.792   7.878  1.00  0.00     0.014 A 
ATOM     34  C   UNL     1      -4.539   1.004   7.943  1.00  0.00     0.010 A 
ATOM     35  C   UNL     1      -2.291   1.591   8.586  1.00  0.00     0.010 A 
ATOM     36  C   UNL     1      -3.369   0.697   8.654  1.00  0.00    -0.014 A 
BRANCH  36  37
ATOM     37  C   UNL     1      -3.281  -0.514   9.517  1.00  0.00     0.031 A 
ATOM     38  C   UNL     1      -3.093  -0.374  11.008  1.00  0.00     0.074 A 
ATOM     39  C   UNL     1      -3.329  -1.745   8.971  1.00  0.00     0.049 A 
ATOM     40  N   UNL     1      -2.929  -1.306  11.915  1.00  0.00    -0.248 NA
ATOM     41  C   UNL     1      -3.063   0.995  11.549  1.00  0.00     0.031 C 
ATOM     42  C   UNL     1      -3.485  -2.036   7.545  1.00  0.00     0.029 A 
ATOM     43  N   UNL     1      -3.247  -2.985   9.556  1.00  0.00    -0.354 N 
ATOM     44  C   UNL     1      -2.748  -0.637  13.120  1.00  0.00     0.074 A 
ATOM     45  C   UNL     1      -2.782   0.779  12.825  1.00  0.00     0.031 C 
ATOM     46  C   UNL     1      -3.513  -3.367   7.370  1.00  0.00     0.029 A 
ATOM     47  C   UNL     1      -3.341  -4.024   8.662  1.00  0.00     0.049 A 
ATOM     48  H   UNL     1      -3.133  -3.117  10.525  1.00  0.00     0.167 HD
ATOM     49  C   UNL     1      -2.586  -1.147  14.365  1.00  0.00     0.031 A 
ATOM     50  C   UNL     1      -3.289  -5.356   8.856  1.00  0.00     0.031 A 
ATOM     51  C   UNL     1      -2.583  -2.552  14.676  1.00  0.00     0.049 A 
ATOM     52  C   UNL     1      -3.112  -5.900  10.246  1.00  0.00     0.074 A 
ATOM     53  C   UNL     1      -2.484  -3.160  15.916  1.00  0.00     0.029 A 
ATOM     54  N   UNL     1      -2.692  -3.566  13.740  1.00  0.00    -0.354 N 
ATOM     55  N   UNL     1      -2.988  -5.250  11.377  1.00  0.00    -0.248 NA
ATOM     56  C   UNL     1      -3.078  -7.364  10.384  1.00  0.00     0.031 C 
ATOM     57  C   UNL     1      -2.493  -4.546  15.725  1.00  0.00     0.029 A 
ATOM     58  C   UNL     1      -2.644  -4.798  14.371  1.00  0.00     0.049 A 
ATOM     59  H   UNL     1      -2.788  -3.432  12.769  1.00  0.00     0.167 HD
ATOM     60  C   UNL     1      -2.887  -6.224  12.363  1.00  0.00     0.074 A 
ATOM     61  C   UNL     1      -2.977  -7.508  11.699  1.00  0.00     0.031 C 
ATOM     62  C   UNL     1      -2.736  -6.067  13.700  1.00  0.00     0.031 A 
BRANCH  49  63
ATOM     63  C   UNL     1      -2.392  -0.172  15.493  1.00  0.00    -0.014 A 
ATOM     64  C   UNL     1      -3.452   0.622  15.960  1.00  0.00     0.009 A 
ATOM     65  C   UNL     1      -1.141  -0.071  16.121  1.00  0.00     0.009 A 
ATOM     66  C   UNL     1      -3.252   1.524  17.007  1.00  0.00     0.001 A 
ATOM     67  C   UNL     1      -0.951   0.813  17.186  1.00  0.00     0.001 A 
ATOM     68  C   UNL     1      -2.003   1.616  17.621  1.00  0.00     0.000 A 
ENDBRANCH  49  63
BRANCH  50  69
ATOM     69  C   UNL     1      -3.424  -6.278   7.699  1.00  0.00    -0.014 A 
ATOM     70  C   UNL     1      -4.598  -7.025   7.521  1.00  0.00     0.009 A 
ATOM     71  C   UNL     1      -2.380  -6.420   6.772  1.00  0.00     0.009 A 
ATOM     72  C   UNL     1      -4.716  -7.912   6.449  1.00  0.00     0.001 A 
ATOM     73  C   UNL     1      -2.511  -7.289   5.687  1.00  0.00     0.001 A 
ATOM     74  C   UNL     1      -3.675  -8.040   5.530  1.00  0.00     0.000 A 
ENDBRANCH  50  69
BRANCH  62  75
ATOM     75  C   UNL     1      -2.690  -7.312  14.539  1.00  0.00    -0.014 A 
ATOM     76  C   UNL     1      -1.554  -8.136  14.557  1.00  0.00     0.009 A 
ATOM     77  C   UNL     1      -3.786  -7.643  15.352  1.00  0.00     0.009 A 
ATOM     78  C   UNL     1      -1.528  -9.283  15.353  1.00  0.00     0.001 A 
ATOM     79  C   UNL     1      -3.747  -8.777  16.164  1.00  0.00     0.001 A 
ATOM     80  C   UNL     1      -2.622  -9.600  16.158  1.00  0.00     0.000 A 
ENDBRANCH  62  75
ENDBRANCH  36  37
ENDBRANCH  28  31
ENDBRANCH  26  27
ENDBRANCH  25  26
ENDBRANCH   1  25
TORSDOF 13
