REMARK SMILES C=CCN(CC(=O)NCCCNC(=O)c1ccc(-c2c3nc(c(-c4ccccc4)c4ccc([nH]4)c(-c4ccccc4)c4nc(c(-c5ccccc5)c5ccc2[nH]5)C=C4)C=C3)cc1)C(=O)N(C)[C@H]1CCC[N@H+](C)C1
REMARK SMILES IDX 9 1 8 2 6 3 7 4 5 6 4 7 3 8 2 9 1 10 63 11 64 12 65 13 66 14
REMARK SMILES IDX 67 15 68 16 73 17 69 18 71 19 70 20 72 21 10 23 11 24 12 25
REMARK SMILES IDX 13 26 14 28 15 29 16 30 62 31 17 32 61 33 18 34 19 35 20 36
REMARK SMILES IDX 55 37 21 38 60 39 54 40 56 41 22 42 59 43 53 44 52 45 23 47
REMARK SMILES IDX 45 48 30 49 44 50 31 51 34 52 43 53 57 54 32 55 33 56 42 58
REMARK SMILES IDX 58 59 35 60 24 61 25 62 29 63 26 64 28 65 27 66 46 67 47 68
REMARK SMILES IDX 51 69 48 70 50 71 49 72 36 73 37 74 41 75 38 76 40 77 39 78
REMARK H PARENT 8 5 71 22 12 27 56 46 34 57
REMARK Flexibility Score: inf
ROOT
ATOM      1  C   UNL     1       3.554  -2.387   6.645  1.00  0.00     0.117 C 
ENDROOT
BRANCH   1   2
ATOM      2  N   UNL     1       2.231  -1.945   7.035  1.00  0.00    -0.354 N 
ATOM      3  C   UNL     1       1.176  -2.680   7.493  1.00  0.00     0.239 C 
ATOM      4  O   UNL     1       0.294  -2.078   8.114  1.00  0.00    -0.273 OA
ATOM      5  H   UNL     1       2.069  -0.977   6.959  1.00  0.00     0.163 HD
BRANCH   3   6
ATOM      6  C   UNL     1       1.140  -4.211   7.365  1.00  0.00     0.221 C 
BRANCH   6   7
ATOM      7  N   UNL     1       1.417  -4.712   6.017  1.00  0.00    -0.312 N 
BRANCH   7   8
ATOM      8  C   UNL     1       2.612  -5.558   5.891  1.00  0.00     0.149 C 
BRANCH   8   9
ATOM      9  C   UNL     1       2.240  -6.975   5.566  1.00  0.00    -0.013 C 
ATOM     10  C   UNL     1       2.763  -7.651   4.532  1.00  0.00     0.006 C 
ENDBRANCH   8   9
ENDBRANCH   7   8
BRANCH   7  11
ATOM     11  C   UNL     1       0.730  -4.463   4.837  1.00  0.00     0.320 C 
ATOM     12  O   UNL     1       1.376  -4.591   3.790  1.00  0.00    -0.248 OA
BRANCH  11  13
ATOM     13  N   UNL     1      -0.603  -4.088   4.801  1.00  0.00    -0.319 N 
ATOM     14  C   UNL     1      -1.348  -3.455   5.883  1.00  0.00     0.149 C 
BRANCH  13  15
ATOM     15  C   UNL     1      -1.425  -4.225   3.548  1.00  0.00     0.141 C 
ATOM     16  C   UNL     1      -0.751  -4.544   2.196  1.00  0.00     0.037 C 
ATOM     17  C   UNL     1      -2.590  -5.244   3.733  1.00  0.00     0.287 C 
ATOM     18  C   UNL     1      -0.416  -6.029   2.009  1.00  0.00     0.064 C 
ATOM     19  N   UNL     1      -2.108  -6.633   3.721  1.00  0.00    -0.336 N 
ATOM     20  C   UNL     1      -1.565  -6.960   2.397  1.00  0.00     0.262 C 
ATOM     21  C   UNL     1      -3.173  -7.559   4.093  1.00  0.00     0.332 C 
ATOM     22  H   UNL     1      -1.364  -6.728   4.413  1.00  0.00     0.347 HD
ENDBRANCH  13  15
ENDBRANCH  11  13
ENDBRANCH   7  11
ENDBRANCH   6   7
ENDBRANCH   3   6
ENDBRANCH   1   2
BRANCH   1  23
ATOM     23  C   UNL     1       3.840  -2.239   5.155  1.00  0.00     0.042 C 
BRANCH  23  24
ATOM     24  C   UNL     1       3.823  -0.801   4.647  1.00  0.00     0.118 C 
BRANCH  24  25
ATOM     25  N   UNL     1       4.797   0.046   5.324  1.00  0.00    -0.352 N 
ATOM     26  C   UNL     1       5.943   0.643   4.860  1.00  0.00     0.251 C 
ATOM     27  H   UNL     1       4.600   0.220   6.272  1.00  0.00     0.163 HD
ATOM     28  O   UNL     1       6.734   1.137   5.658  1.00  0.00    -0.269 OA
BRANCH  26  29
ATOM     29  C   UNL     1       6.244   0.681   3.413  1.00  0.00     0.039 A 
ATOM     30  C   UNL     1       7.551   0.425   2.990  1.00  0.00     0.014 A 
ATOM     31  C   UNL     1       5.255   0.993   2.478  1.00  0.00     0.014 A 
ATOM     32  C   UNL     1       7.845   0.390   1.624  1.00  0.00     0.010 A 
ATOM     33  C   UNL     1       5.531   0.890   1.117  1.00  0.00     0.010 A 
ATOM     34  C   UNL     1       6.824   0.569   0.677  1.00  0.00    -0.014 A 
BRANCH  34  35
ATOM     35  C   UNL     1       7.068   0.363  -0.772  1.00  0.00     0.031 A 
ATOM     36  C   UNL     1       6.912   1.498  -1.744  1.00  0.00     0.074 A 
ATOM     37  C   UNL     1       7.337  -0.878  -1.222  1.00  0.00     0.049 A 
ATOM     38  N   UNL     1       6.975   1.478  -3.051  1.00  0.00    -0.248 NA
ATOM     39  C   UNL     1       6.631   2.825  -1.174  1.00  0.00     0.031 C 
ATOM     40  C   UNL     1       7.484  -2.070  -0.382  1.00  0.00     0.029 A 
ATOM     41  N   UNL     1       7.517  -1.349  -2.498  1.00  0.00    -0.354 N 
ATOM     42  C   UNL     1       6.728   2.781  -3.462  1.00  0.00     0.074 A 
ATOM     43  C   UNL     1       6.475   3.559  -2.267  1.00  0.00     0.031 C 
ATOM     44  C   UNL     1       7.747  -3.129  -1.163  1.00  0.00     0.029 A 
ATOM     45  C   UNL     1       7.731  -2.705  -2.559  1.00  0.00     0.049 A 
ATOM     46  H   UNL     1       7.495  -0.770  -3.295  1.00  0.00     0.167 HD
ATOM     47  C   UNL     1       6.723   3.286  -4.719  1.00  0.00     0.031 A 
ATOM     48  C   UNL     1       7.872  -3.523  -3.618  1.00  0.00     0.031 A 
ATOM     49  C   UNL     1       6.967   2.508  -5.905  1.00  0.00     0.049 A 
ATOM     50  C   UNL     1       7.801  -2.947  -5.004  1.00  0.00     0.074 A 
ATOM     51  C   UNL     1       7.040   2.940  -7.218  1.00  0.00     0.029 A 
ATOM     52  N   UNL     1       7.163   1.136  -5.924  1.00  0.00    -0.354 N 
ATOM     53  N   UNL     1       7.641  -1.700  -5.372  1.00  0.00    -0.248 NA
ATOM     54  C   UNL     1       7.927  -3.895  -6.121  1.00  0.00     0.031 C 
ATOM     55  C   UNL     1       7.214   1.820  -8.037  1.00  0.00     0.029 A 
ATOM     56  C   UNL     1       7.312   0.698  -7.230  1.00  0.00     0.049 A 
ATOM     57  H   UNL     1       7.192   0.558  -5.128  1.00  0.00     0.167 HD
ATOM     58  C   UNL     1       7.662  -1.709  -6.761  1.00  0.00     0.074 A 
ATOM     59  C   UNL     1       7.876  -3.083  -7.168  1.00  0.00     0.031 C 
ATOM     60  C   UNL     1       7.512  -0.673  -7.621  1.00  0.00     0.031 A 
BRANCH  47  61
ATOM     61  C   UNL     1       6.425   4.752  -4.879  1.00  0.00    -0.014 A 
ATOM     62  C   UNL     1       7.340   5.731  -4.463  1.00  0.00     0.009 A 
ATOM     63  C   UNL     1       5.232   5.158  -5.498  1.00  0.00     0.009 A 
ATOM     64  C   UNL     1       7.051   7.088  -4.632  1.00  0.00     0.001 A 
ATOM     65  C   UNL     1       4.959   6.513  -5.693  1.00  0.00     0.001 A 
ATOM     66  C   UNL     1       5.864   7.477  -5.251  1.00  0.00     0.000 A 
ENDBRANCH  47  61
BRANCH  48  67
ATOM     67  C   UNL     1       8.076  -4.981  -3.411  1.00  0.00    -0.014 A 
ATOM     68  C   UNL     1       9.305  -5.580  -3.724  1.00  0.00     0.009 A 
ATOM     69  C   UNL     1       7.041  -5.784  -2.904  1.00  0.00     0.009 A 
ATOM     70  C   UNL     1       9.486  -6.955  -3.558  1.00  0.00     0.001 A 
ATOM     71  C   UNL     1       7.234  -7.152  -2.709  1.00  0.00     0.001 A 
ATOM     72  C   UNL     1       8.453  -7.739  -3.045  1.00  0.00     0.000 A 
ENDBRANCH  48  67
BRANCH  60  73
ATOM     73  C   UNL     1       7.583  -0.984  -9.090  1.00  0.00    -0.014 A 
ATOM     74  C   UNL     1       6.539  -1.660  -9.739  1.00  0.00     0.009 A 
ATOM     75  C   UNL     1       8.686  -0.551  -9.843  1.00  0.00     0.009 A 
ATOM     76  C   UNL     1       6.609  -1.920 -11.109  1.00  0.00     0.001 A 
ATOM     77  C   UNL     1       8.739  -0.786 -11.218  1.00  0.00     0.001 A 
ATOM     78  C   UNL     1       7.705  -1.476 -11.848  1.00  0.00     0.000 A 
ENDBRANCH  60  73
ENDBRANCH  34  35
ENDBRANCH  26  29
ENDBRANCH  24  25
ENDBRANCH  23  24
ENDBRANCH   1  23
TORSDOF 16
