REMARK SMILES C[C@@H](C(=O)NCCCNC(=O)c1ccc(-c2c3nc(c(-c4ccccc4)c4ccc([nH]4)c(-c4ccccc4)c4nc(c(-c5ccccc5)c5ccc2[nH]5)C=C4)C=C3)cc1)N1C(=O)/C(=C/c2nc3ccccc3[nH]2)SC1=S
REMARK SMILES IDX 7 1 6 2 5 3 3 4 4 5 2 7 1 8 60 9 61 10 75 11 62 12 63 13
REMARK SMILES IDX 74 14 76 15 64 16 65 17 66 18 73 19 67 20 72 21 68 23 71 24
REMARK SMILES IDX 69 25 70 26 8 27 9 28 10 29 11 31 12 32 13 33 59 34 14 35
REMARK SMILES IDX 58 36 15 37 16 38 17 39 52 40 18 41 57 42 51 43 53 44 19 45
REMARK SMILES IDX 56 46 50 47 49 48 20 50 42 51 27 52 41 53 28 54 31 55 40 56
REMARK SMILES IDX 54 57 29 58 30 59 39 61 55 62 32 63 21 64 22 65 26 66 23 67
REMARK SMILES IDX 25 68 24 69 43 70 44 71 48 72 45 73 47 74 46 75 33 76 34 77
REMARK SMILES IDX 38 78 35 79 37 80 36 81
REMARK H PARENT 5 6 73 22 9 30 53 49 31 60
REMARK Flexibility Score: inf
ROOT
ATOM      1  C   UNL     1       4.316  -0.269  -1.398  1.00  0.00     0.042 C 
ENDROOT
BRANCH   1   2
ATOM      2  C   UNL     1       3.416   0.869  -1.867  1.00  0.00     0.117 C 
BRANCH   2   3
ATOM      3  N   UNL     1       2.312   0.387  -2.676  1.00  0.00    -0.354 N 
ATOM      4  C   UNL     1       0.988   0.264  -2.364  1.00  0.00     0.242 C 
ATOM      5  O   UNL     1       0.234  -0.139  -3.252  1.00  0.00    -0.273 OA
ATOM      6  H   UNL     1       2.554   0.107  -3.588  1.00  0.00     0.163 HD
BRANCH   4   7
ATOM      7  C   UNL     1       0.490   0.641  -0.954  1.00  0.00     0.178 C 
ATOM      8  C   UNL     1       0.935  -0.329   0.137  1.00  0.00     0.042 C 
BRANCH   7   9
ATOM      9  N   UNL     1      -0.970   0.836  -1.014  1.00  0.00    -0.281 N 
ATOM     10  C   UNL     1      -1.830  -0.255  -1.019  1.00  0.00     0.267 C 
ATOM     11  C   UNL     1      -1.551   2.075  -1.196  1.00  0.00     0.149 C 
ATOM     12  O   UNL     1      -1.526  -1.433  -0.874  1.00  0.00    -0.268 OA
ATOM     13  C   UNL     1      -3.235   0.192  -1.202  1.00  0.00     0.084 C 
ATOM     14  S   UNL     1      -3.287   1.913  -1.252  1.00  0.00    -0.054 SA
ATOM     15  S   UNL     1      -0.813   3.569  -1.319  1.00  0.00    -0.052 S 
ATOM     16  C   UNL     1      -4.263  -0.670  -1.285  1.00  0.00     0.068 C 
BRANCH  16  17
ATOM     17  C   UNL     1      -5.578  -0.205  -1.526  1.00  0.00     0.132 A 
ATOM     18  N   UNL     1      -5.976   0.808  -2.266  1.00  0.00    -0.229 NA
ATOM     19  N   UNL     1      -6.650  -0.780  -0.883  1.00  0.00    -0.338 N 
ATOM     20  C   UNL     1      -7.286   1.012  -1.952  1.00  0.00     0.089 A 
ATOM     21  C   UNL     1      -7.747   0.027  -1.087  1.00  0.00     0.066 A 
ATOM     22  H   UNL     1      -6.636  -1.620  -0.369  1.00  0.00     0.168 HD
ATOM     23  C   UNL     1      -8.134   2.052  -2.348  1.00  0.00     0.030 A 
ATOM     24  C   UNL     1      -9.052   0.010  -0.591  1.00  0.00     0.028 A 
ATOM     25  C   UNL     1      -9.437   2.074  -1.845  1.00  0.00     0.002 A 
ATOM     26  C   UNL     1      -9.886   1.067  -0.987  1.00  0.00     0.002 A 
ENDBRANCH  16  17
ENDBRANCH   7   9
ENDBRANCH   4   7
ENDBRANCH   2   3
ENDBRANCH   1   2
BRANCH   1  27
ATOM     27  C   UNL     1       5.075  -0.968  -2.522  1.00  0.00     0.118 C 
BRANCH  27  28
ATOM     28  N   UNL     1       6.024  -0.088  -3.188  1.00  0.00    -0.352 N 
ATOM     29  C   UNL     1       7.383  -0.197  -3.347  1.00  0.00     0.251 C 
ATOM     30  H   UNL     1       5.626   0.717  -3.590  1.00  0.00     0.163 HD
ATOM     31  O   UNL     1       8.012   0.764  -3.783  1.00  0.00    -0.269 OA
BRANCH  29  32
ATOM     32  C   UNL     1       8.103  -1.438  -2.985  1.00  0.00     0.039 A 
ATOM     33  C   UNL     1       9.363  -1.324  -2.390  1.00  0.00     0.014 A 
ATOM     34  C   UNL     1       7.579  -2.705  -3.260  1.00  0.00     0.014 A 
ATOM     35  C   UNL     1      10.064  -2.472  -2.016  1.00  0.00     0.010 A 
ATOM     36  C   UNL     1       8.244  -3.848  -2.815  1.00  0.00     0.010 A 
ATOM     37  C   UNL     1       9.493  -3.744  -2.187  1.00  0.00    -0.014 A 
BRANCH  37  38
ATOM     38  C   UNL     1      10.185  -4.959  -1.682  1.00  0.00     0.031 A 
ATOM     39  C   UNL     1      10.651  -6.033  -2.627  1.00  0.00     0.074 A 
ATOM     40  C   UNL     1      10.365  -5.109  -0.354  1.00  0.00     0.049 A 
ATOM     41  N   UNL     1      11.266  -7.158  -2.356  1.00  0.00    -0.248 NA
ATOM     42  C   UNL     1      10.377  -5.830  -4.059  1.00  0.00     0.031 C 
ATOM     43  C   UNL     1       9.923  -4.163   0.673  1.00  0.00     0.029 A 
ATOM     44  N   UNL     1      10.970  -6.113   0.360  1.00  0.00    -0.354 N 
ATOM     45  C   UNL     1      11.451  -7.793  -3.578  1.00  0.00     0.074 A 
ATOM     46  C   UNL     1      10.835  -6.957  -4.585  1.00  0.00     0.031 C 
ATOM     47  C   UNL     1      10.301  -4.614   1.879  1.00  0.00     0.029 A 
ATOM     48  C   UNL     1      10.970  -5.900   1.718  1.00  0.00     0.049 A 
ATOM     49  H   UNL     1      11.367  -6.910  -0.060  1.00  0.00     0.167 HD
ATOM     50  C   UNL     1      12.094  -8.956  -3.842  1.00  0.00     0.031 A 
ATOM     51  C   UNL     1      11.447  -6.656   2.724  1.00  0.00     0.031 A 
ATOM     52  C   UNL     1      12.703  -9.794  -2.841  1.00  0.00     0.049 A 
ATOM     53  C   UNL     1      12.129  -7.957   2.404  1.00  0.00     0.074 A 
ATOM     54  C   UNL     1      13.410 -10.971  -3.017  1.00  0.00     0.029 A 
ATOM     55  N   UNL     1      12.672  -9.547  -1.478  1.00  0.00    -0.354 N 
ATOM     56  N   UNL     1      12.355  -8.507   1.235  1.00  0.00    -0.248 NA
ATOM     57  C   UNL     1      12.634  -8.735   3.544  1.00  0.00     0.031 C 
ATOM     58  C   UNL     1      13.757 -11.467  -1.756  1.00  0.00     0.029 A 
ATOM     59  C   UNL     1      13.325 -10.563  -0.799  1.00  0.00     0.049 A 
ATOM     60  H   UNL     1      12.250  -8.765  -1.054  1.00  0.00     0.167 HD
ATOM     61  C   UNL     1      13.049  -9.681   1.498  1.00  0.00     0.074 A 
ATOM     62  C   UNL     1      13.232  -9.747   2.933  1.00  0.00     0.031 C 
ATOM     63  C   UNL     1      13.492 -10.623   0.630  1.00  0.00     0.031 A 
BRANCH  50  64
ATOM     64  C   UNL     1      12.175  -9.397  -5.279  1.00  0.00    -0.014 A 
ATOM     65  C   UNL     1      12.978  -8.711  -6.204  1.00  0.00     0.009 A 
ATOM     66  C   UNL     1      11.488 -10.547  -5.699  1.00  0.00     0.009 A 
ATOM     67  C   UNL     1      13.068  -9.150  -7.527  1.00  0.00     0.001 A 
ATOM     68  C   UNL     1      11.604 -11.001  -7.015  1.00  0.00     0.001 A 
ATOM     69  C   UNL     1      12.387 -10.298  -7.929  1.00  0.00     0.000 A 
ENDBRANCH  50  64
BRANCH  51  70
ATOM     70  C   UNL     1      11.295  -6.210   4.135  1.00  0.00    -0.014 A 
ATOM     71  C   UNL     1      12.416  -5.852   4.899  1.00  0.00     0.009 A 
ATOM     72  C   UNL     1      10.026  -6.165   4.733  1.00  0.00     0.009 A 
ATOM     73  C   UNL     1      12.274  -5.498   6.243  1.00  0.00     0.001 A 
ATOM     74  C   UNL     1       9.882  -5.776   6.066  1.00  0.00     0.001 A 
ATOM     75  C   UNL     1      11.007  -5.456   6.824  1.00  0.00     0.000 A 
ENDBRANCH  51  70
BRANCH  63  76
ATOM     76  C   UNL     1      14.242 -11.790   1.212  1.00  0.00    -0.014 A 
ATOM     77  C   UNL     1      13.594 -12.761   1.992  1.00  0.00     0.009 A 
ATOM     78  C   UNL     1      15.617 -11.927   0.963  1.00  0.00     0.009 A 
ATOM     79  C   UNL     1      14.316 -13.818   2.550  1.00  0.00     0.001 A 
ATOM     80  C   UNL     1      16.330 -13.004   1.492  1.00  0.00     0.001 A 
ATOM     81  C   UNL     1      15.682 -13.940   2.296  1.00  0.00     0.000 A 
ENDBRANCH  63  76
ENDBRANCH  37  38
ENDBRANCH  29  32
ENDBRANCH  27  28
ENDBRANCH   1  27
TORSDOF 12
