REMARK SMILES CC(C)C[C@H](NC(=O)c1cc(Cl)nnc1Cl)C(=O)NCCCNC(=O)c1ccc(-c2c3nc(c(-c4ccccc4)c4ccc([nH]4)c(-c4ccccc4)c4nc(c(-c5ccccc5)c5ccc2[nH]5)C=C4)C=C3)cc1
REMARK SMILES IDX 21 1 20 2 19 3 17 4 18 5 5 7 4 8 2 9 1 10 3 11 6 12 7 13
REMARK SMILES IDX 8 15 9 16 10 17 15 18 11 19 14 20 16 21 12 22 13 23 22 24
REMARK SMILES IDX 23 25 24 26 25 28 26 29 27 30 73 31 28 32 72 33 29 34 30 35
REMARK SMILES IDX 31 36 66 37 32 38 71 39 65 40 67 41 33 42 70 43 64 44 63 45
REMARK SMILES IDX 34 47 56 48 41 49 55 50 42 51 45 52 54 53 68 54 43 55 44 56
REMARK SMILES IDX 53 58 69 59 46 60 35 61 36 62 40 63 37 64 39 65 38 66 57 67
REMARK SMILES IDX 58 68 62 69 59 70 61 71 60 72 47 73 48 74 52 75 49 76 51 77
REMARK SMILES IDX 50 78
REMARK H PARENT 19 6 6 14 23 27 67 46 45 57
REMARK Flexibility Score: inf
ROOT
ATOM      1  C   UNL     1      -3.501  -1.312   4.010  1.00  0.00     0.042 C 
ENDROOT
BRANCH   1   2
ATOM      2  C   UNL     1      -3.140  -2.295   2.909  1.00  0.00     0.117 C 
BRANCH   2   3
ATOM      3  N   UNL     1      -3.608  -1.844   1.611  1.00  0.00    -0.354 N 
ATOM      4  C   UNL     1      -2.903  -1.600   0.471  1.00  0.00     0.242 C 
ATOM      5  O   UNL     1      -3.516  -1.170  -0.509  1.00  0.00    -0.273 OA
ATOM      6  H   UNL     1      -4.579  -1.693   1.544  1.00  0.00     0.163 HD
BRANCH   4   7
ATOM      7  C   UNL     1      -1.382  -1.829   0.429  1.00  0.00     0.171 C 
BRANCH   7   8
ATOM      8  C   UNL     1      -0.944  -3.296   0.609  1.00  0.00     0.038 C 
BRANCH   8   9
ATOM      9  C   UNL     1      -1.959  -4.451   0.472  1.00  0.00    -0.015 C 
ATOM     10  C   UNL     1      -2.624  -4.561  -0.895  1.00  0.00     0.007 C 
ATOM     11  C   UNL     1      -1.245  -5.768   0.807  1.00  0.00     0.007 C 
ENDBRANCH   8   9
ENDBRANCH   7   8
BRANCH   7  12
ATOM     12  N   UNL     1      -0.812  -0.806   1.349  1.00  0.00    -0.340 N 
ATOM     13  C   UNL     1       0.257  -0.718   2.192  1.00  0.00     0.255 C 
ATOM     14  H   UNL     1      -1.345   0.022   1.347  1.00  0.00     0.164 HD
ATOM     15  O   UNL     1       0.424   0.288   2.875  1.00  0.00    -0.269 OA
BRANCH  13  16
ATOM     16  C   UNL     1       1.162  -1.837   2.408  1.00  0.00     0.082 A 
ATOM     17  C   UNL     1       1.037  -2.558   3.599  1.00  0.00     0.060 A 
ATOM     18  C   UNL     1       2.118  -2.201   1.484  1.00  0.00     0.164 A 
ATOM     19  C   UNL     1       1.839  -3.664   3.752  1.00  0.00     0.152 A 
ATOM     20  N   UNL     1       2.889  -3.290   1.675  1.00  0.00    -0.136 NA
ATOM     21  Cl  UNL     1       2.401  -1.377   0.009  1.00  0.00    -0.059 Cl
ATOM     22  Cl  UNL     1       1.705  -4.687   5.115  1.00  0.00    -0.060 Cl
ATOM     23  N   UNL     1       2.736  -4.042   2.820  1.00  0.00    -0.137 NA
ENDBRANCH  13  16
ENDBRANCH   7  12
ENDBRANCH   4   7
ENDBRANCH   2   3
ENDBRANCH   1   2
BRANCH   1  24
ATOM     24  C   UNL     1      -5.006  -1.191   4.211  1.00  0.00     0.118 C 
BRANCH  24  25
ATOM     25  N   UNL     1      -5.600  -2.442   4.669  1.00  0.00    -0.352 N 
ATOM     26  C   UNL     1      -6.054  -2.774   5.921  1.00  0.00     0.251 C 
ATOM     27  H   UNL     1      -5.688  -3.145   3.986  1.00  0.00     0.163 HD
ATOM     28  O   UNL     1      -6.309  -3.937   6.210  1.00  0.00    -0.269 OA
BRANCH  26  29
ATOM     29  C   UNL     1      -6.213  -1.705   6.921  1.00  0.00     0.039 A 
ATOM     30  C   UNL     1      -5.622  -1.848   8.177  1.00  0.00     0.014 A 
ATOM     31  C   UNL     1      -6.916  -0.544   6.586  1.00  0.00     0.014 A 
ATOM     32  C   UNL     1      -5.673  -0.785   9.077  1.00  0.00     0.010 A 
ATOM     33  C   UNL     1      -6.903   0.539   7.454  1.00  0.00     0.010 A 
ATOM     34  C   UNL     1      -6.284   0.425   8.706  1.00  0.00    -0.014 A 
BRANCH  34  35
ATOM     35  C   UNL     1      -6.306   1.581   9.628  1.00  0.00     0.031 A 
ATOM     36  C   UNL     1      -7.609   2.036  10.218  1.00  0.00     0.074 A 
ATOM     37  C   UNL     1      -5.165   2.243   9.896  1.00  0.00     0.049 A 
ATOM     38  N   UNL     1      -7.837   3.035  11.029  1.00  0.00    -0.248 NA
ATOM     39  C   UNL     1      -8.815   1.283   9.833  1.00  0.00     0.031 C 
ATOM     40  C   UNL     1      -3.846   1.916   9.349  1.00  0.00     0.029 A 
ATOM     41  N   UNL     1      -4.933   3.327  10.702  1.00  0.00    -0.354 N 
ATOM     42  C   UNL     1      -9.207   3.033  11.245  1.00  0.00     0.074 A 
ATOM     43  C   UNL     1      -9.769   1.970  10.444  1.00  0.00     0.031 C 
ATOM     44  C   UNL     1      -2.937   2.759   9.867  1.00  0.00     0.029 A 
ATOM     45  C   UNL     1      -3.612   3.698  10.758  1.00  0.00     0.049 A 
ATOM     46  H   UNL     1      -5.646   3.796  11.194  1.00  0.00     0.167 HD
ATOM     47  C   UNL     1      -9.931   3.830  12.063  1.00  0.00     0.031 A 
ATOM     48  C   UNL     1      -3.012   4.678  11.457  1.00  0.00     0.031 A 
ATOM     49  C   UNL     1      -9.371   4.869  12.879  1.00  0.00     0.049 A 
ATOM     50  C   UNL     1      -3.839   5.561  12.347  1.00  0.00     0.074 A 
ATOM     51  C   UNL     1     -10.017   5.690  13.786  1.00  0.00     0.029 A 
ATOM     52  N   UNL     1      -8.033   5.225  12.889  1.00  0.00    -0.354 N 
ATOM     53  N   UNL     1      -5.127   5.513  12.581  1.00  0.00    -0.248 NA
ATOM     54  C   UNL     1      -3.132   6.628  13.070  1.00  0.00     0.031 C 
ATOM     55  C   UNL     1      -9.072   6.568  14.323  1.00  0.00     0.029 A 
ATOM     56  C   UNL     1      -7.835   6.269  13.774  1.00  0.00     0.049 A 
ATOM     57  H   UNL     1      -7.330   4.800  12.348  1.00  0.00     0.167 HD
ATOM     58  C   UNL     1      -5.386   6.534  13.485  1.00  0.00     0.074 A 
ATOM     59  C   UNL     1      -4.120   7.180  13.765  1.00  0.00     0.031 C 
ATOM     60  C   UNL     1      -6.568   6.900  14.034  1.00  0.00     0.031 A 
BRANCH  47  61
ATOM     61  C   UNL     1     -11.408   3.589  12.134  1.00  0.00    -0.014 A 
ATOM     62  C   UNL     1     -11.920   2.493  12.846  1.00  0.00     0.009 A 
ATOM     63  C   UNL     1     -12.298   4.492  11.535  1.00  0.00     0.009 A 
ATOM     64  C   UNL     1     -13.298   2.296  12.941  1.00  0.00     0.001 A 
ATOM     65  C   UNL     1     -13.676   4.303  11.648  1.00  0.00     0.001 A 
ATOM     66  C   UNL     1     -14.174   3.204  12.347  1.00  0.00     0.000 A 
ENDBRANCH  47  61
BRANCH  48  67
ATOM     67  C   UNL     1      -1.540   4.843  11.370  1.00  0.00    -0.014 A 
ATOM     68  C   UNL     1      -0.718   4.377  12.408  1.00  0.00     0.009 A 
ATOM     69  C   UNL     1      -0.948   5.422  10.238  1.00  0.00     0.009 A 
ATOM     70  C   UNL     1       0.670   4.493  12.315  1.00  0.00     0.001 A 
ATOM     71  C   UNL     1       0.442   5.522  10.142  1.00  0.00     0.001 A 
ATOM     72  C   UNL     1       1.249   5.060  11.181  1.00  0.00     0.000 A 
ENDBRANCH  48  67
BRANCH  60  73
ATOM     73  C   UNL     1      -6.568   8.050  14.995  1.00  0.00    -0.014 A 
ATOM     74  C   UNL     1      -6.556   9.371  14.525  1.00  0.00     0.009 A 
ATOM     75  C   UNL     1      -6.708   7.809  16.370  1.00  0.00     0.009 A 
ATOM     76  C   UNL     1      -6.686  10.434  15.419  1.00  0.00     0.001 A 
ATOM     77  C   UNL     1      -6.855   8.874  17.259  1.00  0.00     0.001 A 
ATOM     78  C   UNL     1      -6.845  10.185  16.782  1.00  0.00     0.000 A 
ENDBRANCH  60  73
ENDBRANCH  34  35
ENDBRANCH  26  29
ENDBRANCH  24  25
ENDBRANCH   1  24
TORSDOF 14
