REMARK SMILES Cc1c(/C=C/C(=O)NCCCNC(=O)c2ccc(-c3c4nc(c(-c5ccccc5)c5ccc([nH]5)c(-c5ccccc5)c5nc(c(-c6ccccc6)c6ccc3[nH]6)C=C5)C=C4)cc2)cccc1C(=O)N1C[C@@H](C)[C@@H](C)C1
REMARK SMILES IDX 9 1 8 2 6 3 7 4 5 6 4 7 3 8 1 9 2 10 66 11 63 12 65 13 64 14
REMARK SMILES IDX 67 15 68 16 69 17 70 18 75 19 71 20 73 21 72 22 74 23 10 24
REMARK SMILES IDX 11 25 12 26 13 27 14 29 15 30 16 31 62 32 17 33 61 34 18 35
REMARK SMILES IDX 19 36 20 37 55 38 21 39 60 40 54 41 56 42 22 43 59 44 53 45
REMARK SMILES IDX 52 46 23 48 45 49 30 50 44 51 31 52 34 53 43 54 57 55 32 56
REMARK SMILES IDX 33 57 42 59 58 60 35 61 24 62 25 63 29 64 26 65 28 66 27 67
REMARK SMILES IDX 46 68 47 69 51 70 48 71 50 72 49 73 36 74 37 75 41 76 38 77
REMARK SMILES IDX 40 78 39 79
REMARK H PARENT 8 5 12 28 56 47 34 58
REMARK Flexibility Score: inf
ROOT
ATOM      1  C   UNL     1       3.185  -4.013  -0.749  1.00  0.00     0.118 C 
ENDROOT
BRANCH   1   2
ATOM      2  N   UNL     1       2.231  -5.004  -0.266  1.00  0.00    -0.352 N 
ATOM      3  C   UNL     1       0.877  -4.877  -0.109  1.00  0.00     0.244 C 
ATOM      4  O   UNL     1       0.181  -5.837   0.200  1.00  0.00    -0.270 OA
ATOM      5  H   UNL     1       2.610  -5.879  -0.021  1.00  0.00     0.163 HD
BRANCH   3   6
ATOM      6  C   UNL     1       0.269  -3.560  -0.392  1.00  0.00     0.072 C 
ATOM      7  C   UNL     1       0.507  -2.527   0.429  1.00  0.00     0.014 C 
BRANCH   7   8
ATOM      8  C   UNL     1       0.063  -1.145   0.173  1.00  0.00    -0.022 A 
ATOM      9  C   UNL     1       2.366  -0.265   0.768  1.00  0.00     0.046 C 
ATOM     10  C   UNL     1       0.944  -0.038   0.331  1.00  0.00    -0.031 A 
ATOM     11  C   UNL     1       0.462   1.268   0.071  1.00  0.00     0.043 A 
ATOM     12  C   UNL     1      -1.282  -0.921  -0.158  1.00  0.00     0.008 A 
ATOM     13  C   UNL     1      -0.888   1.455  -0.270  1.00  0.00     0.014 A 
ATOM     14  C   UNL     1      -1.755   0.369  -0.378  1.00  0.00     0.001 A 
BRANCH  11  15
ATOM     15  C   UNL     1       1.214   2.500   0.443  1.00  0.00     0.254 C 
ATOM     16  O   UNL     1       0.644   3.286   1.202  1.00  0.00    -0.269 OA
BRANCH  15  17
ATOM     17  N   UNL     1       2.527   2.696   0.051  1.00  0.00    -0.338 N 
ATOM     18  C   UNL     1       3.392   3.510   0.882  1.00  0.00     0.123 C 
ATOM     19  C   UNL     1       3.170   2.337  -1.206  1.00  0.00     0.123 C 
ATOM     20  C   UNL     1       4.568   3.901  -0.003  1.00  0.00     0.010 C 
ATOM     21  C   UNL     1       4.643   2.763  -1.045  1.00  0.00     0.010 C 
ATOM     22  C   UNL     1       5.822   4.168   0.819  1.00  0.00     0.010 C 
ATOM     23  C   UNL     1       5.541   1.590  -0.655  1.00  0.00     0.010 C 
ENDBRANCH  15  17
ENDBRANCH  11  15
ENDBRANCH   7   8
ENDBRANCH   3   6
ENDBRANCH   1   2
BRANCH   1  24
ATOM     24  C   UNL     1       3.900  -3.302   0.395  1.00  0.00     0.042 C 
BRANCH  24  25
ATOM     25  C   UNL     1       5.163  -4.001   0.856  1.00  0.00     0.118 C 
BRANCH  25  26
ATOM     26  N   UNL     1       6.386  -3.469   0.261  1.00  0.00    -0.352 N 
ATOM     27  C   UNL     1       7.687  -3.940   0.344  1.00  0.00     0.251 C 
ATOM     28  H   UNL     1       6.269  -2.655  -0.280  1.00  0.00     0.163 HD
ATOM     29  O   UNL     1       8.595  -3.328  -0.187  1.00  0.00    -0.269 OA
BRANCH  27  30
ATOM     30  C   UNL     1       7.939  -5.261   0.972  1.00  0.00     0.039 A 
ATOM     31  C   UNL     1       8.786  -6.160   0.309  1.00  0.00     0.014 A 
ATOM     32  C   UNL     1       7.192  -5.679   2.064  1.00  0.00     0.014 A 
ATOM     33  C   UNL     1       8.691  -7.522   0.587  1.00  0.00     0.010 A 
ATOM     34  C   UNL     1       6.995  -7.027   2.244  1.00  0.00     0.010 A 
ATOM     35  C   UNL     1       7.714  -7.954   1.480  1.00  0.00    -0.014 A 
BRANCH  35  36
ATOM     36  C   UNL     1       7.295  -9.335   1.663  1.00  0.00     0.031 A 
ATOM     37  C   UNL     1       7.508 -10.004   2.964  1.00  0.00     0.074 A 
ATOM     38  C   UNL     1       6.493  -9.908   0.739  1.00  0.00     0.049 A 
ATOM     39  N   UNL     1       7.322 -11.262   3.166  1.00  0.00    -0.248 NA
ATOM     40  C   UNL     1       8.002  -9.303   4.146  1.00  0.00     0.031 C 
ATOM     41  C   UNL     1       5.570 -11.023   0.934  1.00  0.00     0.029 A 
ATOM     42  N   UNL     1       6.507  -9.708  -0.641  1.00  0.00    -0.354 N 
ATOM     43  C   UNL     1       7.353 -11.473   4.523  1.00  0.00     0.074 A 
ATOM     44  C   UNL     1       7.875 -10.248   5.081  1.00  0.00     0.031 C 
ATOM     45  C   UNL     1       5.281 -11.564  -0.259  1.00  0.00     0.029 A 
ATOM     46  C   UNL     1       6.160 -10.942  -1.233  1.00  0.00     0.049 A 
ATOM     47  H   UNL     1       6.718  -8.869  -1.111  1.00  0.00     0.167 HD
ATOM     48  C   UNL     1       6.811 -12.616   5.025  1.00  0.00     0.031 A 
ATOM     49  C   UNL     1       7.055 -11.623  -2.011  1.00  0.00     0.031 A 
ATOM     50  C   UNL     1       6.381 -13.531   3.967  1.00  0.00     0.049 A 
ATOM     51  C   UNL     1       7.433 -13.002  -1.502  1.00  0.00     0.074 A 
ATOM     52  C   UNL     1       5.156 -13.931   3.459  1.00  0.00     0.029 A 
ATOM     53  N   UNL     1       7.332 -13.997   3.076  1.00  0.00    -0.354 N 
ATOM     54  N   UNL     1       7.055 -13.498  -0.357  1.00  0.00    -0.248 NA
ATOM     55  C   UNL     1       8.367 -13.886  -2.203  1.00  0.00     0.031 C 
ATOM     56  C   UNL     1       5.392 -14.677   2.268  1.00  0.00     0.029 A 
ATOM     57  C   UNL     1       6.757 -14.737   2.066  1.00  0.00     0.049 A 
ATOM     58  H   UNL     1       8.297 -13.822   3.155  1.00  0.00     0.167 HD
ATOM     59  C   UNL     1       7.727 -14.669  -0.120  1.00  0.00     0.074 A 
ATOM     60  C   UNL     1       8.525 -14.881  -1.312  1.00  0.00     0.031 C 
ATOM     61  C   UNL     1       7.626 -15.334   1.067  1.00  0.00     0.031 A 
BRANCH  48  62
ATOM     62  C   UNL     1       6.485 -12.847   6.482  1.00  0.00    -0.014 A 
ATOM     63  C   UNL     1       5.580 -13.867   6.830  1.00  0.00     0.009 A 
ATOM     64  C   UNL     1       6.990 -12.091   7.552  1.00  0.00     0.009 A 
ATOM     65  C   UNL     1       5.147 -14.065   8.148  1.00  0.00     0.001 A 
ATOM     66  C   UNL     1       6.546 -12.265   8.870  1.00  0.00     0.001 A 
ATOM     67  C   UNL     1       5.615 -13.248   9.167  1.00  0.00     0.000 A 
ENDBRANCH  48  62
BRANCH  49  68
ATOM     68  C   UNL     1       7.992 -10.719  -2.735  1.00  0.00    -0.014 A 
ATOM     69  C   UNL     1       7.480  -9.895  -3.756  1.00  0.00     0.009 A 
ATOM     70  C   UNL     1       9.236 -10.400  -2.170  1.00  0.00     0.009 A 
ATOM     71  C   UNL     1       8.140  -8.717  -4.117  1.00  0.00     0.001 A 
ATOM     72  C   UNL     1       9.899  -9.226  -2.545  1.00  0.00     0.001 A 
ATOM     73  C   UNL     1       9.334  -8.369  -3.489  1.00  0.00     0.000 A 
ENDBRANCH  49  68
BRANCH  61  74
ATOM     74  C   UNL     1       8.391 -16.580   1.430  1.00  0.00    -0.014 A 
ATOM     75  C   UNL     1       8.637 -17.622   0.529  1.00  0.00     0.009 A 
ATOM     76  C   UNL     1       8.796 -16.788   2.768  1.00  0.00     0.009 A 
ATOM     77  C   UNL     1       9.306 -18.787   0.935  1.00  0.00     0.001 A 
ATOM     78  C   UNL     1       9.442 -17.953   3.182  1.00  0.00     0.001 A 
ATOM     79  C   UNL     1       9.708 -18.952   2.259  1.00  0.00     0.000 A 
ENDBRANCH  61  74
ENDBRANCH  35  36
ENDBRANCH  27  30
ENDBRANCH  25  26
ENDBRANCH  24  25
ENDBRANCH   1  24
TORSDOF 13
