REMARK SMILES O=C(NCCCNC(=O)c1cn(C2C[NH+](CCC[C@@H]3CCCO3)C2)nn1)c1ccc(-c2c3nc(c(-c4ccccc4)c4ccc([nH]4)c(-c4ccccc4)c4nc(c(-c5ccccc5)c5ccc2[nH]5)C=C4)C=C3)cc1
REMARK SMILES IDX 7 1 8 2 9 3 6 5 5 6 4 7 3 8 1 9 2 10 27 12 28 13 74 14 29 15
REMARK SMILES IDX 73 16 30 17 31 18 32 19 67 20 33 21 72 22 66 23 68 24 34 25
REMARK SMILES IDX 71 26 65 27 64 28 35 30 57 31 42 32 56 33 43 34 46 35 55 36
REMARK SMILES IDX 69 37 44 38 45 39 54 41 70 42 47 43 36 44 37 45 41 46 38 47
REMARK SMILES IDX 40 48 39 49 58 50 59 51 63 52 60 53 62 54 61 55 48 56 49 57
REMARK SMILES IDX 53 58 50 59 52 60 51 61 10 62 11 63 26 64 12 65 25 66 13 67
REMARK SMILES IDX 14 68 24 69 15 70 16 72 17 73 18 74 19 75 20 76 23 77 21 78
REMARK SMILES IDX 22 79
REMARK H PARENT 7 4 3 11 68 29 46 40 15 71
REMARK Flexibility Score: inf
ROOT
ATOM      1  N   UNL     1       5.005  -2.718   2.909  1.00  0.00    -0.351 N 
ATOM      2  C   UNL     1       5.796  -3.506   3.714  1.00  0.00     0.273 C 
ATOM      3  O   UNL     1       6.287  -4.520   3.232  1.00  0.00    -0.267 OA
ATOM      4  H   UNL     1       4.745  -3.132   2.054  1.00  0.00     0.163 HD
ENDROOT
BRANCH   1   5
ATOM      5  C   UNL     1       4.492  -1.373   3.116  1.00  0.00     0.118 C 
BRANCH   5   6
ATOM      6  C   UNL     1       5.015  -0.378   2.078  1.00  0.00     0.042 C 
BRANCH   6   7
ATOM      7  C   UNL     1       4.727  -0.761   0.629  1.00  0.00     0.118 C 
BRANCH   7   8
ATOM      8  N   UNL     1       3.325  -0.951   0.320  1.00  0.00    -0.352 N 
ATOM      9  O   UNL     1       1.256  -0.681  -0.396  1.00  0.00    -0.269 OA
ATOM     10  C   UNL     1       2.297  -0.126  -0.035  1.00  0.00     0.251 C 
ATOM     11  H   UNL     1       3.049  -1.894   0.379  1.00  0.00     0.163 HD
BRANCH  10  12
ATOM     12  C   UNL     1       2.313   1.357   0.066  1.00  0.00     0.039 A 
ATOM     13  C   UNL     1       3.444   2.167   0.182  1.00  0.00     0.014 A 
ATOM     14  C   UNL     1       1.044   1.968   0.062  1.00  0.00     0.014 A 
ATOM     15  C   UNL     1       3.307   3.541   0.383  1.00  0.00     0.010 A 
ATOM     16  C   UNL     1       0.901   3.334   0.256  1.00  0.00     0.010 A 
ATOM     17  C   UNL     1       2.034   4.116   0.452  1.00  0.00    -0.014 A 
BRANCH  17  18
ATOM     18  C   UNL     1       1.912   5.568   0.551  1.00  0.00     0.031 A 
ATOM     19  C   UNL     1       2.343   6.306  -0.671  1.00  0.00     0.074 A 
ATOM     20  C   UNL     1       1.292   6.197   1.571  1.00  0.00     0.049 A 
ATOM     21  N   UNL     1       3.290   7.179  -0.778  1.00  0.00    -0.248 NA
ATOM     22  C   UNL     1       1.707   5.954  -1.952  1.00  0.00     0.031 C 
ATOM     23  C   UNL     1       0.553   5.596   2.684  1.00  0.00     0.029 A 
ATOM     24  N   UNL     1       1.090   7.534   1.761  1.00  0.00    -0.354 N 
ATOM     25  C   UNL     1       3.267   7.615  -2.102  1.00  0.00     0.074 A 
ATOM     26  C   UNL     1       2.370   6.735  -2.806  1.00  0.00     0.031 C 
ATOM     27  C   UNL     1      -0.205   6.545   3.283  1.00  0.00     0.029 A 
ATOM     28  C   UNL     1       0.095   7.836   2.686  1.00  0.00     0.049 A 
ATOM     29  H   UNL     1       1.603   8.225   1.284  1.00  0.00     0.167 HD
ATOM     30  C   UNL     1       3.818   8.802  -2.479  1.00  0.00     0.031 A 
ATOM     31  C   UNL     1      -0.480   9.047   2.902  1.00  0.00     0.031 A 
ATOM     32  C   UNL     1       4.699   9.329  -1.473  1.00  0.00     0.049 A 
ATOM     33  C   UNL     1       0.415  10.079   2.334  1.00  0.00     0.074 A 
ATOM     34  C   UNL     1       5.872   8.909  -0.881  1.00  0.00     0.029 A 
ATOM     35  N   UNL     1       4.196  10.316  -0.662  1.00  0.00    -0.354 N 
ATOM     36  N   UNL     1       1.582  10.367   2.830  1.00  0.00    -0.248 NA
ATOM     37  C   UNL     1       0.202  10.484   0.954  1.00  0.00     0.031 C 
ATOM     38  C   UNL     1       5.754   9.310   0.482  1.00  0.00     0.029 A 
ATOM     39  C   UNL     1       4.553  10.007   0.623  1.00  0.00     0.049 A 
ATOM     40  H   UNL     1       3.675  11.100  -0.950  1.00  0.00     0.167 HD
ATOM     41  C   UNL     1       2.392  10.560   1.721  1.00  0.00     0.074 A 
ATOM     42  C   UNL     1       1.468  10.720   0.599  1.00  0.00     0.031 C 
ATOM     43  C   UNL     1       3.728  10.288   1.774  1.00  0.00     0.031 A 
BRANCH  30  44
ATOM     44  C   UNL     1       3.249   9.686  -3.561  1.00  0.00    -0.014 A 
ATOM     45  C   UNL     1       3.931  10.874  -3.890  1.00  0.00     0.009 A 
ATOM     46  C   UNL     1       1.933   9.558  -4.042  1.00  0.00     0.009 A 
ATOM     47  C   UNL     1       3.297  11.909  -4.587  1.00  0.00     0.001 A 
ATOM     48  C   UNL     1       1.311  10.573  -4.774  1.00  0.00     0.001 A 
ATOM     49  C   UNL     1       1.983  11.762  -5.020  1.00  0.00     0.000 A 
ENDBRANCH  30  44
BRANCH  31  50
ATOM     50  C   UNL     1      -1.867   9.372   3.308  1.00  0.00    -0.014 A 
ATOM     51  C   UNL     1      -2.201  10.650   3.789  1.00  0.00     0.009 A 
ATOM     52  C   UNL     1      -2.924   8.517   2.947  1.00  0.00     0.009 A 
ATOM     53  C   UNL     1      -3.538  11.068   3.868  1.00  0.00     0.001 A 
ATOM     54  C   UNL     1      -4.258   8.932   3.027  1.00  0.00     0.001 A 
ATOM     55  C   UNL     1      -4.564  10.214   3.473  1.00  0.00     0.000 A 
ENDBRANCH  31  50
BRANCH  43  56
ATOM     56  C   UNL     1       4.341  10.007   3.123  1.00  0.00    -0.014 A 
ATOM     57  C   UNL     1       3.948   8.934   3.943  1.00  0.00     0.009 A 
ATOM     58  C   UNL     1       5.459  10.763   3.506  1.00  0.00     0.009 A 
ATOM     59  C   UNL     1       4.637   8.649   5.127  1.00  0.00     0.001 A 
ATOM     60  C   UNL     1       6.160  10.464   4.675  1.00  0.00     0.001 A 
ATOM     61  C   UNL     1       5.746   9.411   5.488  1.00  0.00     0.000 A 
ENDBRANCH  43  56
ENDBRANCH  17  18
ENDBRANCH  10  12
ENDBRANCH   7   8
ENDBRANCH   6   7
ENDBRANCH   5   6
ENDBRANCH   1   5
BRANCH   2  62
ATOM     62  C   UNL     1       6.012  -3.108   5.091  1.00  0.00     0.170 A 
ATOM     63  C   UNL     1       5.087  -2.668   6.018  1.00  0.00     0.145 A 
ATOM     64  N   UNL     1       7.247  -3.159   5.687  1.00  0.00    -0.125 NA
ATOM     65  N   UNL     1       5.841  -2.355   7.109  1.00  0.00    -0.237 N 
ATOM     66  N   UNL     1       7.131  -2.681   6.917  1.00  0.00    -0.066 NA
BRANCH  65  67
ATOM     67  C   UNL     1       5.457  -1.613   8.264  1.00  0.00     0.218 C 
ATOM     68  C   UNL     1       4.593  -0.363   7.932  1.00  0.00     0.295 C 
ATOM     69  C   UNL     1       4.196  -2.090   9.012  1.00  0.00     0.295 C 
ATOM     70  N   UNL     1       3.726  -0.688   9.072  1.00  0.00    -0.331 N 
ATOM     71  H   UNL     1       2.731  -0.468   9.043  1.00  0.00     0.348 HD
BRANCH  70  72
ATOM     72  C   UNL     1       4.065   0.013  10.324  1.00  0.00     0.262 C 
BRANCH  72  73
ATOM     73  C   UNL     1       5.493   0.078  10.911  1.00  0.00     0.064 C 
BRANCH  73  74
ATOM     74  C   UNL     1       6.533   0.967  10.207  1.00  0.00     0.038 C 
BRANCH  74  75
ATOM     75  C   UNL     1       6.071   2.396   9.947  1.00  0.00     0.118 C 
ATOM     76  C   UNL     1       7.163   3.280   9.365  1.00  0.00     0.034 C 
ATOM     77  O   UNL     1       5.657   3.012  11.175  1.00  0.00    -0.378 OA
ATOM     78  C   UNL     1       6.715   4.644   9.824  1.00  0.00     0.031 C 
ATOM     79  C   UNL     1       6.184   4.345  11.210  1.00  0.00     0.160 C 
ENDBRANCH  74  75
ENDBRANCH  73  74
ENDBRANCH  72  73
ENDBRANCH  70  72
ENDBRANCH  65  67
ENDBRANCH   2  62
TORSDOF 15
