REMARK SMILES Cc1c(CC(=O)NCCCNC(=O)c2ccc(-c3c4nc(c(-c5ccccc5)c5ccc([nH]5)c(-c5ccccc5)c5nc(c(-c6ccccc6)c6ccc3[nH]6)C=C5)C=C4)cc2)cc(-c2ccc(S(C)(=O)=O)cc2)n1-c1cccc(F)c1
REMARK SMILES IDX 8 1 7 2 5 3 6 4 4 6 3 7 1 8 2 9 74 10 62 11 63 12 75 13
REMARK SMILES IDX 76 14 81 15 77 16 79 17 78 18 80 19 64 20 65 21 73 22 66 23
REMARK SMILES IDX 72 24 67 25 68 26 69 27 70 28 71 29 9 30 10 31 11 32 12 33
REMARK SMILES IDX 13 35 14 36 15 37 61 38 16 39 60 40 17 41 18 42 19 43 54 44
REMARK SMILES IDX 20 45 59 46 53 47 55 48 21 49 58 50 52 51 51 52 22 54 44 55
REMARK SMILES IDX 29 56 43 57 30 58 33 59 42 60 56 61 31 62 32 63 41 65 57 66
REMARK SMILES IDX 34 67 23 68 24 69 28 70 25 71 27 72 26 73 45 74 46 75 50 76
REMARK SMILES IDX 47 77 49 78 48 79 35 80 36 81 40 82 37 83 39 84 38 85
REMARK H PARENT 7 5 11 34 55 53 33 64
REMARK Flexibility Score: inf
ROOT
ATOM      1  C   UNL     1      -3.162  -2.812   0.401  1.00  0.00     0.117 C 
ENDROOT
BRANCH   1   2
ATOM      2  N   UNL     1      -2.109  -2.714  -0.614  1.00  0.00    -0.356 N 
ATOM      3  C   UNL     1      -0.754  -2.952  -0.571  1.00  0.00     0.224 C 
ATOM      4  O   UNL     1      -0.193  -3.120  -1.663  1.00  0.00    -0.275 OA
ATOM      5  H   UNL     1      -2.433  -2.421  -1.496  1.00  0.00     0.163 HD
BRANCH   3   6
ATOM      6  C   UNL     1       0.081  -3.047   0.710  1.00  0.00     0.137 C 
BRANCH   6   7
ATOM      7  C   UNL     1       0.069  -1.809   1.548  1.00  0.00    -0.017 A 
ATOM      8  C   UNL     1       0.899  -0.015  -0.138  1.00  0.00     0.065 C 
ATOM      9  C   UNL     1       0.323  -0.501   1.155  1.00  0.00     0.024 A 
ATOM     10  N   UNL     1       0.005   0.334   2.221  1.00  0.00    -0.313 N 
ATOM     11  C   UNL     1      -0.114  -1.774   2.954  1.00  0.00     0.033 A 
ATOM     12  C   UNL     1      -0.195  -0.453   3.356  1.00  0.00     0.053 A 
BRANCH  10  13
ATOM     13  C   UNL     1      -0.209   1.737   2.140  1.00  0.00     0.049 A 
ATOM     14  C   UNL     1       0.344   2.601   3.094  1.00  0.00     0.027 A 
ATOM     15  C   UNL     1      -1.069   2.228   1.151  1.00  0.00     0.065 A 
ATOM     16  C   UNL     1       0.035   3.963   3.053  1.00  0.00     0.005 A 
ATOM     17  C   UNL     1      -1.378   3.582   1.138  1.00  0.00     0.125 A 
ATOM     18  C   UNL     1      -0.835   4.452   2.077  1.00  0.00     0.039 A 
ATOM     19  F   UNL     1      -2.232   4.052   0.220  1.00  0.00    -0.207 F 
ENDBRANCH  10  13
BRANCH  12  20
ATOM     20  C   UNL     1      -0.659   0.034   4.657  1.00  0.00    -0.001 A 
ATOM     21  C   UNL     1      -1.902   0.679   4.750  1.00  0.00     0.011 A 
ATOM     22  C   UNL     1       0.102  -0.166   5.815  1.00  0.00     0.011 A 
ATOM     23  C   UNL     1      -2.358   1.167   5.972  1.00  0.00     0.021 A 
ATOM     24  C   UNL     1      -0.350   0.320   7.046  1.00  0.00     0.021 A 
ATOM     25  C   UNL     1      -1.569   1.002   7.110  1.00  0.00     0.067 A 
BRANCH  25  26
ATOM     26  S   UNL     1      -2.142   1.665   8.654  1.00  0.00     0.175 S 
ATOM     27  C   UNL     1      -2.098   3.420   8.392  1.00  0.00     0.163 C 
ATOM     28  O   UNL     1      -3.538   1.262   8.793  1.00  0.00    -0.224 OA
ATOM     29  O   UNL     1      -1.169   1.343   9.669  1.00  0.00    -0.224 OA
ENDBRANCH  25  26
ENDBRANCH  12  20
ENDBRANCH   6   7
ENDBRANCH   3   6
ENDBRANCH   1   2
BRANCH   1  30
ATOM     30  C   UNL     1      -4.195  -1.620   0.541  1.00  0.00     0.042 C 
BRANCH  30  31
ATOM     31  C   UNL     1      -5.274  -1.208  -0.581  1.00  0.00     0.118 C 
BRANCH  31  32
ATOM     32  N   UNL     1      -6.731  -1.396  -0.172  1.00  0.00    -0.352 N 
ATOM     33  C   UNL     1      -8.041  -0.865  -0.226  1.00  0.00     0.251 C 
ATOM     34  H   UNL     1      -6.780  -2.233   0.344  1.00  0.00     0.163 HD
ATOM     35  O   UNL     1      -8.836  -1.545   0.448  1.00  0.00    -0.269 OA
BRANCH  33  36
ATOM     36  C   UNL     1      -8.723   0.335  -0.938  1.00  0.00     0.039 A 
ATOM     37  C   UNL     1      -9.855   1.016  -0.383  1.00  0.00     0.014 A 
ATOM     38  C   UNL     1      -8.558   0.688  -2.252  1.00  0.00     0.014 A 
ATOM     39  C   UNL     1     -10.601   2.168  -1.009  1.00  0.00     0.010 A 
ATOM     40  C   UNL     1      -9.413   1.729  -2.889  1.00  0.00     0.010 A 
ATOM     41  C   UNL     1     -10.354   2.670  -2.305  1.00  0.00    -0.014 A 
BRANCH  41  42
ATOM     42  C   UNL     1     -10.182   4.407  -2.562  1.00  0.00     0.031 A 
ATOM     43  C   UNL     1      -8.878   4.628  -1.848  1.00  0.00     0.074 A 
ATOM     44  C   UNL     1     -10.517   5.569  -3.361  1.00  0.00     0.049 A 
ATOM     45  N   UNL     1      -8.001   3.694  -2.079  1.00  0.00    -0.248 NA
ATOM     46  C   UNL     1      -8.247   5.860  -1.407  1.00  0.00     0.031 C 
ATOM     47  C   UNL     1     -11.523   5.809  -4.440  1.00  0.00     0.029 A 
ATOM     48  N   UNL     1      -9.867   6.878  -3.465  1.00  0.00    -0.354 N 
ATOM     49  C   UNL     1      -7.059   4.393  -2.725  1.00  0.00     0.074 A 
ATOM     50  C   UNL     1      -7.053   5.676  -2.001  1.00  0.00     0.031 C 
ATOM     51  C   UNL     1     -11.468   7.091  -4.960  1.00  0.00     0.029 A 
ATOM     52  C   UNL     1     -10.376   7.880  -4.377  1.00  0.00     0.049 A 
ATOM     53  H   UNL     1      -9.079   7.079  -2.909  1.00  0.00     0.167 HD
ATOM     54  C   UNL     1      -6.717   4.110  -4.016  1.00  0.00     0.031 A 
ATOM     55  C   UNL     1      -9.845   9.163  -4.639  1.00  0.00     0.031 A 
ATOM     56  C   UNL     1      -5.671   4.894  -4.533  1.00  0.00     0.049 A 
ATOM     57  C   UNL     1      -8.469   8.753  -5.044  1.00  0.00     0.074 A 
ATOM     58  C   UNL     1      -4.646   5.636  -4.000  1.00  0.00     0.029 A 
ATOM     59  N   UNL     1      -5.647   5.129  -5.883  1.00  0.00    -0.354 N 
ATOM     60  N   UNL     1      -8.171   8.555  -6.299  1.00  0.00    -0.248 NA
ATOM     61  C   UNL     1      -7.336   8.936  -4.126  1.00  0.00     0.031 C 
ATOM     62  C   UNL     1      -4.534   6.728  -4.904  1.00  0.00     0.029 A 
ATOM     63  C   UNL     1      -5.407   6.475  -5.968  1.00  0.00     0.049 A 
ATOM     64  H   UNL     1      -5.772   4.484  -6.616  1.00  0.00     0.167 HD
ATOM     65  C   UNL     1      -6.824   8.329  -6.260  1.00  0.00     0.074 A 
ATOM     66  C   UNL     1      -6.366   8.956  -5.042  1.00  0.00     0.031 C 
ATOM     67  C   UNL     1      -6.317   7.205  -6.818  1.00  0.00     0.031 A 
BRANCH  54  68
ATOM     68  C   UNL     1      -7.466   3.155  -4.971  1.00  0.00    -0.014 A 
ATOM     69  C   UNL     1      -8.803   3.312  -5.428  1.00  0.00     0.009 A 
ATOM     70  C   UNL     1      -6.749   2.127  -5.590  1.00  0.00     0.009 A 
ATOM     71  C   UNL     1      -9.445   2.366  -6.265  1.00  0.00     0.001 A 
ATOM     72  C   UNL     1      -7.355   1.232  -6.491  1.00  0.00     0.001 A 
ATOM     73  C   UNL     1      -8.714   1.312  -6.786  1.00  0.00     0.000 A 
ENDBRANCH  54  68
BRANCH  55  74
ATOM     74  C   UNL     1      -9.861  10.691  -5.249  1.00  0.00    -0.014 A 
ATOM     75  C   UNL     1     -10.835  11.411  -5.948  1.00  0.00     0.009 A 
ATOM     76  C   UNL     1      -8.642  11.478  -5.113  1.00  0.00     0.009 A 
ATOM     77  C   UNL     1     -10.571  12.730  -6.495  1.00  0.00     0.001 A 
ATOM     78  C   UNL     1      -8.344  12.724  -5.707  1.00  0.00     0.001 A 
ATOM     79  C   UNL     1      -9.328  13.367  -6.406  1.00  0.00     0.000 A 
ENDBRANCH  55  74
BRANCH  67  80
ATOM     80  C   UNL     1      -7.240   6.574  -7.840  1.00  0.00    -0.014 A 
ATOM     81  C   UNL     1      -7.056   6.818  -9.199  1.00  0.00     0.009 A 
ATOM     82  C   UNL     1      -8.392   5.854  -7.452  1.00  0.00     0.009 A 
ATOM     83  C   UNL     1      -7.981   6.342 -10.140  1.00  0.00     0.001 A 
ATOM     84  C   UNL     1      -9.306   5.361  -8.388  1.00  0.00     0.001 A 
ATOM     85  C   UNL     1      -9.097   5.607  -9.738  1.00  0.00     0.000 A 
ENDBRANCH  67  80
ENDBRANCH  41  42
ENDBRANCH  33  36
ENDBRANCH  31  32
ENDBRANCH  30  31
ENDBRANCH   1  30
TORSDOF 14
