REMARK SMILES Cc1cc([N+](=O)[O-])ccc1-c1ccc(/C=C/C(=O)Nc2ccc(O)c(C(=O)NCCCNC(=O)c3ccc(-c4c5nc(c(-c6ccccc6)c6ccc([nH]6)c(-c6ccccc6)c6nc(c(-c7ccccc7)c7ccc4[nH]7)C=C6)C=C5)cc3)c2)o1
REMARK SMILES IDX 26 1 27 2 28 3 25 5 20 6 21 7 83 8 22 9 23 10 19 11 17 12
REMARK SMILES IDX 18 13 16 15 15 16 14 17 11 18 12 19 84 20 13 21 10 22 1 23
REMARK SMILES IDX 2 24 3 25 4 26 9 27 8 28 5 29 6 30 7 31 24 32 29 34 30 35
REMARK SMILES IDX 31 36 32 37 33 38 34 40 35 41 36 42 82 43 37 44 81 45 38 46
REMARK SMILES IDX 39 47 40 48 75 49 41 50 80 51 74 52 76 53 42 54 79 55 73 56
REMARK SMILES IDX 72 57 43 59 65 60 50 61 64 62 51 63 54 64 63 65 77 66 52 67
REMARK SMILES IDX 53 68 62 70 78 71 55 72 44 73 45 74 49 75 46 76 48 77 47 78
REMARK SMILES IDX 66 79 67 80 71 81 68 82 70 83 69 84 56 85 57 86 61 87 58 88
REMARK SMILES IDX 60 89 59 90
REMARK H PARENT 28 4 19 14 24 33 32 39 76 58 54 69
REMARK Flexibility Score: inf
ROOT
ATOM      1  C   UNL     1       6.389   7.990   0.153  1.00  0.00     0.255 C 
ATOM      2  O   UNL     1       7.130   8.128   1.122  1.00  0.00    -0.269 OA
ATOM      3  N   UNL     1       6.911   8.084  -1.125  1.00  0.00    -0.352 N 
ATOM      4  H   UNL     1       7.882   8.242  -1.170  1.00  0.00     0.163 HD
ENDROOT
BRANCH   1   5
ATOM      5  C   UNL     1       4.937   7.753   0.366  1.00  0.00     0.083 A 
ATOM      6  C   UNL     1       2.929   8.054   1.646  1.00  0.00     0.042 A 
ATOM      7  C   UNL     1       2.166   7.704   0.532  1.00  0.00     0.030 A 
ATOM      8  C   UNL     1       4.305   8.257   1.509  1.00  0.00     0.043 A 
ATOM      9  C   UNL     1       2.796   7.135  -0.558  1.00  0.00     0.049 A 
ATOM     10  C   UNL     1       4.172   6.996  -0.520  1.00  0.00     0.128 A 
BRANCH   6  11
ATOM     11  N   UNL     1       2.368   8.006   2.932  1.00  0.00    -0.322 N 
ATOM     12  C   UNL     1       1.451   7.086   3.408  1.00  0.00     0.248 C 
ATOM     13  O   UNL     1       0.933   7.238   4.512  1.00  0.00    -0.270 OA
ATOM     14  H   UNL     1       2.658   8.703   3.564  1.00  0.00     0.170 HD
BRANCH  12  15
ATOM     15  C   UNL     1       1.105   5.870   2.602  1.00  0.00     0.075 C 
ATOM     16  C   UNL     1       2.055   5.081   2.070  1.00  0.00     0.053 C 
BRANCH  16  17
ATOM     17  C   UNL     1       1.756   4.070   1.112  1.00  0.00     0.127 A 
ATOM     18  C   UNL     1       0.892   2.270   0.152  1.00  0.00     0.135 A 
ATOM     19  C   UNL     1       1.780   2.777  -0.761  1.00  0.00     0.051 A 
ATOM     20  O   UNL     1       0.803   3.081   1.246  1.00  0.00    -0.457 OA
ATOM     21  C   UNL     1       2.383   3.865  -0.113  1.00  0.00     0.051 A 
BRANCH  18  22
ATOM     22  C   UNL     1       0.158   1.023   0.187  1.00  0.00     0.021 A 
ATOM     23  C   UNL     1       2.345  -0.332   0.146  1.00  0.00     0.045 C 
ATOM     24  C   UNL     1       0.840  -0.216   0.161  1.00  0.00    -0.033 A 
ATOM     25  C   UNL     1       0.095  -1.405   0.109  1.00  0.00     0.089 A 
ATOM     26  C   UNL     1      -1.305  -1.358   0.104  1.00  0.00     0.269 A 
ATOM     27  C   UNL     1      -1.244   1.054   0.191  1.00  0.00     0.019 A 
ATOM     28  C   UNL     1      -1.979  -0.132   0.149  1.00  0.00     0.086 A 
BRANCH  26  29
ATOM     29  N   UNL     1      -2.068  -2.610   0.044  1.00  0.00     0.062 N 
ATOM     30  O   UNL     1      -1.431  -3.673   0.021  1.00  0.00    -0.258 OA
ATOM     31  O   UNL     1      -3.304  -2.530   0.014  1.00  0.00    -0.258 OA
ENDBRANCH  26  29
ENDBRANCH  18  22
ENDBRANCH  16  17
ENDBRANCH  12  15
ENDBRANCH   6  11
BRANCH  10  32
ATOM     32  O   UNL     1       4.707   6.034  -1.337  1.00  0.00    -0.507 OA
ATOM     33  H   UNL     1       4.153   5.551  -1.917  1.00  0.00     0.293 HD
ENDBRANCH  10  32
ENDBRANCH   1   5
BRANCH   3  34
ATOM     34  C   UNL     1       6.236   7.982  -2.418  1.00  0.00     0.118 C 
BRANCH  34  35
ATOM     35  C   UNL     1       6.507   9.105  -3.380  1.00  0.00     0.042 C 
BRANCH  35  36
ATOM     36  C   UNL     1       7.779   8.907  -4.167  1.00  0.00     0.118 C 
BRANCH  36  37
ATOM     37  N   UNL     1       7.633   7.989  -5.304  1.00  0.00    -0.352 N 
ATOM     38  C   UNL     1       8.465   7.799  -6.402  1.00  0.00     0.251 C 
ATOM     39  H   UNL     1       6.826   7.425  -5.286  1.00  0.00     0.163 HD
ATOM     40  O   UNL     1       8.262   6.889  -7.185  1.00  0.00    -0.269 OA
BRANCH  38  41
ATOM     41  C   UNL     1       9.688   8.630  -6.515  1.00  0.00     0.039 A 
ATOM     42  C   UNL     1      10.913   7.966  -6.611  1.00  0.00     0.014 A 
ATOM     43  C   UNL     1       9.634   9.964  -6.146  1.00  0.00     0.014 A 
ATOM     44  C   UNL     1      12.025   8.538  -6.008  1.00  0.00     0.010 A 
ATOM     45  C   UNL     1      10.672  10.441  -5.379  1.00  0.00     0.010 A 
ATOM     46  C   UNL     1      11.848   9.693  -5.256  1.00  0.00    -0.014 A 
BRANCH  46  47
ATOM     47  C   UNL     1      12.786  10.145  -4.236  1.00  0.00     0.031 A 
ATOM     48  C   UNL     1      13.473  11.437  -4.417  1.00  0.00     0.074 A 
ATOM     49  C   UNL     1      12.915   9.445  -3.086  1.00  0.00     0.049 A 
ATOM     50  N   UNL     1      14.485  11.822  -3.722  1.00  0.00    -0.248 NA
ATOM     51  C   UNL     1      13.106  12.388  -5.466  1.00  0.00     0.031 C 
ATOM     52  C   UNL     1      13.537   9.874  -1.834  1.00  0.00     0.029 A 
ATOM     53  N   UNL     1      12.700   8.073  -2.906  1.00  0.00    -0.354 N 
ATOM     54  C   UNL     1      14.676  13.156  -3.987  1.00  0.00     0.074 A 
ATOM     55  C   UNL     1      13.886  13.427  -5.159  1.00  0.00     0.031 C 
ATOM     56  C   UNL     1      13.916   8.786  -1.143  1.00  0.00     0.029 A 
ATOM     57  C   UNL     1      13.692   7.636  -2.002  1.00  0.00     0.049 A 
ATOM     58  H   UNL     1      11.999   7.524  -3.326  1.00  0.00     0.167 HD
ATOM     59  C   UNL     1      15.358  13.905  -3.080  1.00  0.00     0.031 A 
ATOM     60  C   UNL     1      14.669   6.772  -2.409  1.00  0.00     0.031 A 
ATOM     61  C   UNL     1      16.104  13.052  -2.152  1.00  0.00     0.049 A 
ATOM     62  C   UNL     1      16.067   7.356  -2.341  1.00  0.00     0.074 A 
ATOM     63  C   UNL     1      15.956  12.709  -0.819  1.00  0.00     0.029 A 
ATOM     64  N   UNL     1      17.024  12.151  -2.685  1.00  0.00    -0.354 N 
ATOM     65  N   UNL     1      16.329   8.628  -2.199  1.00  0.00    -0.248 NA
ATOM     66  C   UNL     1      17.282   6.553  -2.461  1.00  0.00     0.031 C 
ATOM     67  C   UNL     1      16.700  11.513  -0.593  1.00  0.00     0.029 A 
ATOM     68  C   UNL     1      17.335  11.163  -1.773  1.00  0.00     0.049 A 
ATOM     69  H   UNL     1      17.401  12.211  -3.592  1.00  0.00     0.167 HD
ATOM     70  C   UNL     1      17.684   8.831  -2.229  1.00  0.00     0.074 A 
ATOM     71  C   UNL     1      18.238   7.495  -2.371  1.00  0.00     0.031 C 
ATOM     72  C   UNL     1      18.236  10.080  -2.159  1.00  0.00     0.031 A 
BRANCH  59  73
ATOM     73  C   UNL     1      15.142  15.393  -2.900  1.00  0.00    -0.014 A 
ATOM     74  C   UNL     1      15.675  16.038  -1.771  1.00  0.00     0.009 A 
ATOM     75  C   UNL     1      14.325  16.193  -3.724  1.00  0.00     0.009 A 
ATOM     76  C   UNL     1      15.386  17.381  -1.473  1.00  0.00     0.001 A 
ATOM     77  C   UNL     1      14.043  17.537  -3.444  1.00  0.00     0.001 A 
ATOM     78  C   UNL     1      14.567  18.130  -2.309  1.00  0.00     0.000 A 
ENDBRANCH  59  73
BRANCH  60  79
ATOM     79  C   UNL     1      14.189   5.777  -3.413  1.00  0.00    -0.014 A 
ATOM     80  C   UNL     1      13.181   4.872  -3.014  1.00  0.00     0.009 A 
ATOM     81  C   UNL     1      14.414   5.958  -4.783  1.00  0.00     0.009 A 
ATOM     82  C   UNL     1      12.333   4.278  -3.954  1.00  0.00     0.001 A 
ATOM     83  C   UNL     1      13.573   5.342  -5.723  1.00  0.00     0.001 A 
ATOM     84  C   UNL     1      12.509   4.540  -5.308  1.00  0.00     0.000 A 
ENDBRANCH  60  79
BRANCH  72  85
ATOM     85  C   UNL     1      19.687  10.424  -2.420  1.00  0.00    -0.014 A 
ATOM     86  C   UNL     1      20.580   9.622  -3.143  1.00  0.00     0.009 A 
ATOM     87  C   UNL     1      20.164  11.698  -2.033  1.00  0.00     0.009 A 
ATOM     88  C   UNL     1      21.888  10.046  -3.420  1.00  0.00     0.001 A 
ATOM     89  C   UNL     1      21.448  12.147  -2.351  1.00  0.00     0.001 A 
ATOM     90  C   UNL     1      22.318  11.312  -3.034  1.00  0.00     0.000 A 
ENDBRANCH  72  85
ENDBRANCH  46  47
ENDBRANCH  38  41
ENDBRANCH  36  37
ENDBRANCH  35  36
ENDBRANCH  34  35
ENDBRANCH   3  34
TORSDOF 16
