REMARK SMILES CCOc1cccc2c(SCC(=O)NCCCNC(=O)c3ccc(-c4c5nc(c(-c6ccccc6)c6ccc([nH]6)c(-c6ccccc6)c6nc(c(-c7ccccc7)c7ccc4[nH]7)C=C6)C=C5)cc3)cc(C)nc12
REMARK SMILES IDX 15 1 14 2 12 3 13 4 11 6 10 7 9 8 4 9 5 10 73 11 6 12 8 13
REMARK SMILES IDX 72 14 7 15 70 16 69 17 71 18 3 19 2 20 1 21 16 22 17 23
REMARK SMILES IDX 18 24 19 25 20 27 21 28 22 29 68 30 23 31 67 32 24 33 25 34
REMARK SMILES IDX 26 35 61 36 27 37 66 38 60 39 62 40 28 41 65 42 59 43 58 44
REMARK SMILES IDX 29 46 51 47 36 48 50 49 37 50 40 51 49 52 63 53 38 54 39 55
REMARK SMILES IDX 48 57 64 58 41 59 30 60 31 61 35 62 32 63 34 64 33 65 52 66
REMARK SMILES IDX 53 67 57 68 54 69 56 70 55 71 42 72 43 73 47 74 44 75 46 76
REMARK SMILES IDX 45 77
REMARK H PARENT 14 5 18 26 62 45 40 56
REMARK Flexibility Score: inf
ROOT
ATOM      1  C   UNL     1       9.162   0.589  -0.972  1.00  0.00     0.117 C 
ENDROOT
BRANCH   1   2
ATOM      2  N   UNL     1       8.383   1.624  -0.320  1.00  0.00    -0.355 N 
ATOM      3  C   UNL     1       7.793   1.620   0.906  1.00  0.00     0.230 C 
ATOM      4  O   UNL     1       7.147   2.620   1.232  1.00  0.00    -0.274 OA
ATOM      5  H   UNL     1       8.264   2.451  -0.841  1.00  0.00     0.163 HD
BRANCH   3   6
ATOM      6  C   UNL     1       7.991   0.465   1.871  1.00  0.00     0.174 C 
BRANCH   6   7
ATOM      7  S   UNL     1       7.220  -1.100   1.338  1.00  0.00    -0.115 SA
BRANCH   7   8
ATOM      8  C   UNL     1       5.446  -0.778   1.226  1.00  0.00     0.019 A 
ATOM      9  C   UNL     1       2.332  -2.378  -0.006  1.00  0.00     0.145 A 
ATOM     10  C   UNL     1       2.774  -3.587  -0.545  1.00  0.00     0.049 A 
ATOM     11  C   UNL     1       3.208  -1.452   0.577  1.00  0.00     0.114 A 
ATOM     12  C   UNL     1       4.129  -3.878  -0.540  1.00  0.00     0.005 A 
ATOM     13  C   UNL     1       4.590  -1.741   0.605  1.00  0.00     0.018 A 
ATOM     14  N   UNL     1       2.713  -0.314   1.090  1.00  0.00    -0.249 NA
ATOM     15  C   UNL     1       5.023  -2.969   0.027  1.00  0.00     0.012 A 
ATOM     16  C   UNL     1       3.531   0.598   1.639  1.00  0.00     0.039 A 
ATOM     17  C   UNL     1       4.889   0.387   1.755  1.00  0.00     0.039 A 
ATOM     18  C   UNL     1       2.895   1.883   2.068  1.00  0.00     0.067 C 
BRANCH   9  19
ATOM     19  O   UNL     1       0.966  -2.191   0.044  1.00  0.00    -0.492 OA
BRANCH  19  20
ATOM     20  C   UNL     1       0.482  -1.324  -0.990  1.00  0.00     0.226 C 
ATOM     21  C   UNL     1       0.275   0.100  -0.497  1.00  0.00     0.049 C 
ENDBRANCH  19  20
ENDBRANCH   9  19
ENDBRANCH   7   8
ENDBRANCH   6   7
ENDBRANCH   3   6
ENDBRANCH   1   2
BRANCH   1  22
ATOM     22  C   UNL     1       8.376  -0.087  -2.091  1.00  0.00     0.042 C 
BRANCH  22  23
ATOM     23  C   UNL     1       8.014   0.847  -3.242  1.00  0.00     0.118 C 
BRANCH  23  24
ATOM     24  N   UNL     1       9.185   1.362  -3.939  1.00  0.00    -0.352 N 
ATOM     25  C   UNL     1       9.560   1.227  -5.253  1.00  0.00     0.251 C 
ATOM     26  H   UNL     1       9.803   1.888  -3.382  1.00  0.00     0.163 HD
ATOM     27  O   UNL     1      10.680   1.575  -5.609  1.00  0.00    -0.269 OA
BRANCH  25  28
ATOM     28  C   UNL     1       8.622   0.644  -6.236  1.00  0.00     0.039 A 
ATOM     29  C   UNL     1       9.099  -0.295  -7.154  1.00  0.00     0.014 A 
ATOM     30  C   UNL     1       7.280   1.032  -6.261  1.00  0.00     0.014 A 
ATOM     31  C   UNL     1       8.214  -0.901  -8.049  1.00  0.00     0.010 A 
ATOM     32  C   UNL     1       6.386   0.371  -7.098  1.00  0.00     0.010 A 
ATOM     33  C   UNL     1       6.843  -0.602  -8.001  1.00  0.00    -0.014 A 
BRANCH  33  34
ATOM     34  C   UNL     1       5.863  -1.284  -8.884  1.00  0.00     0.031 A 
ATOM     35  C   UNL     1       5.069  -0.486  -9.882  1.00  0.00     0.074 A 
ATOM     36  C   UNL     1       5.632  -2.604  -8.739  1.00  0.00     0.049 A 
ATOM     37  N   UNL     1       4.081  -0.871 -10.650  1.00  0.00    -0.248 NA
ATOM     38  C   UNL     1       5.417   0.939 -10.017  1.00  0.00     0.031 C 
ATOM     39  C   UNL     1       6.319  -3.490  -7.795  1.00  0.00     0.029 A 
ATOM     40  N   UNL     1       4.739  -3.430  -9.376  1.00  0.00    -0.354 N 
ATOM     41  C   UNL     1       3.685   0.263 -11.349  1.00  0.00     0.074 A 
ATOM     42  C   UNL     1       4.499   1.361 -10.874  1.00  0.00     0.031 C 
ATOM     43  C   UNL     1       5.831  -4.734  -7.926  1.00  0.00     0.029 A 
ATOM     44  C   UNL     1       4.765  -4.727  -8.922  1.00  0.00     0.049 A 
ATOM     45  H   UNL     1       4.137  -3.122 -10.092  1.00  0.00     0.167 HD
ATOM     46  C   UNL     1       2.746   0.377 -12.317  1.00  0.00     0.031 A 
ATOM     47  C   UNL     1       4.001  -5.785  -9.253  1.00  0.00     0.031 A 
ATOM     48  C   UNL     1       1.935  -0.713 -12.790  1.00  0.00     0.049 A 
ATOM     49  C   UNL     1       2.924  -5.617 -10.292  1.00  0.00     0.074 A 
ATOM     50  C   UNL     1       0.968  -0.701 -13.781  1.00  0.00     0.029 A 
ATOM     51  N   UNL     1       1.999  -2.010 -12.307  1.00  0.00    -0.354 N 
ATOM     52  N   UNL     1       2.593  -4.548 -10.974  1.00  0.00    -0.248 NA
ATOM     53  C   UNL     1       2.122  -6.807 -10.613  1.00  0.00     0.031 C 
ATOM     54  C   UNL     1       0.413  -1.981 -13.864  1.00  0.00     0.029 A 
ATOM     55  C   UNL     1       1.079  -2.804 -12.970  1.00  0.00     0.049 A 
ATOM     56  H   UNL     1       2.608  -2.321 -11.599  1.00  0.00     0.167 HD
ATOM     57  C   UNL     1       1.574  -4.947 -11.831  1.00  0.00     0.074 A 
ATOM     58  C   UNL     1       1.351  -6.357 -11.592  1.00  0.00     0.031 C 
ATOM     59  C   UNL     1       0.884  -4.210 -12.735  1.00  0.00     0.031 A 
BRANCH  46  60
ATOM     60  C   UNL     1       2.548   1.733 -12.935  1.00  0.00    -0.014 A 
ATOM     61  C   UNL     1       3.528   2.297 -13.769  1.00  0.00     0.009 A 
ATOM     62  C   UNL     1       1.352   2.436 -12.724  1.00  0.00     0.009 A 
ATOM     63  C   UNL     1       3.328   3.550 -14.351  1.00  0.00     0.001 A 
ATOM     64  C   UNL     1       1.141   3.675 -13.333  1.00  0.00     0.001 A 
ATOM     65  C   UNL     1       2.132   4.234 -14.138  1.00  0.00     0.000 A 
ENDBRANCH  46  60
BRANCH  47  66
ATOM     66  C   UNL     1       4.206  -7.102  -8.590  1.00  0.00    -0.014 A 
ATOM     67  C   UNL     1       4.674  -8.205  -9.321  1.00  0.00     0.009 A 
ATOM     68  C   UNL     1       3.892  -7.274  -7.233  1.00  0.00     0.009 A 
ATOM     69  C   UNL     1       4.779  -9.461  -8.718  1.00  0.00     0.001 A 
ATOM     70  C   UNL     1       4.032  -8.523  -6.624  1.00  0.00     0.001 A 
ATOM     71  C   UNL     1       4.461  -9.619  -7.371  1.00  0.00     0.000 A 
ENDBRANCH  47  66
BRANCH  59  72
ATOM     72  C   UNL     1      -0.133  -4.925 -13.581  1.00  0.00    -0.014 A 
ATOM     73  C   UNL     1      -1.349  -5.375 -13.045  1.00  0.00     0.009 A 
ATOM     74  C   UNL     1       0.113  -5.099 -14.953  1.00  0.00     0.009 A 
ATOM     75  C   UNL     1      -2.286  -6.012 -13.862  1.00  0.00     0.001 A 
ATOM     76  C   UNL     1      -0.839  -5.706 -15.773  1.00  0.00     0.001 A 
ATOM     77  C   UNL     1      -2.033  -6.170 -15.225  1.00  0.00     0.000 A 
ENDBRANCH  59  72
ENDBRANCH  33  34
ENDBRANCH  25  28
ENDBRANCH  23  24
ENDBRANCH  22  23
ENDBRANCH   1  22
TORSDOF 14
