REMARK SMILES C[C@H]1N=N[C@H](S/C(=C/c2ccc(-c3cccc(Cl)c3)o2)C(=O)NCCCNC(=O)c2ccc(-c3c4nc(c(-c5ccccc5)c5ccc([nH]5)c(-c5ccccc5)c5nc(c(-c6ccccc6)c6ccc3[nH]6)C=C5)C=C4)cc2)[NH2+]1
REMARK SMILES IDX 25 1 24 2 23 3 21 4 22 5 7 7 8 8 6 9 5 10 1 11 2 12 3 13
REMARK SMILES IDX 78 14 4 15 9 18 10 19 20 20 11 21 12 22 13 23 14 24 19 25
REMARK SMILES IDX 15 26 17 27 16 28 18 29 26 30 27 31 28 32 29 34 30 35 31 36
REMARK SMILES IDX 77 37 32 38 76 39 33 40 34 41 35 42 70 43 36 44 75 45 69 46
REMARK SMILES IDX 71 47 37 48 74 49 68 50 67 51 38 53 60 54 45 55 59 56 46 57
REMARK SMILES IDX 49 58 58 59 72 60 47 61 48 62 57 64 73 65 50 66 39 67 40 68
REMARK SMILES IDX 44 69 41 70 43 71 42 72 61 73 62 74 66 75 63 76 65 77 64 78
REMARK SMILES IDX 51 79 52 80 56 81 53 82 55 83 54 84
REMARK H PARENT 23 6 78 16 78 17 27 33 71 52 49 63
REMARK Flexibility Score: inf
ROOT
ATOM      1  C   UNL     1      -2.201 -10.051   1.327  1.00  0.00     0.042 C 
ENDROOT
BRANCH   1   2
ATOM      2  C   UNL     1      -1.947  -8.928   0.357  1.00  0.00     0.118 C 
BRANCH   2   3
ATOM      3  N   UNL     1      -2.825  -7.790   0.361  1.00  0.00    -0.352 N 
ATOM      4  C   UNL     1      -2.531  -6.538  -0.120  1.00  0.00     0.258 C 
ATOM      5  O   UNL     1      -3.476  -5.773  -0.330  1.00  0.00    -0.269 OA
ATOM      6  H   UNL     1      -3.722  -7.921   0.746  1.00  0.00     0.163 HD
BRANCH   4   7
ATOM      7  C   UNL     1      -1.096  -6.047  -0.259  1.00  0.00     0.084 C 
ATOM      8  C   UNL     1      -0.079  -6.597  -0.957  1.00  0.00     0.068 C 
BRANCH   7   9
ATOM      9  S   UNL     1      -0.859  -4.615   0.750  1.00  0.00    -0.030 SA
BRANCH   9  10
ATOM     10  C   UNL     1       0.525  -3.700   0.011  1.00  0.00     0.393 C 
ATOM     11  C   UNL     1       0.979  -0.180  -0.109  1.00  0.00     0.106 C 
ATOM     12  C   UNL     1       0.207  -1.491  -0.156  1.00  0.00     0.324 C 
ATOM     13  N   UNL     1       0.286  -2.071  -1.506  1.00  0.00    -0.126 NA
ATOM     14  N   UNL     1       0.756  -2.472   0.779  1.00  0.00    -0.293 N 
ATOM     15  N   UNL     1       0.417  -3.317  -1.411  1.00  0.00    -0.115 NA
ATOM     16  H   UNL     1       0.249  -2.477   1.665  1.00  0.00     0.350 HD
ATOM     17  H   UNL     1       1.724  -2.310   1.057  1.00  0.00     0.350 HD
ENDBRANCH   9  10
ENDBRANCH   7   9
BRANCH   8  18
ATOM     18  C   UNL     1      -0.107  -7.822  -1.678  1.00  0.00     0.128 A 
ATOM     19  C   UNL     1      -0.826  -8.236  -2.791  1.00  0.00     0.051 A 
ATOM     20  O   UNL     1       0.648  -8.903  -1.255  1.00  0.00    -0.457 OA
ATOM     21  C   UNL     1      -0.552  -9.618  -2.993  1.00  0.00     0.051 A 
ATOM     22  C   UNL     1       0.322 -10.000  -1.997  1.00  0.00     0.134 A 
BRANCH  22  23
ATOM     23  C   UNL     1       0.877 -11.282  -1.558  1.00  0.00     0.019 A 
ATOM     24  C   UNL     1       0.973 -12.357  -2.454  1.00  0.00     0.012 A 
ATOM     25  C   UNL     1       1.263 -11.497  -0.224  1.00  0.00     0.032 A 
ATOM     26  C   UNL     1       1.444 -13.608  -2.039  1.00  0.00     0.002 A 
ATOM     27  C   UNL     1       1.716 -12.754   0.192  1.00  0.00     0.041 A 
ATOM     28  C   UNL     1       1.811 -13.809  -0.711  1.00  0.00     0.020 A 
ATOM     29  Cl  UNL     1       2.145 -13.009   1.840  1.00  0.00    -0.084 Cl
ENDBRANCH  22  23
ENDBRANCH   8  18
ENDBRANCH   4   7
ENDBRANCH   2   3
ENDBRANCH   1   2
BRANCH   1  30
ATOM     30  C   UNL     1      -3.345 -10.985   0.973  1.00  0.00     0.118 C 
BRANCH  30  31
ATOM     31  N   UNL     1      -3.289 -11.584  -0.362  1.00  0.00    -0.352 N 
ATOM     32  C   UNL     1      -3.072 -12.866  -0.826  1.00  0.00     0.251 C 
ATOM     33  H   UNL     1      -3.437 -10.932  -1.084  1.00  0.00     0.163 HD
ATOM     34  O   UNL     1      -3.036 -13.057  -2.035  1.00  0.00    -0.269 OA
BRANCH  32  35
ATOM     35  C   UNL     1      -2.840 -14.007   0.096  1.00  0.00     0.039 A 
ATOM     36  C   UNL     1      -2.028 -15.072  -0.315  1.00  0.00     0.014 A 
ATOM     37  C   UNL     1      -3.413 -14.054   1.360  1.00  0.00     0.014 A 
ATOM     38  C   UNL     1      -1.718 -16.105   0.580  1.00  0.00     0.010 A 
ATOM     39  C   UNL     1      -2.961 -14.968   2.299  1.00  0.00     0.010 A 
ATOM     40  C   UNL     1      -2.132 -16.028   1.918  1.00  0.00    -0.014 A 
BRANCH  40  41
ATOM     41  C   UNL     1      -1.764 -17.046   2.939  1.00  0.00     0.031 A 
ATOM     42  C   UNL     1      -2.845 -17.736   3.737  1.00  0.00     0.074 A 
ATOM     43  C   UNL     1      -0.467 -17.273   3.229  1.00  0.00     0.049 A 
ATOM     44  N   UNL     1      -2.731 -18.550   4.758  1.00  0.00    -0.248 NA
ATOM     45  C   UNL     1      -4.241 -17.435   3.374  1.00  0.00     0.031 C 
ATOM     46  C   UNL     1       0.677 -16.627   2.583  1.00  0.00     0.029 A 
ATOM     47  N   UNL     1       0.107 -18.103   4.160  1.00  0.00    -0.354 N 
ATOM     48  C   UNL     1      -4.030 -18.820   5.171  1.00  0.00     0.074 A 
ATOM     49  C   UNL     1      -4.912 -18.025   4.350  1.00  0.00     0.031 C 
ATOM     50  C   UNL     1       1.814 -17.106   3.112  1.00  0.00     0.029 A 
ATOM     51  C   UNL     1       1.481 -18.057   4.167  1.00  0.00     0.049 A 
ATOM     52  H   UNL     1      -0.415 -18.676   4.766  1.00  0.00     0.167 HD
ATOM     53  C   UNL     1      -4.461 -19.682   6.122  1.00  0.00     0.031 A 
ATOM     54  C   UNL     1       2.373 -18.703   4.940  1.00  0.00     0.031 A 
ATOM     55  C   UNL     1      -3.586 -20.503   6.913  1.00  0.00     0.049 A 
ATOM     56  C   UNL     1       1.875 -19.664   5.983  1.00  0.00     0.074 A 
ATOM     57  C   UNL     1      -3.919 -21.470   7.846  1.00  0.00     0.029 A 
ATOM     58  N   UNL     1      -2.202 -20.456   6.858  1.00  0.00    -0.354 N 
ATOM     59  N   UNL     1       0.640 -19.971   6.303  1.00  0.00    -0.248 NA
ATOM     60  C   UNL     1       2.895 -20.386   6.756  1.00  0.00     0.031 C 
ATOM     61  C   UNL     1      -2.734 -21.971   8.393  1.00  0.00     0.029 A 
ATOM     62  C   UNL     1      -1.664 -21.363   7.754  1.00  0.00     0.049 A 
ATOM     63  H   UNL     1      -1.679 -19.865   6.269  1.00  0.00     0.167 HD
ATOM     64  C   UNL     1       0.736 -20.950   7.284  1.00  0.00     0.074 A 
ATOM     65  C   UNL     1       2.148 -21.193   7.496  1.00  0.00     0.031 C 
ATOM     66  C   UNL     1      -0.256 -21.594   7.946  1.00  0.00     0.031 A 
BRANCH  53  67
ATOM     67  C   UNL     1      -5.947 -19.786   6.344  1.00  0.00    -0.014 A 
ATOM     68  C   UNL     1      -6.796 -20.322   5.361  1.00  0.00     0.009 A 
ATOM     69  C   UNL     1      -6.505 -19.360   7.559  1.00  0.00     0.009 A 
ATOM     70  C   UNL     1      -8.176 -20.385   5.572  1.00  0.00     0.001 A 
ATOM     71  C   UNL     1      -7.880 -19.458   7.781  1.00  0.00     0.001 A 
ATOM     72  C   UNL     1      -8.716 -19.957   6.783  1.00  0.00     0.000 A 
ENDBRANCH  53  67
BRANCH  54  73
ATOM     73  C   UNL     1       3.831 -18.491   4.734  1.00  0.00    -0.014 A 
ATOM     74  C   UNL     1       4.628 -19.512   4.191  1.00  0.00     0.009 A 
ATOM     75  C   UNL     1       4.436 -17.273   5.079  1.00  0.00     0.009 A 
ATOM     76  C   UNL     1       6.003 -19.329   4.028  1.00  0.00     0.001 A 
ATOM     77  C   UNL     1       5.807 -17.081   4.885  1.00  0.00     0.001 A 
ATOM     78  C   UNL     1       6.590 -18.112   4.371  1.00  0.00     0.000 A 
ENDBRANCH  54  73
BRANCH  66  79
ATOM     79  C   UNL     1       0.151 -22.662   8.922  1.00  0.00    -0.014 A 
ATOM     80  C   UNL     1       0.774 -22.348  10.139  1.00  0.00     0.009 A 
ATOM     81  C   UNL     1      -0.128 -24.007   8.626  1.00  0.00     0.009 A 
ATOM     82  C   UNL     1       1.148 -23.363  11.021  1.00  0.00     0.001 A 
ATOM     83  C   UNL     1       0.215 -25.016   9.526  1.00  0.00     0.001 A 
ATOM     84  C   UNL     1       0.864 -24.695  10.716  1.00  0.00     0.000 A 
ENDBRANCH  66  79
ENDBRANCH  40  41
ENDBRANCH  32  35
ENDBRANCH  30  31
ENDBRANCH   1  30
TORSDOF 14
