REMARK SMILES O=C(NCCCNC(=O)[C@@H](Cc1cccc(F)c1)[C@H]1CCCCC[C@@H]1O)c1ccc(-c2c3nc(c(-c4ccccc4)c4ccc([nH]4)c(-c4ccccc4)c4nc(c(-c5ccccc5)c5ccc2[nH]5)C=C4)C=C3)cc1
REMARK SMILES IDX 6 1 5 2 4 3 3 4 1 5 2 6 27 8 28 9 74 10 29 11 73 12 30 13
REMARK SMILES IDX 31 14 32 15 67 16 33 17 72 18 66 19 68 20 34 21 71 22 65 23
REMARK SMILES IDX 64 24 35 26 57 27 42 28 56 29 43 30 46 31 55 32 69 33 44 34
REMARK SMILES IDX 45 35 54 37 70 38 47 39 36 40 37 41 41 42 38 43 40 44 39 45
REMARK SMILES IDX 58 46 59 47 63 48 60 49 62 50 61 51 48 52 49 53 53 54 50 55
REMARK SMILES IDX 52 56 51 57 7 58 8 59 9 61 10 62 11 63 12 64 13 65 18 66
REMARK SMILES IDX 14 67 16 68 15 69 17 70 19 71 20 72 21 73 22 74 25 76 24 77
REMARK SMILES IDX 23 78 26 80
REMARK H PARENT 3 7 68 25 46 36 7 60 26 81
REMARK Flexibility Score: 90.00
ROOT
ATOM      1  C   UNL     1       4.099   3.274  -2.244  1.00  0.00     0.117 C 
ENDROOT
BRANCH   1   2
ATOM      2  C   UNL     1       4.669   2.102  -1.453  1.00  0.00     0.042 C 
BRANCH   2   3
ATOM      3  C   UNL     1       4.183   2.021  -0.016  1.00  0.00     0.118 C 
BRANCH   3   4
ATOM      4  N   UNL     1       2.832   1.472   0.083  1.00  0.00    -0.352 N 
ATOM      5  O   UNL     1       1.145   0.004   0.192  1.00  0.00    -0.269 OA
ATOM      6  C   UNL     1       2.344   0.214   0.367  1.00  0.00     0.251 C 
ATOM      7  H   UNL     1       2.126   2.136  -0.089  1.00  0.00     0.163 HD
BRANCH   6   8
ATOM      8  C   UNL     1       3.200  -0.891   0.875  1.00  0.00     0.039 A 
ATOM      9  C   UNL     1       4.340  -0.645   1.629  1.00  0.00     0.014 A 
ATOM     10  C   UNL     1       2.803  -2.225   0.685  1.00  0.00     0.014 A 
ATOM     11  C   UNL     1       5.173  -1.685   2.017  1.00  0.00     0.010 A 
ATOM     12  C   UNL     1       3.554  -3.282   1.228  1.00  0.00     0.010 A 
ATOM     13  C   UNL     1       4.759  -3.019   1.890  1.00  0.00    -0.014 A 
BRANCH  13  14
ATOM     14  C   UNL     1       5.563  -4.054   2.598  1.00  0.00     0.031 A 
ATOM     15  C   UNL     1       6.239  -5.178   1.867  1.00  0.00     0.074 A 
ATOM     16  C   UNL     1       5.758  -3.898   3.926  1.00  0.00     0.049 A 
ATOM     17  N   UNL     1       7.075  -6.071   2.337  1.00  0.00    -0.248 NA
ATOM     18  C   UNL     1       5.941  -5.331   0.435  1.00  0.00     0.031 C 
ATOM     19  C   UNL     1       5.133  -2.856   4.752  1.00  0.00     0.029 A 
ATOM     20  N   UNL     1       6.577  -4.559   4.805  1.00  0.00    -0.354 N 
ATOM     21  C   UNL     1       7.394  -6.897   1.267  1.00  0.00     0.074 A 
ATOM     22  C   UNL     1       6.639  -6.418   0.128  1.00  0.00     0.031 C 
ATOM     23  C   UNL     1       5.668  -2.881   5.978  1.00  0.00     0.029 A 
ATOM     24  C   UNL     1       6.596  -3.999   6.062  1.00  0.00     0.049 A 
ATOM     25  H   UNL     1       7.099  -5.357   4.561  1.00  0.00     0.167 HD
ATOM     26  C   UNL     1       8.242  -7.954   1.238  1.00  0.00     0.031 A 
ATOM     27  C   UNL     1       7.270  -4.350   7.172  1.00  0.00     0.031 A 
ATOM     28  C   UNL     1       8.982  -8.433   2.378  1.00  0.00     0.049 A 
ATOM     29  C   UNL     1       8.181  -5.539   7.110  1.00  0.00     0.074 A 
ATOM     30  C   UNL     1       9.866  -9.497   2.448  1.00  0.00     0.029 A 
ATOM     31  N   UNL     1       8.925  -7.880   3.649  1.00  0.00    -0.354 N 
ATOM     32  N   UNL     1       8.483  -6.292   6.081  1.00  0.00    -0.248 NA
ATOM     33  C   UNL     1       8.838  -5.929   8.363  1.00  0.00     0.031 C 
ATOM     34  C   UNL     1      10.303  -9.619   3.772  1.00  0.00     0.029 A 
ATOM     35  C   UNL     1       9.742  -8.593   4.513  1.00  0.00     0.049 A 
ATOM     36  H   UNL     1       8.384  -7.097   3.901  1.00  0.00     0.167 HD
ATOM     37  C   UNL     1       9.369  -7.245   6.561  1.00  0.00     0.074 A 
ATOM     38  C   UNL     1       9.589  -6.944   7.962  1.00  0.00     0.031 C 
ATOM     39  C   UNL     1       9.938  -8.286   5.907  1.00  0.00     0.031 A 
BRANCH  26  40
ATOM     40  C   UNL     1       8.406  -8.683  -0.068  1.00  0.00    -0.014 A 
ATOM     41  C   UNL     1       9.107  -8.109  -1.141  1.00  0.00     0.009 A 
ATOM     42  C   UNL     1       7.908  -9.989  -0.207  1.00  0.00     0.009 A 
ATOM     43  C   UNL     1       9.285  -8.818  -2.332  1.00  0.00     0.001 A 
ATOM     44  C   UNL     1       8.110 -10.705  -1.389  1.00  0.00     0.001 A 
ATOM     45  C   UNL     1       8.792 -10.117  -2.453  1.00  0.00     0.000 A 
ENDBRANCH  26  40
BRANCH  27  46
ATOM     46  C   UNL     1       7.067  -3.602   8.442  1.00  0.00    -0.014 A 
ATOM     47  C   UNL     1       8.114  -2.882   9.037  1.00  0.00     0.009 A 
ATOM     48  C   UNL     1       5.814  -3.621   9.078  1.00  0.00     0.009 A 
ATOM     49  C   UNL     1       7.918  -2.226  10.256  1.00  0.00     0.001 A 
ATOM     50  C   UNL     1       5.610  -2.932  10.274  1.00  0.00     0.001 A 
ATOM     51  C   UNL     1       6.666  -2.247  10.870  1.00  0.00     0.000 A 
ENDBRANCH  27  46
BRANCH  39  52
ATOM     52  C   UNL     1      10.866  -9.155   6.707  1.00  0.00    -0.014 A 
ATOM     53  C   UNL     1      10.381 -10.002   7.717  1.00  0.00     0.009 A 
ATOM     54  C   UNL     1      12.245  -9.118   6.453  1.00  0.00     0.009 A 
ATOM     55  C   UNL     1      11.265 -10.755   8.490  1.00  0.00     0.001 A 
ATOM     56  C   UNL     1      13.124  -9.899   7.205  1.00  0.00     0.001 A 
ATOM     57  C   UNL     1      12.635 -10.706   8.232  1.00  0.00     0.000 A 
ENDBRANCH  39  52
ENDBRANCH  13  14
ENDBRANCH   6   8
ENDBRANCH   3   4
ENDBRANCH   2   3
ENDBRANCH   1   2
BRANCH   1  58
ATOM     58  N   UNL     1       5.118   4.263  -2.544  1.00  0.00    -0.356 N 
ATOM     59  C   UNL     1       6.011   4.413  -3.549  1.00  0.00     0.223 C 
ATOM     60  H   UNL     1       5.171   4.979  -1.870  1.00  0.00     0.163 HD
ATOM     61  O   UNL     1       6.757   5.396  -3.446  1.00  0.00    -0.275 OA
BRANCH  59  62
ATOM     62  C   UNL     1       6.164   3.488  -4.775  1.00  0.00     0.088 C 
BRANCH  62  63
ATOM     63  C   UNL     1       6.824   2.129  -4.438  1.00  0.00     0.049 C 
BRANCH  63  64
ATOM     64  C   UNL     1       6.143   0.794  -4.243  1.00  0.00    -0.044 A 
ATOM     65  C   UNL     1       6.974  -0.330  -4.060  1.00  0.00     0.004 A 
ATOM     66  C   UNL     1       4.766   0.577  -4.241  1.00  0.00     0.043 A 
ATOM     67  C   UNL     1       6.442  -1.608  -3.859  1.00  0.00     0.003 A 
ATOM     68  C   UNL     1       4.238  -0.694  -4.021  1.00  0.00     0.123 A 
ATOM     69  C   UNL     1       5.064  -1.788  -3.825  1.00  0.00     0.039 A 
ATOM     70  F   UNL     1       2.909  -0.848  -3.976  1.00  0.00    -0.207 F 
ENDBRANCH  63  64
ENDBRANCH  62  63
BRANCH  62  71
ATOM     71  C   UNL     1       5.026   3.637  -5.835  1.00  0.00     0.030 C 
BRANCH  71  72
ATOM     72  C   UNL     1       5.079   5.032  -6.537  1.00  0.00     0.007 C 
BRANCH  72  73
ATOM     73  C   UNL     1       6.293   5.311  -7.434  1.00  0.00     0.000 C 
BRANCH  73  74
ATOM     74  C   UNL     1       6.234   4.798  -8.871  1.00  0.00     0.000 CG0
ATOM     75  G   UNL     1       5.818   3.355  -9.120  1.00  0.00     0.000 G0
ENDBRANCH  73  74
ENDBRANCH  72  73
ENDBRANCH  71  72
BRANCH  71  76
ATOM     76  C   UNL     1       4.900   2.507  -6.878  1.00  0.00     0.118 C 
BRANCH  76  77
ATOM     77  C   UNL     1       5.984   2.405  -7.948  1.00  0.00     0.032 C 
BRANCH  77  78
ATOM     78  C   UNL     1       5.818   3.355  -9.120  1.00  0.00     0.003 CG0
ATOM     79  G   UNL     1       6.234   4.798  -8.871  1.00  0.00     0.000 G0
ENDBRANCH  77  78
ENDBRANCH  76  77
BRANCH  76  80
ATOM     80  O   UNL     1       3.593   2.535  -7.459  1.00  0.00    -0.393 OA
ATOM     81  H   UNL     1       3.480   3.357  -7.962  1.00  0.00     0.210 HD
ENDBRANCH  76  80
ENDBRANCH  71  76
ENDBRANCH  62  71
ENDBRANCH  59  62
ENDBRANCH   1  58
TORSDOF 14
