REMARK SMILES O=C(NCCCNC(=O)c1cc2c(c(S(=O)(=O)Nc3cc(C(F)(F)F)ccc3-n3cccn3)c1)CCC2)c1ccc(-c2c3nc(c(-c4ccccc4)c4ccc([nH]4)c(-c4ccccc4)c4nc(c(-c5ccccc5)c5ccc2[nH]5)C=C4)C=C3)cc1
REMARK SMILES IDX 6 1 5 2 4 3 3 4 1 5 2 6 38 8 39 9 85 10 40 11 84 12 41 13
REMARK SMILES IDX 42 14 43 15 78 16 44 17 83 18 77 19 79 20 45 21 82 22 76 23
REMARK SMILES IDX 75 24 46 26 68 27 53 28 67 29 54 30 57 31 66 32 80 33 55 34
REMARK SMILES IDX 56 35 65 37 81 38 58 39 47 40 48 41 52 42 49 43 51 44 50 45
REMARK SMILES IDX 69 46 70 47 74 48 71 49 73 50 72 51 59 52 60 53 64 54 61 55
REMARK SMILES IDX 63 56 62 57 7 58 8 59 9 61 10 62 11 63 34 64 12 65 14 66
REMARK SMILES IDX 13 67 37 68 35 69 36 70 15 71 16 72 17 73 18 74 19 76 20 77
REMARK SMILES IDX 28 78 21 79 27 80 26 81 29 82 30 83 33 84 31 85 32 86 22 87
REMARK SMILES IDX 23 88 24 89 25 90
REMARK H PARENT 3 7 79 25 57 36 7 60 18 75
REMARK Flexibility Score: inf
ROOT
ATOM      1  C   UNL     1       4.598   1.550   2.905  1.00  0.00     0.118 C 
ENDROOT
BRANCH   1   2
ATOM      2  C   UNL     1       5.083   1.353   1.468  1.00  0.00     0.042 C 
BRANCH   2   3
ATOM      3  C   UNL     1       4.679   0.037   0.808  1.00  0.00     0.118 C 
BRANCH   3   4
ATOM      4  N   UNL     1       3.251  -0.224   0.800  1.00  0.00    -0.352 N 
ATOM      5  O   UNL     1       1.122  -0.440   0.289  1.00  0.00    -0.269 OA
ATOM      6  C   UNL     1       2.189   0.113   0.006  1.00  0.00     0.251 C 
ATOM      7  H   UNL     1       2.977  -0.788   1.560  1.00  0.00     0.163 HD
BRANCH   6   8
ATOM      8  C   UNL     1       2.198   1.090  -1.123  1.00  0.00     0.039 A 
ATOM      9  C   UNL     1       3.312   1.761  -1.623  1.00  0.00     0.014 A 
ATOM     10  C   UNL     1       0.946   1.350  -1.723  1.00  0.00     0.014 A 
ATOM     11  C   UNL     1       3.174   2.682  -2.670  1.00  0.00     0.010 A 
ATOM     12  C   UNL     1       0.805   2.262  -2.772  1.00  0.00     0.010 A 
ATOM     13  C   UNL     1       1.922   2.942  -3.244  1.00  0.00    -0.014 A 
BRANCH  13  14
ATOM     14  C   UNL     1       1.863   3.813  -4.422  1.00  0.00     0.031 A 
ATOM     15  C   UNL     1       2.553   3.307  -5.644  1.00  0.00     0.074 A 
ATOM     16  C   UNL     1       1.125   4.935  -4.555  1.00  0.00     0.049 A 
ATOM     17  N   UNL     1       3.555   3.833  -6.271  1.00  0.00    -0.248 NA
ATOM     18  C   UNL     1       2.072   2.047  -6.227  1.00  0.00     0.031 C 
ATOM     19  C   UNL     1       0.096   5.456  -3.657  1.00  0.00     0.029 A 
ATOM     20  N   UNL     1       1.095   5.808  -5.610  1.00  0.00    -0.354 N 
ATOM     21  C   UNL     1       3.747   3.061  -7.416  1.00  0.00     0.074 A 
ATOM     22  C   UNL     1       2.868   1.923  -7.290  1.00  0.00     0.031 C 
ATOM     23  C   UNL     1      -0.594   6.433  -4.293  1.00  0.00     0.029 A 
ATOM     24  C   UNL     1       0.030   6.695  -5.582  1.00  0.00     0.049 A 
ATOM     25  H   UNL     1       1.770   5.806  -6.326  1.00  0.00     0.167 HD
ATOM     26  C   UNL     1       4.487   3.495  -8.475  1.00  0.00     0.031 A 
ATOM     27  C   UNL     1      -0.341   7.559  -6.558  1.00  0.00     0.031 A 
ATOM     28  C   UNL     1       5.321   4.618  -8.142  1.00  0.00     0.049 A 
ATOM     29  C   UNL     1       0.802   7.759  -7.474  1.00  0.00     0.074 A 
ATOM     30  C   UNL     1       6.314   4.869  -7.216  1.00  0.00     0.029 A 
ATOM     31  N   UNL     1       4.970   5.846  -8.647  1.00  0.00    -0.354 N 
ATOM     32  N   UNL     1       1.863   8.451  -7.180  1.00  0.00    -0.248 NA
ATOM     33  C   UNL     1       0.908   6.928  -8.662  1.00  0.00     0.031 C 
ATOM     34  C   UNL     1       6.160   6.245  -6.869  1.00  0.00     0.029 A 
ATOM     35  C   UNL     1       5.099   6.747  -7.624  1.00  0.00     0.049 A 
ATOM     36  H   UNL     1       4.681   6.041  -9.567  1.00  0.00     0.167 HD
ATOM     37  C   UNL     1       2.890   7.829  -7.870  1.00  0.00     0.074 A 
ATOM     38  C   UNL     1       2.224   7.003  -8.870  1.00  0.00     0.031 C 
ATOM     39  C   UNL     1       4.165   7.822  -7.379  1.00  0.00     0.031 A 
BRANCH  26  40
ATOM     40  C   UNL     1       4.201   3.131  -9.913  1.00  0.00    -0.014 A 
ATOM     41  C   UNL     1       5.088   3.572 -10.915  1.00  0.00     0.009 A 
ATOM     42  C   UNL     1       2.959   2.631 -10.346  1.00  0.00     0.009 A 
ATOM     43  C   UNL     1       4.718   3.587 -12.266  1.00  0.00     0.001 A 
ATOM     44  C   UNL     1       2.606   2.599 -11.699  1.00  0.00     0.001 A 
ATOM     45  C   UNL     1       3.473   3.107 -12.656  1.00  0.00     0.000 A 
ENDBRANCH  26  40
BRANCH  27  46
ATOM     46  C   UNL     1      -1.667   8.135  -6.861  1.00  0.00    -0.014 A 
ATOM     47  C   UNL     1      -1.784   9.296  -7.643  1.00  0.00     0.009 A 
ATOM     48  C   UNL     1      -2.835   7.396  -6.604  1.00  0.00     0.009 A 
ATOM     49  C   UNL     1      -3.018   9.682  -8.181  1.00  0.00     0.001 A 
ATOM     50  C   UNL     1      -4.069   7.786  -7.135  1.00  0.00     0.001 A 
ATOM     51  C   UNL     1      -4.157   8.919  -7.936  1.00  0.00     0.000 A 
ENDBRANCH  27  46
BRANCH  39  52
ATOM     52  C   UNL     1       4.515   8.790  -6.278  1.00  0.00    -0.014 A 
ATOM     53  C   UNL     1       3.814   8.857  -5.061  1.00  0.00     0.009 A 
ATOM     54  C   UNL     1       5.668   9.578  -6.423  1.00  0.00     0.009 A 
ATOM     55  C   UNL     1       4.223   9.724  -4.044  1.00  0.00     0.001 A 
ATOM     56  C   UNL     1       6.094  10.423  -5.396  1.00  0.00     0.001 A 
ATOM     57  C   UNL     1       5.365  10.504  -4.212  1.00  0.00     0.000 A 
ENDBRANCH  39  52
ENDBRANCH  13  14
ENDBRANCH   6   8
ENDBRANCH   3   4
ENDBRANCH   2   3
ENDBRANCH   1   2
BRANCH   1  58
ATOM     58  N   UNL     1       5.263   0.707   3.898  1.00  0.00    -0.352 N 
ATOM     59  C   UNL     1       5.997   1.043   5.024  1.00  0.00     0.251 C 
ATOM     60  H   UNL     1       5.176  -0.260   3.740  1.00  0.00     0.163 HD
ATOM     61  O   UNL     1       6.512   0.164   5.706  1.00  0.00    -0.269 OA
BRANCH  59  62
ATOM     62  C   UNL     1       6.205   2.467   5.386  1.00  0.00     0.041 A 
ATOM     63  C   UNL     1       5.114   3.333   5.407  1.00  0.00     0.018 A 
ATOM     64  C   UNL     1       7.520   2.953   5.582  1.00  0.00     0.036 A 
ATOM     65  C   UNL     1       5.375   4.684   5.335  1.00  0.00    -0.043 A 
ATOM     66  C   UNL     1       7.772   4.341   5.582  1.00  0.00     0.092 A 
ATOM     67  C   UNL     1       6.692   5.179   5.331  1.00  0.00    -0.024 A 
ATOM     68  C   UNL     1       4.374   5.765   5.054  1.00  0.00     0.036 C 
ATOM     69  C   UNL     1       6.648   6.592   4.837  1.00  0.00     0.037 C 
ATOM     70  C   UNL     1       5.236   7.010   5.251  1.00  0.00     0.010 C 
BRANCH  66  71
ATOM     71  S   UNL     1       9.458   4.925   5.581  1.00  0.00     0.262 S 
ATOM     72  O   UNL     1      10.316   3.776   5.713  1.00  0.00    -0.201 OA
ATOM     73  O   UNL     1       9.616   5.815   4.439  1.00  0.00    -0.201 OA
BRANCH  71  74
ATOM     74  N   UNL     1       9.783   5.852   6.981  1.00  0.00    -0.277 N 
ATOM     75  H   UNL     1      10.549   5.611   7.551  1.00  0.00     0.180 HD
BRANCH  74  76
ATOM     76  C   UNL     1       8.965   6.973   7.343  1.00  0.00     0.075 A 
ATOM     77  C   UNL     1       9.175   8.208   6.706  1.00  0.00     0.042 A 
ATOM     78  C   UNL     1       7.866   6.822   8.204  1.00  0.00     0.089 A 
ATOM     79  C   UNL     1       8.262   9.272   6.870  1.00  0.00     0.058 A 
ATOM     80  C   UNL     1       6.971   7.888   8.394  1.00  0.00     0.031 A 
ATOM     81  C   UNL     1       7.171   9.103   7.736  1.00  0.00     0.015 A 
BRANCH  78  82
ATOM     82  N   UNL     1       7.599   5.592   8.854  1.00  0.00    -0.239 N 
ATOM     83  C   UNL     1       8.499   4.631   9.261  1.00  0.00     0.115 A 
ATOM     84  N   UNL     1       6.321   5.193   9.080  1.00  0.00    -0.177 NA
ATOM     85  C   UNL     1       7.774   3.506   9.564  1.00  0.00     0.042 A 
ATOM     86  C   UNL     1       6.438   3.902   9.405  1.00  0.00     0.135 A 
ENDBRANCH  78  82
BRANCH  79  87
ATOM     87  C   UNL     1       8.411  10.542   6.063  1.00  0.00     0.416 C 
ATOM     88  F   UNL     1       9.445  11.315   6.488  1.00  0.00    -0.166 F 
ATOM     89  F   UNL     1       8.640  10.294   4.744  1.00  0.00    -0.166 F 
ATOM     90  F   UNL     1       7.304  11.338   6.099  1.00  0.00    -0.166 F 
ENDBRANCH  79  87
ENDBRANCH  74  76
ENDBRANCH  71  74
ENDBRANCH  66  71
ENDBRANCH  59  62
ENDBRANCH   1  58
TORSDOF 15
