REMARK SMILES O=C(NCc1ccsc1)NC[C@H]1CC[C@@H](C(=O)NCCCNC(=O)c2ccc(-c3c4nc(c(-c5ccccc5)c5ccc([nH]5)c(-c5ccccc5)c5nc(c(-c6ccccc6)c6ccc3[nH]6)C=C5)C=C4)cc2)CC1
REMARK SMILES IDX 19 1 18 2 16 3 17 4 15 6 12 7 13 8 74 9 14 10 73 11 11 12
REMARK SMILES IDX 10 13 1 14 2 15 3 16 4 19 5 20 6 21 9 22 7 23 8 24 20 25
REMARK SMILES IDX 21 26 22 27 23 28 24 30 25 31 26 32 72 33 27 34 71 35 28 36
REMARK SMILES IDX 29 37 30 38 65 39 31 40 70 41 64 42 66 43 32 44 69 45 63 46
REMARK SMILES IDX 62 47 33 49 55 50 40 51 54 52 41 53 44 54 53 55 67 56 42 57
REMARK SMILES IDX 43 58 52 60 68 61 45 62 34 63 35 64 39 65 36 66 38 67 37 68
REMARK SMILES IDX 56 69 57 70 61 71 58 72 60 73 59 74 46 75 47 76 51 77 48 78
REMARK SMILES IDX 50 79 49 80
REMARK H PARENT 18 5 3 17 10 18 22 29 66 48 44 59
REMARK Flexibility Score: inf
ROOT
ATOM      1  C   UNL     1      -0.121  -2.115   2.462  1.00  0.00     0.117 C 
ENDROOT
BRANCH   1   2
ATOM      2  N   UNL     1      -0.144  -3.462   2.983  1.00  0.00    -0.356 N 
ATOM      3  C   UNL     1       0.673  -4.134   3.826  1.00  0.00     0.223 C 
ATOM      4  O   UNL     1       0.339  -5.301   4.072  1.00  0.00    -0.275 OA
ATOM      5  H   UNL     1      -0.906  -3.997   2.661  1.00  0.00     0.163 HD
BRANCH   3   6
ATOM      6  C   UNL     1       1.966  -3.581   4.451  1.00  0.00     0.078 C 
ATOM      7  C   UNL     1       3.256  -0.949   3.663  1.00  0.00     0.008 C 
ATOM      8  C   UNL     1       2.223  -1.001   4.810  1.00  0.00     0.006 C 
ATOM      9  C   UNL     1       3.333  -2.206   2.786  1.00  0.00     0.006 C 
ATOM     10  C   UNL     1       1.861  -2.373   5.378  1.00  0.00     0.014 C 
ATOM     11  C   UNL     1       3.162  -3.524   3.514  1.00  0.00     0.014 C 
BRANCH   7  12
ATOM     12  C   UNL     1       3.005   0.331   2.817  1.00  0.00     0.121 C 
BRANCH  12  13
ATOM     13  N   UNL     1       3.654   0.318   1.517  1.00  0.00    -0.338 N 
ATOM     14  O   UNL     1       1.811   0.983   0.349  1.00  0.00    -0.249 OA
ATOM     15  C   UNL     1       2.975   0.616   0.372  1.00  0.00     0.315 C 
ATOM     16  N   UNL     1       3.621   0.444  -0.803  1.00  0.00    -0.334 N 
ATOM     17  H   UNL     1       3.049   0.539  -1.598  1.00  0.00     0.165 HD
ATOM     18  H   UNL     1       4.609   0.087   1.461  1.00  0.00     0.165 HD
BRANCH  16  19
ATOM     19  C   UNL     1       5.001   0.145  -1.094  1.00  0.00     0.154 C 
BRANCH  19  20
ATOM     20  C   UNL     1       5.100  -1.153  -1.831  1.00  0.00    -0.018 A 
ATOM     21  C   UNL     1       4.544  -2.406  -1.400  1.00  0.00     0.017 A 
ATOM     22  C   UNL     1       5.791  -1.317  -3.020  1.00  0.00     0.070 A 
ATOM     23  C   UNL     1       4.846  -3.445  -2.253  1.00  0.00     0.065 A 
ATOM     24  S   UNL     1       5.782  -2.929  -3.585  1.00  0.00    -0.152 S 
ENDBRANCH  19  20
ENDBRANCH  16  19
ENDBRANCH  12  13
ENDBRANCH   7  12
ENDBRANCH   3   6
ENDBRANCH   1   2
BRANCH   1  25
ATOM     25  C   UNL     1       0.278  -2.065   0.996  1.00  0.00     0.042 C 
BRANCH  25  26
ATOM     26  C   UNL     1      -0.865  -1.780   0.039  1.00  0.00     0.118 C 
BRANCH  26  27
ATOM     27  N   UNL     1      -1.478  -0.472   0.237  1.00  0.00    -0.352 N 
ATOM     28  C   UNL     1      -1.498   0.665  -0.537  1.00  0.00     0.251 C 
ATOM     29  H   UNL     1      -1.970  -0.386   1.085  1.00  0.00     0.163 HD
ATOM     30  O   UNL     1      -2.006   1.686  -0.075  1.00  0.00    -0.269 OA
BRANCH  28  31
ATOM     31  C   UNL     1      -0.943   0.691  -1.912  1.00  0.00     0.039 A 
ATOM     32  C   UNL     1      -0.373   1.876  -2.392  1.00  0.00     0.014 A 
ATOM     33  C   UNL     1      -1.033  -0.410  -2.762  1.00  0.00     0.014 A 
ATOM     34  C   UNL     1       0.153   1.932  -3.688  1.00  0.00     0.010 A 
ATOM     35  C   UNL     1      -0.397  -0.396  -3.999  1.00  0.00     0.010 A 
ATOM     36  C   UNL     1       0.181   0.782  -4.490  1.00  0.00    -0.014 A 
BRANCH  36  37
ATOM     37  C   UNL     1       0.763   0.778  -5.859  1.00  0.00     0.031 A 
ATOM     38  C   UNL     1      -0.092   0.388  -7.039  1.00  0.00     0.074 A 
ATOM     39  C   UNL     1       2.075   1.032  -6.036  1.00  0.00     0.049 A 
ATOM     40  N   UNL     1       0.257   0.187  -8.285  1.00  0.00    -0.248 NA
ATOM     41  C   UNL     1      -1.522   0.155  -6.775  1.00  0.00     0.031 C 
ATOM     42  C   UNL     1       3.026   1.386  -4.980  1.00  0.00     0.029 A 
ATOM     43  N   UNL     1       2.839   1.017  -7.176  1.00  0.00    -0.354 N 
ATOM     44  C   UNL     1      -0.897  -0.234  -8.937  1.00  0.00     0.074 A 
ATOM     45  C   UNL     1      -1.943  -0.310  -7.941  1.00  0.00     0.031 C 
ATOM     46  C   UNL     1       4.238   1.577  -5.524  1.00  0.00     0.029 A 
ATOM     47  C   UNL     1       4.161   1.315  -6.958  1.00  0.00     0.049 A 
ATOM     48  H   UNL     1       2.473   0.811  -8.067  1.00  0.00     0.167 HD
ATOM     49  C   UNL     1      -1.081  -0.510 -10.250  1.00  0.00     0.031 A 
ATOM     50  C   UNL     1       5.199   1.366  -7.813  1.00  0.00     0.031 A 
ATOM     51  C   UNL     1      -0.054  -0.395 -11.249  1.00  0.00     0.049 A 
ATOM     52  C   UNL     1       4.969   1.070  -9.269  1.00  0.00     0.074 A 
ATOM     53  C   UNL     1      -0.157  -0.580 -12.617  1.00  0.00     0.029 A 
ATOM     54  N   UNL     1       1.264  -0.058 -10.986  1.00  0.00    -0.354 N 
ATOM     55  N   UNL     1       3.858   0.733  -9.877  1.00  0.00    -0.248 NA
ATOM     56  C   UNL     1       6.136   1.175 -10.156  1.00  0.00     0.031 C 
ATOM     57  C   UNL     1       1.111  -0.398 -13.177  1.00  0.00     0.029 A 
ATOM     58  C   UNL     1       1.990  -0.047 -12.165  1.00  0.00     0.049 A 
ATOM     59  H   UNL     1       1.630   0.144 -10.095  1.00  0.00     0.167 HD
ATOM     60  C   UNL     1       4.185   0.612 -11.222  1.00  0.00     0.074 A 
ATOM     61  C   UNL     1       5.594   0.928 -11.341  1.00  0.00     0.031 C 
ATOM     62  C   UNL     1       3.390   0.271 -12.265  1.00  0.00     0.031 A 
BRANCH  49  63
ATOM     63  C   UNL     1      -2.451  -0.962 -10.680  1.00  0.00    -0.014 A 
ATOM     64  C   UNL     1      -3.546  -0.083 -10.672  1.00  0.00     0.009 A 
ATOM     65  C   UNL     1      -2.642  -2.278 -11.129  1.00  0.00     0.009 A 
ATOM     66  C   UNL     1      -4.812  -0.524 -11.064  1.00  0.00     0.001 A 
ATOM     67  C   UNL     1      -3.902  -2.708 -11.550  1.00  0.00     0.001 A 
ATOM     68  C   UNL     1      -4.988  -1.834 -11.507  1.00  0.00     0.000 A 
ENDBRANCH  49  63
BRANCH  50  69
ATOM     69  C   UNL     1       6.552   1.732  -7.319  1.00  0.00    -0.014 A 
ATOM     70  C   UNL     1       7.110   2.979  -7.641  1.00  0.00     0.009 A 
ATOM     71  C   UNL     1       7.292   0.839  -6.530  1.00  0.00     0.009 A 
ATOM     72  C   UNL     1       8.393   3.313  -7.203  1.00  0.00     0.001 A 
ATOM     73  C   UNL     1       8.563   1.188  -6.069  1.00  0.00     0.001 A 
ATOM     74  C   UNL     1       9.117   2.420  -6.413  1.00  0.00     0.000 A 
ENDBRANCH  50  69
BRANCH  62  75
ATOM     75  C   UNL     1       4.016   0.258 -13.630  1.00  0.00    -0.014 A 
ATOM     76  C   UNL     1       4.913  -0.751 -14.012  1.00  0.00     0.009 A 
ATOM     77  C   UNL     1       3.666   1.248 -14.562  1.00  0.00     0.009 A 
ATOM     78  C   UNL     1       5.471  -0.750 -15.291  1.00  0.00     0.001 A 
ATOM     79  C   UNL     1       4.203   1.230 -15.850  1.00  0.00     0.001 A 
ATOM     80  C   UNL     1       5.112   0.236 -16.210  1.00  0.00     0.000 A 
ENDBRANCH  62  75
ENDBRANCH  36  37
ENDBRANCH  28  31
ENDBRANCH  26  27
ENDBRANCH  25  26
ENDBRANCH   1  25
TORSDOF 14
