REMARK SMILES CC(C)[C@H](NC(=O)OCc1ccccc1)C(=O)NCC(=O)NCCCNC(=O)c1ccc(-c2c3nc(c(-c4ccccc4)c4ccc([nH]4)c(-c4ccccc4)c4nc(c(-c5ccccc5)c5ccc2[nH]5)C=C4)C=C3)cc1
REMARK SMILES IDX 20 1 21 2 22 3 19 5 18 6 16 7 17 8 4 10 2 11 1 12 3 13 5 14
REMARK SMILES IDX 6 15 7 17 8 18 9 19 10 20 11 21 15 22 12 23 14 24 13 25
REMARK SMILES IDX 23 26 24 27 25 28 26 29 27 30 28 32 29 33 30 34 76 35 31 36
REMARK SMILES IDX 75 37 32 38 33 39 34 40 69 41 35 42 74 43 68 44 70 45 36 46
REMARK SMILES IDX 73 47 67 48 66 49 37 51 59 52 44 53 58 54 45 55 48 56 57 57
REMARK SMILES IDX 71 58 46 59 47 60 56 62 72 63 49 64 38 65 39 66 43 67 40 68
REMARK SMILES IDX 42 69 41 70 60 71 61 72 65 73 62 74 64 75 63 76 50 77 51 78
REMARK SMILES IDX 55 79 52 80 54 81 53 82
REMARK H PARENT 22 4 18 9 5 16 26 31 70 50 48 61
REMARK Flexibility Score: inf
ROOT
ATOM      1  C   UNL     1       0.660   2.498   4.383  1.00  0.00     0.239 C 
ATOM      2  O   UNL     1       0.905   2.428   5.591  1.00  0.00    -0.273 OA
ATOM      3  N   UNL     1       1.604   3.086   3.591  1.00  0.00    -0.355 N 
ATOM      4  H   UNL     1       2.284   3.615   4.068  1.00  0.00     0.163 HD
ENDROOT
BRANCH   1   5
ATOM      5  C   UNL     1      -0.577   1.790   3.800  1.00  0.00     0.216 C 
BRANCH   5   6
ATOM      6  N   UNL     1      -1.238   2.482   2.711  1.00  0.00    -0.345 N 
ATOM      7  C   UNL     1      -1.580   2.087   1.458  1.00  0.00     0.243 C 
ATOM      8  O   UNL     1      -2.047   2.969   0.726  1.00  0.00    -0.273 OA
ATOM      9  H   UNL     1      -1.485   3.412   2.919  1.00  0.00     0.164 HD
BRANCH   7  10
ATOM     10  C   UNL     1      -1.350   0.659   0.886  1.00  0.00     0.177 C 
BRANCH  10  11
ATOM     11  C   UNL     1      -2.114  -0.493   1.566  1.00  0.00     0.015 C 
ATOM     12  C   UNL     1      -3.582  -0.124   1.812  1.00  0.00     0.010 C 
ATOM     13  C   UNL     1      -2.066  -1.749   0.681  1.00  0.00     0.010 C 
ENDBRANCH  10  11
BRANCH  10  14
ATOM     14  N   UNL     1       0.066   0.443   0.565  1.00  0.00    -0.309 N 
ATOM     15  C   UNL     1       1.075  -0.140   1.266  1.00  0.00     0.408 C 
ATOM     16  H   UNL     1       0.334   0.782  -0.320  1.00  0.00     0.167 HD
ATOM     17  O   UNL     1       2.240   0.115   0.982  1.00  0.00    -0.225 OA
BRANCH  15  18
ATOM     18  O   UNL     1       0.670  -0.920   2.290  1.00  0.00    -0.445 OA
BRANCH  18  19
ATOM     19  C   UNL     1       1.698  -1.363   3.190  1.00  0.00     0.270 C 
BRANCH  19  20
ATOM     20  C   UNL     1       2.498  -2.511   2.634  1.00  0.00    -0.011 A 
ATOM     21  C   UNL     1       1.950  -3.797   2.551  1.00  0.00     0.007 A 
ATOM     22  C   UNL     1       3.802  -2.295   2.167  1.00  0.00     0.007 A 
ATOM     23  C   UNL     1       2.698  -4.846   2.013  1.00  0.00     0.000 A 
ATOM     24  C   UNL     1       4.545  -3.341   1.624  1.00  0.00     0.000 A 
ATOM     25  C   UNL     1       3.993  -4.617   1.548  1.00  0.00     0.000 A 
ENDBRANCH  19  20
ENDBRANCH  18  19
ENDBRANCH  15  18
ENDBRANCH  10  14
ENDBRANCH   7  10
ENDBRANCH   5   6
ENDBRANCH   1   5
BRANCH   3  26
ATOM     26  C   UNL     1       1.751   3.044   2.152  1.00  0.00     0.117 C 
BRANCH  26  27
ATOM     27  C   UNL     1       1.601   4.397   1.480  1.00  0.00     0.042 C 
BRANCH  27  28
ATOM     28  C   UNL     1       2.845   5.266   1.595  1.00  0.00     0.118 C 
BRANCH  28  29
ATOM     29  N   UNL     1       3.989   4.723   0.868  1.00  0.00    -0.352 N 
ATOM     30  C   UNL     1       4.759   5.273  -0.128  1.00  0.00     0.251 C 
ATOM     31  H   UNL     1       4.253   3.813   1.136  1.00  0.00     0.163 HD
ATOM     32  O   UNL     1       5.598   4.585  -0.701  1.00  0.00    -0.269 OA
BRANCH  30  33
ATOM     33  C   UNL     1       4.562   6.679  -0.540  1.00  0.00     0.039 A 
ATOM     34  C   UNL     1       4.582   6.991  -1.903  1.00  0.00     0.014 A 
ATOM     35  C   UNL     1       4.355   7.686   0.403  1.00  0.00     0.014 A 
ATOM     36  C   UNL     1       4.300   8.293  -2.322  1.00  0.00     0.010 A 
ATOM     37  C   UNL     1       3.987   8.960  -0.016  1.00  0.00     0.010 A 
ATOM     38  C   UNL     1       3.948   9.274  -1.382  1.00  0.00    -0.014 A 
BRANCH  38  39
ATOM     39  C   UNL     1       3.510  10.629  -1.800  1.00  0.00     0.031 A 
ATOM     40  C   UNL     1       4.291  11.841  -1.375  1.00  0.00     0.074 A 
ATOM     41  C   UNL     1       2.353  10.773  -2.475  1.00  0.00     0.049 A 
ATOM     42  N   UNL     1       4.003  13.107  -1.540  1.00  0.00    -0.248 NA
ATOM     43  C   UNL     1       5.541  11.600  -0.638  1.00  0.00     0.031 C 
ATOM     44  C   UNL     1       1.474   9.680  -2.900  1.00  0.00     0.029 A 
ATOM     45  N   UNL     1       1.709  11.904  -2.909  1.00  0.00    -0.354 N 
ATOM     46  C   UNL     1       5.016  13.810  -0.901  1.00  0.00     0.074 A 
ATOM     47  C   UNL     1       5.904  12.831  -0.312  1.00  0.00     0.031 C 
ATOM     48  C   UNL     1       0.419  10.193  -3.552  1.00  0.00     0.029 A 
ATOM     49  C   UNL     1       0.525  11.648  -3.556  1.00  0.00     0.049 A 
ATOM     50  H   UNL     1       2.062  12.813  -2.770  1.00  0.00     0.167 HD
ATOM     51  C   UNL     1       5.200  15.149  -0.824  1.00  0.00     0.031 A 
ATOM     52  C   UNL     1      -0.383  12.490  -4.084  1.00  0.00     0.031 A 
ATOM     53  C   UNL     1       4.334  16.121  -1.434  1.00  0.00     0.049 A 
ATOM     54  C   UNL     1      -0.148  13.970  -4.000  1.00  0.00     0.074 A 
ATOM     55  C   UNL     1       4.481  17.497  -1.482  1.00  0.00     0.029 A 
ATOM     56  N   UNL     1       3.159  15.819  -2.103  1.00  0.00    -0.354 N 
ATOM     57  N   UNL     1       0.852  14.616  -3.451  1.00  0.00    -0.248 NA
ATOM     58  C   UNL     1      -1.164  14.836  -4.614  1.00  0.00     0.031 C 
ATOM     59  C   UNL     1       3.371  18.030  -2.147  1.00  0.00     0.029 A 
ATOM     60  C   UNL     1       2.557  16.984  -2.548  1.00  0.00     0.049 A 
ATOM     61  H   UNL     1       2.805  14.911  -2.242  1.00  0.00     0.167 HD
ATOM     62  C   UNL     1       0.593  15.963  -3.666  1.00  0.00     0.074 A 
ATOM     63  C   UNL     1      -0.647  16.040  -4.411  1.00  0.00     0.031 C 
ATOM     64  C   UNL     1       1.318  17.040  -3.279  1.00  0.00     0.031 A 
BRANCH  51  65
ATOM     65  C   UNL     1       6.387  15.637  -0.043  1.00  0.00    -0.014 A 
ATOM     66  C   UNL     1       7.694  15.479  -0.531  1.00  0.00     0.009 A 
ATOM     67  C   UNL     1       6.194  16.283   1.188  1.00  0.00     0.009 A 
ATOM     68  C   UNL     1       8.786  15.923   0.217  1.00  0.00     0.001 A 
ATOM     69  C   UNL     1       7.287  16.750   1.921  1.00  0.00     0.001 A 
ATOM     70  C   UNL     1       8.582  16.561   1.440  1.00  0.00     0.000 A 
ENDBRANCH  51  65
BRANCH  52  71
ATOM     71  C   UNL     1      -1.593  11.948  -4.751  1.00  0.00    -0.014 A 
ATOM     72  C   UNL     1      -1.705  11.980  -6.149  1.00  0.00     0.009 A 
ATOM     73  C   UNL     1      -2.636  11.387  -3.997  1.00  0.00     0.009 A 
ATOM     74  C   UNL     1      -2.846  11.478  -6.779  1.00  0.00     0.001 A 
ATOM     75  C   UNL     1      -3.765  10.865  -4.631  1.00  0.00     0.001 A 
ATOM     76  C   UNL     1      -3.872  10.917  -6.020  1.00  0.00     0.000 A 
ENDBRANCH  52  71
BRANCH  64  77
ATOM     77  C   UNL     1       0.792  18.391  -3.668  1.00  0.00    -0.014 A 
ATOM     78  C   UNL     1      -0.308  18.957  -3.006  1.00  0.00     0.009 A 
ATOM     79  C   UNL     1       1.427  19.119  -4.686  1.00  0.00     0.009 A 
ATOM     80  C   UNL     1      -0.780  20.218  -3.376  1.00  0.00     0.001 A 
ATOM     81  C   UNL     1       0.967  20.389  -5.037  1.00  0.00     0.001 A 
ATOM     82  C   UNL     1      -0.139  20.934  -4.387  1.00  0.00     0.000 A 
ENDBRANCH  64  77
ENDBRANCH  38  39
ENDBRANCH  30  33
ENDBRANCH  28  29
ENDBRANCH  27  28
ENDBRANCH  26  27
ENDBRANCH   3  26
TORSDOF 17
