REMARK SMILES CC(C)[NH2+][C@]1(C(=O)NCCCNC(=O)c2ccc(-c3c4nc(c(-c5ccccc5)c5ccc([nH]5)c(-c5ccccc5)c5nc(c(-c6ccccc6)c6ccc3[nH]6)C=C5)C=C4)cc2)CCC[C@H]([N@H+](C)C2CCCCC2)C1
REMARK SMILES IDX 10 1 9 2 8 3 6 4 7 5 5 7 63 8 75 9 64 10 66 11 65 12 4 13
REMARK SMILES IDX 2 16 1 17 3 18 67 19 68 20 69 22 70 23 74 24 71 25 73 26
REMARK SMILES IDX 72 27 11 28 12 29 13 30 14 32 15 33 16 34 62 35 17 36 61 37
REMARK SMILES IDX 18 38 19 39 20 40 55 41 21 42 60 43 54 44 56 45 22 46 59 47
REMARK SMILES IDX 53 48 52 49 23 51 45 52 30 53 44 54 31 55 34 56 43 57 57 58
REMARK SMILES IDX 32 59 33 60 42 62 58 63 35 64 24 65 25 66 29 67 26 68 28 69
REMARK SMILES IDX 27 70 46 71 47 72 51 73 48 74 50 75 49 76 36 77 37 78 41 79
REMARK SMILES IDX 38 80 40 81 39 82
REMARK H PARENT 8 6 4 14 4 15 67 21 12 31 56 50 34 61
REMARK Flexibility Score: inf
ROOT
ATOM      1  C   UNL     1       1.848  -1.508  -3.025  1.00  0.00     0.042 C 
ENDROOT
BRANCH   1   2
ATOM      2  C   UNL     1       1.593  -2.214  -1.701  1.00  0.00     0.118 C 
BRANCH   2   3
ATOM      3  N   UNL     1       0.734  -1.492  -0.754  1.00  0.00    -0.351 N 
ATOM      4  C   UNL     1      -0.582  -1.697  -0.355  1.00  0.00     0.281 C 
ATOM      5  O   UNL     1      -1.030  -0.984   0.543  1.00  0.00    -0.268 OA
ATOM      6  H   UNL     1       1.170  -0.722  -0.322  1.00  0.00     0.163 HD
BRANCH   4   7
ATOM      7  C   UNL     1      -1.443  -2.805  -1.069  1.00  0.00     0.181 C 
ATOM      8  C   UNL     1      -0.753  -4.127  -0.553  1.00  0.00     0.079 C 
ATOM      9  C   UNL     1      -2.935  -2.976  -0.633  1.00  0.00     0.144 C 
ATOM     10  C   UNL     1      -1.394  -5.463  -0.882  1.00  0.00     0.013 C 
ATOM     11  C   UNL     1      -3.654  -4.334  -0.980  1.00  0.00     0.190 C 
ATOM     12  C   UNL     1      -2.832  -5.497  -0.408  1.00  0.00     0.065 C 
BRANCH   7  13
ATOM     13  N   UNL     1      -1.447  -2.449  -2.511  1.00  0.00    -0.331 N 
ATOM     14  H   UNL     1      -0.533  -2.703  -2.885  1.00  0.00     0.347 HD
ATOM     15  H   UNL     1      -2.249  -2.955  -2.886  1.00  0.00     0.347 HD
BRANCH  13  16
ATOM     16  C   UNL     1      -1.702  -1.035  -2.905  1.00  0.00     0.176 C 
ATOM     17  C   UNL     1      -1.791  -0.975  -4.437  1.00  0.00     0.075 C 
ATOM     18  C   UNL     1      -2.925  -0.303  -2.340  1.00  0.00     0.075 C 
ENDBRANCH  13  16
ENDBRANCH   7  13
BRANCH  11  19
ATOM     19  N   UNL     1      -4.070  -4.725  -2.350  1.00  0.00    -0.332 N 
ATOM     20  C   UNL     1      -3.270  -4.317  -3.481  1.00  0.00     0.333 C 
ATOM     21  H   UNL     1      -3.776  -5.701  -2.305  1.00  0.00     0.348 HD
BRANCH  19  22
ATOM     22  C   UNL     1      -5.527  -4.791  -2.591  1.00  0.00     0.184 C 
ATOM     23  C   UNL     1      -5.932  -4.776  -4.090  1.00  0.00     0.065 C 
ATOM     24  C   UNL     1      -6.064  -6.079  -1.929  1.00  0.00     0.065 C 
ATOM     25  C   UNL     1      -7.420  -5.000  -4.319  1.00  0.00     0.006 C 
ATOM     26  C   UNL     1      -7.548  -6.321  -2.200  1.00  0.00     0.006 C 
ATOM     27  C   UNL     1      -7.861  -6.312  -3.689  1.00  0.00     0.000 C 
ENDBRANCH  19  22
ENDBRANCH  11  19
ENDBRANCH   4   7
ENDBRANCH   2   3
ENDBRANCH   1   2
BRANCH   1  28
ATOM     28  C   UNL     1       2.840  -0.371  -2.913  1.00  0.00     0.118 C 
BRANCH  28  29
ATOM     29  N   UNL     1       4.202  -0.878  -2.841  1.00  0.00    -0.352 N 
ATOM     30  C   UNL     1       5.134  -1.040  -3.838  1.00  0.00     0.251 C 
ATOM     31  H   UNL     1       4.501  -1.146  -1.943  1.00  0.00     0.163 HD
ATOM     32  O   UNL     1       6.090  -1.786  -3.652  1.00  0.00    -0.269 OA
BRANCH  30  33
ATOM     33  C   UNL     1       5.001  -0.323  -5.128  1.00  0.00     0.039 A 
ATOM     34  C   UNL     1       5.457  -0.935  -6.301  1.00  0.00     0.014 A 
ATOM     35  C   UNL     1       4.510   0.983  -5.179  1.00  0.00     0.014 A 
ATOM     36  C   UNL     1       5.392  -0.249  -7.518  1.00  0.00     0.010 A 
ATOM     37  C   UNL     1       4.347   1.624  -6.402  1.00  0.00     0.010 A 
ATOM     38  C   UNL     1       4.824   1.032  -7.579  1.00  0.00    -0.014 A 
BRANCH  38  39
ATOM     39  C   UNL     1       4.790   1.818  -8.837  1.00  0.00     0.031 A 
ATOM     40  C   UNL     1       5.541   3.123  -8.917  1.00  0.00     0.074 A 
ATOM     41  C   UNL     1       4.036   1.407  -9.874  1.00  0.00     0.049 A 
ATOM     42  N   UNL     1       5.548   4.017  -9.873  1.00  0.00    -0.248 NA
ATOM     43  C   UNL     1       6.362   3.490  -7.750  1.00  0.00     0.031 C 
ATOM     44  C   UNL     1       3.231   0.184  -9.910  1.00  0.00     0.029 A 
ATOM     45  N   UNL     1       3.819   1.985 -11.099  1.00  0.00    -0.354 N 
ATOM     46  C   UNL     1       6.335   5.063  -9.404  1.00  0.00     0.074 A 
ATOM     47  C   UNL     1       6.752   4.715  -8.065  1.00  0.00     0.031 C 
ATOM     48  C   UNL     1       2.630   0.091 -11.108  1.00  0.00     0.029 A 
ATOM     49  C   UNL     1       2.976   1.261 -11.907  1.00  0.00     0.049 A 
ATOM     50  H   UNL     1       4.229   2.837 -11.374  1.00  0.00     0.167 HD
ATOM     51  C   UNL     1       6.699   6.203 -10.037  1.00  0.00     0.031 A 
ATOM     52  C   UNL     1       2.531   1.517 -13.151  1.00  0.00     0.031 A 
ATOM     53  C   UNL     1       6.330   6.525 -11.388  1.00  0.00     0.049 A 
ATOM     54  C   UNL     1       2.979   2.771 -13.848  1.00  0.00     0.074 A 
ATOM     55  C   UNL     1       6.707   7.617 -12.148  1.00  0.00     0.029 A 
ATOM     56  N   UNL     1       5.508   5.744 -12.184  1.00  0.00    -0.354 N 
ATOM     57  N   UNL     1       3.767   3.723 -13.410  1.00  0.00    -0.248 NA
ATOM     58  C   UNL     1       2.486   2.978 -15.217  1.00  0.00     0.031 C 
ATOM     59  C   UNL     1       6.088   7.512 -13.398  1.00  0.00     0.029 A 
ATOM     60  C   UNL     1       5.358   6.334 -13.426  1.00  0.00     0.049 A 
ATOM     61  H   UNL     1       5.093   4.895 -11.907  1.00  0.00     0.167 HD
ATOM     62  C   UNL     1       3.884   4.627 -14.457  1.00  0.00     0.074 A 
ATOM     63  C   UNL     1       3.099   4.104 -15.556  1.00  0.00     0.031 C 
ATOM     64  C   UNL     1       4.579   5.789 -14.505  1.00  0.00     0.031 A 
BRANCH  51  65
ATOM     65  C   UNL     1       7.545   7.182  -9.274  1.00  0.00    -0.014 A 
ATOM     66  C   UNL     1       8.893   6.910  -8.988  1.00  0.00     0.009 A 
ATOM     67  C   UNL     1       6.996   8.405  -8.860  1.00  0.00     0.009 A 
ATOM     68  C   UNL     1       9.662   7.829  -8.271  1.00  0.00     0.001 A 
ATOM     69  C   UNL     1       7.776   9.334  -8.168  1.00  0.00     0.001 A 
ATOM     70  C   UNL     1       9.105   9.041  -7.866  1.00  0.00     0.000 A 
ENDBRANCH  51  65
BRANCH  52  71
ATOM     71  C   UNL     1       1.629   0.554 -13.833  1.00  0.00    -0.014 A 
ATOM     72  C   UNL     1       2.108  -0.239 -14.887  1.00  0.00     0.009 A 
ATOM     73  C   UNL     1       0.287   0.427 -13.441  1.00  0.00     0.009 A 
ATOM     74  C   UNL     1       1.255  -1.121 -15.554  1.00  0.00     0.001 A 
ATOM     75  C   UNL     1      -0.557  -0.475 -14.094  1.00  0.00     0.001 A 
ATOM     76  C   UNL     1      -0.076  -1.240 -15.155  1.00  0.00     0.000 A 
ENDBRANCH  52  71
BRANCH  64  77
ATOM     77  C   UNL     1       4.551   6.550 -15.798  1.00  0.00    -0.014 A 
ATOM     78  C   UNL     1       3.418   7.282 -16.184  1.00  0.00     0.009 A 
ATOM     79  C   UNL     1       5.690   6.568 -16.617  1.00  0.00     0.009 A 
ATOM     80  C   UNL     1       3.417   7.995 -17.383  1.00  0.00     0.001 A 
ATOM     81  C   UNL     1       5.694   7.302 -17.804  1.00  0.00     0.001 A 
ATOM     82  C   UNL     1       4.556   8.009 -18.189  1.00  0.00     0.000 A 
ENDBRANCH  64  77
ENDBRANCH  38  39
ENDBRANCH  30  33
ENDBRANCH  28  29
ENDBRANCH   1  28
TORSDOF 14
