REMARK SMILES CC(C)Cc1cc(C(=O)N[C@@H](CO)C(=O)NCCCNC(=O)c2ccc(-c3c4nc(c(-c5ccccc5)c5ccc([nH]5)c(-c5ccccc5)c5nc(c(-c6ccccc6)c6ccc3[nH]6)C=C5)C=C4)cc2)n(C)n1
REMARK SMILES IDX 17 1 16 2 14 3 15 4 11 6 10 7 8 8 9 9 7 11 5 12 6 13 73 14
REMARK SMILES IDX 71 15 72 16 4 17 2 18 1 19 3 20 12 21 13 22 18 24 19 25
REMARK SMILES IDX 20 26 21 27 22 29 23 30 24 31 70 32 25 33 69 34 26 35 27 36
REMARK SMILES IDX 28 37 63 38 29 39 68 40 62 41 64 42 30 43 67 44 61 45 60 46
REMARK SMILES IDX 31 48 53 49 38 50 52 51 39 52 42 53 51 54 65 55 40 56 41 57
REMARK SMILES IDX 50 59 66 60 43 61 32 62 33 63 37 64 34 65 36 66 35 67 54 68
REMARK SMILES IDX 55 69 59 70 56 71 58 72 57 73 44 74 45 75 49 76 46 77 48 78
REMARK SMILES IDX 47 79
REMARK H PARENT 16 5 10 10 13 23 20 28 64 47 42 58
REMARK Flexibility Score: inf
ROOT
ATOM      1  C   UNL     1      -3.008   6.024   5.716  1.00  0.00     0.117 C 
ENDROOT
BRANCH   1   2
ATOM      2  N   UNL     1      -1.715   6.092   5.069  1.00  0.00    -0.354 N 
ATOM      3  C   UNL     1      -1.333   5.791   3.807  1.00  0.00     0.244 C 
ATOM      4  O   UNL     1      -0.149   6.003   3.519  1.00  0.00    -0.273 OA
ATOM      5  H   UNL     1      -0.986   6.413   5.648  1.00  0.00     0.163 HD
BRANCH   3   6
ATOM      6  C   UNL     1      -2.303   5.283   2.733  1.00  0.00     0.197 C 
BRANCH   6   7
ATOM      7  N   UNL     1      -2.941   4.008   3.001  1.00  0.00    -0.337 N 
ATOM      8  C   UNL     1      -2.987   2.817   2.333  1.00  0.00     0.270 C 
ATOM      9  O   UNL     1      -3.603   1.950   2.965  1.00  0.00    -0.268 OA
ATOM     10  H   UNL     1      -3.449   3.999   3.844  1.00  0.00     0.164 HD
BRANCH   8  11
ATOM     11  C   UNL     1      -2.372   2.493   1.052  1.00  0.00     0.126 A 
ATOM     12  C   UNL     1      -1.553   1.174  -0.584  1.00  0.00     0.064 A 
ATOM     13  C   UNL     1      -2.194   1.161   0.660  1.00  0.00     0.059 A 
ATOM     14  N   UNL     1      -1.386   2.419  -1.010  1.00  0.00    -0.178 NA
ATOM     15  N   UNL     1      -1.881   3.197  -0.031  1.00  0.00    -0.263 N 
ATOM     16  C   UNL     1      -1.827   4.598  -0.354  1.00  0.00     0.174 C 
BRANCH  12  17
ATOM     17  C   UNL     1      -1.026   0.047  -1.402  1.00  0.00     0.061 C 
BRANCH  17  18
ATOM     18  C   UNL     1       0.515   0.068  -1.470  1.00  0.00    -0.011 C 
ATOM     19  C   UNL     1       1.138  -0.277  -0.114  1.00  0.00     0.008 C 
ATOM     20  C   UNL     1       1.017  -0.889  -2.547  1.00  0.00     0.008 C 
ENDBRANCH  17  18
ENDBRANCH  12  17
ENDBRANCH   8  11
ENDBRANCH   6   7
BRANCH   6  21
ATOM     21  C   UNL     1      -3.307   6.361   2.288  1.00  0.00     0.191 C 
BRANCH  21  22
ATOM     22  O   UNL     1      -4.387   6.566   3.194  1.00  0.00    -0.394 OA
ATOM     23  H   UNL     1      -4.907   5.751   3.267  1.00  0.00     0.210 HD
ENDBRANCH  21  22
ENDBRANCH   6  21
ENDBRANCH   3   6
ENDBRANCH   1   2
BRANCH   1  24
ATOM     24  C   UNL     1      -2.943   5.249   7.017  1.00  0.00     0.042 C 
BRANCH  24  25
ATOM     25  C   UNL     1      -1.918   5.787   8.000  1.00  0.00     0.118 C 
BRANCH  25  26
ATOM     26  N   UNL     1      -2.180   7.166   8.395  1.00  0.00    -0.352 N 
ATOM     27  C   UNL     1      -2.549   7.669   9.618  1.00  0.00     0.251 C 
ATOM     28  H   UNL     1      -2.079   7.834   7.679  1.00  0.00     0.163 HD
ATOM     29  O   UNL     1      -2.914   8.836   9.726  1.00  0.00    -0.269 OA
BRANCH  27  30
ATOM     30  C   UNL     1      -2.531   6.785  10.799  1.00  0.00     0.039 A 
ATOM     31  C   UNL     1      -3.614   6.797  11.679  1.00  0.00     0.014 A 
ATOM     32  C   UNL     1      -1.459   5.915  11.009  1.00  0.00     0.014 A 
ATOM     33  C   UNL     1      -3.655   5.876  12.727  1.00  0.00     0.010 A 
ATOM     34  C   UNL     1      -1.559   4.924  11.973  1.00  0.00     0.010 A 
ATOM     35  C   UNL     1      -2.650   4.904  12.854  1.00  0.00    -0.014 A 
BRANCH  35  36
ATOM     36  C   UNL     1      -2.697   3.870  13.916  1.00  0.00     0.031 A 
ATOM     37  C   UNL     1      -1.588   3.792  14.931  1.00  0.00     0.074 A 
ATOM     38  C   UNL     1      -3.689   2.959  13.923  1.00  0.00     0.049 A 
ATOM     39  N   UNL     1      -1.405   2.919  15.889  1.00  0.00    -0.248 NA
ATOM     40  C   UNL     1      -0.524   4.806  14.834  1.00  0.00     0.031 C 
ATOM     41  C   UNL     1      -4.792   2.894  12.960  1.00  0.00     0.029 A 
ATOM     42  N   UNL     1      -3.927   1.907  14.770  1.00  0.00    -0.354 N 
ATOM     43  C   UNL     1      -0.198   3.264  16.484  1.00  0.00     0.074 A 
ATOM     44  C   UNL     1       0.339   4.382  15.743  1.00  0.00     0.031 C 
ATOM     45  C   UNL     1      -5.607   1.880  13.293  1.00  0.00     0.029 A 
ATOM     46  C   UNL     1      -5.063   1.198  14.462  1.00  0.00     0.049 A 
ATOM     47  H   UNL     1      -3.340   1.680  15.526  1.00  0.00     0.167 HD
ATOM     48  C   UNL     1       0.400   2.716  17.568  1.00  0.00     0.031 A 
ATOM     49  C   UNL     1      -5.604   0.117  15.055  1.00  0.00     0.031 A 
ATOM     50  C   UNL     1      -0.149   1.621  18.319  1.00  0.00     0.049 A 
ATOM     51  C   UNL     1      -4.926  -0.469  16.262  1.00  0.00     0.074 A 
ATOM     52  C   UNL     1       0.339   1.037  19.474  1.00  0.00     0.029 A 
ATOM     53  N   UNL     1      -1.313   0.945  17.986  1.00  0.00    -0.354 N 
ATOM     54  N   UNL     1      -3.825  -0.083  16.860  1.00  0.00    -0.248 NA
ATOM     55  C   UNL     1      -5.574  -1.633  16.883  1.00  0.00     0.031 C 
ATOM     56  C   UNL     1      -0.502  -0.028  19.811  1.00  0.00     0.029 A 
ATOM     57  C   UNL     1      -1.546  -0.067  18.900  1.00  0.00     0.049 A 
ATOM     58  H   UNL     1      -1.888   1.154  17.215  1.00  0.00     0.167 HD
ATOM     59  C   UNL     1      -3.663  -0.938  17.942  1.00  0.00     0.074 A 
ATOM     60  C   UNL     1      -4.788  -1.851  17.927  1.00  0.00     0.031 C 
ATOM     61  C   UNL     1      -2.672  -0.965  18.867  1.00  0.00     0.031 A 
BRANCH  48  62
ATOM     62  C   UNL     1       1.718   3.299  17.998  1.00  0.00    -0.014 A 
ATOM     63  C   UNL     1       1.803   4.593  18.538  1.00  0.00     0.009 A 
ATOM     64  C   UNL     1       2.889   2.536  17.880  1.00  0.00     0.009 A 
ATOM     65  C   UNL     1       3.039   5.126  18.909  1.00  0.00     0.001 A 
ATOM     66  C   UNL     1       4.120   3.059  18.283  1.00  0.00     0.001 A 
ATOM     67  C   UNL     1       4.195   4.357  18.786  1.00  0.00     0.000 A 
ENDBRANCH  48  62
BRANCH  49  68
ATOM     68  C   UNL     1      -6.867  -0.467  14.531  1.00  0.00    -0.014 A 
ATOM     69  C   UNL     1      -8.062  -0.347  15.258  1.00  0.00     0.009 A 
ATOM     70  C   UNL     1      -6.887  -1.146  13.303  1.00  0.00     0.009 A 
ATOM     71  C   UNL     1      -9.243  -0.919  14.780  1.00  0.00     0.001 A 
ATOM     72  C   UNL     1      -8.076  -1.692  12.813  1.00  0.00     0.001 A 
ATOM     73  C   UNL     1      -9.250  -1.586  13.556  1.00  0.00     0.000 A 
ENDBRANCH  49  68
BRANCH  61  74
ATOM     74  C   UNL     1      -2.779  -1.992  19.958  1.00  0.00    -0.014 A 
ATOM     75  C   UNL     1      -2.563  -3.354  19.702  1.00  0.00     0.009 A 
ATOM     76  C   UNL     1      -3.055  -1.580  21.272  1.00  0.00     0.009 A 
ATOM     77  C   UNL     1      -2.656  -4.288  20.736  1.00  0.00     0.001 A 
ATOM     78  C   UNL     1      -3.115  -2.511  22.308  1.00  0.00     0.001 A 
ATOM     79  C   UNL     1      -2.925  -3.865  22.038  1.00  0.00     0.000 A 
ENDBRANCH  61  74
ENDBRANCH  35  36
ENDBRANCH  27  30
ENDBRANCH  25  26
ENDBRANCH  24  25
ENDBRANCH   1  24
TORSDOF 16
