REMARK SMILES CC(C)c1ccc([C@]2(C(=O)NCCCNC(=O)c3ccc(-c4c5nc(c(-c6ccccc6)c6ccc([nH]6)c(-c6ccccc6)c6nc(c(-c7ccccc7)c7ccc4[nH]7)C=C6)C=C5)cc3)CCC[C@@H]2C)cc1
REMARK SMILES IDX 13 1 12 2 11 3 9 4 10 5 8 7 66 8 69 9 67 10 68 11 70 12 7 13
REMARK SMILES IDX 4 14 5 15 72 16 6 17 71 18 2 19 1 20 3 21 14 22 15 23 16 24
REMARK SMILES IDX 17 26 18 27 19 28 65 29 20 30 64 31 21 32 22 33 23 34 58 35
REMARK SMILES IDX 24 36 63 37 57 38 59 39 25 40 62 41 56 42 55 43 26 45 48 46
REMARK SMILES IDX 33 47 47 48 34 49 37 50 46 51 60 52 35 53 36 54 45 56 61 57
REMARK SMILES IDX 38 58 27 59 28 60 32 61 29 62 31 63 30 64 49 65 50 66 54 67
REMARK SMILES IDX 51 68 53 69 52 70 39 71 40 72 44 73 41 74 43 75 42 76
REMARK H PARENT 11 6 15 25 59 44 37 55
REMARK Flexibility Score: inf
ROOT
ATOM      1  C   UNL     1      -9.089  -1.891  -0.489  1.00  0.00     0.042 C 
ENDROOT
BRANCH   1   2
ATOM      2  C   UNL     1      -8.303  -0.795   0.205  1.00  0.00     0.117 C 
BRANCH   2   3
ATOM      3  N   UNL     1      -6.974  -1.192   0.569  1.00  0.00    -0.355 N 
ATOM      4  C   UNL     1      -5.752  -0.770   0.168  1.00  0.00     0.230 C 
ATOM      5  O   UNL     1      -4.894  -0.979   1.041  1.00  0.00    -0.274 OA
ATOM      6  H   UNL     1      -6.944  -1.910   1.241  1.00  0.00     0.163 HD
BRANCH   4   7
ATOM      7  C   UNL     1      -5.362  -0.148  -1.253  1.00  0.00     0.077 C 
ATOM      8  C   UNL     1      -5.962  -0.970  -2.422  1.00  0.00     0.022 C 
ATOM      9  C   UNL     1      -5.913   1.304  -1.555  1.00  0.00     0.006 C 
ATOM     10  C   UNL     1      -7.188  -0.244  -2.967  1.00  0.00     0.002 C 
ATOM     11  C   UNL     1      -7.226   1.138  -2.347  1.00  0.00     0.005 C 
ATOM     12  C   UNL     1      -5.079   2.239  -2.462  1.00  0.00     0.009 C 
BRANCH   7  13
ATOM     13  C   UNL     1      -3.805  -0.253  -1.267  1.00  0.00    -0.032 A 
ATOM     14  C   UNL     1      -0.953  -0.476  -1.194  1.00  0.00    -0.045 A 
ATOM     15  C   UNL     1      -1.607   0.688  -0.772  1.00  0.00     0.004 A 
ATOM     16  C   UNL     1      -1.754  -1.554  -1.587  1.00  0.00     0.004 A 
ATOM     17  C   UNL     1      -3.001   0.769  -0.745  1.00  0.00     0.005 A 
ATOM     18  C   UNL     1      -3.152  -1.443  -1.629  1.00  0.00     0.005 A 
BRANCH  14  19
ATOM     19  C   UNL     1       0.570  -0.504  -1.224  1.00  0.00     0.013 C 
ATOM     20  C   UNL     1       1.177  -0.121   0.134  1.00  0.00     0.012 C 
ATOM     21  C   UNL     1       1.189  -1.829  -1.684  1.00  0.00     0.012 C 
ENDBRANCH  14  19
ENDBRANCH   7  13
ENDBRANCH   4   7
ENDBRANCH   2   3
ENDBRANCH   1   2
BRANCH   1  22
ATOM     22  C   UNL     1      -9.851  -2.761   0.497  1.00  0.00     0.118 C 
BRANCH  22  23
ATOM     23  N   UNL     1     -10.901  -2.012   1.188  1.00  0.00    -0.352 N 
ATOM     24  C   UNL     1     -12.267  -2.157   1.149  1.00  0.00     0.251 C 
ATOM     25  H   UNL     1     -10.577  -1.290   1.773  1.00  0.00     0.163 HD
ATOM     26  O   UNL     1     -12.993  -1.291   1.612  1.00  0.00    -0.269 OA
BRANCH  24  27
ATOM     27  C   UNL     1     -12.848  -3.368   0.537  1.00  0.00     0.039 A 
ATOM     28  C   UNL     1     -13.985  -3.258  -0.267  1.00  0.00     0.014 A 
ATOM     29  C   UNL     1     -12.258  -4.611   0.763  1.00  0.00     0.014 A 
ATOM     30  C   UNL     1     -14.488  -4.394  -0.904  1.00  0.00     0.010 A 
ATOM     31  C   UNL     1     -12.687  -5.712   0.042  1.00  0.00     0.010 A 
ATOM     32  C   UNL     1     -13.819  -5.621  -0.781  1.00  0.00    -0.014 A 
BRANCH  32  33
ATOM     33  C   UNL     1     -14.291  -6.858  -1.444  1.00  0.00     0.031 A 
ATOM     34  C   UNL     1     -14.644  -8.048  -0.595  1.00  0.00     0.074 A 
ATOM     35  C   UNL     1     -14.280  -6.955  -2.786  1.00  0.00     0.049 A 
ATOM     36  N   UNL     1     -14.870  -9.284  -0.953  1.00  0.00    -0.248 NA
ATOM     37  C   UNL     1     -14.694  -7.823   0.861  1.00  0.00     0.031 C 
ATOM     38  C   UNL     1     -13.925  -5.882  -3.716  1.00  0.00     0.029 A 
ATOM     39  N   UNL     1     -14.551  -8.025  -3.600  1.00  0.00    -0.354 N 
ATOM     40  C   UNL     1     -15.044  -9.988   0.233  1.00  0.00     0.074 A 
ATOM     41  C   UNL     1     -14.836  -9.056   1.317  1.00  0.00     0.031 C 
ATOM     42  C   UNL     1     -14.014  -6.344  -4.973  1.00  0.00     0.029 A 
ATOM     43  C   UNL     1     -14.378  -7.756  -4.935  1.00  0.00     0.049 A 
ATOM     44  H   UNL     1     -14.841  -8.902  -3.259  1.00  0.00     0.167 HD
ATOM     45  C   UNL     1     -15.368 -11.291   0.404  1.00  0.00     0.031 A 
ATOM     46  C   UNL     1     -14.482  -8.565  -6.006  1.00  0.00     0.031 A 
ATOM     47  C   UNL     1     -15.597 -12.204  -0.682  1.00  0.00     0.049 A 
ATOM     48  C   UNL     1     -14.847 -10.009  -5.799  1.00  0.00     0.074 A 
ATOM     49  C   UNL     1     -15.990 -13.528  -0.628  1.00  0.00     0.029 A 
ATOM     50  N   UNL     1     -15.457 -11.878  -2.023  1.00  0.00    -0.354 N 
ATOM     51  N   UNL     1     -15.057 -10.653  -4.676  1.00  0.00    -0.248 NA
ATOM     52  C   UNL     1     -14.999 -10.834  -7.005  1.00  0.00     0.031 C 
ATOM     53  C   UNL     1     -16.040 -14.018  -1.937  1.00  0.00     0.029 A 
ATOM     54  C   UNL     1     -15.741 -12.981  -2.807  1.00  0.00     0.049 A 
ATOM     55  H   UNL     1     -15.195 -10.993  -2.366  1.00  0.00     0.167 HD
ATOM     56  C   UNL     1     -15.402 -11.948  -5.040  1.00  0.00     0.074 A 
ATOM     57  C   UNL     1     -15.375 -11.996  -6.489  1.00  0.00     0.031 C 
ATOM     58  C   UNL     1     -15.720 -13.001  -4.248  1.00  0.00     0.031 A 
BRANCH  45  59
ATOM     59  C   UNL     1     -15.476 -11.793   1.818  1.00  0.00    -0.014 A 
ATOM     60  C   UNL     1     -16.485 -11.336   2.682  1.00  0.00     0.009 A 
ATOM     61  C   UNL     1     -14.548 -12.730   2.298  1.00  0.00     0.009 A 
ATOM     62  C   UNL     1     -16.527 -11.761   4.011  1.00  0.00     0.001 A 
ATOM     63  C   UNL     1     -14.615 -13.183   3.617  1.00  0.00     0.001 A 
ATOM     64  C   UNL     1     -15.594 -12.686   4.477  1.00  0.00     0.000 A 
ENDBRANCH  45  59
BRANCH  46  65
ATOM     65  C   UNL     1     -14.255  -8.016  -7.369  1.00  0.00    -0.014 A 
ATOM     66  C   UNL     1     -15.332  -7.829  -8.247  1.00  0.00     0.009 A 
ATOM     67  C   UNL     1     -12.966  -7.650  -7.788  1.00  0.00     0.009 A 
ATOM     68  C   UNL     1     -15.122  -7.304  -9.524  1.00  0.00     0.001 A 
ATOM     69  C   UNL     1     -12.763  -7.099  -9.056  1.00  0.00     0.001 A 
ATOM     70  C   UNL     1     -13.840  -6.933  -9.925  1.00  0.00     0.000 A 
ENDBRANCH  46  65
BRANCH  58  71
ATOM     71  C   UNL     1     -16.123 -14.281  -4.923  1.00  0.00    -0.014 A 
ATOM     72  C   UNL     1     -15.181 -15.106  -5.555  1.00  0.00     0.009 A 
ATOM     73  C   UNL     1     -17.461 -14.702  -4.851  1.00  0.00     0.009 A 
ATOM     74  C   UNL     1     -15.578 -16.320  -6.120  1.00  0.00     0.001 A 
ATOM     75  C   UNL     1     -17.848 -15.928  -5.391  1.00  0.00     0.001 A 
ATOM     76  C   UNL     1     -16.908 -16.733  -6.031  1.00  0.00     0.000 A 
ENDBRANCH  58  71
ENDBRANCH  32  33
ENDBRANCH  24  27
ENDBRANCH  22  23
ENDBRANCH   1  22
TORSDOF 12
