REMARK SMILES O=C(NCCCNC(=O)[C@@H]1CN(C(=O)CCC(F)(F)F)C[C@H]1c1ccc2c(c1)OCO2)c1ccc(-c2c3nc(c(-c4ccccc4)c4ccc([nH]4)c(-c4ccccc4)c4nc(c(-c5ccccc5)c5ccc2[nH]5)C=C4)C=C3)cc1
REMARK SMILES IDX 6 1 5 2 4 3 3 4 1 5 2 6 32 8 33 9 79 10 34 11 78 12 35 13
REMARK SMILES IDX 36 14 37 15 72 16 38 17 77 18 71 19 73 20 39 21 76 22 70 23
REMARK SMILES IDX 69 24 40 26 62 27 47 28 61 29 48 30 51 31 60 32 74 33 49 34
REMARK SMILES IDX 50 35 59 37 75 38 52 39 41 40 42 41 46 42 43 43 45 44 44 45
REMARK SMILES IDX 63 46 64 47 68 48 65 49 67 50 66 51 53 52 54 53 58 54 55 55
REMARK SMILES IDX 57 56 56 57 7 58 8 59 9 61 10 62 11 63 22 64 12 65 21 66
REMARK SMILES IDX 23 67 24 68 28 69 25 70 27 71 26 72 29 73 31 74 30 75 13 76
REMARK SMILES IDX 14 77 15 78 16 79 17 80 18 81 19 82 20 83
REMARK H PARENT 3 7 73 25 51 36 7 60
REMARK Flexibility Score: inf
ROOT
ATOM      1  C   UNL     1       4.194  -3.489  -1.270  1.00  0.00     0.117 C 
ENDROOT
BRANCH   1   2
ATOM      2  C   UNL     1       4.814  -2.434  -0.371  1.00  0.00     0.042 C 
BRANCH   2   3
ATOM      3  C   UNL     1       4.560  -1.013  -0.857  1.00  0.00     0.118 C 
BRANCH   3   4
ATOM      4  N   UNL     1       3.141  -0.674  -0.900  1.00  0.00    -0.352 N 
ATOM      5  O   UNL     1       1.171   0.137  -0.167  1.00  0.00    -0.269 OA
ATOM      6  C   UNL     1       2.391   0.144  -0.087  1.00  0.00     0.251 C 
ATOM      7  H   UNL     1       2.638  -1.101  -1.630  1.00  0.00     0.163 HD
BRANCH   6   8
ATOM      8  C   UNL     1       3.064   1.010   0.902  1.00  0.00     0.039 A 
ATOM      9  C   UNL     1       4.224   1.701   0.559  1.00  0.00     0.014 A 
ATOM     10  C   UNL     1       2.531   1.130   2.189  1.00  0.00     0.014 A 
ATOM     11  C   UNL     1       4.963   2.334   1.547  1.00  0.00     0.010 A 
ATOM     12  C   UNL     1       3.216   1.872   3.156  1.00  0.00     0.010 A 
ATOM     13  C   UNL     1       4.466   2.435   2.857  1.00  0.00    -0.014 A 
BRANCH  13  14
ATOM     14  C   UNL     1       5.274   3.158   3.872  1.00  0.00     0.031 A 
ATOM     15  C   UNL     1       5.814   2.453   5.086  1.00  0.00     0.074 A 
ATOM     16  C   UNL     1       5.581   4.451   3.649  1.00  0.00     0.049 A 
ATOM     17  N   UNL     1       6.604   2.919   6.022  1.00  0.00    -0.248 NA
ATOM     18  C   UNL     1       5.415   1.050   5.285  1.00  0.00     0.031 C 
ATOM     19  C   UNL     1       5.115   5.245   2.508  1.00  0.00     0.029 A 
ATOM     20  N   UNL     1       6.393   5.312   4.340  1.00  0.00    -0.354 N 
ATOM     21  C   UNL     1       6.766   1.883   6.934  1.00  0.00     0.074 A 
ATOM     22  C   UNL     1       5.982   0.768   6.450  1.00  0.00     0.031 C 
ATOM     23  C   UNL     1       5.713   6.444   2.533  1.00  0.00     0.029 A 
ATOM     24  C   UNL     1       6.546   6.531   3.725  1.00  0.00     0.049 A 
ATOM     25  H   UNL     1       6.825   5.080   5.194  1.00  0.00     0.167 HD
ATOM     26  C   UNL     1       7.503   1.863   8.071  1.00  0.00     0.031 A 
ATOM     27  C   UNL     1       7.273   7.605   4.080  1.00  0.00     0.031 A 
ATOM     28  C   UNL     1       8.300   2.965   8.541  1.00  0.00     0.049 A 
ATOM     29  C   UNL     1       8.082   7.552   5.340  1.00  0.00     0.074 A 
ATOM     30  C   UNL     1       9.107   3.029   9.665  1.00  0.00     0.029 A 
ATOM     31  N   UNL     1       8.392   4.197   7.913  1.00  0.00    -0.354 N 
ATOM     32  N   UNL     1       8.240   6.556   6.177  1.00  0.00    -0.248 NA
ATOM     33  C   UNL     1       8.810   8.774   5.705  1.00  0.00     0.031 C 
ATOM     34  C   UNL     1       9.654   4.315   9.738  1.00  0.00     0.029 A 
ATOM     35  C   UNL     1       9.227   5.035   8.634  1.00  0.00     0.049 A 
ATOM     36  H   UNL     1       7.932   4.441   7.078  1.00  0.00     0.167 HD
ATOM     37  C   UNL     1       9.098   7.025   7.161  1.00  0.00     0.074 A 
ATOM     38  C   UNL     1       9.444   8.386   6.803  1.00  0.00     0.031 C 
ATOM     39  C   UNL     1       9.557   6.386   8.264  1.00  0.00     0.031 A 
BRANCH  26  40
ATOM     40  C   UNL     1       7.457   0.613   8.906  1.00  0.00    -0.014 A 
ATOM     41  C   UNL     1       8.110  -0.563   8.504  1.00  0.00     0.009 A 
ATOM     42  C   UNL     1       6.781   0.627  10.136  1.00  0.00     0.009 A 
ATOM     43  C   UNL     1       8.058  -1.708   9.303  1.00  0.00     0.001 A 
ATOM     44  C   UNL     1       6.752  -0.511  10.944  1.00  0.00     0.001 A 
ATOM     45  C   UNL     1       7.383  -1.680  10.524  1.00  0.00     0.000 A 
ENDBRANCH  26  40
BRANCH  27  46
ATOM     46  C   UNL     1       7.266   8.817   3.223  1.00  0.00    -0.014 A 
ATOM     47  C   UNL     1       8.407   9.180   2.490  1.00  0.00     0.009 A 
ATOM     48  C   UNL     1       6.112   9.609   3.119  1.00  0.00     0.009 A 
ATOM     49  C   UNL     1       8.396  10.322   1.686  1.00  0.00     0.001 A 
ATOM     50  C   UNL     1       6.095  10.732   2.292  1.00  0.00     0.001 A 
ATOM     51  C   UNL     1       7.239  11.093   1.583  1.00  0.00     0.000 A 
ENDBRANCH  27  46
BRANCH  39  52
ATOM     52  C   UNL     1      10.508   7.149   9.140  1.00  0.00    -0.014 A 
ATOM     53  C   UNL     1      10.061   8.197   9.960  1.00  0.00     0.009 A 
ATOM     54  C   UNL     1      11.867   6.803   9.154  1.00  0.00     0.009 A 
ATOM     55  C   UNL     1      10.966   8.910  10.747  1.00  0.00     0.001 A 
ATOM     56  C   UNL     1      12.766   7.500   9.961  1.00  0.00     0.001 A 
ATOM     57  C   UNL     1      12.316   8.560  10.749  1.00  0.00     0.000 A 
ENDBRANCH  39  52
ENDBRANCH  13  14
ENDBRANCH   6   8
ENDBRANCH   3   4
ENDBRANCH   2   3
ENDBRANCH   1   2
BRANCH   1  58
ATOM     58  N   UNL     1       4.710  -3.401  -2.626  1.00  0.00    -0.356 N 
ATOM     59  C   UNL     1       5.510  -4.252  -3.318  1.00  0.00     0.225 C 
ATOM     60  H   UNL     1       4.436  -2.596  -3.121  1.00  0.00     0.163 HD
ATOM     61  O   UNL     1       5.813  -3.938  -4.469  1.00  0.00    -0.275 OA
BRANCH  59  62
ATOM     62  C   UNL     1       5.949  -5.556  -2.691  1.00  0.00     0.107 C 
ATOM     63  C   UNL     1       7.373  -5.874  -3.122  1.00  0.00     0.133 C 
ATOM     64  C   UNL     1       5.128  -6.755  -3.223  1.00  0.00     0.053 C 
ATOM     65  N   UNL     1       7.460  -7.319  -3.061  1.00  0.00    -0.341 N 
ATOM     66  C   UNL     1       6.138  -7.921  -3.183  1.00  0.00     0.128 C 
BRANCH  64  67
ATOM     67  C   UNL     1       3.812  -6.914  -2.470  1.00  0.00    -0.038 A 
ATOM     68  C   UNL     1       2.743  -6.035  -2.793  1.00  0.00     0.008 A 
ATOM     69  C   UNL     1       3.626  -7.825  -1.418  1.00  0.00     0.054 A 
ATOM     70  C   UNL     1       1.557  -6.007  -2.050  1.00  0.00     0.051 A 
ATOM     71  C   UNL     1       2.432  -7.798  -0.722  1.00  0.00     0.166 A 
ATOM     72  C   UNL     1       1.434  -6.902  -1.015  1.00  0.00     0.165 A 
ATOM     73  O   UNL     1       2.110  -8.604   0.327  1.00  0.00    -0.454 OA
ATOM     74  O   UNL     1       0.369  -7.013  -0.179  1.00  0.00    -0.454 OA
ATOM     75  C   UNL     1       0.790  -8.117   0.649  1.00  0.00     0.468 C 
ENDBRANCH  64  67
BRANCH  65  76
ATOM     76  C   UNL     1       8.585  -8.104  -2.991  1.00  0.00     0.222 C 
ATOM     77  O   UNL     1       8.528  -9.331  -3.092  1.00  0.00    -0.275 OA
BRANCH  76  78
ATOM     78  C   UNL     1       9.925  -7.436  -2.756  1.00  0.00     0.109 C 
BRANCH  78  79
ATOM     79  C   UNL     1      10.782  -7.364  -4.014  1.00  0.00     0.125 C 
BRANCH  79  80
ATOM     80  C   UNL     1      10.264  -6.372  -5.026  1.00  0.00     0.389 C 
ATOM     81  F   UNL     1      10.070  -5.161  -4.457  1.00  0.00    -0.171 F 
ATOM     82  F   UNL     1      11.153  -6.210  -6.030  1.00  0.00    -0.171 F 
ATOM     83  F   UNL     1       9.100  -6.770  -5.573  1.00  0.00    -0.171 F 
ENDBRANCH  79  80
ENDBRANCH  78  79
ENDBRANCH  76  78
ENDBRANCH  65  76
ENDBRANCH  59  62
ENDBRANCH   1  58
TORSDOF 15
