REMARK SMILES COc1cccc(-c2c(C(=O)NCCCNC(=O)c3ccc(-c4c5nc(c(-c6ccccc6)c6ccc([nH]6)c(-c6ccccc6)c6nc(c(-c7ccccc7)c7ccc4[nH]7)C=C6)C=C5)cc3)nnn2Cc2ccc(OC(F)(F)F)cc2)c1
REMARK SMILES IDX 13 1 12 2 10 3 11 4 9 6 8 7 69 8 67 9 68 10 7 11 3 12 4 13
REMARK SMILES IDX 82 14 5 15 6 16 2 17 1 18 70 19 71 20 72 21 81 22 73 23
REMARK SMILES IDX 80 24 74 25 75 26 76 27 77 28 78 29 79 30 14 31 15 32 16 33
REMARK SMILES IDX 17 34 18 36 19 37 20 38 66 39 21 40 65 41 22 42 23 43 24 44
REMARK SMILES IDX 59 45 25 46 64 47 58 48 60 49 26 50 63 51 57 52 56 53 27 55
REMARK SMILES IDX 49 56 34 57 48 58 35 59 38 60 47 61 61 62 36 63 37 64 46 66
REMARK SMILES IDX 62 67 39 68 28 69 29 70 33 71 30 72 32 73 31 74 50 75 51 76
REMARK SMILES IDX 55 77 52 78 54 79 53 80 40 81 41 82 45 83 42 84 44 85 43 86
REMARK H PARENT 12 5 16 35 60 54 38 65
REMARK Flexibility Score: inf
ROOT
ATOM      1  C   UNL     1       1.509  -1.759  -5.514  1.00  0.00     0.118 C 
ENDROOT
BRANCH   1   2
ATOM      2  N   UNL     1       2.796  -1.439  -6.068  1.00  0.00    -0.351 N 
ATOM      3  C   UNL     1       4.079  -1.735  -5.698  1.00  0.00     0.274 C 
ATOM      4  O   UNL     1       4.914  -1.383  -6.542  1.00  0.00    -0.267 OA
ATOM      5  H   UNL     1       2.742  -0.893  -6.886  1.00  0.00     0.163 HD
BRANCH   3   6
ATOM      6  C   UNL     1       4.516  -2.380  -4.449  1.00  0.00     0.178 A 
ATOM      7  C   UNL     1       3.946  -2.872  -3.265  1.00  0.00     0.102 A 
ATOM      8  N   UNL     1       5.045  -3.312  -2.544  1.00  0.00    -0.239 N 
ATOM      9  N   UNL     1       5.894  -2.516  -4.335  1.00  0.00    -0.124 NA
ATOM     10  N   UNL     1       6.195  -3.021  -3.162  1.00  0.00    -0.066 NA
BRANCH   7  11
ATOM     11  C   UNL     1       2.611  -2.955  -2.680  1.00  0.00     0.006 A 
ATOM     12  C   UNL     1       0.962  -2.096  -1.103  1.00  0.00     0.119 A 
ATOM     13  C   UNL     1       0.054  -3.061  -1.545  1.00  0.00     0.046 A 
ATOM     14  C   UNL     1       2.240  -2.047  -1.669  1.00  0.00     0.056 A 
ATOM     15  C   UNL     1       0.423  -3.989  -2.521  1.00  0.00     0.005 A 
ATOM     16  C   UNL     1       1.713  -3.961  -3.058  1.00  0.00     0.011 A 
BRANCH  12  17
ATOM     17  O   UNL     1       0.492  -1.266  -0.124  1.00  0.00    -0.497 OA
ATOM     18  C   UNL     1       1.103   0.015  -0.024  1.00  0.00     0.278 C 
ENDBRANCH  12  17
ENDBRANCH   7  11
BRANCH   8  19
ATOM     19  C   UNL     1       5.104  -3.914  -1.219  1.00  0.00     0.182 C 
BRANCH  19  20
ATOM     20  C   UNL     1       5.519  -5.364  -1.269  1.00  0.00    -0.026 A 
ATOM     21  C   UNL     1       4.627  -6.381  -0.913  1.00  0.00     0.009 A 
ATOM     22  C   UNL     1       6.820  -5.716  -1.656  1.00  0.00     0.009 A 
ATOM     23  C   UNL     1       5.038  -7.718  -0.944  1.00  0.00     0.047 A 
ATOM     24  C   UNL     1       7.222  -7.052  -1.701  1.00  0.00     0.047 A 
ATOM     25  C   UNL     1       6.335  -8.062  -1.339  1.00  0.00     0.129 A 
BRANCH  25  26
ATOM     26  O   UNL     1       6.602  -9.401  -1.321  1.00  0.00    -0.406 OA
BRANCH  26  27
ATOM     27  C   UNL     1       7.877  -9.819  -1.780  1.00  0.00     0.573 C 
ATOM     28  F   UNL     1       8.069  -9.469  -3.070  1.00  0.00    -0.132 F 
ATOM     29  F   UNL     1       8.865  -9.301  -1.019  1.00  0.00    -0.132 F 
ATOM     30  F   UNL     1       7.948 -11.165  -1.695  1.00  0.00    -0.132 F 
ENDBRANCH  26  27
ENDBRANCH  25  26
ENDBRANCH  19  20
ENDBRANCH   8  19
ENDBRANCH   3   6
ENDBRANCH   1   2
BRANCH   1  31
ATOM     31  C   UNL     1       1.068  -0.768  -4.440  1.00  0.00     0.042 C 
BRANCH  31  32
ATOM     32  C   UNL     1      -0.059   0.133  -4.889  1.00  0.00     0.118 C 
BRANCH  32  33
ATOM     33  N   UNL     1      -1.304  -0.625  -5.112  1.00  0.00    -0.352 N 
ATOM     34  C   UNL     1      -2.460  -0.248  -5.785  1.00  0.00     0.251 C 
ATOM     35  H   UNL     1      -1.319  -1.531  -4.726  1.00  0.00     0.163 HD
ATOM     36  O   UNL     1      -3.509  -0.835  -5.638  1.00  0.00    -0.269 OA
BRANCH  34  37
ATOM     37  C   UNL     1      -2.353   0.907  -6.691  1.00  0.00     0.039 A 
ATOM     38  C   UNL     1      -3.264   1.965  -6.679  1.00  0.00     0.014 A 
ATOM     39  C   UNL     1      -1.181   0.977  -7.419  1.00  0.00     0.014 A 
ATOM     40  C   UNL     1      -2.903   3.149  -7.320  1.00  0.00     0.010 A 
ATOM     41  C   UNL     1      -0.712   2.215  -7.733  1.00  0.00     0.010 A 
ATOM     42  C   UNL     1      -1.596   3.278  -7.813  1.00  0.00    -0.014 A 
BRANCH  42  43
ATOM     43  C   UNL     1      -1.072   4.512  -8.380  1.00  0.00     0.031 A 
ATOM     44  C   UNL     1      -1.285   5.737  -7.571  1.00  0.00     0.074 A 
ATOM     45  C   UNL     1      -0.251   4.520  -9.455  1.00  0.00     0.049 A 
ATOM     46  N   UNL     1      -2.074   6.722  -7.841  1.00  0.00    -0.248 NA
ATOM     47  C   UNL     1      -0.634   5.835  -6.256  1.00  0.00     0.031 C 
ATOM     48  C   UNL     1       0.338   3.386 -10.189  1.00  0.00     0.029 A 
ATOM     49  N   UNL     1       0.340   5.584 -10.053  1.00  0.00    -0.354 N 
ATOM     50  C   UNL     1      -1.884   7.659  -6.832  1.00  0.00     0.074 A 
ATOM     51  C   UNL     1      -1.123   6.993  -5.804  1.00  0.00     0.031 C 
ATOM     52  C   UNL     1       1.377   3.813 -10.937  1.00  0.00     0.029 A 
ATOM     53  C   UNL     1       1.379   5.259 -10.913  1.00  0.00     0.049 A 
ATOM     54  H   UNL     1       0.055   6.513  -9.889  1.00  0.00     0.167 HD
ATOM     55  C   UNL     1      -2.171   8.977  -7.027  1.00  0.00     0.031 A 
ATOM     56  C   UNL     1       2.188   6.123 -11.567  1.00  0.00     0.031 A 
ATOM     57  C   UNL     1      -2.929   9.181  -8.237  1.00  0.00     0.049 A 
ATOM     58  C   UNL     1       1.484   7.424 -11.608  1.00  0.00     0.074 A 
ATOM     59  C   UNL     1      -4.160   8.758  -8.698  1.00  0.00     0.029 A 
ATOM     60  N   UNL     1      -2.228   9.582  -9.351  1.00  0.00    -0.354 N 
ATOM     61  N   UNL     1       0.378   7.616 -12.270  1.00  0.00    -0.248 NA
ATOM     62  C   UNL     1       1.748   8.378 -10.544  1.00  0.00     0.031 C 
ATOM     63  C   UNL     1      -3.950   8.464 -10.079  1.00  0.00     0.029 A 
ATOM     64  C   UNL     1      -2.630   8.794 -10.398  1.00  0.00     0.049 A 
ATOM     65  H   UNL     1      -1.559  10.304  -9.389  1.00  0.00     0.167 HD
ATOM     66  C   UNL     1      -0.395   8.420 -11.444  1.00  0.00     0.074 A 
ATOM     67  C   UNL     1       0.541   8.947 -10.451  1.00  0.00     0.031 C 
ATOM     68  C   UNL     1      -1.760   8.356 -11.470  1.00  0.00     0.031 A 
BRANCH  55  69
ATOM     69  C   UNL     1      -1.441  10.113  -6.356  1.00  0.00    -0.014 A 
ATOM     70  C   UNL     1      -1.875  11.430  -6.598  1.00  0.00     0.009 A 
ATOM     71  C   UNL     1      -0.193   9.966  -5.723  1.00  0.00     0.009 A 
ATOM     72  C   UNL     1      -1.069  12.532  -6.289  1.00  0.00     0.001 A 
ATOM     73  C   UNL     1       0.596  11.065  -5.376  1.00  0.00     0.001 A 
ATOM     74  C   UNL     1       0.171  12.349  -5.686  1.00  0.00     0.000 A 
ENDBRANCH  55  69
BRANCH  56  75
ATOM     75  C   UNL     1       3.610   5.962 -11.921  1.00  0.00    -0.014 A 
ATOM     76  C   UNL     1       4.199   6.768 -12.905  1.00  0.00     0.009 A 
ATOM     77  C   UNL     1       4.460   5.203 -11.094  1.00  0.00     0.009 A 
ATOM     78  C   UNL     1       5.593   6.849 -13.024  1.00  0.00     0.001 A 
ATOM     79  C   UNL     1       5.851   5.284 -11.213  1.00  0.00     0.001 A 
ATOM     80  C   UNL     1       6.417   6.122 -12.168  1.00  0.00     0.000 A 
ENDBRANCH  56  75
BRANCH  68  81
ATOM     81  C   UNL     1      -2.409   7.543 -12.568  1.00  0.00    -0.014 A 
ATOM     82  C   UNL     1      -2.221   6.155 -12.710  1.00  0.00     0.009 A 
ATOM     83  C   UNL     1      -3.366   8.166 -13.381  1.00  0.00     0.009 A 
ATOM     84  C   UNL     1      -2.952   5.423 -13.653  1.00  0.00     0.001 A 
ATOM     85  C   UNL     1      -4.109   7.432 -14.309  1.00  0.00     0.001 A 
ATOM     86  C   UNL     1      -3.900   6.061 -14.448  1.00  0.00     0.000 A 
ENDBRANCH  68  81
ENDBRANCH  42  43
ENDBRANCH  34  37
ENDBRANCH  32  33
ENDBRANCH  31  32
ENDBRANCH   1  31
TORSDOF 16
