REMARK SMILES COc1ccc(-n2ccnc2C[N@@H+]2Cc3[nH]cnc3C[C@H]2C(=O)NCCCNC(=O)c2ccc(-c3c4nc(c(-c5ccccc5)c5ccc([nH]5)c(-c5ccccc5)c5nc(c(-c6ccccc6)c6ccc3[nH]6)C=C5)C=C4)cc2)cc1
REMARK SMILES IDX 25 1 24 2 22 3 23 4 21 6 13 7 14 8 15 10 20 11 16 12 19 13
REMARK SMILES IDX 17 14 18 16 12 17 11 18 7 19 8 20 9 21 10 22 6 23 3 24 4 25
REMARK SMILES IDX 80 26 5 27 79 28 2 29 1 30 26 31 27 32 28 33 29 34 30 36
REMARK SMILES IDX 31 37 32 38 78 39 33 40 77 41 34 42 35 43 36 44 71 45 37 46
REMARK SMILES IDX 76 47 70 48 72 49 38 50 75 51 69 52 68 53 39 55 61 56 46 57
REMARK SMILES IDX 60 58 47 59 50 60 59 61 73 62 48 63 49 64 58 66 74 67 51 68
REMARK SMILES IDX 40 69 41 70 45 71 42 72 44 73 43 74 62 75 63 76 67 77 64 78
REMARK SMILES IDX 66 79 65 80 52 81 53 82 57 83 54 84 56 85 55 86
REMARK H PARENT 24 5 13 9 16 15 28 35 72 54 50 65
REMARK Flexibility Score: inf
ROOT
ATOM      1  C   UNL     1       2.360   6.132   6.636  1.00  0.00     0.118 C 
ENDROOT
BRANCH   1   2
ATOM      2  N   UNL     1       1.176   6.829   6.151  1.00  0.00    -0.351 N 
ATOM      3  C   UNL     1       0.475   6.747   4.985  1.00  0.00     0.278 C 
ATOM      4  O   UNL     1      -0.410   7.592   4.806  1.00  0.00    -0.268 OA
ATOM      5  H   UNL     1       0.812   7.486   6.788  1.00  0.00     0.163 HD
BRANCH   3   6
ATOM      6  C   UNL     1       0.719   5.659   3.940  1.00  0.00     0.280 C 
ATOM      7  N   UNL     1       1.524   6.165   2.717  1.00  0.00    -0.313 N 
ATOM      8  C   UNL     1       2.317   5.054   2.173  1.00  0.00     0.320 C 
ATOM      9  H   UNL     1       2.135   6.915   3.039  1.00  0.00     0.349 HD
ATOM     10  C   UNL     1       1.527   3.796   2.273  1.00  0.00     0.093 A 
ATOM     11  C   UNL     1       1.172   4.279   4.588  1.00  0.00     0.134 C 
ATOM     12  N   UNL     1       0.475   3.389   1.503  1.00  0.00    -0.344 N 
ATOM     13  C   UNL     1       1.138   3.296   3.493  1.00  0.00     0.074 A 
ATOM     14  C   UNL     1      -0.212   2.416   2.169  1.00  0.00     0.197 A 
ATOM     15  H   UNL     1       0.249   3.741   0.612  1.00  0.00     0.167 HD
ATOM     16  N   UNL     1       0.214   2.305   3.402  1.00  0.00    -0.241 NA
BRANCH   7  17
ATOM     17  C   UNL     1       0.654   6.770   1.642  1.00  0.00     0.340 C 
BRANCH  17  18
ATOM     18  C   UNL     1       1.413   7.265   0.395  1.00  0.00     0.168 A 
ATOM     19  N   UNL     1       1.819   6.504  -0.723  1.00  0.00    -0.299 N 
ATOM     20  C   UNL     1       2.845   7.216  -1.308  1.00  0.00     0.113 A 
ATOM     21  C   UNL     1       2.830   8.453  -0.719  1.00  0.00     0.132 A 
ATOM     22  N   UNL     1       1.928   8.485   0.305  1.00  0.00    -0.236 NA
BRANCH  19  23
ATOM     23  C   UNL     1       1.500   5.166  -1.089  1.00  0.00     0.047 A 
ATOM     24  C   UNL     1       0.909   2.433  -1.348  1.00  0.00     0.119 A 
ATOM     25  C   UNL     1      -0.093   3.402  -1.533  1.00  0.00     0.048 A 
ATOM     26  C   UNL     1       2.229   2.844  -1.185  1.00  0.00     0.048 A 
ATOM     27  C   UNL     1       0.189   4.774  -1.365  1.00  0.00     0.030 A 
ATOM     28  C   UNL     1       2.532   4.209  -1.103  1.00  0.00     0.030 A 
BRANCH  24  29
ATOM     29  O   UNL     1       0.498   1.127  -1.308  1.00  0.00    -0.497 OA
ATOM     30  C   UNL     1       1.150   0.289  -0.344  1.00  0.00     0.278 C 
ENDBRANCH  24  29
ENDBRANCH  19  23
ENDBRANCH  17  18
ENDBRANCH   7  17
ENDBRANCH   3   6
ENDBRANCH   1   2
BRANCH   1  31
ATOM     31  C   UNL     1       3.564   6.369   5.727  1.00  0.00     0.042 C 
BRANCH  31  32
ATOM     32  C   UNL     1       4.901   5.928   6.297  1.00  0.00     0.118 C 
BRANCH  32  33
ATOM     33  N   UNL     1       5.001   4.516   6.677  1.00  0.00    -0.352 N 
ATOM     34  C   UNL     1       5.817   3.976   7.675  1.00  0.00     0.251 C 
ATOM     35  H   UNL     1       4.436   3.883   6.178  1.00  0.00     0.163 HD
ATOM     36  O   UNL     1       6.165   2.821   7.678  1.00  0.00    -0.269 OA
BRANCH  34  37
ATOM     37  C   UNL     1       6.232   4.903   8.748  1.00  0.00     0.039 A 
ATOM     38  C   UNL     1       7.579   5.150   9.016  1.00  0.00     0.014 A 
ATOM     39  C   UNL     1       5.224   5.709   9.263  1.00  0.00     0.014 A 
ATOM     40  C   UNL     1       7.911   6.328   9.683  1.00  0.00     0.010 A 
ATOM     41  C   UNL     1       5.571   6.952   9.727  1.00  0.00     0.010 A 
ATOM     42  C   UNL     1       6.904   7.269   9.969  1.00  0.00    -0.014 A 
BRANCH  42  43
ATOM     43  C   UNL     1       7.241   8.648  10.332  1.00  0.00     0.031 A 
ATOM     44  C   UNL     1       8.345   9.245   9.525  1.00  0.00     0.074 A 
ATOM     45  C   UNL     1       6.510   9.420  11.170  1.00  0.00     0.049 A 
ATOM     46  N   UNL     1       9.564   9.439   9.904  1.00  0.00    -0.248 NA
ATOM     47  C   UNL     1       8.123   9.505   8.091  1.00  0.00     0.031 C 
ATOM     48  C   UNL     1       5.222   9.120  11.809  1.00  0.00     0.029 A 
ATOM     49  N   UNL     1       6.729  10.707  11.557  1.00  0.00    -0.354 N 
ATOM     50  C   UNL     1      10.203  10.068   8.841  1.00  0.00     0.074 A 
ATOM     51  C   UNL     1       9.342   9.888   7.699  1.00  0.00     0.031 C 
ATOM     52  C   UNL     1       4.667  10.257  12.285  1.00  0.00     0.029 A 
ATOM     53  C   UNL     1       5.645  11.319  12.180  1.00  0.00     0.049 A 
ATOM     54  H   UNL     1       7.585  11.168  11.408  1.00  0.00     0.167 HD
ATOM     55  C   UNL     1      11.234  10.932   9.061  1.00  0.00     0.031 A 
ATOM     56  C   UNL     1       5.559  12.604  12.601  1.00  0.00     0.031 A 
ATOM     57  C   UNL     1      11.740  10.809  10.409  1.00  0.00     0.049 A 
ATOM     58  C   UNL     1       6.941  13.110  12.734  1.00  0.00     0.074 A 
ATOM     59  C   UNL     1      12.255   9.777  11.170  1.00  0.00     0.029 A 
ATOM     60  N   UNL     1      11.345  11.773  11.306  1.00  0.00    -0.354 N 
ATOM     61  N   UNL     1       7.774  12.684  13.637  1.00  0.00    -0.248 NA
ATOM     62  C   UNL     1       7.540  13.767  11.586  1.00  0.00     0.031 C 
ATOM     63  C   UNL     1      11.693   9.964  12.469  1.00  0.00     0.029 A 
ATOM     64  C   UNL     1      10.952  11.147  12.459  1.00  0.00     0.049 A 
ATOM     65  H   UNL     1      11.344  12.745  11.148  1.00  0.00     0.167 HD
ATOM     66  C   UNL     1       8.986  12.587  12.971  1.00  0.00     0.074 A 
ATOM     67  C   UNL     1       8.807  13.375  11.751  1.00  0.00     0.031 C 
ATOM     68  C   UNL     1       9.909  11.646  13.330  1.00  0.00     0.031 A 
BRANCH  55  69
ATOM     69  C   UNL     1      11.457  12.190   8.247  1.00  0.00    -0.014 A 
ATOM     70  C   UNL     1      12.525  13.038   8.600  1.00  0.00     0.009 A 
ATOM     71  C   UNL     1      10.506  12.721   7.356  1.00  0.00     0.009 A 
ATOM     72  C   UNL     1      12.577  14.369   8.165  1.00  0.00     0.001 A 
ATOM     73  C   UNL     1      10.577  14.036   6.886  1.00  0.00     0.001 A 
ATOM     74  C   UNL     1      11.596  14.871   7.318  1.00  0.00     0.000 A 
ENDBRANCH  55  69
BRANCH  56  75
ATOM     75  C   UNL     1       4.395  13.508  12.706  1.00  0.00    -0.014 A 
ATOM     76  C   UNL     1       4.479  14.687  13.465  1.00  0.00     0.009 A 
ATOM     77  C   UNL     1       3.317  13.378  11.813  1.00  0.00     0.009 A 
ATOM     78  C   UNL     1       3.559  15.727  13.287  1.00  0.00     0.001 A 
ATOM     79  C   UNL     1       2.394  14.416  11.639  1.00  0.00     0.001 A 
ATOM     80  C   UNL     1       2.529  15.599  12.359  1.00  0.00     0.000 A 
ENDBRANCH  56  75
BRANCH  68  81
ATOM     81  C   UNL     1       9.705  10.916  14.638  1.00  0.00    -0.014 A 
ATOM     82  C   UNL     1       8.562  10.156  14.946  1.00  0.00     0.009 A 
ATOM     83  C   UNL     1      10.769  10.907  15.553  1.00  0.00     0.009 A 
ATOM     84  C   UNL     1       8.473   9.448  16.151  1.00  0.00     0.001 A 
ATOM     85  C   UNL     1      10.691  10.182  16.743  1.00  0.00     0.001 A 
ATOM     86  C   UNL     1       9.539   9.461  17.047  1.00  0.00     0.000 A 
ENDBRANCH  68  81
ENDBRANCH  42  43
ENDBRANCH  34  37
ENDBRANCH  32  33
ENDBRANCH  31  32
ENDBRANCH   1  31
TORSDOF 14
