REMARK SMILES O=Cc1c(OCc2ccc(C(=O)NCCCNC(=O)c3ccc(-c4c5nc(c(-c6ccccc6)c6ccc([nH]6)c(-c6ccccc6)c6nc(c(-c7ccccc7)c7ccc4[nH]7)C=C6)C=C5)cc3)cc2)ccc2ccccc12
REMARK SMILES IDX 14 1 13 2 11 3 12 4 10 6 7 7 8 8 69 9 9 10 68 11 6 12 5 13
REMARK SMILES IDX 4 14 3 15 77 16 70 17 72 18 76 19 71 20 73 21 75 22 74 23
REMARK SMILES IDX 2 24 1 25 15 26 16 27 17 28 18 29 19 31 20 32 21 33 67 34
REMARK SMILES IDX 22 35 66 36 23 37 24 38 25 39 60 40 26 41 65 42 59 43 61 44
REMARK SMILES IDX 27 45 64 46 58 47 57 48 28 50 50 51 35 52 49 53 36 54 39 55
REMARK SMILES IDX 48 56 62 57 37 58 38 59 47 61 63 62 40 63 29 64 30 65 34 66
REMARK SMILES IDX 31 67 33 68 32 69 51 70 52 71 56 72 53 73 55 74 54 75 41 76
REMARK SMILES IDX 42 77 46 78 43 79 45 80 44 81
REMARK H PARENT 13 5 17 30 61 49 39 60
REMARK Flexibility Score: inf
ROOT
ATOM      1  C   UNL     1       3.860   8.304  -4.750  1.00  0.00     0.118 C 
ENDROOT
BRANCH   1   2
ATOM      2  N   UNL     1       5.100   7.593  -4.514  1.00  0.00    -0.352 N 
ATOM      3  C   UNL     1       5.356   6.346  -4.012  1.00  0.00     0.251 C 
ATOM      4  O   UNL     1       6.532   6.004  -3.892  1.00  0.00    -0.269 OA
ATOM      5  H   UNL     1       5.907   8.100  -4.760  1.00  0.00     0.163 HD
BRANCH   3   6
ATOM      6  C   UNL     1       4.280   5.371  -3.708  1.00  0.00     0.039 A 
ATOM      7  C   UNL     1       2.319   3.358  -3.348  1.00  0.00    -0.011 A 
ATOM      8  C   UNL     1       3.579   3.060  -3.882  1.00  0.00     0.008 A 
ATOM      9  C   UNL     1       2.079   4.680  -2.943  1.00  0.00     0.008 A 
ATOM     10  C   UNL     1       4.549   4.046  -4.050  1.00  0.00     0.014 A 
ATOM     11  C   UNL     1       3.054   5.675  -3.112  1.00  0.00     0.014 A 
BRANCH   7  12
ATOM     12  C   UNL     1       1.219   2.311  -3.271  1.00  0.00     0.265 C 
BRANCH  12  13
ATOM     13  O   UNL     1       1.406   1.309  -2.269  1.00  0.00    -0.488 OA
BRANCH  13  14
ATOM     14  C   UNL     1       2.299   0.293  -2.476  1.00  0.00     0.130 A 
ATOM     15  C   UNL     1       2.864  -0.314  -1.340  1.00  0.00     0.064 A 
ATOM     16  C   UNL     1       3.984  -1.190  -1.445  1.00  0.00    -0.004 A 
ATOM     17  C   UNL     1       2.727  -0.116  -3.736  1.00  0.00     0.048 A 
ATOM     18  C   UNL     1       4.495  -1.456  -2.738  1.00  0.00    -0.017 A 
ATOM     19  C   UNL     1       4.636  -1.812  -0.350  1.00  0.00     0.009 A 
ATOM     20  C   UNL     1       3.836  -0.952  -3.865  1.00  0.00     0.012 A 
ATOM     21  C   UNL     1       5.656  -2.229  -2.897  1.00  0.00     0.009 A 
ATOM     22  C   UNL     1       5.782  -2.592  -0.524  1.00  0.00     0.001 A 
ATOM     23  C   UNL     1       6.304  -2.782  -1.796  1.00  0.00     0.001 A 
BRANCH  15  24
ATOM     24  C   UNL     1       2.312   0.008  -0.003  1.00  0.00     0.264 C 
ATOM     25  O   UNL     1       1.110   0.076   0.226  1.00  0.00    -0.298 OA
ENDBRANCH  15  24
ENDBRANCH  13  14
ENDBRANCH  12  13
ENDBRANCH   7  12
ENDBRANCH   3   6
ENDBRANCH   1   2
BRANCH   1  26
ATOM     26  C   UNL     1       3.577   9.277  -3.607  1.00  0.00     0.042 C 
BRANCH  26  27
ATOM     27  C   UNL     1       4.603  10.402  -3.505  1.00  0.00     0.118 C 
BRANCH  27  28
ATOM     28  N   UNL     1       4.509  11.325  -4.623  1.00  0.00    -0.352 N 
ATOM     29  C   UNL     1       4.294  12.679  -4.625  1.00  0.00     0.251 C 
ATOM     30  H   UNL     1       4.617  10.917  -5.513  1.00  0.00     0.163 HD
ATOM     31  O   UNL     1       4.012  13.244  -5.677  1.00  0.00    -0.269 OA
BRANCH  29  32
ATOM     32  C   UNL     1       4.397  13.463  -3.375  1.00  0.00     0.039 A 
ATOM     33  C   UNL     1       3.488  14.504  -3.166  1.00  0.00     0.014 A 
ATOM     34  C   UNL     1       5.421  13.233  -2.450  1.00  0.00     0.014 A 
ATOM     35  C   UNL     1       3.593  15.299  -2.024  1.00  0.00     0.010 A 
ATOM     36  C   UNL     1       5.485  13.984  -1.278  1.00  0.00     0.010 A 
ATOM     37  C   UNL     1       4.587  15.040  -1.067  1.00  0.00    -0.014 A 
BRANCH  37  38
ATOM     38  C   UNL     1       4.717  15.898   0.136  1.00  0.00     0.031 A 
ATOM     39  C   UNL     1       5.922  16.782   0.309  1.00  0.00     0.074 A 
ATOM     40  C   UNL     1       3.762  15.865   1.084  1.00  0.00     0.049 A 
ATOM     41  N   UNL     1       6.205  17.610   1.283  1.00  0.00    -0.248 NA
ATOM     42  C   UNL     1       6.954  16.712  -0.738  1.00  0.00     0.031 C 
ATOM     43  C   UNL     1       2.567  15.018   1.055  1.00  0.00     0.029 A 
ATOM     44  N   UNL     1       3.645  16.567   2.256  1.00  0.00    -0.354 N 
ATOM     45  C   UNL     1       7.450  18.143   0.975  1.00  0.00     0.074 A 
ATOM     46  C   UNL     1       7.890  17.514  -0.251  1.00  0.00     0.031 C 
ATOM     47  C   UNL     1       1.823  15.274   2.143  1.00  0.00     0.029 A 
ATOM     48  C   UNL     1       2.498  16.281   2.955  1.00  0.00     0.049 A 
ATOM     49  H   UNL     1       4.318  17.215   2.566  1.00  0.00     0.167 HD
ATOM     50  C   UNL     1       8.158  19.087   1.640  1.00  0.00     0.031 A 
ATOM     51  C   UNL     1       2.038  16.781   4.117  1.00  0.00     0.031 A 
ATOM     52  C   UNL     1       7.714  19.729   2.849  1.00  0.00     0.049 A 
ATOM     53  C   UNL     1       2.832  17.841   4.826  1.00  0.00     0.074 A 
ATOM     54  C   UNL     1       8.330  20.740   3.566  1.00  0.00     0.029 A 
ATOM     55  N   UNL     1       6.541  19.419   3.518  1.00  0.00    -0.354 N 
ATOM     56  N   UNL     1       3.973  18.387   4.483  1.00  0.00    -0.248 NA
ATOM     57  C   UNL     1       2.262  18.366   6.075  1.00  0.00     0.031 C 
ATOM     58  C   UNL     1       7.546  21.016   4.692  1.00  0.00     0.029 A 
ATOM     59  C   UNL     1       6.422  20.206   4.651  1.00  0.00     0.049 A 
ATOM     60  H   UNL     1       5.889  18.740   3.231  1.00  0.00     0.167 HD
ATOM     61  C   UNL     1       4.249  19.332   5.461  1.00  0.00     0.074 A 
ATOM     62  C   UNL     1       3.145  19.300   6.399  1.00  0.00     0.031 C 
ATOM     63  C   UNL     1       5.321  20.153   5.575  1.00  0.00     0.031 A 
BRANCH  50  64
ATOM     64  C   UNL     1       9.492  19.479   1.070  1.00  0.00    -0.014 A 
ATOM     65  C   UNL     1       9.585  20.236  -0.109  1.00  0.00     0.009 A 
ATOM     66  C   UNL     1      10.672  19.108   1.734  1.00  0.00     0.009 A 
ATOM     67  C   UNL     1      10.832  20.582  -0.632  1.00  0.00     0.001 A 
ATOM     68  C   UNL     1      11.918  19.478   1.223  1.00  0.00     0.001 A 
ATOM     69  C   UNL     1      11.997  20.206   0.036  1.00  0.00     0.000 A 
ENDBRANCH  50  64
BRANCH  51  70
ATOM     70  C   UNL     1       0.744  16.306   4.668  1.00  0.00    -0.014 A 
ATOM     71  C   UNL     1      -0.389  17.132   4.634  1.00  0.00     0.009 A 
ATOM     72  C   UNL     1       0.636  15.025   5.232  1.00  0.00     0.009 A 
ATOM     73  C   UNL     1      -1.599  16.695   5.176  1.00  0.00     0.001 A 
ATOM     74  C   UNL     1      -0.583  14.582   5.750  1.00  0.00     0.001 A 
ATOM     75  C   UNL     1      -1.696  15.420   5.729  1.00  0.00     0.000 A 
ENDBRANCH  51  70
BRANCH  63  76
ATOM     76  C   UNL     1       5.336  21.093   6.747  1.00  0.00    -0.014 A 
ATOM     77  C   UNL     1       5.587  20.626   8.046  1.00  0.00     0.009 A 
ATOM     78  C   UNL     1       5.120  22.464   6.543  1.00  0.00     0.009 A 
ATOM     79  C   UNL     1       5.584  21.512   9.125  1.00  0.00     0.001 A 
ATOM     80  C   UNL     1       5.144  23.351   7.620  1.00  0.00     0.001 A 
ATOM     81  C   UNL     1       5.366  22.873   8.911  1.00  0.00     0.000 A 
ENDBRANCH  63  76
ENDBRANCH  37  38
ENDBRANCH  29  32
ENDBRANCH  27  28
ENDBRANCH  26  27
ENDBRANCH   1  26
TORSDOF 14
