REMARK SMILES C[N@@H+](C[C@H]1CCC[N@@H+]1CC(=O)NCCCNC(=O)c1ccc(-c2c3nc(c(-c4ccccc4)c4ccc([nH]4)c(-c4ccccc4)c4nc(c(-c5ccccc5)c5ccc2[nH]5)C=C4)C=C3)cc1)C1CC1
REMARK SMILES IDX 13 1 12 2 10 3 11 4 9 6 8 7 4 8 5 9 6 10 7 11 3 13 2 14 1 15
REMARK SMILES IDX 67 17 68 18 69 19 14 20 15 21 16 22 17 23 18 25 19 26 20 27
REMARK SMILES IDX 66 28 21 29 65 30 22 31 23 32 24 33 59 34 25 35 64 36 58 37
REMARK SMILES IDX 60 38 26 39 63 40 57 41 56 42 27 44 49 45 34 46 48 47 35 48
REMARK SMILES IDX 38 49 47 50 61 51 36 52 37 53 46 55 62 56 39 57 28 58 29 59
REMARK SMILES IDX 33 60 30 61 32 62 31 63 50 64 51 65 55 66 52 67 54 68 53 69
REMARK SMILES IDX 40 70 41 71 45 72 42 73 44 74 43 75
REMARK H PARENT 12 5 8 12 2 16 16 24 60 43 38 54
REMARK Flexibility Score: inf
ROOT
ATOM      1  C   UNL     1       0.560   2.053  -1.716  1.00  0.00     0.118 C 
ENDROOT
BRANCH   1   2
ATOM      2  N   UNL     1       1.289   2.203  -0.465  1.00  0.00    -0.351 N 
ATOM      3  C   UNL     1       1.362   1.433   0.660  1.00  0.00     0.275 C 
ATOM      4  O   UNL     1       2.181   1.782   1.516  1.00  0.00    -0.269 OA
ATOM      5  H   UNL     1       1.837   3.020  -0.421  1.00  0.00     0.163 HD
BRANCH   3   6
ATOM      6  C   UNL     1       0.460   0.207   0.870  1.00  0.00     0.363 C 
BRANCH   6   7
ATOM      7  N   UNL     1      -0.695   0.429   1.779  1.00  0.00    -0.320 N 
ATOM      8  C   UNL     1      -1.638   1.429   1.261  1.00  0.00     0.240 C 
ATOM      9  C   UNL     1      -1.419   2.716   2.050  1.00  0.00     0.077 C 
ATOM     10  C   UNL     1      -0.526   2.352   3.221  1.00  0.00     0.068 C 
ATOM     11  C   UNL     1      -0.304   0.853   3.127  1.00  0.00     0.263 C 
ATOM     12  H   UNL     1      -1.142  -0.486   1.828  1.00  0.00     0.348 HD
BRANCH   8  13
ATOM     13  C   UNL     1      -3.117   0.984   1.084  1.00  0.00     0.327 C 
BRANCH  13  14
ATOM     14  N   UNL     1      -3.939   0.458   2.176  1.00  0.00    -0.330 N 
ATOM     15  C   UNL     1      -4.196   1.404   3.249  1.00  0.00     0.333 C 
ATOM     16  H   UNL     1      -4.845   0.313   1.729  1.00  0.00     0.348 HD
BRANCH  14  17
ATOM     17  C   UNL     1      -3.551  -0.872   2.657  1.00  0.00     0.184 C 
ATOM     18  C   UNL     1      -4.636  -1.902   2.834  1.00  0.00     0.071 C 
ATOM     19  C   UNL     1      -3.615  -2.071   1.750  1.00  0.00     0.071 C 
ENDBRANCH  14  17
ENDBRANCH  13  14
ENDBRANCH   8  13
ENDBRANCH   6   7
ENDBRANCH   3   6
ENDBRANCH   1   2
BRANCH   1  20
ATOM     20  C   UNL     1      -0.597   3.041  -1.916  1.00  0.00     0.042 C 
BRANCH  20  21
ATOM     21  C   UNL     1      -0.309   4.495  -1.547  1.00  0.00     0.118 C 
BRANCH  21  22
ATOM     22  N   UNL     1       0.226   5.235  -2.673  1.00  0.00    -0.352 N 
ATOM     23  C   UNL     1      -0.291   6.336  -3.311  1.00  0.00     0.251 C 
ATOM     24  H   UNL     1       1.080   4.902  -3.031  1.00  0.00     0.163 HD
ATOM     25  O   UNL     1       0.162   6.664  -4.404  1.00  0.00    -0.269 OA
BRANCH  23  26
ATOM     26  C   UNL     1      -1.384   7.139  -2.706  1.00  0.00     0.039 A 
ATOM     27  C   UNL     1      -2.394   7.624  -3.546  1.00  0.00     0.014 A 
ATOM     28  C   UNL     1      -1.371   7.510  -1.357  1.00  0.00     0.014 A 
ATOM     29  C   UNL     1      -3.388   8.466  -3.038  1.00  0.00     0.010 A 
ATOM     30  C   UNL     1      -2.389   8.320  -0.840  1.00  0.00     0.010 A 
ATOM     31  C   UNL     1      -3.394   8.824  -1.681  1.00  0.00    -0.014 A 
BRANCH  31  32
ATOM     32  C   UNL     1      -4.425   9.758  -1.156  1.00  0.00     0.031 A 
ATOM     33  C   UNL     1      -4.057  11.168  -0.775  1.00  0.00     0.074 A 
ATOM     34  C   UNL     1      -5.700   9.347  -1.018  1.00  0.00     0.049 A 
ATOM     35  N   UNL     1      -4.828  12.132  -0.335  1.00  0.00    -0.248 NA
ATOM     36  C   UNL     1      -2.639  11.539  -0.892  1.00  0.00     0.031 C 
ATOM     37  C   UNL     1      -6.195   8.005  -1.327  1.00  0.00     0.029 A 
ATOM     38  N   UNL     1      -6.814  10.024  -0.586  1.00  0.00    -0.354 N 
ATOM     39  C   UNL     1      -3.991  13.219  -0.119  1.00  0.00     0.074 A 
ATOM     40  C   UNL     1      -2.647  12.785  -0.439  1.00  0.00     0.031 C 
ATOM     41  C   UNL     1      -7.518   7.964  -1.095  1.00  0.00     0.029 A 
ATOM     42  C   UNL     1      -7.959   9.267  -0.603  1.00  0.00     0.049 A 
ATOM     43  H   UNL     1      -6.793  10.963  -0.291  1.00  0.00     0.167 HD
ATOM     44  C   UNL     1      -4.308  14.470   0.294  1.00  0.00     0.031 A 
ATOM     45  C   UNL     1      -9.223   9.583  -0.267  1.00  0.00     0.031 A 
ATOM     46  C   UNL     1      -5.638  14.918   0.606  1.00  0.00     0.049 A 
ATOM     47  C   UNL     1      -9.548  10.974   0.199  1.00  0.00     0.074 A 
ATOM     48  C   UNL     1      -6.057  16.186   0.977  1.00  0.00     0.029 A 
ATOM     49  N   UNL     1      -6.766  14.115   0.588  1.00  0.00    -0.354 N 
ATOM     50  N   UNL     1      -8.753  12.006   0.336  1.00  0.00    -0.248 NA
ATOM     51  C   UNL     1     -10.952  11.244   0.545  1.00  0.00     0.031 C 
ATOM     52  C   UNL     1      -7.434  16.139   1.222  1.00  0.00     0.029 A 
ATOM     53  C   UNL     1      -7.877  14.852   0.964  1.00  0.00     0.049 A 
ATOM     54  H   UNL     1      -6.777  13.161   0.344  1.00  0.00     0.167 HD
ATOM     55  C   UNL     1      -9.560  13.051   0.765  1.00  0.00     0.074 A 
ATOM     56  C   UNL     1     -10.910  12.533   0.853  1.00  0.00     0.031 C 
ATOM     57  C   UNL     1      -9.213  14.327   1.058  1.00  0.00     0.031 A 
BRANCH  44  58
ATOM     58  C   UNL     1      -3.181  15.453   0.438  1.00  0.00    -0.014 A 
ATOM     59  C   UNL     1      -2.577  16.030  -0.690  1.00  0.00     0.009 A 
ATOM     60  C   UNL     1      -2.749  15.839   1.716  1.00  0.00     0.009 A 
ATOM     61  C   UNL     1      -1.540  16.953  -0.539  1.00  0.00     0.001 A 
ATOM     62  C   UNL     1      -1.726  16.778   1.863  1.00  0.00     0.001 A 
ATOM     63  C   UNL     1      -1.118  17.328   0.736  1.00  0.00     0.000 A 
ENDBRANCH  44  58
BRANCH  45  64
ATOM     64  C   UNL     1     -10.294   8.562  -0.379  1.00  0.00    -0.014 A 
ATOM     65  C   UNL     1     -11.228   8.624  -1.424  1.00  0.00     0.009 A 
ATOM     66  C   UNL     1     -10.387   7.523   0.559  1.00  0.00     0.009 A 
ATOM     67  C   UNL     1     -12.248   7.676  -1.515  1.00  0.00     0.001 A 
ATOM     68  C   UNL     1     -11.396   6.564   0.453  1.00  0.00     0.001 A 
ATOM     69  C   UNL     1     -12.329   6.645  -0.580  1.00  0.00     0.000 A 
ENDBRANCH  45  64
BRANCH  57  70
ATOM     70  C   UNL     1     -10.312  15.255   1.486  1.00  0.00    -0.014 A 
ATOM     71  C   UNL     1     -10.862  15.178   2.774  1.00  0.00     0.009 A 
ATOM     72  C   UNL     1     -10.783  16.235   0.599  1.00  0.00     0.009 A 
ATOM     73  C   UNL     1     -11.886  16.048   3.156  1.00  0.00     0.001 A 
ATOM     74  C   UNL     1     -11.792  17.117   0.992  1.00  0.00     0.001 A 
ATOM     75  C   UNL     1     -12.347  17.018   2.266  1.00  0.00     0.000 A 
ENDBRANCH  57  70
ENDBRANCH  31  32
ENDBRANCH  23  26
ENDBRANCH  21  22
ENDBRANCH  20  21
ENDBRANCH   1  20
TORSDOF 14
