REMARK SMILES COC(=O)C[C@H](c1ccc(C(=O)NCCCNC(=O)c2ccc(-c3c4nc(c(-c5ccccc5)c5ccc([nH]5)c(-c5ccccc5)c5nc(c(-c6ccccc6)c6ccc3[nH]6)C=C5)C=C4)cc2)cc1)c1c(O)n[nH]c1C
REMARK SMILES IDX 14 1 13 2 11 3 12 4 10 6 7 7 8 8 69 9 9 10 68 11 6 12 5 13
REMARK SMILES IDX 3 14 4 15 2 16 1 17 70 18 71 19 75 20 73 21 74 22 76 23
REMARK SMILES IDX 72 25 15 27 16 28 17 29 18 30 19 32 20 33 21 34 67 35 22 36
REMARK SMILES IDX 66 37 23 38 24 39 25 40 60 41 26 42 65 43 59 44 61 45 27 46
REMARK SMILES IDX 64 47 58 48 57 49 28 51 50 52 35 53 49 54 36 55 39 56 48 57
REMARK SMILES IDX 62 58 37 59 38 60 47 62 63 63 40 64 29 65 30 66 34 67 31 68
REMARK SMILES IDX 33 69 32 70 51 71 52 72 56 73 53 74 55 75 54 76 41 77 42 78
REMARK SMILES IDX 46 79 43 80 45 81 44 82
REMARK H PARENT 13 5 74 24 72 26 17 31 61 50 39 61
REMARK Flexibility Score: inf
ROOT
ATOM      1  C   UNL     1       1.147  -4.128  -2.412  1.00  0.00     0.118 C 
ENDROOT
BRANCH   1   2
ATOM      2  N   UNL     1      -0.138  -4.661  -2.011  1.00  0.00    -0.352 N 
ATOM      3  C   UNL     1      -0.704  -4.919  -0.790  1.00  0.00     0.251 C 
ATOM      4  O   UNL     1      -1.787  -5.508  -0.807  1.00  0.00    -0.269 OA
ATOM      5  H   UNL     1      -0.724  -4.884  -2.770  1.00  0.00     0.163 HD
BRANCH   3   6
ATOM      6  C   UNL     1      -0.145  -4.453   0.515  1.00  0.00     0.039 A 
ATOM      7  C   UNL     1       0.529  -3.152   2.934  1.00  0.00    -0.040 A 
ATOM      8  C   UNL     1      -0.715  -3.784   2.783  1.00  0.00     0.005 A 
ATOM      9  C   UNL     1       1.482  -3.326   1.925  1.00  0.00     0.005 A 
ATOM     10  C   UNL     1      -1.050  -4.410   1.584  1.00  0.00     0.014 A 
ATOM     11  C   UNL     1       1.154  -3.994   0.740  1.00  0.00     0.014 A 
BRANCH   7  12
ATOM     12  C   UNL     1       0.807  -2.156   4.058  1.00  0.00     0.068 C 
BRANCH  12  13
ATOM     13  C   UNL     1       0.175  -0.795   3.715  1.00  0.00     0.136 C 
BRANCH  13  14
ATOM     14  C   UNL     1      -1.290  -0.861   3.332  1.00  0.00     0.306 C 
ATOM     15  O   UNL     1      -2.214  -0.950   4.123  1.00  0.00    -0.252 OA
BRANCH  14  16
ATOM     16  O   UNL     1      -1.424  -0.855   1.973  1.00  0.00    -0.469 OA
ATOM     17  C   UNL     1      -2.729  -1.195   1.494  1.00  0.00     0.282 C 
ENDBRANCH  14  16
ENDBRANCH  13  14
ENDBRANCH  12  13
BRANCH  12  18
ATOM     18  C   UNL     1       0.462  -2.803   5.375  1.00  0.00     0.044 A 
ATOM     19  C   UNL     1       0.741  -4.130   5.769  1.00  0.00     0.234 A 
ATOM     20  C   UNL     1      -0.065  -2.266   6.548  1.00  0.00     0.040 A 
ATOM     21  N   UNL     1       0.352  -4.458   6.988  1.00  0.00    -0.137 NA
ATOM     22  N   UNL     1      -0.173  -3.309   7.436  1.00  0.00    -0.279 N 
ATOM     23  C   UNL     1      -0.461  -0.898   6.965  1.00  0.00     0.066 C 
ATOM     24  H   UNL     1      -0.598  -3.221   8.320  1.00  0.00     0.190 HD
BRANCH  19  25
ATOM     25  O   UNL     1       1.354  -5.109   5.109  1.00  0.00    -0.492 OA
ATOM     26  H   UNL     1       1.663  -4.963   4.236  1.00  0.00     0.295 HD
ENDBRANCH  19  25
ENDBRANCH  12  18
ENDBRANCH   7  12
ENDBRANCH   3   6
ENDBRANCH   1   2
BRANCH   1  27
ATOM     27  C   UNL     1       2.199  -5.236  -2.422  1.00  0.00     0.042 C 
BRANCH  27  28
ATOM     28  C   UNL     1       2.005  -6.206  -3.584  1.00  0.00     0.118 C 
BRANCH  28  29
ATOM     29  N   UNL     1       2.367  -5.591  -4.852  1.00  0.00    -0.352 N 
ATOM     30  C   UNL     1       3.297  -5.986  -5.777  1.00  0.00     0.251 C 
ATOM     31  H   UNL     1       1.871  -4.771  -5.078  1.00  0.00     0.163 HD
ATOM     32  O   UNL     1       3.653  -5.204  -6.653  1.00  0.00    -0.269 OA
BRANCH  30  33
ATOM     33  C   UNL     1       3.870  -7.348  -5.728  1.00  0.00     0.039 A 
ATOM     34  C   UNL     1       5.227  -7.514  -6.018  1.00  0.00     0.014 A 
ATOM     35  C   UNL     1       3.068  -8.461  -5.460  1.00  0.00     0.014 A 
ATOM     36  C   UNL     1       5.785  -8.793  -6.011  1.00  0.00     0.010 A 
ATOM     37  C   UNL     1       3.639  -9.728  -5.387  1.00  0.00     0.010 A 
ATOM     38  C   UNL     1       4.998  -9.908  -5.681  1.00  0.00    -0.014 A 
BRANCH  38  39
ATOM     39  C   UNL     1       5.580 -11.271  -5.663  1.00  0.00     0.031 A 
ATOM     40  C   UNL     1       5.127 -12.300  -6.662  1.00  0.00     0.074 A 
ATOM     41  C   UNL     1       6.487 -11.594  -4.721  1.00  0.00     0.049 A 
ATOM     42  N   UNL     1       5.499 -13.549  -6.788  1.00  0.00    -0.248 NA
ATOM     43  C   UNL     1       4.104 -11.878  -7.633  1.00  0.00     0.031 C 
ATOM     44  C   UNL     1       6.978 -10.695  -3.674  1.00  0.00     0.029 A 
ATOM     45  N   UNL     1       7.155 -12.769  -4.493  1.00  0.00    -0.354 N 
ATOM     46  C   UNL     1       4.747 -14.063  -7.837  1.00  0.00     0.074 A 
ATOM     47  C   UNL     1       3.864 -13.008  -8.282  1.00  0.00     0.031 C 
ATOM     48  C   UNL     1       7.890 -11.344  -2.933  1.00  0.00     0.029 A 
ATOM     49  C   UNL     1       8.023 -12.709  -3.430  1.00  0.00     0.049 A 
ATOM     50  H   UNL     1       7.026 -13.578  -5.039  1.00  0.00     0.167 HD
ATOM     51  C   UNL     1       4.800 -15.296  -8.393  1.00  0.00     0.031 A 
ATOM     52  C   UNL     1       8.834 -13.650  -2.914  1.00  0.00     0.031 A 
ATOM     53  C   UNL     1       5.686 -16.342  -7.956  1.00  0.00     0.049 A 
ATOM     54  C   UNL     1       8.875 -15.011  -3.549  1.00  0.00     0.074 A 
ATOM     55  C   UNL     1       5.852 -17.610  -8.485  1.00  0.00     0.029 A 
ATOM     56  N   UNL     1       6.557 -16.238  -6.883  1.00  0.00    -0.354 N 
ATOM     57  N   UNL     1       8.204 -15.461  -4.582  1.00  0.00    -0.248 NA
ATOM     58  C   UNL     1       9.798 -15.988  -2.956  1.00  0.00     0.031 C 
ATOM     59  C   UNL     1       6.794 -18.288  -7.705  1.00  0.00     0.029 A 
ATOM     60  C   UNL     1       7.251 -17.425  -6.722  1.00  0.00     0.049 A 
ATOM     61  H   UNL     1       6.666 -15.438  -6.319  1.00  0.00     0.167 HD
ATOM     62  C   UNL     1       8.642 -16.764  -4.778  1.00  0.00     0.074 A 
ATOM     63  C   UNL     1       9.648 -17.025  -3.769  1.00  0.00     0.031 C 
ATOM     64  C   UNL     1       8.247 -17.665  -5.710  1.00  0.00     0.031 A 
BRANCH  51  65
ATOM     65  C   UNL     1       3.865 -15.579  -9.536  1.00  0.00    -0.014 A 
ATOM     66  C   UNL     1       4.052 -14.981 -10.793  1.00  0.00     0.009 A 
ATOM     67  C   UNL     1       2.798 -16.474  -9.363  1.00  0.00     0.009 A 
ATOM     68  C   UNL     1       3.168 -15.244 -11.841  1.00  0.00     0.001 A 
ATOM     69  C   UNL     1       1.932 -16.757 -10.422  1.00  0.00     0.001 A 
ATOM     70  C   UNL     1       2.111 -16.134 -11.656  1.00  0.00     0.000 A 
ENDBRANCH  51  65
BRANCH  52  71
ATOM     71  C   UNL     1       9.694 -13.330  -1.746  1.00  0.00    -0.014 A 
ATOM     72  C   UNL     1      11.082 -13.198  -1.900  1.00  0.00     0.009 A 
ATOM     73  C   UNL     1       9.133 -13.156  -0.471  1.00  0.00     0.009 A 
ATOM     74  C   UNL     1      11.894 -12.924  -0.798  1.00  0.00     0.001 A 
ATOM     75  C   UNL     1       9.944 -12.854   0.625  1.00  0.00     0.001 A 
ATOM     76  C   UNL     1      11.325 -12.748   0.462  1.00  0.00     0.000 A 
ENDBRANCH  52  71
BRANCH  64  77
ATOM     77  C   UNL     1       8.930 -19.002  -5.699  1.00  0.00    -0.014 A 
ATOM     78  C   UNL     1       8.660 -19.949  -4.699  1.00  0.00     0.009 A 
ATOM     79  C   UNL     1       9.835 -19.327  -6.721  1.00  0.00     0.009 A 
ATOM     80  C   UNL     1       9.312 -21.184  -4.705  1.00  0.00     0.001 A 
ATOM     81  C   UNL     1      10.464 -20.573  -6.739  1.00  0.00     0.001 A 
ATOM     82  C   UNL     1      10.210 -21.496  -5.726  1.00  0.00     0.000 A 
ENDBRANCH  64  77
ENDBRANCH  38  39
ENDBRANCH  30  33
ENDBRANCH  28  29
ENDBRANCH  27  28
ENDBRANCH   1  27
TORSDOF 16
