REMARK SMILES C[C@@H](C(=O)NCCCNC(=O)c1ccc(-c2c3nc(c(-c4ccccc4)c4ccc([nH]4)c(-c4ccccc4)c4nc(c(-c5ccccc5)c5ccc2[nH]5)C=C4)C=C3)cc1)[C@H](C)[N@@H+]1C[C@H]2C[NH2+]C[C@@H]2[C@@H]1C
REMARK SMILES IDX 7 1 6 2 5 3 3 4 4 5 2 7 1 8 60 9 61 10 62 11 63 12 69 13
REMARK SMILES IDX 64 15 68 16 70 17 65 18 67 19 66 20 8 23 9 24 10 25 11 27
REMARK SMILES IDX 12 28 13 29 59 30 14 31 58 32 15 33 16 34 17 35 52 36 18 37
REMARK SMILES IDX 57 38 51 39 53 40 19 41 56 42 50 43 49 44 20 46 42 47 27 48
REMARK SMILES IDX 41 49 28 50 31 51 40 52 54 53 29 54 30 55 39 57 55 58 32 59
REMARK SMILES IDX 21 60 22 61 26 62 23 63 25 64 24 65 43 66 44 67 48 68 45 69
REMARK SMILES IDX 47 70 46 71 33 72 34 73 38 74 35 75 37 76 36 77
REMARK H PARENT 5 6 62 14 66 21 66 22 9 26 53 45 31 56
REMARK Flexibility Score: inf
ROOT
ATOM      1  C   UNL     1      -1.560   4.806   0.412  1.00  0.00     0.042 C 
ENDROOT
BRANCH   1   2
ATOM      2  C   UNL     1      -2.318   3.886  -0.541  1.00  0.00     0.117 C 
BRANCH   2   3
ATOM      3  N   UNL     1      -1.454   3.368  -1.585  1.00  0.00    -0.356 N 
ATOM      4  C   UNL     1      -0.880   2.139  -1.737  1.00  0.00     0.228 C 
ATOM      5  O   UNL     1      -0.068   2.017  -2.652  1.00  0.00    -0.275 OA
ATOM      6  H   UNL     1      -1.248   4.009  -2.303  1.00  0.00     0.163 HD
BRANCH   4   7
ATOM      7  C   UNL     1      -1.248   1.016  -0.768  1.00  0.00     0.133 C 
ATOM      8  C   UNL     1      -0.437   1.163   0.524  1.00  0.00     0.024 C 
BRANCH   7   9
ATOM      9  C   UNL     1      -1.129  -0.422  -1.365  1.00  0.00     0.193 C 
ATOM     10  C   UNL     1       0.336  -0.855  -1.570  1.00  0.00     0.076 C 
BRANCH   9  11
ATOM     11  N   UNL     1      -1.897  -0.732  -2.585  1.00  0.00    -0.329 N 
ATOM     12  C   UNL     1      -3.052   0.116  -2.954  1.00  0.00     0.272 C 
ATOM     13  C   UNL     1      -2.256  -2.177  -2.826  1.00  0.00     0.190 C 
ATOM     14  H   UNL     1      -1.142  -0.469  -3.219  1.00  0.00     0.348 HD
ATOM     15  C   UNL     1      -4.195  -0.843  -2.826  1.00  0.00     0.114 C 
ATOM     16  C   UNL     1      -3.619  -2.063  -3.495  1.00  0.00     0.116 C 
ATOM     17  C   UNL     1      -2.269  -3.132  -1.629  1.00  0.00     0.076 C 
ATOM     18  C   UNL     1      -5.504  -0.711  -3.549  1.00  0.00     0.270 C 
ATOM     19  C   UNL     1      -4.791  -3.004  -3.374  1.00  0.00     0.271 C 
ATOM     20  N   UNL     1      -5.968  -2.123  -3.621  1.00  0.00    -0.345 N 
ATOM     21  H   UNL     1      -6.356  -2.314  -4.545  1.00  0.00     0.346 HD
ATOM     22  H   UNL     1      -6.694  -2.295  -2.925  1.00  0.00     0.346 HD
ENDBRANCH   9  11
ENDBRANCH   7   9
ENDBRANCH   4   7
ENDBRANCH   2   3
ENDBRANCH   1   2
BRANCH   1  23
ATOM     23  C   UNL     1      -0.936   6.027  -0.257  1.00  0.00     0.118 C 
BRANCH  23  24
ATOM     24  N   UNL     1      -1.929   6.929  -0.818  1.00  0.00    -0.352 N 
ATOM     25  C   UNL     1      -2.104   8.274  -0.621  1.00  0.00     0.251 C 
ATOM     26  H   UNL     1      -2.572   6.510  -1.434  1.00  0.00     0.163 HD
ATOM     27  O   UNL     1      -3.114   8.823  -1.065  1.00  0.00    -0.269 OA
BRANCH  25  28
ATOM     28  C   UNL     1      -1.113   9.069   0.136  1.00  0.00     0.039 A 
ATOM     29  C   UNL     1      -1.579  10.040   1.026  1.00  0.00     0.014 A 
ATOM     30  C   UNL     1       0.262   8.896  -0.050  1.00  0.00     0.014 A 
ATOM     31  C   UNL     1      -0.670  10.800   1.765  1.00  0.00     0.010 A 
ATOM     32  C   UNL     1       1.167   9.606   0.739  1.00  0.00     0.010 A 
ATOM     33  C   UNL     1       0.710  10.571   1.647  1.00  0.00    -0.014 A 
BRANCH  33  34
ATOM     34  C   UNL     1       1.676  11.339   2.472  1.00  0.00     0.031 A 
ATOM     35  C   UNL     1       2.641  12.296   1.828  1.00  0.00     0.074 A 
ATOM     36  C   UNL     1       1.706  11.151   3.805  1.00  0.00     0.049 A 
ATOM     37  N   UNL     1       3.545  13.059   2.392  1.00  0.00    -0.248 NA
ATOM     38  C   UNL     1       2.601  12.396   0.361  1.00  0.00     0.031 C 
ATOM     39  C   UNL     1       0.858  10.217   4.549  1.00  0.00     0.029 A 
ATOM     40  N   UNL     1       2.479  11.741   4.773  1.00  0.00    -0.354 N 
ATOM     41  C   UNL     1       4.184  13.719   1.350  1.00  0.00     0.074 A 
ATOM     42  C   UNL     1       3.601  13.231   0.119  1.00  0.00     0.031 C 
ATOM     43  C   UNL     1       1.135  10.320   5.859  1.00  0.00     0.029 A 
ATOM     44  C   UNL     1       2.196  11.305   6.044  1.00  0.00     0.049 A 
ATOM     45  H   UNL     1       3.171  12.413   4.576  1.00  0.00     0.167 HD
ATOM     46  C   UNL     1       5.155  14.662   1.411  1.00  0.00     0.031 A 
ATOM     47  C   UNL     1       2.726  11.661   7.229  1.00  0.00     0.031 A 
ATOM     48  C   UNL     1       5.734  15.156   2.632  1.00  0.00     0.049 A 
ATOM     49  C   UNL     1       3.793  12.716   7.271  1.00  0.00     0.074 A 
ATOM     50  C   UNL     1       6.689  16.144   2.797  1.00  0.00     0.029 A 
ATOM     51  N   UNL     1       5.410  14.696   3.898  1.00  0.00    -0.354 N 
ATOM     52  N   UNL     1       4.338  13.380   6.281  1.00  0.00    -0.248 NA
ATOM     53  C   UNL     1       4.306  13.083   8.599  1.00  0.00     0.031 C 
ATOM     54  C   UNL     1       6.972  16.255   4.163  1.00  0.00     0.029 A 
ATOM     55  C   UNL     1       6.159  15.368   4.850  1.00  0.00     0.049 A 
ATOM     56  H   UNL     1       4.747  13.995   4.093  1.00  0.00     0.167 HD
ATOM     57  C   UNL     1       5.241  14.257   6.866  1.00  0.00     0.074 A 
ATOM     58  C   UNL     1       5.156  14.055   8.298  1.00  0.00     0.031 C 
ATOM     59  C   UNL     1       6.069  15.150   6.270  1.00  0.00     0.031 A 
BRANCH  46  60
ATOM     60  C   UNL     1       5.651  15.223   0.107  1.00  0.00    -0.014 A 
ATOM     61  C   UNL     1       4.850  16.080  -0.664  1.00  0.00     0.009 A 
ATOM     62  C   UNL     1       6.945  14.916  -0.342  1.00  0.00     0.009 A 
ATOM     63  C   UNL     1       5.320  16.589  -1.877  1.00  0.00     0.001 A 
ATOM     64  C   UNL     1       7.423  15.448  -1.541  1.00  0.00     0.001 A 
ATOM     65  C   UNL     1       6.607  16.276  -2.312  1.00  0.00     0.000 A 
ENDBRANCH  46  60
BRANCH  47  66
ATOM     66  C   UNL     1       2.232  11.032   8.481  1.00  0.00    -0.014 A 
ATOM     67  C   UNL     1       1.436  11.761   9.377  1.00  0.00     0.009 A 
ATOM     68  C   UNL     1       2.554   9.701   8.784  1.00  0.00     0.009 A 
ATOM     69  C   UNL     1       0.993  11.177  10.566  1.00  0.00     0.001 A 
ATOM     70  C   UNL     1       2.088   9.111   9.961  1.00  0.00     0.001 A 
ATOM     71  C   UNL     1       1.316   9.852  10.855  1.00  0.00     0.000 A 
ENDBRANCH  47  66
BRANCH  59  72
ATOM     72  C   UNL     1       6.928  15.989   7.171  1.00  0.00    -0.014 A 
ATOM     73  C   UNL     1       8.033  15.440   7.840  1.00  0.00     0.009 A 
ATOM     74  C   UNL     1       6.640  17.353   7.336  1.00  0.00     0.009 A 
ATOM     75  C   UNL     1       8.811  16.233   8.686  1.00  0.00     0.001 A 
ATOM     76  C   UNL     1       7.435  18.149   8.161  1.00  0.00     0.001 A 
ATOM     77  C   UNL     1       8.513  17.587   8.843  1.00  0.00     0.000 A 
ENDBRANCH  59  72
ENDBRANCH  33  34
ENDBRANCH  25  28
ENDBRANCH  23  24
ENDBRANCH   1  23
TORSDOF 12
