REMARK SMILES Cc1nn(C)c(C)c1CNC(=O)N[C@H]1CC[C@@H](C(=O)NCCCNC(=O)c2ccc(-c3c4nc(c(-c5ccccc5)c5ccc([nH]5)c(-c5ccccc5)c5nc(c(-c6ccccc6)c6ccc3[nH]6)C=C5)C=C4)cc2)C1
REMARK SMILES IDX 21 1 20 2 18 3 19 4 17 6 14 7 15 8 75 9 16 10 13 11 10 12
REMARK SMILES IDX 11 13 12 15 9 17 8 18 1 19 2 20 3 21 4 22 6 23 5 24 7 25
REMARK SMILES IDX 22 26 23 27 24 28 25 29 26 31 27 32 28 33 74 34 29 35 73 36
REMARK SMILES IDX 30 37 31 38 32 39 67 40 33 41 72 42 66 43 68 44 34 45 71 46
REMARK SMILES IDX 65 47 64 48 35 50 57 51 42 52 56 53 43 54 46 55 55 56 69 57
REMARK SMILES IDX 44 58 45 59 54 61 70 62 47 63 36 64 37 65 41 66 38 67 40 68
REMARK SMILES IDX 39 69 58 70 59 71 63 72 60 73 62 74 61 75 48 76 49 77 53 78
REMARK SMILES IDX 50 79 52 80 51 81
REMARK H PARENT 20 5 10 14 13 16 24 30 68 49 46 60
REMARK Flexibility Score: inf
ROOT
ATOM      1  C   UNL     1      -1.950   4.872  -3.104  1.00  0.00     0.117 C 
ENDROOT
BRANCH   1   2
ATOM      2  N   UNL     1      -1.249   4.727  -4.357  1.00  0.00    -0.356 N 
ATOM      3  C   UNL     1      -0.013   4.245  -4.633  1.00  0.00     0.223 C 
ATOM      4  O   UNL     1       0.251   4.072  -5.829  1.00  0.00    -0.275 OA
ATOM      5  H   UNL     1      -1.755   5.030  -5.146  1.00  0.00     0.163 HD
BRANCH   3   6
ATOM      6  C   UNL     1       1.020   3.847  -3.578  1.00  0.00     0.080 C 
ATOM      7  C   UNL     1       1.127   3.660  -1.112  1.00  0.00     0.084 C 
ATOM      8  C   UNL     1       1.594   2.362  -1.771  1.00  0.00     0.026 C 
ATOM      9  C   UNL     1       1.166   4.665  -2.284  1.00  0.00     0.038 C 
ATOM     10  C   UNL     1       0.905   2.388  -3.135  1.00  0.00     0.015 C 
BRANCH   7  11
ATOM     11  N   UNL     1      -0.211   3.445  -0.554  1.00  0.00    -0.335 N 
ATOM     12  N   UNL     1      -0.482   4.922   1.251  1.00  0.00    -0.334 N 
ATOM     13  C   UNL     1      -0.981   4.154   0.282  1.00  0.00     0.315 C 
ATOM     14  H   UNL     1      -1.025   5.708   1.491  1.00  0.00     0.165 HD
ATOM     15  O   UNL     1      -2.202   4.097   0.129  1.00  0.00    -0.249 OA
ATOM     16  H   UNL     1      -0.630   2.607  -0.856  1.00  0.00     0.165 HD
BRANCH  12  17
ATOM     17  C   UNL     1       0.737   4.763   1.994  1.00  0.00     0.157 C 
BRANCH  17  18
ATOM     18  C   UNL     1       1.428   6.069   2.187  1.00  0.00     0.015 A 
ATOM     19  C   UNL     1       3.037   5.348   4.126  1.00  0.00     0.069 C 
ATOM     20  C   UNL     1       2.434   6.309   3.168  1.00  0.00     0.065 A 
ATOM     21  N   UNL     1       2.831   7.582   3.175  1.00  0.00    -0.178 NA
ATOM     22  N   UNL     1       2.101   8.165   2.212  1.00  0.00    -0.272 N 
ATOM     23  C   UNL     1       1.307   7.285   1.520  1.00  0.00     0.040 A 
ATOM     24  C   UNL     1       2.209   9.596   2.051  1.00  0.00     0.174 C 
ATOM     25  C   UNL     1       0.506   7.694   0.337  1.00  0.00     0.067 C 
ENDBRANCH  17  18
ENDBRANCH  12  17
ENDBRANCH   7  11
ENDBRANCH   3   6
ENDBRANCH   1   2
BRANCH   1  26
ATOM     26  C   UNL     1      -2.029   6.317  -2.629  1.00  0.00     0.042 C 
BRANCH  26  27
ATOM     27  C   UNL     1      -3.438   6.882  -2.708  1.00  0.00     0.118 C 
BRANCH  27  28
ATOM     28  N   UNL     1      -4.372   6.214  -1.807  1.00  0.00    -0.352 N 
ATOM     29  C   UNL     1      -5.289   6.725  -0.922  1.00  0.00     0.251 C 
ATOM     30  H   UNL     1      -4.338   5.231  -1.839  1.00  0.00     0.163 HD
ATOM     31  O   UNL     1      -5.949   5.968  -0.214  1.00  0.00    -0.269 OA
BRANCH  29  32
ATOM     32  C   UNL     1      -5.452   8.185  -0.771  1.00  0.00     0.039 A 
ATOM     33  C   UNL     1      -5.612   8.709   0.516  1.00  0.00     0.014 A 
ATOM     34  C   UNL     1      -5.424   9.038  -1.873  1.00  0.00     0.014 A 
ATOM     35  C   UNL     1      -5.663  10.091   0.700  1.00  0.00     0.010 A 
ATOM     36  C   UNL     1      -5.353  10.410  -1.678  1.00  0.00     0.010 A 
ATOM     37  C   UNL     1      -5.485  10.954  -0.391  1.00  0.00    -0.014 A 
BRANCH  37  38
ATOM     38  C   UNL     1      -5.462  12.428  -0.229  1.00  0.00     0.031 A 
ATOM     39  C   UNL     1      -6.471  13.272  -0.962  1.00  0.00     0.074 A 
ATOM     40  C   UNL     1      -4.491  13.011   0.501  1.00  0.00     0.049 A 
ATOM     41  N   UNL     1      -6.545  14.575  -1.061  1.00  0.00    -0.248 NA
ATOM     42  C   UNL     1      -7.509  12.554  -1.723  1.00  0.00     0.031 C 
ATOM     43  C   UNL     1      -3.428  12.308   1.224  1.00  0.00     0.029 A 
ATOM     44  N   UNL     1      -4.237  14.337   0.749  1.00  0.00    -0.354 N 
ATOM     45  C   UNL     1      -7.606  14.825  -1.923  1.00  0.00     0.074 A 
ATOM     46  C   UNL     1      -8.108  13.544  -2.365  1.00  0.00     0.031 C 
ATOM     47  C   UNL     1      -2.659  13.206   1.861  1.00  0.00     0.029 A 
ATOM     48  C   UNL     1      -3.144  14.547   1.555  1.00  0.00     0.049 A 
ATOM     49  H   UNL     1      -4.786  15.068   0.384  1.00  0.00     0.167 HD
ATOM     50  C   UNL     1      -8.134  16.015  -2.293  1.00  0.00     0.031 A 
ATOM     51  C   UNL     1      -2.593  15.694   1.994  1.00  0.00     0.031 A 
ATOM     52  C   UNL     1      -7.661  17.285  -1.816  1.00  0.00     0.049 A 
ATOM     53  C   UNL     1      -3.212  17.003   1.588  1.00  0.00     0.074 A 
ATOM     54  C   UNL     1      -8.169  18.546  -2.072  1.00  0.00     0.029 A 
ATOM     55  N   UNL     1      -6.574  17.451  -0.973  1.00  0.00    -0.354 N 
ATOM     56  N   UNL     1      -4.251  17.221   0.818  1.00  0.00    -0.248 NA
ATOM     57  C   UNL     1      -2.590  18.222   2.122  1.00  0.00     0.031 C 
ATOM     58  C   UNL     1      -7.362  19.480  -1.415  1.00  0.00     0.029 A 
ATOM     59  C   UNL     1      -6.385  18.796  -0.709  1.00  0.00     0.049 A 
ATOM     60  H   UNL     1      -6.019  16.721  -0.615  1.00  0.00     0.167 HD
ATOM     61  C   UNL     1      -4.426  18.599   0.800  1.00  0.00     0.074 A 
ATOM     62  C   UNL     1      -3.394  19.163   1.647  1.00  0.00     0.031 C 
ATOM     63  C   UNL     1      -5.357  19.332   0.143  1.00  0.00     0.031 A 
BRANCH  50  64
ATOM     64  C   UNL     1      -9.287  15.990  -3.259  1.00  0.00    -0.014 A 
ATOM     65  C   UNL     1     -10.545  15.495  -2.880  1.00  0.00     0.009 A 
ATOM     66  C   UNL     1      -9.118  16.486  -4.561  1.00  0.00     0.009 A 
ATOM     67  C   UNL     1     -11.598  15.457  -3.797  1.00  0.00     0.001 A 
ATOM     68  C   UNL     1     -10.181  16.478  -5.466  1.00  0.00     0.001 A 
ATOM     69  C   UNL     1     -11.416  15.953  -5.087  1.00  0.00     0.000 A 
ENDBRANCH  50  64
BRANCH  51  70
ATOM     70  C   UNL     1      -1.407  15.659   2.889  1.00  0.00    -0.014 A 
ATOM     71  C   UNL     1      -1.527  16.016   4.241  1.00  0.00     0.009 A 
ATOM     72  C   UNL     1      -0.149  15.274   2.399  1.00  0.00     0.009 A 
ATOM     73  C   UNL     1      -0.408  16.016   5.077  1.00  0.00     0.001 A 
ATOM     74  C   UNL     1       0.963  15.247   3.244  1.00  0.00     0.001 A 
ATOM     75  C   UNL     1       0.835  15.628   4.579  1.00  0.00     0.000 A 
ENDBRANCH  51  70
BRANCH  63  76
ATOM     76  C   UNL     1      -5.330  20.819   0.349  1.00  0.00    -0.014 A 
ATOM     77  C   UNL     1      -4.335  21.619  -0.233  1.00  0.00     0.009 A 
ATOM     78  C   UNL     1      -6.350  21.432   1.095  1.00  0.00     0.009 A 
ATOM     79  C   UNL     1      -4.346  23.002  -0.046  1.00  0.00     0.001 A 
ATOM     80  C   UNL     1      -6.374  22.817   1.256  1.00  0.00     0.001 A 
ATOM     81  C   UNL     1      -5.368  23.600   0.693  1.00  0.00     0.000 A 
ENDBRANCH  63  76
ENDBRANCH  37  38
ENDBRANCH  29  32
ENDBRANCH  27  28
ENDBRANCH  26  27
ENDBRANCH   1  26
TORSDOF 13
