REMARK SMILES O=C(NCCCNC(=O)c1c(S(=O)(=O)N2CCO[C@@H](CCO)C2)sc2c1CC[NH2+]C2)c1ccc(-c2c3nc(c(-c4ccccc4)c4ccc([nH]4)c(-c4ccccc4)c4nc(c(-c5ccccc5)c5ccc2[nH]5)C=C4)C=C3)cc1
REMARK SMILES IDX 7 1 8 2 9 3 6 5 5 6 4 7 3 8 1 9 2 10 31 12 32 13 78 14 33 15
REMARK SMILES IDX 77 16 34 17 35 18 36 19 71 20 37 21 76 22 70 23 72 24 38 25
REMARK SMILES IDX 75 26 69 27 68 28 39 30 61 31 46 32 60 33 47 34 50 35 59 36
REMARK SMILES IDX 73 37 48 38 49 39 58 41 74 42 51 43 40 44 41 45 45 46 42 47
REMARK SMILES IDX 44 48 43 49 62 50 63 51 67 52 64 53 66 54 65 55 52 56 53 57
REMARK SMILES IDX 57 58 54 59 56 60 55 61 10 62 11 63 26 64 24 65 25 66 27 67
REMARK SMILES IDX 30 68 28 69 29 70 12 73 13 74 14 75 15 76 16 77 23 78 17 79
REMARK SMILES IDX 19 80 18 81 20 82 21 83 22 84
REMARK H PARENT 7 4 3 11 72 29 50 40 29 71 29 72 22 85
REMARK Flexibility Score: inf
ROOT
ATOM      1  N   UNL     1       4.885  -1.299  -4.255  1.00  0.00    -0.352 N 
ATOM      2  C   UNL     1       5.431  -1.727  -5.428  1.00  0.00     0.253 C 
ATOM      3  O   UNL     1       5.815  -0.820  -6.172  1.00  0.00    -0.269 OA
ATOM      4  H   UNL     1       4.814  -0.318  -4.202  1.00  0.00     0.163 HD
ENDROOT
BRANCH   1   5
ATOM      5  C   UNL     1       4.388  -1.962  -3.074  1.00  0.00     0.118 C 
BRANCH   5   6
ATOM      6  C   UNL     1       4.867  -1.351  -1.756  1.00  0.00     0.042 C 
BRANCH   6   7
ATOM      7  C   UNL     1       4.588   0.136  -1.536  1.00  0.00     0.118 C 
BRANCH   7   8
ATOM      8  N   UNL     1       3.198   0.540  -1.540  1.00  0.00    -0.352 N 
ATOM      9  O   UNL     1       1.166   1.146  -0.916  1.00  0.00    -0.269 OA
ATOM     10  C   UNL     1       2.183   0.511  -0.623  1.00  0.00     0.251 C 
ATOM     11  H   UNL     1       2.918   0.925  -2.402  1.00  0.00     0.163 HD
BRANCH  10  12
ATOM     12  C   UNL     1       2.190  -0.264   0.650  1.00  0.00     0.039 A 
ATOM     13  C   UNL     1       3.311  -0.827   1.262  1.00  0.00     0.014 A 
ATOM     14  C   UNL     1       0.936  -0.450   1.261  1.00  0.00     0.014 A 
ATOM     15  C   UNL     1       3.176  -1.640   2.391  1.00  0.00     0.010 A 
ATOM     16  C   UNL     1       0.800  -1.230   2.405  1.00  0.00     0.010 A 
ATOM     17  C   UNL     1       1.917  -1.866   2.947  1.00  0.00    -0.014 A 
BRANCH  17  18
ATOM     18  C   UNL     1       1.804  -2.735   4.123  1.00  0.00     0.031 A 
ATOM     19  C   UNL     1       2.353  -2.236   5.422  1.00  0.00     0.074 A 
ATOM     20  C   UNL     1       1.035  -3.843   4.125  1.00  0.00     0.049 A 
ATOM     21  N   UNL     1       3.087  -2.864   6.288  1.00  0.00    -0.248 NA
ATOM     22  C   UNL     1       2.014  -0.858   5.813  1.00  0.00     0.031 C 
ATOM     23  C   UNL     1       0.141  -4.303   3.058  1.00  0.00     0.029 A 
ATOM     24  N   UNL     1       0.774  -4.708   5.152  1.00  0.00    -0.354 N 
ATOM     25  C   UNL     1       3.193  -2.019   7.393  1.00  0.00     0.074 A 
ATOM     26  C   UNL     1       2.566  -0.775   7.023  1.00  0.00     0.031 C 
ATOM     27  C   UNL     1      -0.734  -5.193   3.573  1.00  0.00     0.029 A 
ATOM     28  C   UNL     1      -0.378  -5.454   4.958  1.00  0.00     0.049 A 
ATOM     29  H   UNL     1       1.347  -4.793   5.948  1.00  0.00     0.167 HD
ATOM     30  C   UNL     1       3.653  -2.422   8.610  1.00  0.00     0.031 A 
ATOM     31  C   UNL     1      -1.055  -6.172   5.884  1.00  0.00     0.031 A 
ATOM     32  C   UNL     1       4.394  -3.647   8.566  1.00  0.00     0.049 A 
ATOM     33  C   UNL     1      -0.170  -6.418   7.040  1.00  0.00     0.074 A 
ATOM     34  C   UNL     1       5.555  -4.076   7.957  1.00  0.00     0.029 A 
ATOM     35  N   UNL     1       3.795  -4.780   9.056  1.00  0.00    -0.354 N 
ATOM     36  N   UNL     1       0.867  -7.204   7.013  1.00  0.00    -0.248 NA
ATOM     37  C   UNL     1      -0.249  -5.532   8.190  1.00  0.00     0.031 C 
ATOM     38  C   UNL     1       5.355  -5.465   7.703  1.00  0.00     0.029 A 
ATOM     39  C   UNL     1       4.078  -5.785   8.168  1.00  0.00     0.049 A 
ATOM     40  H   UNL     1       3.266  -4.856   9.882  1.00  0.00     0.167 HD
ATOM     41  C   UNL     1       1.765  -6.638   7.903  1.00  0.00     0.074 A 
ATOM     42  C   UNL     1       0.971  -5.712   8.701  1.00  0.00     0.031 C 
ATOM     43  C   UNL     1       3.112  -6.762   7.718  1.00  0.00     0.031 A 
BRANCH  30  44
ATOM     44  C   UNL     1       3.179  -1.835   9.914  1.00  0.00    -0.014 A 
ATOM     45  C   UNL     1       3.882  -2.112  11.100  1.00  0.00     0.009 A 
ATOM     46  C   UNL     1       1.912  -1.235  10.049  1.00  0.00     0.009 A 
ATOM     47  C   UNL     1       3.333  -1.824  12.357  1.00  0.00     0.001 A 
ATOM     48  C   UNL     1       1.379  -0.909  11.299  1.00  0.00     0.001 A 
ATOM     49  C   UNL     1       2.082  -1.222  12.455  1.00  0.00     0.000 A 
ENDBRANCH  30  44
BRANCH  31  50
ATOM     50  C   UNL     1      -2.504  -6.454   5.919  1.00  0.00    -0.014 A 
ATOM     51  C   UNL     1      -3.016  -7.534   6.651  1.00  0.00     0.009 A 
ATOM     52  C   UNL     1      -3.419  -5.519   5.399  1.00  0.00     0.009 A 
ATOM     53  C   UNL     1      -4.395  -7.665   6.862  1.00  0.00     0.001 A 
ATOM     54  C   UNL     1      -4.794  -5.654   5.600  1.00  0.00     0.001 A 
ATOM     55  C   UNL     1      -5.282  -6.724   6.342  1.00  0.00     0.000 A 
ENDBRANCH  31  50
BRANCH  43  56
ATOM     56  C   UNL     1       3.590  -7.752   6.686  1.00  0.00    -0.014 A 
ATOM     57  C   UNL     1       3.259  -7.627   5.324  1.00  0.00     0.009 A 
ATOM     58  C   UNL     1       4.512  -8.740   7.059  1.00  0.00     0.009 A 
ATOM     59  C   UNL     1       3.804  -8.488   4.370  1.00  0.00     0.001 A 
ATOM     60  C   UNL     1       5.073  -9.588   6.100  1.00  0.00     0.001 A 
ATOM     61  C   UNL     1       4.714  -9.467   4.758  1.00  0.00     0.000 A 
ENDBRANCH  43  56
ENDBRANCH  17  18
ENDBRANCH  10  12
ENDBRANCH   7   8
ENDBRANCH   6   7
ENDBRANCH   5   6
ENDBRANCH   1   5
BRANCH   2  62
ATOM     62  C   UNL     1       5.688  -3.113  -5.827  1.00  0.00     0.074 A 
ATOM     63  C   UNL     1       4.830  -4.211  -5.955  1.00  0.00     0.148 A 
ATOM     64  C   UNL     1       7.023  -3.533  -6.267  1.00  0.00    -0.009 A 
ATOM     65  S   UNL     1       5.440  -5.250  -7.227  1.00  0.00    -0.120 S 
ATOM     66  C   UNL     1       7.017  -4.785  -6.846  1.00  0.00     0.064 A 
ATOM     67  C   UNL     1       8.334  -2.817  -6.070  1.00  0.00     0.099 C 
ATOM     68  C   UNL     1       8.220  -5.604  -7.181  1.00  0.00     0.308 C 
ATOM     69  C   UNL     1       9.527  -3.647  -6.621  1.00  0.00     0.265 C 
ATOM     70  N   UNL     1       9.390  -5.106  -6.432  1.00  0.00    -0.342 N 
ATOM     71  H   UNL     1       9.268  -5.309  -5.440  1.00  0.00     0.346 HD
ATOM     72  H   UNL     1      10.231  -5.568  -6.779  1.00  0.00     0.346 HD
BRANCH  63  73
ATOM     73  S   UNL     1       3.359  -4.924  -5.236  1.00  0.00     0.253 S 
ATOM     74  O   UNL     1       3.080  -4.203  -4.013  1.00  0.00    -0.206 OA
ATOM     75  O   UNL     1       2.373  -4.999  -6.284  1.00  0.00    -0.206 OA
BRANCH  73  76
ATOM     76  N   UNL     1       3.779  -6.525  -4.771  1.00  0.00    -0.192 NA
ATOM     77  C   UNL     1       2.779  -7.265  -3.938  1.00  0.00     0.131 C 
ATOM     78  C   UNL     1       5.151  -6.776  -4.244  1.00  0.00     0.134 C 
ATOM     79  C   UNL     1       3.065  -7.170  -2.418  1.00  0.00     0.177 C 
ATOM     80  C   UNL     1       5.255  -6.395  -2.772  1.00  0.00     0.135 C 
ATOM     81  O   UNL     1       4.453  -7.352  -2.061  1.00  0.00    -0.375 OA
BRANCH  80  82
ATOM     82  C   UNL     1       6.715  -6.420  -2.297  1.00  0.00     0.061 C 
BRANCH  82  83
ATOM     83  C   UNL     1       7.495  -5.191  -2.767  1.00  0.00     0.159 C 
BRANCH  83  84
ATOM     84  O   UNL     1       6.897  -4.009  -2.258  1.00  0.00    -0.396 OA
ATOM     85  H   UNL     1       5.985  -3.944  -2.580  1.00  0.00     0.210 HD
ENDBRANCH  83  84
ENDBRANCH  82  83
ENDBRANCH  80  82
ENDBRANCH  73  76
ENDBRANCH  63  73
ENDBRANCH   2  62
TORSDOF 15
