REMARK SMILES Cc1nc2sc3c(c2c2nc(CCC(=O)NCCCNC(=O)c4ccc(-c5c6nc(c(-c7ccccc7)c7ccc([nH]7)c(-c7ccccc7)c7nc(c(-c8ccccc8)c8ccc5[nH]8)C=C7)C=C6)cc4)nn12)[C@@H](C)CCC3
REMARK SMILES IDX 18 1 17 2 16 3 14 4 15 5 13 7 12 8 11 9 1 10 2 11 3 12 72 13
REMARK SMILES IDX 4 14 9 15 71 16 5 17 8 18 10 19 6 20 7 21 77 22 73 23 76 24
REMARK SMILES IDX 74 25 75 26 19 27 20 28 21 29 22 31 23 32 24 33 70 34 25 35
REMARK SMILES IDX 69 36 26 37 27 38 28 39 63 40 29 41 68 42 62 43 64 44 30 45
REMARK SMILES IDX 67 46 61 47 60 48 31 50 53 51 38 52 52 53 39 54 42 55 51 56
REMARK SMILES IDX 65 57 40 58 41 59 50 61 66 62 43 63 32 64 33 65 37 66 34 67
REMARK SMILES IDX 36 68 35 69 54 70 55 71 59 72 56 73 58 74 57 75 44 76 45 77
REMARK SMILES IDX 49 78 46 79 48 80 47 81
REMARK H PARENT 16 6 20 30 64 49 42 60
REMARK Flexibility Score: inf
ROOT
ATOM      1  C   UNL     1      -2.284  -3.031   1.431  1.00  0.00     0.042 C 
ENDROOT
BRANCH   1   2
ATOM      2  C   UNL     1      -3.477  -2.150   2.041  1.00  0.00     0.117 C 
BRANCH   2   3
ATOM      3  N   UNL     1      -3.611  -1.920   3.490  1.00  0.00    -0.356 N 
ATOM      4  C   UNL     1      -3.840  -0.816   4.294  1.00  0.00     0.220 C 
ATOM      5  O   UNL     1      -4.291  -1.025   5.419  1.00  0.00    -0.275 OA
ATOM      6  H   UNL     1      -3.514  -2.750   4.011  1.00  0.00     0.163 HD
BRANCH   4   7
ATOM      7  C   UNL     1      -3.603   0.635   3.880  1.00  0.00     0.108 C 
BRANCH   7   8
ATOM      8  C   UNL     1      -2.513   1.350   4.708  1.00  0.00     0.089 C 
BRANCH   8   9
ATOM      9  C   UNL     1      -1.196   0.755   4.422  1.00  0.00     0.152 A 
ATOM     10  C   UNL     1       1.014   0.296   0.914  1.00  0.00     0.090 C 
ATOM     11  C   UNL     1       0.936  -0.610   2.107  1.00  0.00     0.131 A 
ATOM     12  N   UNL     1       1.442  -1.811   2.081  1.00  0.00    -0.222 NA
ATOM     13  N   UNL     1       0.220  -0.149   3.218  1.00  0.00    -0.199 N 
ATOM     14  C   UNL     1       1.064  -2.624   3.120  1.00  0.00     0.129 A 
ATOM     15  C   UNL     1      -0.023  -0.932   4.325  1.00  0.00     0.168 A 
ATOM     16  N   UNL     1      -0.547   0.958   3.264  1.00  0.00    -0.150 NA
ATOM     17  S   UNL     1       1.306  -4.266   3.026  1.00  0.00    -0.120 S 
ATOM     18  C   UNL     1       0.322  -2.351   4.261  1.00  0.00     0.060 A 
ATOM     19  N   UNL     1      -0.796  -0.313   5.162  1.00  0.00    -0.211 NA
ATOM     20  C   UNL     1       0.141  -4.598   4.214  1.00  0.00     0.011 A 
ATOM     21  C   UNL     1      -0.157  -3.501   4.991  1.00  0.00    -0.018 A 
ATOM     22  C   UNL     1      -0.582  -5.886   4.348  1.00  0.00     0.047 C 
ATOM     23  C   UNL     1      -1.002  -3.718   6.252  1.00  0.00     0.018 C 
ATOM     24  C   UNL     1      -0.849  -6.218   5.767  1.00  0.00     0.006 C 
ATOM     25  C   UNL     1      -2.179  -2.800   6.409  1.00  0.00     0.013 C 
ATOM     26  C   UNL     1      -1.678  -5.123   6.348  1.00  0.00     0.008 C 
ENDBRANCH   8   9
ENDBRANCH   7   8
ENDBRANCH   4   7
ENDBRANCH   2   3
ENDBRANCH   1   2
BRANCH   1  27
ATOM     27  C   UNL     1      -2.081  -4.561   1.816  1.00  0.00     0.118 C 
BRANCH  27  28
ATOM     28  N   UNL     1      -1.163  -5.483   0.922  1.00  0.00    -0.352 N 
ATOM     29  C   UNL     1      -0.316  -6.649   0.858  1.00  0.00     0.251 C 
ATOM     30  H   UNL     1      -1.173  -5.095   0.018  1.00  0.00     0.163 HD
ATOM     31  O   UNL     1      -0.180  -7.108  -0.287  1.00  0.00    -0.269 OA
BRANCH  29  32
ATOM     32  C   UNL     1       0.462  -7.450   1.922  1.00  0.00     0.039 A 
ATOM     33  C   UNL     1       0.044  -8.686   2.448  1.00  0.00     0.014 A 
ATOM     34  C   UNL     1       1.734  -7.099   2.378  1.00  0.00     0.014 A 
ATOM     35  C   UNL     1       0.528  -9.172   3.721  1.00  0.00     0.010 A 
ATOM     36  C   UNL     1       2.169  -7.506   3.682  1.00  0.00     0.010 A 
ATOM     37  C   UNL     1       1.438  -8.429   4.476  1.00  0.00    -0.014 A 
BRANCH  37  38
ATOM     38  C   UNL     1       1.670  -8.537   5.986  1.00  0.00     0.031 A 
ATOM     39  C   UNL     1       3.037  -8.105   6.381  1.00  0.00     0.074 A 
ATOM     40  C   UNL     1       0.894  -8.758   7.104  1.00  0.00     0.049 A 
ATOM     41  N   UNL     1       4.081  -8.854   6.271  1.00  0.00    -0.248 NA
ATOM     42  C   UNL     1       3.330  -6.715   6.778  1.00  0.00     0.031 C 
ATOM     43  C   UNL     1      -0.564  -8.865   7.261  1.00  0.00     0.029 A 
ATOM     44  N   UNL     1       1.294  -8.836   8.438  1.00  0.00    -0.354 N 
ATOM     45  C   UNL     1       5.117  -8.126   6.821  1.00  0.00     0.074 A 
ATOM     46  C   UNL     1       4.667  -6.756   6.853  1.00  0.00     0.031 C 
ATOM     47  C   UNL     1      -0.927  -8.730   8.568  1.00  0.00     0.029 A 
ATOM     48  C   UNL     1       0.266  -8.812   9.393  1.00  0.00     0.049 A 
ATOM     49  H   UNL     1       2.242  -8.904   8.695  1.00  0.00     0.167 HD
ATOM     50  C   UNL     1       6.109  -8.758   7.507  1.00  0.00     0.031 A 
ATOM     51  C   UNL     1       0.358  -9.005  10.743  1.00  0.00     0.031 A 
ATOM     52  C   UNL     1       5.865 -10.186   7.555  1.00  0.00     0.049 A 
ATOM     53  C   UNL     1       1.497  -9.925  10.941  1.00  0.00     0.074 A 
ATOM     54  C   UNL     1       5.900 -11.258   6.689  1.00  0.00     0.029 A 
ATOM     55  N   UNL     1       5.079 -10.557   8.616  1.00  0.00    -0.354 N 
ATOM     56  N   UNL     1       1.503 -11.149  10.497  1.00  0.00    -0.248 NA
ATOM     57  C   UNL     1       2.759  -9.441  11.482  1.00  0.00     0.031 C 
ATOM     58  C   UNL     1       4.956 -12.213   7.187  1.00  0.00     0.029 A 
ATOM     59  C   UNL     1       4.399 -11.722   8.364  1.00  0.00     0.049 A 
ATOM     60  H   UNL     1       5.010 -10.049   9.456  1.00  0.00     0.167 HD
ATOM     61  C   UNL     1       2.832 -11.384  10.238  1.00  0.00     0.074 A 
ATOM     62  C   UNL     1       3.562 -10.427  11.053  1.00  0.00     0.031 C 
ATOM     63  C   UNL     1       3.202 -12.056   9.108  1.00  0.00     0.031 A 
BRANCH  50  64
ATOM     64  C   UNL     1       7.010  -8.120   8.532  1.00  0.00    -0.014 A 
ATOM     65  C   UNL     1       8.096  -8.870   9.018  1.00  0.00     0.009 A 
ATOM     66  C   UNL     1       6.725  -6.915   9.199  1.00  0.00     0.009 A 
ATOM     67  C   UNL     1       8.842  -8.447  10.124  1.00  0.00     0.001 A 
ATOM     68  C   UNL     1       7.491  -6.471  10.281  1.00  0.00     0.001 A 
ATOM     69  C   UNL     1       8.540  -7.245  10.754  1.00  0.00     0.000 A 
ENDBRANCH  50  64
BRANCH  51  70
ATOM     70  C   UNL     1      -0.421  -8.613  11.954  1.00  0.00    -0.014 A 
ATOM     71  C   UNL     1      -0.387  -9.407  13.125  1.00  0.00     0.009 A 
ATOM     72  C   UNL     1      -0.868  -7.290  12.096  1.00  0.00     0.009 A 
ATOM     73  C   UNL     1      -0.700  -8.877  14.388  1.00  0.00     0.001 A 
ATOM     74  C   UNL     1      -1.183  -6.761  13.361  1.00  0.00     0.001 A 
ATOM     75  C   UNL     1      -1.074  -7.545  14.509  1.00  0.00     0.000 A 
ENDBRANCH  51  70
BRANCH  63  76
ATOM     76  C   UNL     1       2.212 -13.027   8.522  1.00  0.00    -0.014 A 
ATOM     77  C   UNL     1       0.942 -12.668   8.038  1.00  0.00     0.009 A 
ATOM     78  C   UNL     1       2.594 -14.373   8.433  1.00  0.00     0.009 A 
ATOM     79  C   UNL     1       0.076 -13.629   7.502  1.00  0.00     0.001 A 
ATOM     80  C   UNL     1       1.739 -15.330   7.881  1.00  0.00     0.001 A 
ATOM     81  C   UNL     1       0.478 -14.959   7.420  1.00  0.00     0.000 A 
ENDBRANCH  63  76
ENDBRANCH  37  38
ENDBRANCH  29  32
ENDBRANCH  27  28
ENDBRANCH   1  27
TORSDOF 12
