REMARK SMILES CC[C@@](C)(NS(=O)(=O)Cc1ccccc1)C(=O)NCCCNC(=O)c1ccc(-c2c3nc(c(-c4ccccc4)c4ccc([nH]4)c(-c4ccccc4)c4nc(c(-c5ccccc5)c5ccc2[nH]5)C=C4)C=C3)cc1
REMARK SMILES IDX 19 1 18 2 16 3 17 4 3 6 4 7 2 8 1 9 5 10 6 12 7 13 8 14 9 15
REMARK SMILES IDX 10 16 11 17 15 18 12 19 14 20 13 21 20 22 21 23 22 24 23 25
REMARK SMILES IDX 24 27 25 28 26 29 72 30 27 31 71 32 28 33 29 34 30 35 65 36
REMARK SMILES IDX 31 37 70 38 64 39 66 40 32 41 69 42 63 43 62 44 33 46 55 47
REMARK SMILES IDX 40 48 54 49 41 50 44 51 53 52 67 53 42 54 43 55 52 57 68 58
REMARK SMILES IDX 45 59 34 60 35 61 39 62 36 63 38 64 37 65 56 66 57 67 61 68
REMARK SMILES IDX 58 69 60 70 59 71 46 72 47 73 51 74 48 75 50 76 49 77
REMARK H PARENT 18 5 5 11 22 26 66 45 44 56
REMARK Flexibility Score: inf
ROOT
ATOM      1  C   UNL     1       2.628   3.442   3.613  1.00  0.00     0.117 C 
ENDROOT
BRANCH   1   2
ATOM      2  N   UNL     1       3.074   2.240   2.913  1.00  0.00    -0.354 N 
ATOM      3  C   UNL     1       2.514   1.141   2.341  1.00  0.00     0.240 C 
ATOM      4  O   UNL     1       3.359   0.350   1.894  1.00  0.00    -0.273 OA
ATOM      5  H   UNL     1       4.055   2.221   2.833  1.00  0.00     0.163 HD
BRANCH   3   6
ATOM      6  C   UNL     1       1.005   0.766   2.298  1.00  0.00     0.108 C 
ATOM      7  C   UNL     1       0.060   1.944   2.057  1.00  0.00     0.040 C 
BRANCH   6   8
ATOM      8  C   UNL     1       0.792  -0.260   1.114  1.00  0.00     0.030 C 
ATOM      9  C   UNL     1       1.120   0.211  -0.296  1.00  0.00     0.006 C 
ENDBRANCH   6   8
BRANCH   6  10
ATOM     10  N   UNL     1       0.572  -0.057   3.469  1.00  0.00    -0.200 NA
ATOM     11  H   UNL     1       1.047  -0.952   3.348  1.00  0.00     0.142 HD
BRANCH  10  12
ATOM     12  S   UNL     1       0.752   0.304   5.071  1.00  0.00     0.216 S 
ATOM     13  O   UNL     1       0.372   1.693   5.214  1.00  0.00    -0.212 OA
ATOM     14  O   UNL     1      -0.008  -0.709   5.770  1.00  0.00    -0.212 OA
BRANCH  12  15
ATOM     15  C   UNL     1       2.493   0.125   5.468  1.00  0.00     0.189 C 
BRANCH  15  16
ATOM     16  C   UNL     1       3.029  -1.263   5.677  1.00  0.00    -0.032 A 
ATOM     17  C   UNL     1       2.688  -2.367   4.891  1.00  0.00     0.005 A 
ATOM     18  C   UNL     1       4.060  -1.412   6.627  1.00  0.00     0.005 A 
ATOM     19  C   UNL     1       3.318  -3.599   5.093  1.00  0.00     0.000 A 
ATOM     20  C   UNL     1       4.695  -2.637   6.820  1.00  0.00     0.000 A 
ATOM     21  C   UNL     1       4.316  -3.735   6.057  1.00  0.00     0.000 A 
ENDBRANCH  15  16
ENDBRANCH  12  15
ENDBRANCH  10  12
ENDBRANCH   6  10
ENDBRANCH   3   6
ENDBRANCH   1   2
BRANCH   1  22
ATOM     22  C   UNL     1       2.982   3.499   5.110  1.00  0.00     0.042 C 
BRANCH  22  23
ATOM     23  C   UNL     1       4.391   3.064   5.522  1.00  0.00     0.118 C 
BRANCH  23  24
ATOM     24  N   UNL     1       5.314   4.177   5.553  1.00  0.00    -0.352 N 
ATOM     25  C   UNL     1       5.972   4.733   6.622  1.00  0.00     0.251 C 
ATOM     26  H   UNL     1       5.497   4.597   4.682  1.00  0.00     0.163 HD
ATOM     27  O   UNL     1       6.465   5.852   6.496  1.00  0.00    -0.269 OA
BRANCH  25  28
ATOM     28  C   UNL     1       6.117   4.023   7.921  1.00  0.00     0.039 A 
ATOM     29  C   UNL     1       6.054   4.783   9.094  1.00  0.00     0.014 A 
ATOM     30  C   UNL     1       6.449   2.665   8.003  1.00  0.00     0.014 A 
ATOM     31  C   UNL     1       6.332   4.196  10.333  1.00  0.00     0.010 A 
ATOM     32  C   UNL     1       6.676   2.066   9.253  1.00  0.00     0.010 A 
ATOM     33  C   UNL     1       6.650   2.831  10.430  1.00  0.00    -0.014 A 
BRANCH  33  34
ATOM     34  C   UNL     1       6.980   2.243  11.761  1.00  0.00     0.031 A 
ATOM     35  C   UNL     1       8.376   1.767  12.078  1.00  0.00     0.074 A 
ATOM     36  C   UNL     1       6.030   2.174  12.715  1.00  0.00     0.049 A 
ATOM     37  N   UNL     1       8.865   1.341  13.219  1.00  0.00    -0.248 NA
ATOM     38  C   UNL     1       9.345   1.755  10.973  1.00  0.00     0.031 C 
ATOM     39  C   UNL     1       4.631   2.571  12.543  1.00  0.00     0.029 A 
ATOM     40  N   UNL     1       6.101   1.768  14.026  1.00  0.00    -0.354 N 
ATOM     41  C   UNL     1      10.193   1.014  12.969  1.00  0.00     0.074 A 
ATOM     42  C   UNL     1      10.418   1.238  11.557  1.00  0.00     0.031 C 
ATOM     43  C   UNL     1       3.989   2.433  13.713  1.00  0.00     0.029 A 
ATOM     44  C   UNL     1       4.918   1.910  14.711  1.00  0.00     0.049 A 
ATOM     45  H   UNL     1       6.921   1.409  14.436  1.00  0.00     0.167 HD
ATOM     46  C   UNL     1      11.146   0.586  13.833  1.00  0.00     0.031 A 
ATOM     47  C   UNL     1       4.612   1.661  15.999  1.00  0.00     0.031 A 
ATOM     48  C   UNL     1      10.930   0.353  15.238  1.00  0.00     0.049 A 
ATOM     49  C   UNL     1       5.682   1.168  16.934  1.00  0.00     0.074 A 
ATOM     50  C   UNL     1      11.847  -0.039  16.200  1.00  0.00     0.029 A 
ATOM     51  N   UNL     1       9.710   0.481  15.883  1.00  0.00    -0.354 N 
ATOM     52  N   UNL     1       6.950   0.941  16.695  1.00  0.00    -0.248 NA
ATOM     53  C   UNL     1       5.277   0.915  18.325  1.00  0.00     0.031 C 
ATOM     54  C   UNL     1      11.169  -0.207  17.412  1.00  0.00     0.029 A 
ATOM     55  C   UNL     1       9.844   0.148  17.222  1.00  0.00     0.049 A 
ATOM     56  H   UNL     1       8.871   0.767  15.453  1.00  0.00     0.167 HD
ATOM     57  C   UNL     1       7.500   0.547  17.909  1.00  0.00     0.074 A 
ATOM     58  C   UNL     1       6.433   0.591  18.886  1.00  0.00     0.031 C 
ATOM     59  C   UNL     1       8.776   0.183  18.188  1.00  0.00     0.031 A 
BRANCH  46  60
ATOM     60  C   UNL     1      12.523   0.326  13.277  1.00  0.00    -0.014 A 
ATOM     61  C   UNL     1      13.344   1.378  12.839  1.00  0.00     0.009 A 
ATOM     62  C   UNL     1      13.026  -0.985  13.236  1.00  0.00     0.009 A 
ATOM     63  C   UNL     1      14.621   1.119  12.334  1.00  0.00     0.001 A 
ATOM     64  C   UNL     1      14.315  -1.238  12.761  1.00  0.00     0.001 A 
ATOM     65  C   UNL     1      15.107  -0.187  12.301  1.00  0.00     0.000 A 
ENDBRANCH  46  60
BRANCH  47  66
ATOM     66  C   UNL     1       3.228   1.895  16.495  1.00  0.00    -0.014 A 
ATOM     67  C   UNL     1       2.957   2.925  17.409  1.00  0.00     0.009 A 
ATOM     68  C   UNL     1       2.172   1.075  16.067  1.00  0.00     0.009 A 
ATOM     69  C   UNL     1       1.664   3.109  17.907  1.00  0.00     0.001 A 
ATOM     70  C   UNL     1       0.875   1.283  16.540  1.00  0.00     0.001 A 
ATOM     71  C   UNL     1       0.624   2.292  17.468  1.00  0.00     0.000 A 
ENDBRANCH  47  66
BRANCH  59  72
ATOM     72  C   UNL     1       9.093  -0.167  19.617  1.00  0.00    -0.014 A 
ATOM     73  C   UNL     1       8.588  -1.331  20.218  1.00  0.00     0.009 A 
ATOM     74  C   UNL     1       9.923   0.678  20.371  1.00  0.00     0.009 A 
ATOM     75  C   UNL     1       8.868  -1.615  21.557  1.00  0.00     0.001 A 
ATOM     76  C   UNL     1      10.230   0.374  21.698  1.00  0.00     0.001 A 
ATOM     77  C   UNL     1       9.691  -0.765  22.294  1.00  0.00     0.000 A 
ENDBRANCH  59  72
ENDBRANCH  33  34
ENDBRANCH  25  28
ENDBRANCH  23  24
ENDBRANCH  22  23
ENDBRANCH   1  22
TORSDOF 15
