REMARK SMILES O=C(Cc1ccccc1Nc1c(Cl)cccc1Cl)NCCCNC(=O)c1ccc(-c2c3nc(c(-c4ccccc4)c4ccc([nH]4)c(-c4ccccc4)c4nc(c(-c5ccccc5)c5ccc2[nH]5)C=C4)C=C3)cc1
REMARK SMILES IDX 20 1 19 2 1 3 2 4 3 6 4 7 5 8 9 9 6 10 8 11 7 12 10 13 11 15
REMARK SMILES IDX 12 16 17 17 13 18 14 19 16 20 18 21 15 22 21 23 22 24 23 25
REMARK SMILES IDX 24 26 25 28 26 29 27 30 73 31 28 32 72 33 29 34 30 35 31 36
REMARK SMILES IDX 66 37 32 38 71 39 65 40 67 41 33 42 70 43 64 44 63 45 34 47
REMARK SMILES IDX 56 48 41 49 55 50 42 51 45 52 54 53 68 54 43 55 44 56 53 58
REMARK SMILES IDX 69 59 46 60 35 61 36 62 40 63 37 64 39 65 38 66 57 67 58 68
REMARK SMILES IDX 62 69 59 70 61 71 60 72 47 73 48 74 52 75 49 76 51 77 50 78
REMARK H PARENT 19 5 10 14 23 27 67 46 45 57
REMARK Flexibility Score: inf
ROOT
ATOM      1  C   UNL     1       2.175   0.816   2.205  1.00  0.00     0.117 C 
ENDROOT
BRANCH   1   2
ATOM      2  N   UNL     1       2.850   0.054   1.178  1.00  0.00    -0.356 N 
ATOM      3  O   UNL     1       0.980  -0.074  -0.148  1.00  0.00    -0.275 OA
ATOM      4  C   UNL     1       2.188  -0.239   0.005  1.00  0.00     0.224 C 
ATOM      5  H   UNL     1       3.776  -0.252   1.315  1.00  0.00     0.163 HD
BRANCH   4   6
ATOM      6  C   UNL     1       3.074  -0.649  -1.142  1.00  0.00     0.137 C 
BRANCH   6   7
ATOM      7  C   UNL     1       3.939   0.450  -1.739  1.00  0.00    -0.015 A 
ATOM      8  C   UNL     1       5.087  -0.016  -2.427  1.00  0.00     0.006 A 
ATOM      9  C   UNL     1       3.661   1.840  -1.737  1.00  0.00     0.042 A 
ATOM     10  C   UNL     1       5.973   0.859  -3.048  1.00  0.00     0.000 A 
ATOM     11  C   UNL     1       4.607   2.703  -2.328  1.00  0.00     0.026 A 
ATOM     12  C   UNL     1       5.740   2.223  -2.986  1.00  0.00     0.002 A 
BRANCH   9  13
ATOM     13  N   UNL     1       2.522   2.406  -1.114  1.00  0.00    -0.353 N 
ATOM     14  H   UNL     1       2.047   1.826  -0.475  1.00  0.00     0.167 HD
BRANCH  13  15
ATOM     15  C   UNL     1       1.977   3.710  -1.297  1.00  0.00     0.076 A 
ATOM     16  C   UNL     1       1.864   4.612  -0.217  1.00  0.00     0.066 A 
ATOM     17  C   UNL     1       1.362   4.083  -2.511  1.00  0.00     0.066 A 
ATOM     18  Cl  UNL     1       2.634   4.330   1.303  1.00  0.00    -0.082 Cl
ATOM     19  C   UNL     1       1.170   5.822  -0.343  1.00  0.00     0.023 A 
ATOM     20  C   UNL     1       0.702   5.312  -2.644  1.00  0.00     0.023 A 
ATOM     21  Cl  UNL     1       1.362   3.042  -3.896  1.00  0.00    -0.082 Cl
ATOM     22  C   UNL     1       0.594   6.175  -1.558  1.00  0.00     0.003 A 
ENDBRANCH  13  15
ENDBRANCH   9  13
ENDBRANCH   6   7
ENDBRANCH   4   6
ENDBRANCH   1   2
BRANCH   1  23
ATOM     23  C   UNL     1       2.601   0.497   3.623  1.00  0.00     0.042 C 
BRANCH  23  24
ATOM     24  C   UNL     1       4.065   0.770   3.932  1.00  0.00     0.118 C 
BRANCH  24  25
ATOM     25  N   UNL     1       4.449   2.173   3.878  1.00  0.00    -0.352 N 
ATOM     26  C   UNL     1       5.192   2.919   4.771  1.00  0.00     0.251 C 
ATOM     27  H   UNL     1       4.130   2.664   3.087  1.00  0.00     0.163 HD
ATOM     28  O   UNL     1       5.358   4.115   4.583  1.00  0.00    -0.269 OA
BRANCH  26  29
ATOM     29  C   UNL     1       5.754   2.286   5.990  1.00  0.00     0.039 A 
ATOM     30  C   UNL     1       5.683   2.986   7.198  1.00  0.00     0.014 A 
ATOM     31  C   UNL     1       6.328   1.013   5.963  1.00  0.00     0.014 A 
ATOM     32  C   UNL     1       6.107   2.376   8.382  1.00  0.00     0.010 A 
ATOM     33  C   UNL     1       6.650   0.368   7.154  1.00  0.00     0.010 A 
ATOM     34  C   UNL     1       6.548   1.042   8.379  1.00  0.00    -0.014 A 
BRANCH  34  35
ATOM     35  C   UNL     1       6.890   0.348   9.648  1.00  0.00     0.031 A 
ATOM     36  C   UNL     1       8.281  -0.176   9.888  1.00  0.00     0.074 A 
ATOM     37  C   UNL     1       5.933   0.151  10.577  1.00  0.00     0.049 A 
ATOM     38  N   UNL     1       8.764  -0.782  10.945  1.00  0.00    -0.248 NA
ATOM     39  C   UNL     1       9.251  -0.026   8.791  1.00  0.00     0.031 C 
ATOM     40  C   UNL     1       4.528   0.548  10.446  1.00  0.00     0.029 A 
ATOM     41  N   UNL     1       5.998  -0.424  11.822  1.00  0.00    -0.354 N 
ATOM     42  C   UNL     1      10.082  -1.093  10.634  1.00  0.00     0.074 A 
ATOM     43  C   UNL     1      10.306  -0.668   9.270  1.00  0.00     0.031 C 
ATOM     44  C   UNL     1       3.879   0.252  11.583  1.00  0.00     0.029 A 
ATOM     45  C   UNL     1       4.807  -0.389  12.508  1.00  0.00     0.049 A 
ATOM     46  H   UNL     1       6.819  -0.825  12.188  1.00  0.00     0.167 HD
ATOM     47  C   UNL     1      11.032  -1.655  11.419  1.00  0.00     0.031 A 
ATOM     48  C   UNL     1       4.498  -0.813  13.748  1.00  0.00     0.031 A 
ATOM     49  C   UNL     1      10.816  -2.073  12.779  1.00  0.00     0.049 A 
ATOM     50  C   UNL     1       5.572  -1.426  14.603  1.00  0.00     0.074 A 
ATOM     51  C   UNL     1      11.730  -2.600  13.675  1.00  0.00     0.029 A 
ATOM     52  N   UNL     1       9.598  -2.013  13.438  1.00  0.00    -0.354 N 
ATOM     53  N   UNL     1       6.836  -1.633  14.322  1.00  0.00    -0.248 NA
ATOM     54  C   UNL     1       5.178  -1.844  15.955  1.00  0.00     0.031 C 
ATOM     55  C   UNL     1      11.052  -2.909  14.860  1.00  0.00     0.029 A 
ATOM     56  C   UNL     1       9.731  -2.515  14.723  1.00  0.00     0.049 A 
ATOM     57  H   UNL     1       8.762  -1.666  13.051  1.00  0.00     0.167 HD
ATOM     58  C   UNL     1       7.394  -2.178  15.472  1.00  0.00     0.074 A 
ATOM     59  C   UNL     1       6.336  -2.246  16.459  1.00  0.00     0.031 C 
ATOM     60  C   UNL     1       8.668  -2.586  15.692  1.00  0.00     0.031 A 
BRANCH  47  61
ATOM     61  C   UNL     1      12.398  -1.851  10.818  1.00  0.00    -0.014 A 
ATOM     62  C   UNL     1      13.223  -0.756  10.511  1.00  0.00     0.009 A 
ATOM     63  C   UNL     1      12.881  -3.148  10.583  1.00  0.00     0.009 A 
ATOM     64  C   UNL     1      14.484  -0.955   9.945  1.00  0.00     0.001 A 
ATOM     65  C   UNL     1      14.155  -3.345  10.047  1.00  0.00     0.001 A 
ATOM     66  C   UNL     1      14.951  -2.248   9.718  1.00  0.00     0.000 A 
ENDBRANCH  47  61
BRANCH  48  67
ATOM     67  C   UNL     1       3.118  -0.643  14.274  1.00  0.00    -0.014 A 
ATOM     68  C   UNL     1       2.856   0.273  15.306  1.00  0.00     0.009 A 
ATOM     69  C   UNL     1       2.056  -1.402  13.758  1.00  0.00     0.009 A 
ATOM     70  C   UNL     1       1.568   0.400  15.832  1.00  0.00     0.001 A 
ATOM     71  C   UNL     1       0.763  -1.249  14.264  1.00  0.00     0.001 A 
ATOM     72  C   UNL     1       0.522  -0.358  15.307  1.00  0.00     0.000 A 
ENDBRANCH  48  67
BRANCH  60  73
ATOM     73  C   UNL     1       8.990  -3.107  17.065  1.00  0.00    -0.014 A 
ATOM     74  C   UNL     1       8.480  -4.333  17.523  1.00  0.00     0.009 A 
ATOM     75  C   UNL     1       9.827  -2.362  17.911  1.00  0.00     0.009 A 
ATOM     76  C   UNL     1       8.760  -4.775  18.817  1.00  0.00     0.001 A 
ATOM     77  C   UNL     1      10.133  -2.823  19.192  1.00  0.00     0.001 A 
ATOM     78  C   UNL     1       9.587  -4.021  19.649  1.00  0.00     0.000 A 
ENDBRANCH  60  73
ENDBRANCH  34  35
ENDBRANCH  26  29
ENDBRANCH  24  25
ENDBRANCH  23  24
ENDBRANCH   1  23
TORSDOF 13
