REMARK SMILES O=C(NCCCNC(=O)c1ccc(-c2c3nc(c(-c4ccccc4)c4ccc([nH]4)c(-c4ccccc4)c4nc(c(-c5ccccc5)c5ccc2[nH]5)C=C4)C=C3)cc1)C1=Cc2cc(Cl)cc(Cl)c2O[C@@H]1C(F)(F)F
REMARK SMILES IDX 5 1 4 2 3 3 1 4 2 5 58 7 59 8 69 9 60 10 68 11 61 12 67 13
REMARK SMILES IDX 62 14 65 15 63 16 64 17 66 18 70 19 71 20 72 21 73 22 6 23
REMARK SMILES IDX 7 24 8 25 9 27 10 28 11 29 57 30 12 31 56 32 13 33 14 34
REMARK SMILES IDX 15 35 50 36 16 37 55 38 49 39 51 40 17 41 54 42 48 43 47 44
REMARK SMILES IDX 18 46 40 47 25 48 39 49 26 50 29 51 38 52 52 53 27 54 28 55
REMARK SMILES IDX 37 57 53 58 30 59 19 60 20 61 24 62 21 63 23 64 22 65 41 66
REMARK SMILES IDX 42 67 46 68 43 69 45 70 44 71 31 72 32 73 36 74 33 75 35 76
REMARK SMILES IDX 34 77
REMARK H PARENT 3 6 7 26 51 45 29 56
REMARK Flexibility Score: inf
ROOT
ATOM      1  C   UNL     1       3.975  -0.192  -3.163  1.00  0.00     0.042 C 
ENDROOT
BRANCH   1   2
ATOM      2  C   UNL     1       3.420   0.329  -1.840  1.00  0.00     0.118 C 
BRANCH   2   3
ATOM      3  N   UNL     1       2.408  -0.546  -1.246  1.00  0.00    -0.352 N 
ATOM      4  O   UNL     1       1.164  -1.480   0.387  1.00  0.00    -0.270 OA
ATOM      5  C   UNL     1       2.225  -0.968   0.051  1.00  0.00     0.251 C 
ATOM      6  H   UNL     1       1.743  -0.892  -1.885  1.00  0.00     0.163 HD
BRANCH   5   7
ATOM      7  C   UNL     1       3.273  -0.653   1.048  1.00  0.00     0.067 C 
ATOM      8  C   UNL     1       4.495  -1.202   1.010  1.00  0.00     0.025 C 
ATOM      9  C   UNL     1       3.063   0.588   1.856  1.00  0.00     0.314 C 
ATOM     10  C   UNL     1       5.555  -0.201   0.820  1.00  0.00     0.020 A 
ATOM     11  O   UNL     1       4.081   1.584   1.603  1.00  0.00    -0.474 OA
ATOM     12  C   UNL     1       6.705  -0.556   0.096  1.00  0.00     0.032 A 
ATOM     13  C   UNL     1       5.267   1.161   1.046  1.00  0.00     0.146 A 
ATOM     14  C   UNL     1       7.528   0.441  -0.432  1.00  0.00     0.043 A 
ATOM     15  C   UNL     1       6.122   2.145   0.532  1.00  0.00     0.085 A 
ATOM     16  Cl  UNL     1       8.848   0.004  -1.448  1.00  0.00    -0.084 Cl
ATOM     17  C   UNL     1       7.240   1.788  -0.223  1.00  0.00     0.045 A 
ATOM     18  Cl  UNL     1       5.736   3.822   0.682  1.00  0.00    -0.080 Cl
BRANCH   9  19
ATOM     19  C   UNL     1       3.000   0.234   3.358  1.00  0.00     0.429 C 
ATOM     20  F   UNL     1       2.698   1.321   4.106  1.00  0.00    -0.167 F 
ATOM     21  F   UNL     1       2.054  -0.699   3.621  1.00  0.00    -0.167 F 
ATOM     22  F   UNL     1       4.177  -0.255   3.821  1.00  0.00    -0.167 F 
ENDBRANCH   9  19
ENDBRANCH   5   7
ENDBRANCH   2   3
ENDBRANCH   1   2
BRANCH   1  23
ATOM     23  C   UNL     1       3.696   0.754  -4.327  1.00  0.00     0.118 C 
BRANCH  23  24
ATOM     24  N   UNL     1       4.430   2.014  -4.246  1.00  0.00    -0.352 N 
ATOM     25  C   UNL     1       5.482   2.531  -4.985  1.00  0.00     0.251 C 
ATOM     26  H   UNL     1       4.117   2.611  -3.529  1.00  0.00     0.163 HD
ATOM     27  O   UNL     1       6.003   3.564  -4.639  1.00  0.00    -0.269 OA
BRANCH  25  28
ATOM     28  C   UNL     1       6.006   1.795  -6.166  1.00  0.00     0.039 A 
ATOM     29  C   UNL     1       7.388   1.763  -6.379  1.00  0.00     0.014 A 
ATOM     30  C   UNL     1       5.161   1.129  -7.047  1.00  0.00     0.014 A 
ATOM     31  C   UNL     1       7.920   0.945  -7.381  1.00  0.00     0.010 A 
ATOM     32  C   UNL     1       5.691   0.223  -7.958  1.00  0.00     0.010 A 
ATOM     33  C   UNL     1       7.079   0.099  -8.120  1.00  0.00    -0.014 A 
BRANCH  33  34
ATOM     34  C   UNL     1       7.605  -0.957  -9.027  1.00  0.00     0.031 A 
ATOM     35  C   UNL     1       7.160  -1.010 -10.464  1.00  0.00     0.074 A 
ATOM     36  C   UNL     1       8.375  -1.946  -8.527  1.00  0.00     0.049 A 
ATOM     37  N   UNL     1       7.326  -1.963 -11.347  1.00  0.00    -0.248 NA
ATOM     38  C   UNL     1       6.389   0.141 -10.963  1.00  0.00     0.031 C 
ATOM     39  C   UNL     1       8.848  -2.046  -7.142  1.00  0.00     0.029 A 
ATOM     40  N   UNL     1       8.881  -3.074  -9.126  1.00  0.00    -0.354 N 
ATOM     41  C   UNL     1       6.650  -1.543 -12.486  1.00  0.00     0.074 A 
ATOM     42  C   UNL     1       6.034  -0.273 -12.170  1.00  0.00     0.031 C 
ATOM     43  C   UNL     1       9.595  -3.152  -7.008  1.00  0.00     0.029 A 
ATOM     44  C   UNL     1       9.604  -3.875  -8.273  1.00  0.00     0.049 A 
ATOM     45  H   UNL     1       8.739  -3.289 -10.076  1.00  0.00     0.167 HD
ATOM     46  C   UNL     1       6.565  -2.150 -13.694  1.00  0.00     0.031 A 
ATOM     47  C   UNL     1      10.187  -5.071  -8.476  1.00  0.00     0.031 A 
ATOM     48  C   UNL     1       7.210  -3.391 -14.023  1.00  0.00     0.049 A 
ATOM     49  C   UNL     1      10.066  -5.728  -9.822  1.00  0.00     0.074 A 
ATOM     50  C   UNL     1       7.243  -4.049 -15.241  1.00  0.00     0.029 A 
ATOM     51  N   UNL     1       7.946  -4.157 -13.133  1.00  0.00    -0.354 N 
ATOM     52  N   UNL     1       9.460  -5.295 -10.899  1.00  0.00    -0.248 NA
ATOM     53  C   UNL     1      10.704  -7.044  -9.975  1.00  0.00     0.031 C 
ATOM     54  C   UNL     1       7.966  -5.234 -15.077  1.00  0.00     0.029 A 
ATOM     55  C   UNL     1       8.418  -5.292 -13.768  1.00  0.00     0.049 A 
ATOM     56  H   UNL     1       8.108  -3.928 -12.189  1.00  0.00     0.167 HD
ATOM     57  C   UNL     1       9.658  -6.275 -11.863  1.00  0.00     0.074 A 
ATOM     58  C   UNL     1      10.457  -7.315 -11.249  1.00  0.00     0.031 C 
ATOM     59  C   UNL     1       9.212  -6.314 -13.141  1.00  0.00     0.031 A 
BRANCH  46  60
ATOM     60  C   UNL     1       5.749  -1.470 -14.756  1.00  0.00    -0.014 A 
ATOM     61  C   UNL     1       6.200  -0.292 -15.374  1.00  0.00     0.009 A 
ATOM     62  C   UNL     1       4.536  -2.037 -15.178  1.00  0.00     0.009 A 
ATOM     63  C   UNL     1       5.436   0.322 -16.368  1.00  0.00     0.001 A 
ATOM     64  C   UNL     1       3.788  -1.435 -16.192  1.00  0.00     0.001 A 
ATOM     65  C   UNL     1       4.234  -0.252 -16.780  1.00  0.00     0.000 A 
ENDBRANCH  46  60
BRANCH  47  66
ATOM     66  C   UNL     1      10.933  -5.741  -7.377  1.00  0.00    -0.014 A 
ATOM     67  C   UNL     1      12.331  -5.850  -7.436  1.00  0.00     0.009 A 
ATOM     68  C   UNL     1      10.255  -6.292  -6.279  1.00  0.00     0.009 A 
ATOM     69  C   UNL     1      13.031  -6.524  -6.433  1.00  0.00     0.001 A 
ATOM     70  C   UNL     1      10.961  -6.939  -5.263  1.00  0.00     0.001 A 
ATOM     71  C   UNL     1      12.347  -7.064  -5.346  1.00  0.00     0.000 A 
ENDBRANCH  47  66
BRANCH  59  72
ATOM     72  C   UNL     1       9.596  -7.508 -13.964  1.00  0.00    -0.014 A 
ATOM     73  C   UNL     1       8.972  -8.749 -13.770  1.00  0.00     0.009 A 
ATOM     74  C   UNL     1      10.557  -7.376 -14.978  1.00  0.00     0.009 A 
ATOM     75  C   UNL     1       9.321  -9.844 -14.563  1.00  0.00     0.001 A 
ATOM     76  C   UNL     1      10.886  -8.465 -15.785  1.00  0.00     0.001 A 
ATOM     77  C   UNL     1      10.272  -9.699 -15.572  1.00  0.00     0.000 A 
ENDBRANCH  59  72
ENDBRANCH  33  34
ENDBRANCH  25  28
ENDBRANCH  23  24
ENDBRANCH   1  23
TORSDOF 11
