REMARK SMILES Cc1cccc(S(=O)(=O)Nc2cnc(N(C)Cc3ccccc3)c(C(=O)NCCCNC(=O)c3ccc(-c4c5nc(c(-c6ccccc6)c6ccc([nH]6)c(-c6ccccc6)c6nc(c(-c7ccccc7)c7ccc4[nH]7)C=C6)C=C5)cc3)c2)c1
REMARK SMILES IDX 28 1 27 2 25 3 26 4 24 6 11 7 12 8 82 9 13 10 14 11 10 12
REMARK SMILES IDX 7 14 8 15 9 16 6 17 1 18 2 19 3 20 83 21 4 22 5 23 15 24
REMARK SMILES IDX 16 25 17 26 18 27 19 28 23 29 20 30 22 31 21 32 29 33 30 34
REMARK SMILES IDX 31 35 32 36 33 38 34 39 35 40 81 41 36 42 80 43 37 44 38 45
REMARK SMILES IDX 39 46 74 47 40 48 79 49 73 50 75 51 41 52 78 53 72 54 71 55
REMARK SMILES IDX 42 57 64 58 49 59 63 60 50 61 53 62 62 63 76 64 51 65 52 66
REMARK SMILES IDX 61 68 77 69 54 70 43 71 44 72 48 73 45 74 47 75 46 76 65 77
REMARK SMILES IDX 66 78 70 79 67 80 69 81 68 82 55 83 56 84 60 85 57 86 59 87
REMARK SMILES IDX 58 88
REMARK H PARENT 27 5 10 13 31 37 75 56 53 67
REMARK Flexibility Score: inf
ROOT
ATOM      1  C   UNL     1       0.906   0.906  -2.762  1.00  0.00     0.118 C 
ENDROOT
BRANCH   1   2
ATOM      2  N   UNL     1       2.201   1.512  -3.044  1.00  0.00    -0.352 N 
ATOM      3  C   UNL     1       2.899   2.539  -2.432  1.00  0.00     0.255 C 
ATOM      4  O   UNL     1       3.870   2.988  -3.038  1.00  0.00    -0.269 OA
ATOM      5  H   UNL     1       2.667   1.116  -3.816  1.00  0.00     0.163 HD
BRANCH   3   6
ATOM      6  C   UNL     1       2.491   3.136  -1.127  1.00  0.00     0.084 A 
ATOM      7  C   UNL     1       0.631   4.000   0.202  1.00  0.00     0.068 A 
ATOM      8  C   UNL     1       1.565   4.362   1.143  1.00  0.00     0.140 A 
ATOM      9  C   UNL     1       1.124   3.475  -0.980  1.00  0.00     0.046 A 
ATOM     10  N   UNL     1       2.884   4.123   1.013  1.00  0.00    -0.236 NA
ATOM     11  C   UNL     1       3.387   3.492  -0.092  1.00  0.00     0.141 A 
BRANCH   7  12
ATOM     12  N   UNL     1      -0.747   4.101   0.533  1.00  0.00    -0.278 N 
ATOM     13  H   UNL     1      -1.012   4.852   1.112  1.00  0.00     0.180 HD
BRANCH  12  14
ATOM     14  S   UNL     1      -1.961   3.064   0.034  1.00  0.00     0.261 S 
ATOM     15  O   UNL     1      -2.083   3.195  -1.410  1.00  0.00    -0.201 OA
ATOM     16  O   UNL     1      -3.077   3.348   0.899  1.00  0.00    -0.201 OA
BRANCH  14  17
ATOM     17  C   UNL     1      -1.499   1.364   0.340  1.00  0.00     0.088 A 
ATOM     18  C   UNL     1       1.641  -0.711   0.705  1.00  0.00     0.044 C 
ATOM     19  C   UNL     1       0.190  -0.354   0.582  1.00  0.00    -0.050 A 
ATOM     20  C   UNL     1      -0.734  -1.323   0.182  1.00  0.00     0.003 A 
ATOM     21  C   UNL     1      -0.224   0.977   0.747  1.00  0.00     0.025 A 
ATOM     22  C   UNL     1      -2.048  -0.959  -0.100  1.00  0.00     0.002 A 
ATOM     23  C   UNL     1      -2.424   0.385  -0.050  1.00  0.00     0.022 A 
ENDBRANCH  14  17
ENDBRANCH  12  14
ENDBRANCH   7  12
BRANCH  11  24
ATOM     24  N   UNL     1       4.747   3.291  -0.018  1.00  0.00    -0.355 N 
ATOM     25  C   UNL     1       5.528   4.174   0.856  1.00  0.00     0.145 C 
BRANCH  24  26
ATOM     26  C   UNL     1       5.524   2.224  -0.644  1.00  0.00     0.153 C 
BRANCH  26  27
ATOM     27  C   UNL     1       5.238   0.833  -0.117  1.00  0.00    -0.029 A 
ATOM     28  C   UNL     1       5.311  -0.258  -0.998  1.00  0.00     0.005 A 
ATOM     29  C   UNL     1       5.046   0.576   1.249  1.00  0.00     0.005 A 
ATOM     30  C   UNL     1       5.183  -1.567  -0.531  1.00  0.00     0.000 A 
ATOM     31  C   UNL     1       4.917  -0.735   1.717  1.00  0.00     0.000 A 
ATOM     32  C   UNL     1       4.986  -1.806   0.827  1.00  0.00     0.000 A 
ENDBRANCH  26  27
ENDBRANCH  24  26
ENDBRANCH  11  24
ENDBRANCH   3   6
ENDBRANCH   1   2
BRANCH   1  33
ATOM     33  C   UNL     1      -0.223   1.563  -3.564  1.00  0.00     0.042 C 
BRANCH  33  34
ATOM     34  C   UNL     1      -0.398   0.983  -4.955  1.00  0.00     0.118 C 
BRANCH  34  35
ATOM     35  N   UNL     1      -1.722   0.404  -5.199  1.00  0.00    -0.352 N 
ATOM     36  C   UNL     1      -2.140  -0.323  -6.301  1.00  0.00     0.251 C 
ATOM     37  H   UNL     1      -2.395   0.548  -4.494  1.00  0.00     0.163 HD
ATOM     38  O   UNL     1      -3.257  -0.820  -6.357  1.00  0.00    -0.269 OA
BRANCH  36  39
ATOM     39  C   UNL     1      -1.141  -0.595  -7.357  1.00  0.00     0.039 A 
ATOM     40  C   UNL     1      -0.812  -1.930  -7.603  1.00  0.00     0.014 A 
ATOM     41  C   UNL     1      -0.328   0.442  -7.806  1.00  0.00     0.014 A 
ATOM     42  C   UNL     1       0.468  -2.230  -8.052  1.00  0.00     0.010 A 
ATOM     43  C   UNL     1       0.977   0.144  -8.142  1.00  0.00     0.010 A 
ATOM     44  C   UNL     1       1.391  -1.191  -8.192  1.00  0.00    -0.014 A 
BRANCH  44  45
ATOM     45  C   UNL     1       2.822  -1.429  -8.328  1.00  0.00     0.031 A 
ATOM     46  C   UNL     1       3.433  -1.361  -9.666  1.00  0.00     0.074 A 
ATOM     47  C   UNL     1       3.585  -1.736  -7.254  1.00  0.00     0.049 A 
ATOM     48  N   UNL     1       4.435  -2.078 -10.050  1.00  0.00    -0.248 NA
ATOM     49  C   UNL     1       2.896  -0.501 -10.713  1.00  0.00     0.031 C 
ATOM     50  C   UNL     1       5.040  -1.862  -7.214  1.00  0.00     0.029 A 
ATOM     51  N   UNL     1       3.170  -2.245  -6.023  1.00  0.00    -0.354 N 
ATOM     52  C   UNL     1       4.861  -1.561 -11.252  1.00  0.00     0.074 A 
ATOM     53  C   UNL     1       3.816  -0.653 -11.667  1.00  0.00     0.031 C 
ATOM     54  C   UNL     1       5.369  -2.687  -6.206  1.00  0.00     0.029 A 
ATOM     55  C   UNL     1       4.130  -3.199  -5.645  1.00  0.00     0.049 A 
ATOM     56  H   UNL     1       2.365  -1.987  -5.519  1.00  0.00     0.167 HD
ATOM     57  C   UNL     1       6.122  -1.825 -11.695  1.00  0.00     0.031 A 
ATOM     58  C   UNL     1       3.837  -4.513  -5.421  1.00  0.00     0.031 A 
ATOM     59  C   UNL     1       6.820  -2.768 -10.824  1.00  0.00     0.049 A 
ATOM     60  C   UNL     1       4.605  -5.450  -6.332  1.00  0.00     0.074 A 
ATOM     61  C   UNL     1       7.756  -2.604  -9.816  1.00  0.00     0.029 A 
ATOM     62  N   UNL     1       6.346  -4.071 -10.710  1.00  0.00    -0.354 N 
ATOM     63  N   UNL     1       5.262  -5.058  -7.388  1.00  0.00    -0.248 NA
ATOM     64  C   UNL     1       4.628  -6.904  -6.174  1.00  0.00     0.031 C 
ATOM     65  C   UNL     1       7.771  -3.788  -9.034  1.00  0.00     0.029 A 
ATOM     66  C   UNL     1       6.868  -4.680  -9.585  1.00  0.00     0.049 A 
ATOM     67  H   UNL     1       5.726  -4.499 -11.344  1.00  0.00     0.167 HD
ATOM     68  C   UNL     1       5.763  -6.147  -8.050  1.00  0.00     0.074 A 
ATOM     69  C   UNL     1       5.353  -7.281  -7.243  1.00  0.00     0.031 C 
ATOM     70  C   UNL     1       6.456  -6.028  -9.219  1.00  0.00     0.031 A 
BRANCH  57  71
ATOM     71  C   UNL     1       6.807  -0.960 -12.727  1.00  0.00    -0.014 A 
ATOM     72  C   UNL     1       8.196  -0.753 -12.652  1.00  0.00     0.009 A 
ATOM     73  C   UNL     1       6.137  -0.262 -13.746  1.00  0.00     0.009 A 
ATOM     74  C   UNL     1       8.854   0.180 -13.466  1.00  0.00     0.001 A 
ATOM     75  C   UNL     1       6.776   0.707 -14.532  1.00  0.00     0.001 A 
ATOM     76  C   UNL     1       8.136   0.937 -14.382  1.00  0.00     0.000 A 
ENDBRANCH  57  71
BRANCH  58  77
ATOM     77  C   UNL     1       2.442  -4.742  -4.953  1.00  0.00    -0.014 A 
ATOM     78  C   UNL     1       2.072  -4.194  -3.706  1.00  0.00     0.009 A 
ATOM     79  C   UNL     1       1.431  -5.089  -5.860  1.00  0.00     0.009 A 
ATOM     80  C   UNL     1       0.742  -3.858  -3.440  1.00  0.00     0.001 A 
ATOM     81  C   UNL     1       0.097  -4.771  -5.576  1.00  0.00     0.001 A 
ATOM     82  C   UNL     1      -0.239  -4.115  -4.391  1.00  0.00     0.000 A 
ENDBRANCH  58  77
BRANCH  70  83
ATOM     83  C   UNL     1       6.875  -7.174 -10.101  1.00  0.00    -0.014 A 
ATOM     84  C   UNL     1       6.174  -8.383 -10.200  1.00  0.00     0.009 A 
ATOM     85  C   UNL     1       7.961  -6.990 -10.985  1.00  0.00     0.009 A 
ATOM     86  C   UNL     1       6.574  -9.382 -11.098  1.00  0.00     0.001 A 
ATOM     87  C   UNL     1       8.337  -7.967 -11.910  1.00  0.00     0.001 A 
ATOM     88  C   UNL     1       7.650  -9.171 -11.956  1.00  0.00     0.000 A 
ENDBRANCH  70  83
ENDBRANCH  44  45
ENDBRANCH  36  39
ENDBRANCH  34  35
ENDBRANCH  33  34
ENDBRANCH   1  33
TORSDOF 16
