REMARK SMILES O=C(NCCCNC(=O)[C@H](CCC(F)(F)F)Cc1ccccc1)c1ccc(-c2c3nc(c(-c4ccccc4)c4ccc([nH]4)c(-c4ccccc4)c4nc(c(-c5ccccc5)c5ccc2[nH]5)C=C4)C=C3)cc1
REMARK SMILES IDX 5 1 4 2 3 3 1 4 2 5 24 7 25 8 71 9 26 10 70 11 27 12 28 13
REMARK SMILES IDX 29 14 64 15 30 16 69 17 63 18 65 19 31 20 68 21 62 22 61 23
REMARK SMILES IDX 32 25 54 26 39 27 53 28 40 29 43 30 52 31 66 32 41 33 42 34
REMARK SMILES IDX 51 36 67 37 44 38 33 39 34 40 38 41 35 42 37 43 36 44 55 45
REMARK SMILES IDX 56 46 60 47 57 48 59 49 58 50 45 51 46 52 50 53 47 54 49 55
REMARK SMILES IDX 48 56 6 57 7 58 8 59 9 61 10 62 17 63 18 64 19 65 23 66
REMARK SMILES IDX 20 67 22 68 21 69 11 70 12 71 13 72 14 73 15 74 16 75
REMARK H PARENT 3 6 65 24 43 35 7 60
REMARK Flexibility Score: inf
ROOT
ATOM      1  C   UNL     1       9.457  -3.738   3.965  1.00  0.00     0.042 C 
ENDROOT
BRANCH   1   2
ATOM      2  C   UNL     1      10.858  -3.203   3.713  1.00  0.00     0.118 C 
BRANCH   2   3
ATOM      3  N   UNL     1      11.845  -3.874   4.544  1.00  0.00    -0.352 N 
ATOM      4  O   UNL     1      13.184  -5.525   5.247  1.00  0.00    -0.269 OA
ATOM      5  C   UNL     1      12.636  -4.970   4.299  1.00  0.00     0.251 C 
ATOM      6  H   UNL     1      11.967  -3.474   5.435  1.00  0.00     0.163 HD
BRANCH   5   7
ATOM      7  C   UNL     1      12.845  -5.496   2.928  1.00  0.00     0.039 A 
ATOM      8  C   UNL     1      12.948  -4.652   1.821  1.00  0.00     0.014 A 
ATOM      9  C   UNL     1      13.066  -6.869   2.764  1.00  0.00     0.014 A 
ATOM     10  C   UNL     1      13.151  -5.179   0.548  1.00  0.00     0.010 A 
ATOM     11  C   UNL     1      13.378  -7.386   1.503  1.00  0.00     0.010 A 
ATOM     12  C   UNL     1      13.416  -6.545   0.381  1.00  0.00    -0.014 A 
BRANCH  12  13
ATOM     13  C   UNL     1      13.845  -7.061  -0.943  1.00  0.00     0.031 A 
ATOM     14  C   UNL     1      13.046  -8.107  -1.663  1.00  0.00     0.074 A 
ATOM     15  C   UNL     1      14.994  -6.603  -1.478  1.00  0.00     0.049 A 
ATOM     16  N   UNL     1      13.327  -8.736  -2.776  1.00  0.00    -0.248 NA
ATOM     17  C   UNL     1      11.773  -8.510  -1.048  1.00  0.00     0.031 C 
ATOM     18  C   UNL     1      15.864  -5.591  -0.871  1.00  0.00     0.029 A 
ATOM     19  N   UNL     1      15.634  -6.929  -2.647  1.00  0.00    -0.354 N 
ATOM     20  C   UNL     1      12.286  -9.634  -2.977  1.00  0.00     0.074 A 
ATOM     21  C   UNL     1      11.374  -9.477  -1.863  1.00  0.00     0.031 C 
ATOM     22  C   UNL     1      16.905  -5.359  -1.682  1.00  0.00     0.029 A 
ATOM     23  C   UNL     1      16.820  -6.259  -2.825  1.00  0.00     0.049 A 
ATOM     24  H   UNL     1      15.278  -7.579  -3.295  1.00  0.00     0.167 HD
ATOM     25  C   UNL     1      12.112 -10.511  -3.994  1.00  0.00     0.031 A 
ATOM     26  C   UNL     1      17.762  -6.378  -3.778  1.00  0.00     0.031 A 
ATOM     27  C   UNL     1      13.025 -10.662  -5.097  1.00  0.00     0.049 A 
ATOM     28  C   UNL     1      17.565  -7.377  -4.877  1.00  0.00     0.074 A 
ATOM     29  C   UNL     1      12.920 -11.497  -6.197  1.00  0.00     0.029 A 
ATOM     30  N   UNL     1      14.219  -9.968  -5.235  1.00  0.00    -0.354 N 
ATOM     31  N   UNL     1      16.562  -8.200  -5.066  1.00  0.00    -0.248 NA
ATOM     32  C   UNL     1      18.625  -7.468  -5.888  1.00  0.00     0.031 C 
ATOM     33  C   UNL     1      14.074 -11.344  -6.973  1.00  0.00     0.029 A 
ATOM     34  C   UNL     1      14.871 -10.374  -6.387  1.00  0.00     0.049 A 
ATOM     35  H   UNL     1      14.552  -9.287  -4.607  1.00  0.00     0.167 HD
ATOM     36  C   UNL     1      16.859  -8.895  -6.229  1.00  0.00     0.074 A 
ATOM     37  C   UNL     1      18.132  -8.391  -6.705  1.00  0.00     0.031 C 
ATOM     38  C   UNL     1      16.138  -9.862  -6.846  1.00  0.00     0.031 A 
BRANCH  25  39
ATOM     39  C   UNL     1      10.908 -11.410  -3.931  1.00  0.00    -0.014 A 
ATOM     40  C   UNL     1       9.608 -10.915  -4.124  1.00  0.00     0.009 A 
ATOM     41  C   UNL     1      11.080 -12.781  -3.684  1.00  0.00     0.009 A 
ATOM     42  C   UNL     1       8.505 -11.766  -4.024  1.00  0.00     0.001 A 
ATOM     43  C   UNL     1       9.977 -13.635  -3.614  1.00  0.00     0.001 A 
ATOM     44  C   UNL     1       8.690 -13.125  -3.771  1.00  0.00     0.000 A 
ENDBRANCH  25  39
BRANCH  26  45
ATOM     45  C   UNL     1      18.985  -5.538  -3.696  1.00  0.00    -0.014 A 
ATOM     46  C   UNL     1      19.170  -4.458  -4.570  1.00  0.00     0.009 A 
ATOM     47  C   UNL     1      19.939  -5.774  -2.692  1.00  0.00     0.009 A 
ATOM     48  C   UNL     1      20.289  -3.632  -4.442  1.00  0.00     0.001 A 
ATOM     49  C   UNL     1      21.041  -4.930  -2.549  1.00  0.00     0.001 A 
ATOM     50  C   UNL     1      21.218  -3.862  -3.427  1.00  0.00     0.000 A 
ENDBRANCH  26  45
BRANCH  38  51
ATOM     51  C   UNL     1      16.688 -10.414  -8.129  1.00  0.00    -0.014 A 
ATOM     52  C   UNL     1      17.761 -11.317  -8.132  1.00  0.00     0.009 A 
ATOM     53  C   UNL     1      16.077 -10.072  -9.345  1.00  0.00     0.009 A 
ATOM     54  C   UNL     1      18.224 -11.854  -9.335  1.00  0.00     0.001 A 
ATOM     55  C   UNL     1      16.527 -10.628 -10.543  1.00  0.00     0.001 A 
ATOM     56  C   UNL     1      17.603 -11.515 -10.537  1.00  0.00     0.000 A 
ENDBRANCH  38  51
ENDBRANCH  12  13
ENDBRANCH   5   7
ENDBRANCH   2   3
ENDBRANCH   1   2
BRANCH   1  57
ATOM     57  C   UNL     1       8.863  -3.225   5.273  1.00  0.00     0.117 C 
BRANCH  57  58
ATOM     58  N   UNL     1       7.991  -2.087   5.033  1.00  0.00    -0.356 N 
ATOM     59  C   UNL     1       6.633  -2.016   4.936  1.00  0.00     0.223 C 
ATOM     60  H   UNL     1       8.457  -1.226   4.923  1.00  0.00     0.163 HD
ATOM     61  O   UNL     1       6.133  -0.922   4.671  1.00  0.00    -0.275 OA
BRANCH  59  62
ATOM     62  C   UNL     1       5.775  -3.265   5.138  1.00  0.00     0.083 C 
BRANCH  62  63
ATOM     63  C   UNL     1       4.630  -2.890   6.112  1.00  0.00     0.049 C 
BRANCH  63  64
ATOM     64  C   UNL     1       3.771  -4.042   6.602  1.00  0.00    -0.047 A 
ATOM     65  C   UNL     1       2.450  -3.783   6.998  1.00  0.00     0.004 A 
ATOM     66  C   UNL     1       4.244  -5.359   6.702  1.00  0.00     0.004 A 
ATOM     67  C   UNL     1       1.613  -4.820   7.420  1.00  0.00     0.000 A 
ATOM     68  C   UNL     1       3.401  -6.398   7.099  1.00  0.00     0.000 A 
ATOM     69  C   UNL     1       2.084  -6.130   7.453  1.00  0.00     0.000 A 
ENDBRANCH  63  64
ENDBRANCH  62  63
BRANCH  62  70
ATOM     70  C   UNL     1       5.210  -3.767   3.789  1.00  0.00     0.023 C 
BRANCH  70  71
ATOM     71  C   UNL     1       6.084  -4.745   2.994  1.00  0.00     0.116 C 
BRANCH  71  72
ATOM     72  C   UNL     1       6.390  -6.068   3.670  1.00  0.00     0.389 C 
ATOM     73  F   UNL     1       5.266  -6.733   3.999  1.00  0.00    -0.171 F 
ATOM     74  F   UNL     1       7.108  -6.859   2.841  1.00  0.00    -0.171 F 
ATOM     75  F   UNL     1       7.124  -5.908   4.790  1.00  0.00    -0.171 F 
ENDBRANCH  71  72
ENDBRANCH  70  71
ENDBRANCH  62  70
ENDBRANCH  59  62
ENDBRANCH  57  58
ENDBRANCH   1  57
TORSDOF 15
