REMARK SMILES O=C(CCC(=O)Nc1nncs1)NCCCNC(=O)c1ccc(-c2c3nc(c(-c4ccccc4)c4ccc([nH]4)c(-c4ccccc4)c4nc(c(-c5ccccc5)c5ccc2[nH]5)C=C4)C=C3)cc1
REMARK SMILES IDX 14 1 13 2 1 3 2 4 3 6 4 7 5 8 6 9 7 10 8 12 9 13 12 14 10 15
REMARK SMILES IDX 11 16 15 17 16 18 17 19 18 20 19 22 20 23 21 24 67 25 22 26
REMARK SMILES IDX 66 27 23 28 24 29 25 30 60 31 26 32 65 33 59 34 61 35 27 36
REMARK SMILES IDX 64 37 58 38 57 39 28 41 50 42 35 43 49 44 36 45 39 46 48 47
REMARK SMILES IDX 62 48 37 49 38 50 47 52 63 53 40 54 29 55 30 56 34 57 31 58
REMARK SMILES IDX 33 59 32 60 51 61 52 62 56 63 53 64 55 65 54 66 41 67 42 68
REMARK SMILES IDX 46 69 43 70 45 71 44 72
REMARK H PARENT 13 5 7 11 17 21 61 40 39 51
REMARK Flexibility Score: inf
ROOT
ATOM      1  C   UNL     1       1.990   2.204   0.629  1.00  0.00     0.117 C 
ENDROOT
BRANCH   1   2
ATOM      2  N   UNL     1       2.807   1.005   0.667  1.00  0.00    -0.356 N 
ATOM      3  O   UNL     1       1.060  -0.488   0.565  1.00  0.00    -0.275 OA
ATOM      4  C   UNL     1       2.264  -0.257   0.558  1.00  0.00     0.220 C 
ATOM      5  H   UNL     1       3.781   1.096   0.774  1.00  0.00     0.163 HD
BRANCH   4   6
ATOM      6  C   UNL     1       3.289  -1.345   0.331  1.00  0.00     0.110 C 
BRANCH   6   7
ATOM      7  C   UNL     1       3.629  -1.506  -1.150  1.00  0.00     0.110 C 
BRANCH   7   8
ATOM      8  C   UNL     1       4.414  -0.328  -1.680  1.00  0.00     0.226 C 
ATOM      9  O   UNL     1       5.622  -0.265  -1.409  1.00  0.00    -0.275 OA
ATOM     10  N   UNL     1       3.892   0.732  -2.340  1.00  0.00    -0.301 N 
ATOM     11  H   UNL     1       4.580   1.371  -2.637  1.00  0.00     0.172 HD
BRANCH  10  12
ATOM     12  C   UNL     1       2.626   1.118  -2.687  1.00  0.00     0.212 A 
ATOM     13  N   UNL     1       2.366   2.364  -3.022  1.00  0.00    -0.120 NA
ATOM     14  S   UNL     1       1.263   0.105  -2.716  1.00  0.00    -0.083 S 
ATOM     15  N   UNL     1       1.012   2.604  -3.143  1.00  0.00    -0.145 NA
ATOM     16  C   UNL     1       0.312   1.503  -2.977  1.00  0.00     0.204 A 
ENDBRANCH  10  12
ENDBRANCH   7   8
ENDBRANCH   6   7
ENDBRANCH   4   6
ENDBRANCH   1   2
BRANCH   1  17
ATOM     17  C   UNL     1       2.383   3.240   1.667  1.00  0.00     0.042 C 
BRANCH  17  18
ATOM     18  C   UNL     1       3.827   3.716   1.590  1.00  0.00     0.118 C 
BRANCH  18  19
ATOM     19  N   UNL     1       4.185   4.397   0.355  1.00  0.00    -0.352 N 
ATOM     20  C   UNL     1       4.967   5.519   0.175  1.00  0.00     0.251 C 
ATOM     21  H   UNL     1       3.817   4.001  -0.468  1.00  0.00     0.163 HD
ATOM     22  O   UNL     1       5.145   5.971  -0.948  1.00  0.00    -0.269 OA
BRANCH  20  23
ATOM     23  C   UNL     1       5.545   6.217   1.348  1.00  0.00     0.039 A 
ATOM     24  C   UNL     1       5.453   7.611   1.408  1.00  0.00     0.014 A 
ATOM     25  C   UNL     1       6.137   5.515   2.400  1.00  0.00     0.014 A 
ATOM     26  C   UNL     1       5.877   8.288   2.555  1.00  0.00     0.010 A 
ATOM     27  C   UNL     1       6.466   6.179   3.579  1.00  0.00     0.010 A 
ATOM     28  C   UNL     1       6.345   7.573   3.669  1.00  0.00    -0.014 A 
BRANCH  28  29
ATOM     29  C   UNL     1       6.723   8.268   4.928  1.00  0.00     0.031 A 
ATOM     30  C   UNL     1       8.133   8.182   5.449  1.00  0.00     0.074 A 
ATOM     31  C   UNL     1       5.787   8.929   5.639  1.00  0.00     0.049 A 
ATOM     32  N   UNL     1       8.643   8.689   6.544  1.00  0.00    -0.248 NA
ATOM     33  C   UNL     1       9.089   7.395   4.652  1.00  0.00     0.031 C 
ATOM     34  C   UNL     1       4.370   9.042   5.286  1.00  0.00     0.029 A 
ATOM     35  N   UNL     1       5.892   9.634   6.813  1.00  0.00    -0.354 N 
ATOM     36  C   UNL     1       9.964   8.261   6.577  1.00  0.00     0.074 A 
ATOM     37  C   UNL     1      10.163   7.408   5.427  1.00  0.00     0.031 C 
ATOM     38  C   UNL     1       3.748   9.806   6.199  1.00  0.00     0.029 A 
ATOM     39  C   UNL     1       4.711  10.210   7.218  1.00  0.00     0.049 A 
ATOM     40  H   UNL     1       6.733   9.719   7.317  1.00  0.00     0.167 HD
ATOM     41  C   UNL     1      10.938   8.569   7.468  1.00  0.00     0.031 A 
ATOM     42  C   UNL     1       4.437  10.985   8.284  1.00  0.00     0.031 A 
ATOM     43  C   UNL     1      10.756   9.440   8.597  1.00  0.00     0.049 A 
ATOM     44  C   UNL     1       5.542  11.345   9.237  1.00  0.00     0.074 A 
ATOM     45  C   UNL     1      11.695   9.861   9.523  1.00  0.00     0.029 A 
ATOM     46  N   UNL     1       9.554  10.033   8.948  1.00  0.00    -0.354 N 
ATOM     47  N   UNL     1       6.803  10.987   9.216  1.00  0.00    -0.248 NA
ATOM     48  C   UNL     1       5.187  12.236  10.351  1.00  0.00     0.031 C 
ATOM     49  C   UNL     1      11.052  10.682  10.456  1.00  0.00     0.029 A 
ATOM     50  C   UNL     1       9.724  10.810  10.081  1.00  0.00     0.049 A 
ATOM     51  H   UNL     1       8.704   9.918   8.464  1.00  0.00     0.167 HD
ATOM     52  C   UNL     1       7.398  11.635  10.290  1.00  0.00     0.074 A 
ATOM     53  C   UNL     1       6.363  12.419  10.933  1.00  0.00     0.031 C 
ATOM     54  C   UNL     1       8.687  11.588  10.706  1.00  0.00     0.031 A 
BRANCH  41  55
ATOM     55  C   UNL     1      12.292   7.956   7.243  1.00  0.00    -0.014 A 
ATOM     56  C   UNL     1      13.101   8.356   6.167  1.00  0.00     0.009 A 
ATOM     57  C   UNL     1      12.773   6.978   8.126  1.00  0.00     0.009 A 
ATOM     58  C   UNL     1      14.343   7.756   5.953  1.00  0.00     0.001 A 
ATOM     59  C   UNL     1      14.030   6.402   7.928  1.00  0.00     0.001 A 
ATOM     60  C   UNL     1      14.808   6.783   6.836  1.00  0.00     0.000 A 
ENDBRANCH  41  55
BRANCH  42  61
ATOM     61  C   UNL     1       3.064  11.517   8.486  1.00  0.00    -0.014 A 
ATOM     62  C   UNL     1       2.795  12.879   8.275  1.00  0.00     0.009 A 
ATOM     63  C   UNL     1       2.022  10.676   8.904  1.00  0.00     0.009 A 
ATOM     64  C   UNL     1       1.517  13.393   8.507  1.00  0.00     0.001 A 
ATOM     65  C   UNL     1       0.739  11.188   9.109  1.00  0.00     0.001 A 
ATOM     66  C   UNL     1       0.490  12.546   8.921  1.00  0.00     0.000 A 
ENDBRANCH  42  61
BRANCH  54  67
ATOM     67  C   UNL     1       9.057  12.443  11.884  1.00  0.00    -0.014 A 
ATOM     68  C   UNL     1       8.638  12.121  13.184  1.00  0.00     0.009 A 
ATOM     69  C   UNL     1       9.857  13.580  11.688  1.00  0.00     0.009 A 
ATOM     70  C   UNL     1       8.978  12.944  14.259  1.00  0.00     0.001 A 
ATOM     71  C   UNL     1      10.220  14.385  12.768  1.00  0.00     0.001 A 
ATOM     72  C   UNL     1       9.771  14.073  14.050  1.00  0.00     0.000 A 
ENDBRANCH  54  67
ENDBRANCH  28  29
ENDBRANCH  20  23
ENDBRANCH  18  19
ENDBRANCH  17  18
ENDBRANCH   1  17
TORSDOF 13
