REMARK SMILES CC(=O)c1ccc(NC(=O)C[C@H](C(=O)NCCCNC(=O)c2ccc(-c3c4nc(c(-c5ccccc5)c5ccc([nH]5)c(-c5ccccc5)c5nc(c(-c6ccccc6)c6ccc3[nH]6)C=C5)C=C4)cc2)[NH+](C)C)cc1
REMARK SMILES IDX 16 1 15 2 13 3 14 4 12 6 11 7 9 8 8 9 10 11 7 12 4 13 5 14
REMARK SMILES IDX 74 15 6 16 73 17 2 18 1 19 3 20 70 21 71 22 72 23 17 25
REMARK SMILES IDX 18 26 19 27 20 28 21 30 22 31 23 32 69 33 24 34 68 35 25 36
REMARK SMILES IDX 26 37 27 38 62 39 28 40 67 41 61 42 63 43 29 44 66 45 60 46
REMARK SMILES IDX 59 47 30 49 52 50 37 51 51 52 38 53 41 54 50 55 64 56 39 57
REMARK SMILES IDX 40 58 49 60 65 61 42 62 31 63 32 64 36 65 33 66 35 67 34 68
REMARK SMILES IDX 53 69 54 70 58 71 55 72 57 73 56 74 43 75 44 76 48 77 45 78
REMARK SMILES IDX 47 79 46 80
REMARK H PARENT 15 5 8 10 70 24 19 29 63 48 41 59
REMARK Flexibility Score: inf
ROOT
ATOM      1  C   UNL     1      -0.913   0.587   5.242  1.00  0.00     0.118 C 
ENDROOT
BRANCH   1   2
ATOM      2  N   UNL     1      -0.322   1.155   6.435  1.00  0.00    -0.351 N 
ATOM      3  C   UNL     1      -0.041   2.452   6.750  1.00  0.00     0.278 C 
ATOM      4  O   UNL     1       0.425   2.659   7.875  1.00  0.00    -0.268 OA
ATOM      5  H   UNL     1      -0.084   0.500   7.131  1.00  0.00     0.163 HD
BRANCH   3   6
ATOM      6  C   UNL     1      -0.321   3.623   5.778  1.00  0.00     0.283 C 
BRANCH   6   7
ATOM      7  C   UNL     1       0.405   3.441   4.430  1.00  0.00     0.175 C 
BRANCH   7   8
ATOM      8  C   UNL     1       0.504   4.691   3.580  1.00  0.00     0.230 C 
ATOM      9  N   UNL     1      -0.522   5.161   2.803  1.00  0.00    -0.326 N 
ATOM     10  H   UNL     1      -0.292   5.951   2.262  1.00  0.00     0.169 HD
ATOM     11  O   UNL     1       1.544   5.360   3.606  1.00  0.00    -0.274 OA
BRANCH   9  12
ATOM     12  C   UNL     1      -1.845   4.713   2.643  1.00  0.00     0.041 A 
ATOM     13  C   UNL     1      -4.530   4.026   2.959  1.00  0.00     0.017 A 
ATOM     14  C   UNL     1      -3.565   3.026   2.849  1.00  0.00     0.014 A 
ATOM     15  C   UNL     1      -4.187   5.362   2.753  1.00  0.00     0.014 A 
ATOM     16  C   UNL     1      -2.226   3.373   2.658  1.00  0.00     0.027 A 
ATOM     17  C   UNL     1      -2.840   5.700   2.574  1.00  0.00     0.027 A 
BRANCH  13  18
ATOM     18  C   UNL     1      -5.867   3.650   3.457  1.00  0.00     0.159 C 
ATOM     19  C   UNL     1      -7.053   3.911   2.577  1.00  0.00     0.093 C 
ATOM     20  O   UNL     1      -5.958   3.104   4.553  1.00  0.00    -0.295 OA
ENDBRANCH  13  18
ENDBRANCH   9  12
ENDBRANCH   7   8
ENDBRANCH   6   7
BRANCH   6  21
ATOM     21  N   UNL     1      -1.762   3.994   5.675  1.00  0.00    -0.329 N 
ATOM     22  C   UNL     1      -1.979   5.381   6.091  1.00  0.00     0.333 C 
ATOM     23  C   UNL     1      -2.751   3.128   6.313  1.00  0.00     0.333 C 
ATOM     24  H   UNL     1      -1.939   3.861   4.679  1.00  0.00     0.348 HD
ENDBRANCH   6  21
ENDBRANCH   3   6
ENDBRANCH   1   2
BRANCH   1  25
ATOM     25  C   UNL     1       0.085  -0.271   4.483  1.00  0.00     0.042 C 
BRANCH  25  26
ATOM     26  C   UNL     1       0.250  -1.645   5.115  1.00  0.00     0.118 C 
BRANCH  26  27
ATOM     27  N   UNL     1      -0.962  -2.449   4.991  1.00  0.00    -0.352 N 
ATOM     28  C   UNL     1      -1.133  -3.691   4.438  1.00  0.00     0.251 C 
ATOM     29  H   UNL     1      -1.777  -2.038   5.359  1.00  0.00     0.163 HD
ATOM     30  O   UNL     1      -2.265  -4.116   4.217  1.00  0.00    -0.269 OA
BRANCH  28  31
ATOM     31  C   UNL     1       0.046  -4.506   4.091  1.00  0.00     0.039 A 
ATOM     32  C   UNL     1       0.047  -5.220   2.891  1.00  0.00     0.014 A 
ATOM     33  C   UNL     1       1.150  -4.559   4.945  1.00  0.00     0.014 A 
ATOM     34  C   UNL     1       1.184  -5.935   2.520  1.00  0.00     0.010 A 
ATOM     35  C   UNL     1       2.316  -5.186   4.528  1.00  0.00     0.010 A 
ATOM     36  C   UNL     1       2.342  -5.889   3.316  1.00  0.00    -0.014 A 
BRANCH  36  37
ATOM     37  C   UNL     1       3.588  -6.569   2.890  1.00  0.00     0.031 A 
ATOM     38  C   UNL     1       4.171  -7.675   3.726  1.00  0.00     0.074 A 
ATOM     39  C   UNL     1       4.219  -6.153   1.775  1.00  0.00     0.049 A 
ATOM     40  N   UNL     1       5.260  -8.373   3.525  1.00  0.00    -0.248 NA
ATOM     41  C   UNL     1       3.455  -8.027   4.964  1.00  0.00     0.031 C 
ATOM     42  C   UNL     1       3.780  -5.055   0.910  1.00  0.00     0.029 A 
ATOM     43  N   UNL     1       5.366  -6.607   1.175  1.00  0.00    -0.354 N 
ATOM     44  C   UNL     1       5.363  -9.232   4.612  1.00  0.00     0.074 A 
ATOM     45  C   UNL     1       4.264  -8.927   5.500  1.00  0.00     0.031 C 
ATOM     46  C   UNL     1       4.621  -4.951  -0.131  1.00  0.00     0.029 A 
ATOM     47  C   UNL     1       5.682  -5.940   0.017  1.00  0.00     0.049 A 
ATOM     48  H   UNL     1       5.910  -7.342   1.540  1.00  0.00     0.167 HD
ATOM     49  C   UNL     1       6.276 -10.206   4.838  1.00  0.00     0.031 A 
ATOM     50  C   UNL     1       6.713  -6.107  -0.832  1.00  0.00     0.031 A 
ATOM     51  C   UNL     1       7.365 -10.509   3.950  1.00  0.00     0.049 A 
ATOM     52  C   UNL     1       7.721  -7.185  -0.547  1.00  0.00     0.074 A 
ATOM     53  C   UNL     1       8.315 -11.509   4.060  1.00  0.00     0.029 A 
ATOM     54  N   UNL     1       7.652  -9.810   2.787  1.00  0.00    -0.354 N 
ATOM     55  N   UNL     1       7.759  -8.041   0.445  1.00  0.00    -0.248 NA
ATOM     56  C   UNL     1       8.822  -7.327  -1.510  1.00  0.00     0.031 C 
ATOM     57  C   UNL     1       9.212 -11.378   2.996  1.00  0.00     0.029 A 
ATOM     58  C   UNL     1       8.780 -10.340   2.185  1.00  0.00     0.049 A 
ATOM     59  H   UNL     1       7.131  -9.049   2.442  1.00  0.00     0.167 HD
ATOM     60  C   UNL     1       8.869  -8.843   0.210  1.00  0.00     0.074 A 
ATOM     61  C   UNL     1       9.460  -8.384  -1.031  1.00  0.00     0.031 C 
ATOM     62  C   UNL     1       9.357  -9.867   0.953  1.00  0.00     0.031 A 
BRANCH  49  63
ATOM     63  C   UNL     1       6.134 -11.011   6.102  1.00  0.00    -0.014 A 
ATOM     64  C   UNL     1       5.064 -11.902   6.282  1.00  0.00     0.009 A 
ATOM     65  C   UNL     1       7.105 -10.906   7.110  1.00  0.00     0.009 A 
ATOM     66  C   UNL     1       4.950 -12.644   7.460  1.00  0.00     0.001 A 
ATOM     67  C   UNL     1       7.006 -11.673   8.273  1.00  0.00     0.001 A 
ATOM     68  C   UNL     1       5.924 -12.534   8.450  1.00  0.00     0.000 A 
ENDBRANCH  49  63
BRANCH  50  69
ATOM     69  C   UNL     1       6.840  -5.245  -2.037  1.00  0.00    -0.014 A 
ATOM     70  C   UNL     1       6.678  -5.786  -3.322  1.00  0.00     0.009 A 
ATOM     71  C   UNL     1       7.140  -3.880  -1.911  1.00  0.00     0.009 A 
ATOM     72  C   UNL     1       6.851  -4.987  -4.455  1.00  0.00     0.001 A 
ATOM     73  C   UNL     1       7.278  -3.075  -3.045  1.00  0.00     0.001 A 
ATOM     74  C   UNL     1       7.147  -3.632  -4.315  1.00  0.00     0.000 A 
ENDBRANCH  50  69
BRANCH  62  75
ATOM     75  C   UNL     1      10.568 -10.581   0.421  1.00  0.00    -0.014 A 
ATOM     76  C   UNL     1      11.828  -9.964   0.388  1.00  0.00     0.009 A 
ATOM     77  C   UNL     1      10.447 -11.904  -0.033  1.00  0.00     0.009 A 
ATOM     78  C   UNL     1      12.932 -10.643  -0.130  1.00  0.00     0.001 A 
ATOM     79  C   UNL     1      11.559 -12.592  -0.517  1.00  0.00     0.001 A 
ATOM     80  C   UNL     1      12.798 -11.957  -0.577  1.00  0.00     0.000 A 
ENDBRANCH  62  75
ENDBRANCH  36  37
ENDBRANCH  28  31
ENDBRANCH  26  27
ENDBRANCH  25  26
ENDBRANCH   1  25
TORSDOF 15
