REMARK SMILES C[C@H]1SCCC[C@]1(Nc1ccc(Cl)cc1)C(=O)NCCCNC(=O)c1ccc(-c2c3nc(c(-c4ccccc4)c4ccc([nH]4)c(-c4ccccc4)c4nc(c(-c5ccccc5)c5ccc2[nH]5)C=C4)C=C3)cc1
REMARK SMILES IDX 20 1 19 2 18 3 16 4 17 5 7 7 1 8 2 9 3 10 4 11 6 12 5 13
REMARK SMILES IDX 8 14 9 16 10 17 15 18 11 19 14 20 12 21 13 22 21 23 22 24
REMARK SMILES IDX 23 25 24 27 25 28 26 29 72 30 27 31 71 32 28 33 29 34 30 35
REMARK SMILES IDX 65 36 31 37 70 38 64 39 66 40 32 41 69 42 63 43 62 44 33 46
REMARK SMILES IDX 55 47 40 48 54 49 41 50 44 51 53 52 67 53 42 54 43 55 52 57
REMARK SMILES IDX 68 58 45 59 34 60 35 61 39 62 36 63 38 64 37 65 56 66 57 67
REMARK SMILES IDX 61 68 58 69 60 70 59 71 46 72 47 73 51 74 48 75 50 76 49 77
REMARK H PARENT 18 6 8 15 22 26 66 45 44 56
REMARK Flexibility Score: inf
ROOT
ATOM      1  C   UNL     1       0.077   0.031   3.610  1.00  0.00     0.042 C 
ENDROOT
BRANCH   1   2
ATOM      2  C   UNL     1      -0.555   0.437   2.292  1.00  0.00     0.117 C 
BRANCH   2   3
ATOM      3  N   UNL     1       0.424   0.952   1.349  1.00  0.00    -0.354 N 
ATOM      4  C   UNL     1       0.659   0.646   0.040  1.00  0.00     0.246 C 
ATOM      5  O   UNL     1       1.528   1.333  -0.513  1.00  0.00    -0.272 OA
ATOM      6  H   UNL     1       1.021   1.641   1.719  1.00  0.00     0.163 HD
BRANCH   4   7
ATOM      7  C   UNL     1      -0.074  -0.513  -0.726  1.00  0.00     0.128 C 
ATOM      8  C   UNL     1       0.687  -2.288   1.137  1.00  0.00     0.022 C 
ATOM      9  C   UNL     1       0.585  -1.887  -0.327  1.00  0.00     0.078 C 
ATOM     10  S   UNL     1      -0.229  -3.301  -1.174  1.00  0.00    -0.156 SA
ATOM     11  C   UNL     1       0.233  -2.830  -2.853  1.00  0.00     0.070 C 
ATOM     12  C   UNL     1       0.203  -0.328  -2.258  1.00  0.00     0.040 C 
ATOM     13  C   UNL     1      -0.302  -1.445  -3.183  1.00  0.00     0.014 C 
BRANCH   7  14
ATOM     14  N   UNL     1      -1.553  -0.501  -0.514  1.00  0.00    -0.370 N 
ATOM     15  H   UNL     1      -2.010  -1.372  -0.556  1.00  0.00     0.161 HD
BRANCH  14  16
ATOM     16  C   UNL     1      -2.351   0.606  -0.264  1.00  0.00     0.035 A 
ATOM     17  C   UNL     1      -2.052   1.900  -0.707  1.00  0.00     0.027 A 
ATOM     18  C   UNL     1      -3.406   0.472   0.657  1.00  0.00     0.027 A 
ATOM     19  C   UNL     1      -2.720   3.023  -0.200  1.00  0.00     0.022 A 
ATOM     20  C   UNL     1      -4.058   1.591   1.194  1.00  0.00     0.022 A 
ATOM     21  C   UNL     1      -3.698   2.866   0.773  1.00  0.00     0.041 A 
ATOM     22  Cl  UNL     1      -4.426   4.249   1.489  1.00  0.00    -0.084 Cl
ENDBRANCH  14  16
ENDBRANCH   7  14
ENDBRANCH   4   7
ENDBRANCH   2   3
ENDBRANCH   1   2
BRANCH   1  23
ATOM     23  C   UNL     1       0.554   1.224   4.410  1.00  0.00     0.118 C 
BRANCH  23  24
ATOM     24  N   UNL     1      -0.553   1.983   4.972  1.00  0.00    -0.352 N 
ATOM     25  C   UNL     1      -0.932   2.126   6.282  1.00  0.00     0.251 C 
ATOM     26  H   UNL     1      -1.110   2.463   4.317  1.00  0.00     0.163 HD
ATOM     27  O   UNL     1      -2.032   2.603   6.557  1.00  0.00    -0.269 OA
BRANCH  25  28
ATOM     28  C   UNL     1      -0.028   1.680   7.362  1.00  0.00     0.039 A 
ATOM     29  C   UNL     1      -0.568   1.040   8.478  1.00  0.00     0.014 A 
ATOM     30  C   UNL     1       1.352   1.878   7.267  1.00  0.00     0.014 A 
ATOM     31  C   UNL     1       0.285   0.545   9.465  1.00  0.00     0.010 A 
ATOM     32  C   UNL     1       2.203   1.272   8.181  1.00  0.00     0.010 A 
ATOM     33  C   UNL     1       1.679   0.621   9.304  1.00  0.00    -0.014 A 
BRANCH  33  34
ATOM     34  C   UNL     1       2.601   0.046  10.313  1.00  0.00     0.031 A 
ATOM     35  C   UNL     1       3.578   0.933  11.038  1.00  0.00     0.074 A 
ATOM     36  C   UNL     1       2.587  -1.281  10.546  1.00  0.00     0.049 A 
ATOM     37  N   UNL     1       4.462   0.614  11.948  1.00  0.00    -0.248 NA
ATOM     38  C   UNL     1       3.585   2.360  10.672  1.00  0.00     0.031 C 
ATOM     39  C   UNL     1       1.729  -2.255   9.867  1.00  0.00     0.029 A 
ATOM     40  N   UNL     1       3.317  -2.040  11.425  1.00  0.00    -0.354 N 
ATOM     41  C   UNL     1       5.135   1.792  12.248  1.00  0.00     0.074 A 
ATOM     42  C   UNL     1       4.607   2.817  11.378  1.00  0.00     0.031 C 
ATOM     43  C   UNL     1       1.946  -3.472  10.389  1.00  0.00     0.029 A 
ATOM     44  C   UNL     1       2.988  -3.374  11.404  1.00  0.00     0.049 A 
ATOM     45  H   UNL     1       4.010  -1.665  12.016  1.00  0.00     0.167 HD
ATOM     46  C   UNL     1       6.089   2.010  13.184  1.00  0.00     0.031 A 
ATOM     47  C   UNL     1       3.471  -4.403  12.124  1.00  0.00     0.031 A 
ATOM     48  C   UNL     1       6.606   0.991  14.056  1.00  0.00     0.049 A 
ATOM     49  C   UNL     1       4.534  -4.136  13.153  1.00  0.00     0.074 A 
ATOM     50  C   UNL     1       7.528   1.118  15.079  1.00  0.00     0.029 A 
ATOM     51  N   UNL     1       6.247  -0.347  14.003  1.00  0.00    -0.354 N 
ATOM     52  N   UNL     1       5.100  -3.000  13.483  1.00  0.00    -0.248 NA
ATOM     53  C   UNL     1       5.013  -5.294  13.920  1.00  0.00     0.031 C 
ATOM     54  C   UNL     1       7.775  -0.155  15.604  1.00  0.00     0.029 A 
ATOM     55  C   UNL     1       6.953  -1.063  14.955  1.00  0.00     0.049 A 
ATOM     56  H   UNL     1       5.588  -0.732  13.381  1.00  0.00     0.167 HD
ATOM     57  C   UNL     1       5.982  -3.302  14.513  1.00  0.00     0.074 A 
ATOM     58  C   UNL     1       5.855  -4.722  14.768  1.00  0.00     0.031 C 
ATOM     59  C   UNL     1       6.822  -2.478  15.188  1.00  0.00     0.031 A 
BRANCH  46  60
ATOM     60  C   UNL     1       6.637   3.407  13.303  1.00  0.00    -0.014 A 
ATOM     61  C   UNL     1       5.845   4.467  13.775  1.00  0.00     0.009 A 
ATOM     62  C   UNL     1       7.975   3.662  12.962  1.00  0.00     0.009 A 
ATOM     63  C   UNL     1       6.369   5.758  13.863  1.00  0.00     0.001 A 
ATOM     64  C   UNL     1       8.505   4.948  13.084  1.00  0.00     0.001 A 
ATOM     65  C   UNL     1       7.699   5.997  13.523  1.00  0.00     0.000 A 
ENDBRANCH  46  60
BRANCH  47  66
ATOM     66  C   UNL     1       2.943  -5.777  11.912  1.00  0.00    -0.014 A 
ATOM     67  C   UNL     1       2.176  -6.409  12.903  1.00  0.00     0.009 A 
ATOM     68  C   UNL     1       3.208  -6.466  10.719  1.00  0.00     0.009 A 
ATOM     69  C   UNL     1       1.714  -7.715  12.716  1.00  0.00     0.001 A 
ATOM     70  C   UNL     1       2.716  -7.758  10.521  1.00  0.00     0.001 A 
ATOM     71  C   UNL     1       1.980  -8.386  11.524  1.00  0.00     0.000 A 
ENDBRANCH  47  66
BRANCH  59  72
ATOM     72  C   UNL     1       7.644  -3.093  16.287  1.00  0.00    -0.014 A 
ATOM     73  C   UNL     1       8.688  -3.989  16.007  1.00  0.00     0.009 A 
ATOM     74  C   UNL     1       7.381  -2.751  17.623  1.00  0.00     0.009 A 
ATOM     75  C   UNL     1       9.421  -4.565  17.047  1.00  0.00     0.001 A 
ATOM     76  C   UNL     1       8.138  -3.301  18.657  1.00  0.00     0.001 A 
ATOM     77  C   UNL     1       9.148  -4.218  18.370  1.00  0.00     0.000 A 
ENDBRANCH  59  72
ENDBRANCH  33  34
ENDBRANCH  25  28
ENDBRANCH  23  24
ENDBRANCH   1  23
TORSDOF 12
