REMARK SMILES Cc1nnc(N[C@@H]2CCCCC[C@@H]2C(=O)NCCCNC(=O)c2ccc(-c3c4nc(c(-c5ccccc5)c5ccc([nH]5)c(-c5ccccc5)c5nc(c(-c6ccccc6)c6ccc3[nH]6)C=C5)C=C4)cc2)s1
REMARK SMILES IDX 17 1 16 2 14 3 15 4 13 6 7 7 6 8 5 10 1 11 2 12 3 13 71 14
REMARK SMILES IDX 4 15 8 16 12 18 11 19 10 20 9 21 18 23 19 24 20 25 21 26
REMARK SMILES IDX 22 28 23 29 24 30 70 31 25 32 69 33 26 34 27 35 28 36 63 37
REMARK SMILES IDX 29 38 68 39 62 40 64 41 30 42 67 43 61 44 60 45 31 47 53 48
REMARK SMILES IDX 38 49 52 50 39 51 42 52 51 53 65 54 40 55 41 56 50 58 66 59
REMARK SMILES IDX 43 60 32 61 33 62 37 63 34 64 36 65 35 66 54 67 55 68 59 69
REMARK SMILES IDX 56 70 58 71 57 72 44 73 45 74 49 75 46 76 48 77 47 78
REMARK H PARENT 16 5 6 9 20 27 64 46 42 57
REMARK Flexibility Score: 90.00
ROOT
ATOM      1  C   UNL     1       1.736   0.123  -1.646  1.00  0.00     0.117 C 
ENDROOT
BRANCH   1   2
ATOM      2  N   UNL     1       2.784   0.578  -2.501  1.00  0.00    -0.356 N 
ATOM      3  C   UNL     1       3.678   1.556  -2.169  1.00  0.00     0.225 C 
ATOM      4  O   UNL     1       4.664   1.675  -2.906  1.00  0.00    -0.275 OA
ATOM      5  H   UNL     1       2.869   0.160  -3.388  1.00  0.00     0.163 HD
BRANCH   3   6
ATOM      6  C   UNL     1       3.429   2.596  -1.044  1.00  0.00     0.101 C 
BRANCH   6   7
ATOM      7  C   UNL     1       3.407   2.264   0.482  1.00  0.00     0.094 C 
BRANCH   7   8
ATOM      8  N   UNL     1       2.811   1.020   0.955  1.00  0.00    -0.357 N 
ATOM      9  H   UNL     1       3.455   0.279   1.031  1.00  0.00     0.163 HD
BRANCH   8  10
ATOM     10  C   UNL     1       1.542   0.679   1.312  1.00  0.00     0.205 A 
ATOM     11  C   UNL     1      -2.231   0.079   0.913  1.00  0.00     0.081 C 
ATOM     12  C   UNL     1      -0.793   0.154   1.280  1.00  0.00     0.116 A 
ATOM     13  N   UNL     1      -0.064  -0.874   1.645  1.00  0.00    -0.142 NA
ATOM     14  S   UNL     1       0.096   1.619   1.161  1.00  0.00    -0.080 S 
ATOM     15  N   UNL     1       1.276  -0.557   1.690  1.00  0.00    -0.120 NA
ENDBRANCH   8  10
ENDBRANCH   7   8
BRANCH   7  16
ATOM     16  C   UNL     1       3.003   3.438   1.395  1.00  0.00     0.026 CG0
ATOM     17  G   UNL     1       3.738   4.744   1.102  1.00  0.00     0.000 G0
ENDBRANCH   7  16
ENDBRANCH   6   7
BRANCH   6  18
ATOM     18  C   UNL     1       2.408   3.658  -1.507  1.00  0.00     0.015 C 
BRANCH  18  19
ATOM     19  C   UNL     1       2.953   5.088  -1.346  1.00  0.00     0.001 C 
BRANCH  19  20
ATOM     20  C   UNL     1       3.008   5.620   0.085  1.00  0.00     0.000 C 
BRANCH  20  21
ATOM     21  C   UNL     1       3.738   4.744   1.102  1.00  0.00     0.002 CG0
ATOM     22  G   UNL     1       3.003   3.438   1.395  1.00  0.00     0.000 G0
ENDBRANCH  20  21
ENDBRANCH  19  20
ENDBRANCH  18  19
ENDBRANCH   6  18
ENDBRANCH   3   6
ENDBRANCH   1   2
BRANCH   1  23
ATOM     23  C   UNL     1       0.489  -0.457  -2.267  1.00  0.00     0.042 C 
BRANCH  23  24
ATOM     24  C   UNL     1       0.526  -1.941  -2.590  1.00  0.00     0.118 C 
BRANCH  24  25
ATOM     25  N   UNL     1       0.946  -2.824  -1.507  1.00  0.00    -0.352 N 
ATOM     26  C   UNL     1       0.334  -3.789  -0.738  1.00  0.00     0.251 C 
ATOM     27  H   UNL     1       1.894  -2.701  -1.270  1.00  0.00     0.163 HD
ATOM     28  O   UNL     1       1.027  -4.416   0.058  1.00  0.00    -0.269 OA
BRANCH  26  29
ATOM     29  C   UNL     1      -1.119  -4.091  -0.804  1.00  0.00     0.039 A 
ATOM     30  C   UNL     1      -1.750  -4.612   0.336  1.00  0.00     0.014 A 
ATOM     31  C   UNL     1      -1.878  -3.923  -1.956  1.00  0.00     0.014 A 
ATOM     32  C   UNL     1      -3.124  -4.888   0.327  1.00  0.00     0.010 A 
ATOM     33  C   UNL     1      -3.263  -4.038  -1.917  1.00  0.00     0.010 A 
ATOM     34  C   UNL     1      -3.906  -4.555  -0.788  1.00  0.00    -0.014 A 
BRANCH  34  35
ATOM     35  C   UNL     1      -5.379  -4.771  -0.828  1.00  0.00     0.031 A 
ATOM     36  C   UNL     1      -5.996  -5.601  -1.930  1.00  0.00     0.074 A 
ATOM     37  C   UNL     1      -6.174  -4.156   0.070  1.00  0.00     0.049 A 
ATOM     38  N   UNL     1      -7.261  -5.816  -2.195  1.00  0.00    -0.248 NA
ATOM     39  C   UNL     1      -5.074  -6.237  -2.887  1.00  0.00     0.031 C 
ATOM     40  C   UNL     1      -5.718  -3.283   1.155  1.00  0.00     0.029 A 
ATOM     41  N   UNL     1      -7.540  -4.169   0.210  1.00  0.00    -0.354 N 
ATOM     42  C   UNL     1      -7.280  -6.576  -3.360  1.00  0.00     0.074 A 
ATOM     43  C   UNL     1      -5.909  -6.724  -3.791  1.00  0.00     0.031 C 
ATOM     44  C   UNL     1      -6.779  -2.883   1.874  1.00  0.00     0.029 A 
ATOM     45  C   UNL     1      -7.992  -3.426   1.274  1.00  0.00     0.049 A 
ATOM     46  H   UNL     1      -8.138  -4.664  -0.395  1.00  0.00     0.167 HD
ATOM     47  C   UNL     1      -8.337  -7.131  -4.001  1.00  0.00     0.031 A 
ATOM     48  C   UNL     1      -9.244  -3.205   1.718  1.00  0.00     0.031 A 
ATOM     49  C   UNL     1      -9.698  -7.018  -3.554  1.00  0.00     0.049 A 
ATOM     50  C   UNL     1     -10.400  -3.840   0.997  1.00  0.00     0.074 A 
ATOM     51  C   UNL     1     -10.833  -7.602  -4.090  1.00  0.00     0.029 A 
ATOM     52  N   UNL     1     -10.108  -6.274  -2.459  1.00  0.00    -0.354 N 
ATOM     53  N   UNL     1     -10.392  -4.611  -0.063  1.00  0.00    -0.248 NA
ATOM     54  C   UNL     1     -11.739  -3.582   1.545  1.00  0.00     0.031 C 
ATOM     55  C   UNL     1     -11.937  -7.165  -3.351  1.00  0.00     0.029 A 
ATOM     56  C   UNL     1     -11.482  -6.364  -2.316  1.00  0.00     0.049 A 
ATOM     57  H   UNL     1      -9.511  -5.759  -1.870  1.00  0.00     0.167 HD
ATOM     58  C   UNL     1     -11.718  -4.957  -0.289  1.00  0.00     0.074 A 
ATOM     59  C   UNL     1     -12.499  -4.326   0.755  1.00  0.00     0.031 C 
ATOM     60  C   UNL     1     -12.244  -5.728  -1.273  1.00  0.00     0.031 A 
BRANCH  47  61
ATOM     61  C   UNL     1      -8.057  -7.916  -5.256  1.00  0.00    -0.014 A 
ATOM     62  C   UNL     1      -7.360  -9.136  -5.216  1.00  0.00     0.009 A 
ATOM     63  C   UNL     1      -8.524  -7.446  -6.493  1.00  0.00     0.009 A 
ATOM     64  C   UNL     1      -7.099  -9.843  -6.392  1.00  0.00     0.001 A 
ATOM     65  C   UNL     1      -8.293  -8.174  -7.663  1.00  0.00     0.001 A 
ATOM     66  C   UNL     1      -7.571  -9.365  -7.613  1.00  0.00     0.000 A 
ENDBRANCH  47  61
BRANCH  48  67
ATOM     67  C   UNL     1      -9.470  -2.363   2.923  1.00  0.00    -0.014 A 
ATOM     68  C   UNL     1      -9.926  -2.940   4.119  1.00  0.00     0.009 A 
ATOM     69  C   UNL     1      -9.239  -0.979   2.884  1.00  0.00     0.009 A 
ATOM     70  C   UNL     1     -10.176  -2.145   5.240  1.00  0.00     0.001 A 
ATOM     71  C   UNL     1      -9.459  -0.191   4.017  1.00  0.00     0.001 A 
ATOM     72  C   UNL     1      -9.937  -0.773   5.189  1.00  0.00     0.000 A 
ENDBRANCH  48  67
BRANCH  60  73
ATOM     73  C   UNL     1     -13.728  -5.962  -1.242  1.00  0.00    -0.014 A 
ATOM     74  C   UNL     1     -14.639  -4.935  -1.534  1.00  0.00     0.009 A 
ATOM     75  C   UNL     1     -14.220  -7.243  -0.944  1.00  0.00     0.009 A 
ATOM     76  C   UNL     1     -16.013  -5.176  -1.486  1.00  0.00     0.001 A 
ATOM     77  C   UNL     1     -15.594  -7.489  -0.931  1.00  0.00     0.001 A 
ATOM     78  C   UNL     1     -16.489  -6.453  -1.189  1.00  0.00     0.000 A 
ENDBRANCH  60  73
ENDBRANCH  34  35
ENDBRANCH  26  29
ENDBRANCH  24  25
ENDBRANCH  23  24
ENDBRANCH   1  23
TORSDOF 12
