REMARK SMILES CC(C)COC(=O)N[C@H](Cc1c[nH]c2ccccc12)C(=O)NCCCNC(=O)c1ccc(-c2c3nc(c(-c4ccccc4)c4ccc([nH]4)c(-c4ccccc4)c4nc(c(-c5ccccc5)c5ccc2[nH]5)C=C4)C=C3)cc1
REMARK SMILES IDX 23 1 22 2 20 3 21 4 9 6 8 7 6 8 7 9 5 11 4 12 2 13 1 14 3 15
REMARK SMILES IDX 10 16 11 17 12 18 19 19 13 20 14 21 18 22 15 24 17 25 16 26
REMARK SMILES IDX 24 27 25 28 26 29 27 30 28 32 29 33 30 34 76 35 31 36 75 37
REMARK SMILES IDX 32 38 33 39 34 40 69 41 35 42 74 43 68 44 70 45 36 46 73 47
REMARK SMILES IDX 67 48 66 49 37 51 59 52 44 53 58 54 45 55 48 56 57 57 71 58
REMARK SMILES IDX 46 59 47 60 56 62 72 63 49 64 38 65 39 66 43 67 40 68 42 69
REMARK SMILES IDX 41 70 60 71 61 72 65 73 62 74 64 75 63 76 50 77 51 78 55 79
REMARK SMILES IDX 52 80 54 81 53 82
REMARK H PARENT 22 5 8 10 13 23 26 31 70 50 48 61
REMARK Flexibility Score: inf
ROOT
ATOM      1  C   UNL     1      -2.420   4.477   4.773  1.00  0.00     0.117 C 
ENDROOT
BRANCH   1   2
ATOM      2  N   UNL     1      -1.921   4.905   3.471  1.00  0.00    -0.354 N 
ATOM      3  C   UNL     1      -1.855   4.318   2.242  1.00  0.00     0.243 C 
ATOM      4  O   UNL     1      -1.088   4.860   1.433  1.00  0.00    -0.273 OA
ATOM      5  H   UNL     1      -1.552   5.818   3.481  1.00  0.00     0.163 HD
BRANCH   3   6
ATOM      6  C   UNL     1      -2.572   3.005   1.839  1.00  0.00     0.179 C 
BRANCH   6   7
ATOM      7  N   UNL     1      -3.885   2.824   2.449  1.00  0.00    -0.309 N 
ATOM      8  C   UNL     1      -5.077   3.066   1.845  1.00  0.00     0.407 C 
ATOM      9  O   UNL     1      -6.078   3.322   2.511  1.00  0.00    -0.225 OA
ATOM     10  H   UNL     1      -3.909   2.498   3.378  1.00  0.00     0.167 HD
BRANCH   8  11
ATOM     11  O   UNL     1      -5.042   2.916   0.502  1.00  0.00    -0.449 OA
BRANCH  11  12
ATOM     12  C   UNL     1      -6.289   3.051  -0.203  1.00  0.00     0.238 C 
BRANCH  12  13
ATOM     13  C   UNL     1      -7.047   1.714  -0.314  1.00  0.00     0.021 C 
ATOM     14  C   UNL     1      -7.555   1.202   1.035  1.00  0.00     0.011 C 
ATOM     15  C   UNL     1      -8.229   1.859  -1.274  1.00  0.00     0.011 C 
ENDBRANCH  12  13
ENDBRANCH  11  12
ENDBRANCH   8  11
ENDBRANCH   6   7
BRANCH   6  16
ATOM     16  C   UNL     1      -1.680   1.754   1.876  1.00  0.00     0.073 C 
BRANCH  16  17
ATOM     17  C   UNL     1      -0.992   1.441   3.168  1.00  0.00    -0.020 A 
ATOM     18  C   UNL     1      -1.463   0.638   4.190  1.00  0.00     0.087 A 
ATOM     19  C   UNL     1       0.311   1.892   3.567  1.00  0.00     0.003 A 
ATOM     20  N   UNL     1      -0.512   0.591   5.176  1.00  0.00    -0.361 N 
ATOM     21  C   UNL     1       0.565   1.378   4.840  1.00  0.00     0.046 A 
ATOM     22  C   UNL     1       1.272   2.748   2.986  1.00  0.00     0.010 A 
ATOM     23  H   UNL     1      -0.589   0.068   6.007  1.00  0.00     0.166 HD
ATOM     24  C   UNL     1       1.710   1.710   5.577  1.00  0.00     0.026 A 
ATOM     25  C   UNL     1       2.414   3.099   3.713  1.00  0.00     0.001 A 
ATOM     26  C   UNL     1       2.623   2.594   4.993  1.00  0.00     0.002 A 
ENDBRANCH  16  17
ENDBRANCH   6  16
ENDBRANCH   3   6
ENDBRANCH   1   2
BRANCH   1  27
ATOM     27  C   UNL     1      -1.283   4.182   5.748  1.00  0.00     0.042 C 
BRANCH  27  28
ATOM     28  C   UNL     1      -0.561   5.401   6.300  1.00  0.00     0.118 C 
BRANCH  28  29
ATOM     29  N   UNL     1      -0.979   5.700   7.658  1.00  0.00    -0.352 N 
ATOM     30  C   UNL     1      -0.520   5.283   8.882  1.00  0.00     0.251 C 
ATOM     31  H   UNL     1      -1.739   6.323   7.711  1.00  0.00     0.163 HD
ATOM     32  O   UNL     1      -1.242   5.499   9.857  1.00  0.00    -0.269 OA
BRANCH  30  33
ATOM     33  C   UNL     1       0.781   4.587   9.104  1.00  0.00     0.039 A 
ATOM     34  C   UNL     1       0.880   3.755  10.230  1.00  0.00     0.014 A 
ATOM     35  C   UNL     1       1.936   4.820   8.356  1.00  0.00     0.014 A 
ATOM     36  C   UNL     1       2.102   3.173  10.596  1.00  0.00     0.010 A 
ATOM     37  C   UNL     1       3.142   4.174   8.674  1.00  0.00     0.010 A 
ATOM     38  C   UNL     1       3.250   3.365   9.815  1.00  0.00    -0.014 A 
BRANCH  38  39
ATOM     39  C   UNL     1       4.558   2.765  10.216  1.00  0.00     0.031 A 
ATOM     40  C   UNL     1       5.739   3.640  10.566  1.00  0.00     0.074 A 
ATOM     41  C   UNL     1       4.704   1.426  10.266  1.00  0.00     0.049 A 
ATOM     42  N   UNL     1       6.952   3.290  10.925  1.00  0.00    -0.248 NA
ATOM     43  C   UNL     1       5.539   5.096  10.488  1.00  0.00     0.031 C 
ATOM     44  C   UNL     1       3.665   0.447   9.944  1.00  0.00     0.029 A 
ATOM     45  N   UNL     1       5.788   0.655  10.614  1.00  0.00    -0.354 N 
ATOM     46  C   UNL     1       7.659   4.476  11.094  1.00  0.00     0.074 A 
ATOM     47  C   UNL     1       6.753   5.553  10.757  1.00  0.00     0.031 C 
ATOM     48  C   UNL     1       4.150  -0.790  10.141  1.00  0.00     0.029 A 
ATOM     49  C   UNL     1       5.545  -0.697  10.562  1.00  0.00     0.049 A 
ATOM     50  H   UNL     1       6.658   1.036  10.875  1.00  0.00     0.167 HD
ATOM     51  C   UNL     1       8.937   4.661  11.508  1.00  0.00     0.031 A 
ATOM     52  C   UNL     1       6.348  -1.748  10.818  1.00  0.00     0.031 A 
ATOM     53  C   UNL     1       9.845   3.603  11.868  1.00  0.00     0.049 A 
ATOM     54  C   UNL     1       7.768  -1.518  11.253  1.00  0.00     0.074 A 
ATOM     55  C   UNL     1      11.139   3.707  12.351  1.00  0.00     0.029 A 
ATOM     56  N   UNL     1       9.559   2.251  11.783  1.00  0.00    -0.354 N 
ATOM     57  N   UNL     1       8.397  -0.388  11.460  1.00  0.00    -0.248 NA
ATOM     58  C   UNL     1       8.586  -2.716  11.500  1.00  0.00     0.031 C 
ATOM     59  C   UNL     1      11.654   2.416  12.509  1.00  0.00     0.029 A 
ATOM     60  C   UNL     1      10.661   1.509  12.178  1.00  0.00     0.049 A 
ATOM     61  H   UNL     1       8.700   1.872  11.485  1.00  0.00     0.167 HD
ATOM     62  C   UNL     1       9.674  -0.738  11.884  1.00  0.00     0.074 A 
ATOM     63  C   UNL     1       9.724  -2.183  11.923  1.00  0.00     0.031 C 
ATOM     64  C   UNL     1      10.710   0.071  12.213  1.00  0.00     0.031 A 
BRANCH  51  65
ATOM     65  C   UNL     1       9.442   6.077  11.590  1.00  0.00    -0.014 A 
ATOM     66  C   UNL     1       8.988   6.957  12.586  1.00  0.00     0.009 A 
ATOM     67  C   UNL     1      10.424   6.520  10.690  1.00  0.00     0.009 A 
ATOM     68  C   UNL     1       9.479   8.262  12.653  1.00  0.00     0.001 A 
ATOM     69  C   UNL     1      10.934   7.816  10.778  1.00  0.00     0.001 A 
ATOM     70  C   UNL     1      10.455   8.690  11.753  1.00  0.00     0.000 A 
ENDBRANCH  51  65
BRANCH  52  71
ATOM     71  C   UNL     1       5.825  -3.133  10.675  1.00  0.00    -0.014 A 
ATOM     72  C   UNL     1       5.609  -3.933  11.807  1.00  0.00     0.009 A 
ATOM     73  C   UNL     1       5.556  -3.666   9.405  1.00  0.00     0.009 A 
ATOM     74  C   UNL     1       5.159  -5.248  11.669  1.00  0.00     0.001 A 
ATOM     75  C   UNL     1       5.077  -4.970   9.271  1.00  0.00     0.001 A 
ATOM     76  C   UNL     1       4.888  -5.763  10.402  1.00  0.00     0.000 A 
ENDBRANCH  52  71
BRANCH  64  77
ATOM     77  C   UNL     1      11.981  -0.586  12.676  1.00  0.00    -0.014 A 
ATOM     78  C   UNL     1      12.816  -1.272  11.780  1.00  0.00     0.009 A 
ATOM     79  C   UNL     1      12.364  -0.489  14.023  1.00  0.00     0.009 A 
ATOM     80  C   UNL     1      13.992  -1.875  12.232  1.00  0.00     0.001 A 
ATOM     81  C   UNL     1      13.553  -1.070  14.466  1.00  0.00     0.001 A 
ATOM     82  C   UNL     1      14.362  -1.770  13.573  1.00  0.00     0.000 A 
ENDBRANCH  64  77
ENDBRANCH  38  39
ENDBRANCH  30  33
ENDBRANCH  28  29
ENDBRANCH  27  28
ENDBRANCH   1  27
TORSDOF 16
