REMARK SMILES Cc1ccc(C(=O)NCCCNC(=O)c2ccc(-c3c4nc(c(-c5ccccc5)c5ccc([nH]5)c(-c5ccccc5)c5nc(c(-c6ccccc6)c6ccc3[nH]6)C=C5)C=C4)cc2)c(NC(=O)CN2C(=O)/C(=C/c3ccccc3C)SC2=S)c1
REMARK SMILES IDX 9 1 8 2 6 3 7 4 5 6 1 7 2 8 3 9 83 10 4 11 63 12 64 13 65 14
REMARK SMILES IDX 66 16 67 17 68 18 69 19 81 20 70 21 71 22 80 23 82 24 72 25
REMARK SMILES IDX 73 26 74 27 78 28 75 29 77 30 79 31 76 32 10 33 11 34 12 35
REMARK SMILES IDX 13 36 14 38 15 39 16 40 62 41 17 42 61 43 18 44 19 45 20 46
REMARK SMILES IDX 55 47 21 48 60 49 54 50 56 51 22 52 59 53 53 54 52 55 23 57
REMARK SMILES IDX 45 58 30 59 44 60 31 61 34 62 43 63 57 64 32 65 33 66 42 68
REMARK SMILES IDX 58 69 35 70 24 71 25 72 29 73 26 74 28 75 27 76 46 77 47 78
REMARK SMILES IDX 51 79 48 80 50 81 49 82 36 83 37 84 41 85 38 86 40 87 39 88
REMARK H PARENT 8 5 64 15 12 37 56 56 34 67
REMARK Flexibility Score: inf
ROOT
ATOM      1  C   UNL     1      -1.511   2.932  -1.276  1.00  0.00     0.118 C 
ENDROOT
BRANCH   1   2
ATOM      2  N   UNL     1      -2.024   1.693  -1.843  1.00  0.00    -0.352 N 
ATOM      3  C   UNL     1      -1.717   0.374  -1.591  1.00  0.00     0.253 C 
ATOM      4  O   UNL     1      -1.937  -0.469  -2.455  1.00  0.00    -0.269 OA
ATOM      5  H   UNL     1      -2.716   1.821  -2.531  1.00  0.00     0.163 HD
BRANCH   3   6
ATOM      6  C   UNL     1      -1.050  -0.111  -0.380  1.00  0.00     0.063 A 
ATOM      7  C   UNL     1       2.795   0.497   1.138  1.00  0.00     0.044 C 
ATOM      8  C   UNL     1       1.382   0.094   0.836  1.00  0.00    -0.049 A 
ATOM      9  C   UNL     1       1.167  -0.974  -0.029  1.00  0.00     0.004 A 
ATOM     10  C   UNL     1       0.268   0.799   1.338  1.00  0.00     0.030 A 
ATOM     11  C   UNL     1      -0.063  -1.075  -0.649  1.00  0.00     0.016 A 
ATOM     12  C   UNL     1      -1.015   0.619   0.784  1.00  0.00     0.054 A 
BRANCH  12  13
ATOM     13  N   UNL     1      -2.095   1.310   1.363  1.00  0.00    -0.324 N 
ATOM     14  C   UNL     1      -3.437   1.436   1.211  1.00  0.00     0.244 C 
ATOM     15  H   UNL     1      -1.780   1.874   2.106  1.00  0.00     0.170 HD
ATOM     16  O   UNL     1      -3.875   2.371   1.919  1.00  0.00    -0.273 OA
BRANCH  14  17
ATOM     17  C   UNL     1      -4.528   0.536   0.556  1.00  0.00     0.227 C 
BRANCH  17  18
ATOM     18  N   UNL     1      -4.556  -0.345  -0.618  1.00  0.00    -0.283 N 
ATOM     19  C   UNL     1      -4.697   0.208  -1.885  1.00  0.00     0.266 C 
ATOM     20  C   UNL     1      -4.787  -1.708  -0.562  1.00  0.00     0.148 C 
ATOM     21  O   UNL     1      -4.793   1.402  -2.148  1.00  0.00    -0.268 OA
ATOM     22  C   UNL     1      -4.638  -0.871  -2.929  1.00  0.00     0.081 C 
ATOM     23  S   UNL     1      -5.015  -2.364  -2.185  1.00  0.00    -0.054 SA
ATOM     24  S   UNL     1      -4.902  -2.688   0.785  1.00  0.00    -0.052 S 
ATOM     25  C   UNL     1      -4.070  -0.612  -4.123  1.00  0.00     0.029 C 
BRANCH  25  26
ATOM     26  C   UNL     1      -3.467  -1.507  -5.153  1.00  0.00    -0.021 A 
ATOM     27  C   UNL     1      -2.884  -2.736  -4.784  1.00  0.00     0.008 A 
ATOM     28  C   UNL     1      -3.271  -1.073  -6.486  1.00  0.00    -0.044 A 
ATOM     29  C   UNL     1      -2.229  -3.558  -5.708  1.00  0.00     0.001 A 
ATOM     30  C   UNL     1      -2.627  -1.922  -7.414  1.00  0.00     0.004 A 
ATOM     31  C   UNL     1      -3.733   0.266  -6.999  1.00  0.00     0.045 C 
ATOM     32  C   UNL     1      -2.116  -3.158  -7.029  1.00  0.00     0.000 A 
ENDBRANCH  25  26
ENDBRANCH  17  18
ENDBRANCH  14  17
ENDBRANCH  12  13
ENDBRANCH   3   6
ENDBRANCH   1   2
BRANCH   1  33
ATOM     33  C   UNL     1      -2.150   4.188  -1.873  1.00  0.00     0.042 C 
BRANCH  33  34
ATOM     34  C   UNL     1      -3.585   4.434  -1.389  1.00  0.00     0.118 C 
BRANCH  34  35
ATOM     35  N   UNL     1      -3.847   5.872  -1.231  1.00  0.00    -0.352 N 
ATOM     36  C   UNL     1      -5.001   6.611  -1.381  1.00  0.00     0.251 C 
ATOM     37  H   UNL     1      -3.059   6.402  -0.972  1.00  0.00     0.163 HD
ATOM     38  O   UNL     1      -5.061   7.756  -0.941  1.00  0.00    -0.269 OA
BRANCH  36  39
ATOM     39  C   UNL     1      -6.193   5.996  -1.990  1.00  0.00     0.039 A 
ATOM     40  C   UNL     1      -7.429   6.131  -1.347  1.00  0.00     0.014 A 
ATOM     41  C   UNL     1      -6.057   5.173  -3.103  1.00  0.00     0.014 A 
ATOM     42  C   UNL     1      -8.460   5.253  -1.669  1.00  0.00     0.010 A 
ATOM     43  C   UNL     1      -7.046   4.246  -3.367  1.00  0.00     0.010 A 
ATOM     44  C   UNL     1      -8.215   4.243  -2.602  1.00  0.00    -0.014 A 
BRANCH  44  45
ATOM     45  C   UNL     1      -9.089   3.087  -2.753  1.00  0.00     0.031 A 
ATOM     46  C   UNL     1     -10.129   3.079  -3.794  1.00  0.00     0.074 A 
ATOM     47  C   UNL     1      -8.972   2.030  -1.919  1.00  0.00     0.049 A 
ATOM     48  N   UNL     1     -11.297   2.546  -3.650  1.00  0.00    -0.248 NA
ATOM     49  C   UNL     1      -9.936   3.737  -5.079  1.00  0.00     0.031 C 
ATOM     50  C   UNL     1      -9.648   0.741  -2.027  1.00  0.00     0.029 A 
ATOM     51  N   UNL     1      -8.385   2.000  -0.653  1.00  0.00    -0.354 N 
ATOM     52  C   UNL     1     -11.887   2.532  -4.894  1.00  0.00     0.074 A 
ATOM     53  C   UNL     1     -11.047   3.369  -5.723  1.00  0.00     0.031 C 
ATOM     54  C   UNL     1      -9.708   0.188  -0.804  1.00  0.00     0.029 A 
ATOM     55  C   UNL     1      -9.185   1.164   0.140  1.00  0.00     0.049 A 
ATOM     56  H   UNL     1      -7.569   2.473  -0.372  1.00  0.00     0.167 HD
ATOM     57  C   UNL     1     -12.927   1.689  -5.148  1.00  0.00     0.031 A 
ATOM     58  C   UNL     1      -9.793   1.565   1.294  1.00  0.00     0.031 A 
ATOM     59  C   UNL     1     -13.294   0.897  -3.977  1.00  0.00     0.049 A 
ATOM     60  C   UNL     1     -11.292   1.364   1.278  1.00  0.00     0.074 A 
ATOM     61  C   UNL     1     -12.975  -0.397  -3.597  1.00  0.00     0.029 A 
ATOM     62  N   UNL     1     -13.845   1.513  -2.861  1.00  0.00    -0.354 N 
ATOM     63  N   UNL     1     -11.986   1.162   0.194  1.00  0.00    -0.248 NA
ATOM     64  C   UNL     1     -12.133   1.487   2.467  1.00  0.00     0.031 C 
ATOM     65  C   UNL     1     -13.280  -0.538  -2.222  1.00  0.00     0.029 A 
ATOM     66  C   UNL     1     -13.806   0.660  -1.774  1.00  0.00     0.049 A 
ATOM     67  H   UNL     1     -14.210   2.427  -2.846  1.00  0.00     0.167 HD
ATOM     68  C   UNL     1     -13.322   1.184   0.500  1.00  0.00     0.074 A 
ATOM     69  C   UNL     1     -13.363   1.362   1.940  1.00  0.00     0.031 C 
ATOM     70  C   UNL     1     -14.279   1.095  -0.467  1.00  0.00     0.031 A 
BRANCH  57  71
ATOM     71  C   UNL     1     -13.376   1.347  -6.551  1.00  0.00    -0.014 A 
ATOM     72  C   UNL     1     -13.895   0.066  -6.822  1.00  0.00     0.009 A 
ATOM     73  C   UNL     1     -13.265   2.211  -7.652  1.00  0.00     0.009 A 
ATOM     74  C   UNL     1     -14.169  -0.365  -8.126  1.00  0.00     0.001 A 
ATOM     75  C   UNL     1     -13.495   1.774  -8.965  1.00  0.00     0.001 A 
ATOM     76  C   UNL     1     -13.934   0.479  -9.203  1.00  0.00     0.000 A 
ENDBRANCH  57  71
BRANCH  58  77
ATOM     77  C   UNL     1      -9.145   2.731   1.952  1.00  0.00    -0.014 A 
ATOM     78  C   UNL     1      -7.843   2.578   2.466  1.00  0.00     0.009 A 
ATOM     79  C   UNL     1      -9.632   4.026   1.719  1.00  0.00     0.009 A 
ATOM     80  C   UNL     1      -7.005   3.687   2.613  1.00  0.00     0.001 A 
ATOM     81  C   UNL     1      -8.793   5.133   1.885  1.00  0.00     0.001 A 
ATOM     82  C   UNL     1      -7.471   4.958   2.290  1.00  0.00     0.000 A 
ENDBRANCH  58  77
BRANCH  70  83
ATOM     83  C   UNL     1     -15.752   1.338  -0.267  1.00  0.00    -0.014 A 
ATOM     84  C   UNL     1     -16.288   2.137   0.753  1.00  0.00     0.009 A 
ATOM     85  C   UNL     1     -16.662   0.840  -1.226  1.00  0.00     0.009 A 
ATOM     86  C   UNL     1     -17.666   2.377   0.844  1.00  0.00     0.001 A 
ATOM     87  C   UNL     1     -18.030   1.115  -1.165  1.00  0.00     0.001 A 
ATOM     88  C   UNL     1     -18.535   1.873  -0.118  1.00  0.00     0.000 A 
ENDBRANCH  70  83
ENDBRANCH  44  45
ENDBRANCH  36  39
ENDBRANCH  34  35
ENDBRANCH  33  34
ENDBRANCH   1  33
TORSDOF 14
