REMARK SMILES C/C(=N/OCc1ccccc1Nc1c(Cl)cccc1Cl)C(=O)NCCCNC(=O)c1ccc(-c2c3nc(c(-c4ccccc4)c4ccc([nH]4)c(-c4ccccc4)c4nc(c(-c5ccccc5)c5ccc2[nH]5)C=C4)C=C3)cc1
REMARK SMILES IDX 21 1 22 2 23 3 2 5 1 6 3 7 4 8 5 9 6 10 7 11 11 12 8 13
REMARK SMILES IDX 10 14 9 15 12 16 13 18 14 19 19 20 15 21 16 22 18 23 20 24
REMARK SMILES IDX 17 25 24 26 25 27 26 28 27 29 28 30 29 32 30 33 31 34 77 35
REMARK SMILES IDX 32 36 76 37 33 38 34 39 35 40 70 41 36 42 75 43 69 44 71 45
REMARK SMILES IDX 37 46 74 47 68 48 67 49 38 51 60 52 45 53 59 54 46 55 49 56
REMARK SMILES IDX 58 57 72 58 47 59 48 60 57 62 73 63 50 64 39 65 40 66 44 67
REMARK SMILES IDX 41 68 43 69 42 70 61 71 62 72 66 73 63 74 65 75 64 76 51 77
REMARK SMILES IDX 52 78 56 79 53 80 55 81 54 82
REMARK H PARENT 23 4 12 17 27 31 71 50 49 61
REMARK Flexibility Score: inf
ROOT
ATOM      1  C   UNL     1       0.379   0.107   2.349  1.00  0.00     0.268 C 
ATOM      2  O   UNL     1       0.576  -1.105   2.471  1.00  0.00    -0.268 OA
ATOM      3  N   UNL     1       0.525   0.853   3.492  1.00  0.00    -0.351 N 
ATOM      4  H   UNL     1       0.922   0.335   4.230  1.00  0.00     0.163 HD
ENDROOT
BRANCH   1   5
ATOM      5  C   UNL     1       0.093   0.596   0.929  1.00  0.00     0.141 C 
ATOM      6  C   UNL     1       0.548  -0.369  -0.152  1.00  0.00     0.077 C 
ATOM      7  N   UNL     1      -0.486   1.678   0.495  1.00  0.00    -0.086 NA
BRANCH   7   8
ATOM      8  O   UNL     1      -0.908   2.532   1.490  1.00  0.00    -0.390 OA
BRANCH   8   9
ATOM      9  C   UNL     1      -1.480   3.726   0.956  1.00  0.00     0.302 C 
BRANCH   9  10
ATOM     10  C   UNL     1      -0.594   4.640   0.126  1.00  0.00     0.016 A 
ATOM     11  C   UNL     1      -1.295   5.526  -0.725  1.00  0.00     0.009 A 
ATOM     12  C   UNL     1       0.815   4.734   0.194  1.00  0.00     0.045 A 
ATOM     13  C   UNL     1      -0.630   6.455  -1.519  1.00  0.00     0.001 A 
ATOM     14  C   UNL     1       1.462   5.668  -0.634  1.00  0.00     0.026 A 
ATOM     15  C   UNL     1       0.753   6.518  -1.482  1.00  0.00     0.002 A 
BRANCH  12  16
ATOM     16  N   UNL     1       1.577   3.942   1.083  1.00  0.00    -0.353 N 
ATOM     17  H   UNL     1       1.116   3.134   1.407  1.00  0.00     0.167 HD
BRANCH  16  18
ATOM     18  C   UNL     1       2.894   4.109   1.589  1.00  0.00     0.076 A 
ATOM     19  C   UNL     1       3.806   3.030   1.553  1.00  0.00     0.066 A 
ATOM     20  C   UNL     1       3.399   5.335   2.077  1.00  0.00     0.066 A 
ATOM     21  Cl  UNL     1       3.328   1.467   1.003  1.00  0.00    -0.082 Cl
ATOM     22  C   UNL     1       5.146   3.168   1.941  1.00  0.00     0.023 A 
ATOM     23  C   UNL     1       4.749   5.478   2.443  1.00  0.00     0.023 A 
ATOM     24  Cl  UNL     1       2.386   6.711   2.369  1.00  0.00    -0.082 Cl
ATOM     25  C   UNL     1       5.624   4.399   2.369  1.00  0.00     0.003 A 
ENDBRANCH  16  18
ENDBRANCH  12  16
ENDBRANCH   9  10
ENDBRANCH   8   9
ENDBRANCH   7   8
ENDBRANCH   1   5
BRANCH   3  26
ATOM     26  C   UNL     1       0.234   2.222   3.872  1.00  0.00     0.118 C 
BRANCH  26  27
ATOM     27  C   UNL     1      -1.229   2.377   4.289  1.00  0.00     0.042 C 
BRANCH  27  28
ATOM     28  C   UNL     1      -1.411   2.241   5.790  1.00  0.00     0.118 C 
BRANCH  28  29
ATOM     29  N   UNL     1      -0.881   3.404   6.493  1.00  0.00    -0.352 N 
ATOM     30  C   UNL     1      -1.499   4.253   7.372  1.00  0.00     0.251 C 
ATOM     31  H   UNL     1       0.064   3.611   6.307  1.00  0.00     0.163 HD
ATOM     32  O   UNL     1      -0.953   5.312   7.686  1.00  0.00    -0.269 OA
BRANCH  30  33
ATOM     33  C   UNL     1      -2.820   3.913   7.935  1.00  0.00     0.039 A 
ATOM     34  C   UNL     1      -3.759   4.931   8.124  1.00  0.00     0.014 A 
ATOM     35  C   UNL     1      -3.128   2.599   8.293  1.00  0.00     0.014 A 
ATOM     36  C   UNL     1      -5.021   4.620   8.629  1.00  0.00     0.010 A 
ATOM     37  C   UNL     1      -4.417   2.276   8.696  1.00  0.00     0.010 A 
ATOM     38  C   UNL     1      -5.369   3.285   8.889  1.00  0.00    -0.014 A 
BRANCH  38  39
ATOM     39  C   UNL     1      -6.714   2.921   9.393  1.00  0.00     0.031 A 
ATOM     40  C   UNL     1      -6.860   2.268  10.739  1.00  0.00     0.074 A 
ATOM     41  C   UNL     1      -7.793   3.120   8.612  1.00  0.00     0.049 A 
ATOM     42  N   UNL     1      -7.940   1.825  11.331  1.00  0.00    -0.248 NA
ATOM     43  C   UNL     1      -5.623   2.053  11.509  1.00  0.00     0.031 C 
ATOM     44  C   UNL     1      -7.772   3.710   7.271  1.00  0.00     0.029 A 
ATOM     45  N   UNL     1      -9.117   2.846   8.836  1.00  0.00    -0.354 N 
ATOM     46  C   UNL     1      -7.510   1.264  12.526  1.00  0.00     0.074 A 
ATOM     47  C   UNL     1      -6.067   1.361  12.546  1.00  0.00     0.031 C 
ATOM     48  C   UNL     1      -9.030   3.792   6.810  1.00  0.00     0.029 A 
ATOM     49  C   UNL     1      -9.937   3.218   7.799  1.00  0.00     0.049 A 
ATOM     50  H   UNL     1      -9.449   2.423   9.660  1.00  0.00     0.167 HD
ATOM     51  C   UNL     1      -8.249   0.736  13.530  1.00  0.00     0.031 A 
ATOM     52  C   UNL     1     -11.271   3.108   7.661  1.00  0.00     0.031 A 
ATOM     53  C   UNL     1      -9.684   0.644  13.505  1.00  0.00     0.049 A 
ATOM     54  C   UNL     1     -12.070   2.497   8.777  1.00  0.00     0.074 A 
ATOM     55  C   UNL     1     -10.537   0.176  14.489  1.00  0.00     0.029 A 
ATOM     56  N   UNL     1     -10.478   1.026  12.433  1.00  0.00    -0.354 N 
ATOM     57  N   UNL     1     -11.657   2.032   9.931  1.00  0.00    -0.248 NA
ATOM     58  C   UNL     1     -13.522   2.407   8.573  1.00  0.00     0.031 C 
ATOM     59  C   UNL     1     -11.842   0.219  13.988  1.00  0.00     0.029 A 
ATOM     60  C   UNL     1     -11.809   0.777  12.719  1.00  0.00     0.049 A 
ATOM     61  H   UNL     1     -10.143   1.416  11.594  1.00  0.00     0.167 HD
ATOM     62  C   UNL     1     -12.800   1.621  10.605  1.00  0.00     0.074 A 
ATOM     63  C   UNL     1     -13.923   1.907   9.734  1.00  0.00     0.031 C 
ATOM     64  C   UNL     1     -12.912   1.062  11.835  1.00  0.00     0.031 A 
BRANCH  51  65
ATOM     65  C   UNL     1      -7.505   0.203  14.726  1.00  0.00    -0.014 A 
ATOM     66  C   UNL     1      -6.793   1.057  15.585  1.00  0.00     0.009 A 
ATOM     67  C   UNL     1      -7.513  -1.173  14.998  1.00  0.00     0.009 A 
ATOM     68  C   UNL     1      -6.061   0.539  16.656  1.00  0.00     0.001 A 
ATOM     69  C   UNL     1      -6.810  -1.686  16.090  1.00  0.00     0.001 A 
ATOM     70  C   UNL     1      -6.073  -0.832  16.909  1.00  0.00     0.000 A 
ENDBRANCH  51  65
BRANCH  52  71
ATOM     71  C   UNL     1     -11.933   3.621   6.434  1.00  0.00    -0.014 A 
ATOM     72  C   UNL     1     -12.734   4.772   6.489  1.00  0.00     0.009 A 
ATOM     73  C   UNL     1     -11.755   2.978   5.199  1.00  0.00     0.009 A 
ATOM     74  C   UNL     1     -13.359   5.256   5.338  1.00  0.00     0.001 A 
ATOM     75  C   UNL     1     -12.357   3.482   4.044  1.00  0.00     0.001 A 
ATOM     76  C   UNL     1     -13.166   4.615   4.116  1.00  0.00     0.000 A 
ENDBRANCH  52  71
BRANCH  64  77
ATOM     77  C   UNL     1     -14.299   0.757  12.326  1.00  0.00    -0.014 A 
ATOM     78  C   UNL     1     -15.060  -0.285  11.773  1.00  0.00     0.009 A 
ATOM     79  C   UNL     1     -14.837   1.502  13.388  1.00  0.00     0.009 A 
ATOM     80  C   UNL     1     -16.345  -0.549  12.250  1.00  0.00     0.001 A 
ATOM     81  C   UNL     1     -16.108   1.214  13.884  1.00  0.00     0.001 A 
ATOM     82  C   UNL     1     -16.866   0.196  13.308  1.00  0.00     0.000 A 
ENDBRANCH  64  77
ENDBRANCH  38  39
ENDBRANCH  30  33
ENDBRANCH  28  29
ENDBRANCH  27  28
ENDBRANCH  26  27
ENDBRANCH   3  26
TORSDOF 15
