REMARK SMILES Cc1nn(Cc2ccc(C(=O)NCCCNC(=O)c3ccc(-c4c5nc(c(-c6ccccc6)c6ccc([nH]6)c(-c6ccccc6)c6nc(c(-c7ccccc7)c7ccc4[nH]7)C=C6)C=C5)cc3)o2)c(C)c1C
REMARK SMILES IDX 14 1 13 2 12 3 10 4 11 5 9 7 6 8 7 9 67 10 8 11 5 12 4 13
REMARK SMILES IDX 1 14 2 15 3 16 70 17 68 18 71 19 69 20 15 21 16 22 17 23
REMARK SMILES IDX 18 25 19 26 20 27 66 28 21 29 65 30 22 31 23 32 24 33 59 34
REMARK SMILES IDX 25 35 64 36 58 37 60 38 26 39 63 40 57 41 56 42 27 44 49 45
REMARK SMILES IDX 34 46 48 47 35 48 38 49 47 50 61 51 36 52 37 53 46 55 62 56
REMARK SMILES IDX 39 57 28 58 29 59 33 60 30 61 32 62 31 63 50 64 51 65 55 66
REMARK SMILES IDX 52 67 54 68 53 69 40 70 41 71 45 72 42 73 44 74 43 75
REMARK H PARENT 12 6 16 24 60 43 38 54
REMARK Flexibility Score: inf
ROOT
ATOM      1  C   UNL     1      -4.296  -7.159   0.972  1.00  0.00     0.042 C 
ENDROOT
BRANCH   1   2
ATOM      2  C   UNL     1      -3.253  -8.148   0.441  1.00  0.00     0.118 C 
BRANCH   2   3
ATOM      3  N   UNL     1      -3.206  -8.192  -1.014  1.00  0.00    -0.349 N 
ATOM      4  C   UNL     1      -2.308  -7.658  -1.910  1.00  0.00     0.286 C 
ATOM      5  O   UNL     1      -2.489  -7.945  -3.097  1.00  0.00    -0.266 OA
ATOM      6  H   UNL     1      -3.946  -8.691  -1.430  1.00  0.00     0.163 HD
BRANCH   4   7
ATOM      7  C   UNL     1      -1.198  -6.835  -1.474  1.00  0.00     0.191 A 
ATOM      8  C   UNL     1       0.035  -5.641  -0.088  1.00  0.00     0.126 A 
ATOM      9  C   UNL     1       0.711  -5.659  -1.289  1.00  0.00     0.048 A 
ATOM     10  O   UNL     1      -1.133  -6.333  -0.203  1.00  0.00    -0.454 OA
ATOM     11  C   UNL     1      -0.085  -6.413  -2.181  1.00  0.00     0.056 A 
BRANCH   8  12
ATOM     12  C   UNL     1       0.348  -5.075   1.248  1.00  0.00     0.219 C 
BRANCH  12  13
ATOM     13  N   UNL     1       0.126  -3.635   1.291  1.00  0.00    -0.262 N 
ATOM     14  C   UNL     1       1.094  -0.452   0.090  1.00  0.00     0.069 C 
ATOM     15  C   UNL     1       0.480  -1.596   0.808  1.00  0.00     0.063 A 
ATOM     16  N   UNL     1       0.904  -2.833   0.535  1.00  0.00    -0.177 NA
ATOM     17  C   UNL     1      -0.539  -1.595   1.798  1.00  0.00    -0.007 A 
ATOM     18  C   UNL     1      -0.730  -2.933   2.107  1.00  0.00     0.039 A 
ATOM     19  C   UNL     1      -1.242  -0.431   2.393  1.00  0.00     0.048 C 
ATOM     20  C   UNL     1      -1.636  -3.576   3.093  1.00  0.00     0.066 C 
ENDBRANCH  12  13
ENDBRANCH   8  12
ENDBRANCH   4   7
ENDBRANCH   2   3
ENDBRANCH   1   2
BRANCH   1  21
ATOM     21  C   UNL     1      -5.714  -7.663   0.757  1.00  0.00     0.118 C 
BRANCH  21  22
ATOM     22  N   UNL     1      -6.060  -8.843   1.571  1.00  0.00    -0.352 N 
ATOM     23  C   UNL     1      -7.274  -9.505   1.661  1.00  0.00     0.251 C 
ATOM     24  H   UNL     1      -5.332  -9.208   2.123  1.00  0.00     0.163 HD
ATOM     25  O   UNL     1      -7.510 -10.277   2.591  1.00  0.00    -0.269 OA
BRANCH  23  26
ATOM     26  C   UNL     1      -8.280  -9.278   0.611  1.00  0.00     0.039 A 
ATOM     27  C   UNL     1      -9.655  -9.212   0.849  1.00  0.00     0.014 A 
ATOM     28  C   UNL     1      -7.780  -9.073  -0.666  1.00  0.00     0.014 A 
ATOM     29  C   UNL     1     -10.494  -8.882  -0.216  1.00  0.00     0.010 A 
ATOM     30  C   UNL     1      -8.545  -8.437  -1.589  1.00  0.00     0.010 A 
ATOM     31  C   UNL     1      -9.915  -8.490  -1.432  1.00  0.00    -0.014 A 
BRANCH  31  32
ATOM     32  C   UNL     1     -10.679  -8.111  -2.603  1.00  0.00     0.031 A 
ATOM     33  C   UNL     1     -11.559  -6.941  -2.419  1.00  0.00     0.074 A 
ATOM     34  C   UNL     1     -10.428  -8.631  -3.826  1.00  0.00     0.049 A 
ATOM     35  N   UNL     1     -12.845  -6.952  -2.364  1.00  0.00    -0.248 NA
ATOM     36  C   UNL     1     -10.955  -5.632  -2.132  1.00  0.00     0.031 C 
ATOM     37  C   UNL     1      -9.364  -9.555  -4.253  1.00  0.00     0.029 A 
ATOM     38  N   UNL     1     -11.036  -8.331  -4.998  1.00  0.00    -0.354 N 
ATOM     39  C   UNL     1     -13.240  -5.632  -2.204  1.00  0.00     0.074 A 
ATOM     40  C   UNL     1     -12.041  -4.886  -1.910  1.00  0.00     0.031 C 
ATOM     41  C   UNL     1      -9.268  -9.546  -5.602  1.00  0.00     0.029 A 
ATOM     42  C   UNL     1     -10.367  -8.763  -6.135  1.00  0.00     0.049 A 
ATOM     43  H   UNL     1     -11.890  -7.843  -5.041  1.00  0.00     0.167 HD
ATOM     44  C   UNL     1     -14.501  -5.235  -2.528  1.00  0.00     0.031 A 
ATOM     45  C   UNL     1     -10.696  -8.467  -7.417  1.00  0.00     0.031 A 
ATOM     46  C   UNL     1     -15.351  -6.365  -2.811  1.00  0.00     0.049 A 
ATOM     47  C   UNL     1     -12.124  -8.063  -7.412  1.00  0.00     0.074 A 
ATOM     48  C   UNL     1     -15.810  -7.438  -2.074  1.00  0.00     0.029 A 
ATOM     49  N   UNL     1     -15.483  -6.727  -4.133  1.00  0.00    -0.354 N 
ATOM     50  N   UNL     1     -13.091  -8.887  -7.119  1.00  0.00    -0.248 NA
ATOM     51  C   UNL     1     -12.436  -6.652  -7.235  1.00  0.00     0.031 C 
ATOM     52  C   UNL     1     -15.723  -8.552  -2.962  1.00  0.00     0.029 A 
ATOM     53  C   UNL     1     -15.300  -8.085  -4.209  1.00  0.00     0.049 A 
ATOM     54  H   UNL     1     -15.673  -6.122  -4.886  1.00  0.00     0.167 HD
ATOM     55  C   UNL     1     -13.946  -8.156  -6.306  1.00  0.00     0.074 A 
ATOM     56  C   UNL     1     -13.544  -6.761  -6.494  1.00  0.00     0.031 C 
ATOM     57  C   UNL     1     -14.695  -8.763  -5.337  1.00  0.00     0.031 A 
BRANCH  44  58
ATOM     58  C   UNL     1     -14.882  -3.846  -2.947  1.00  0.00    -0.014 A 
ATOM     59  C   UNL     1     -16.245  -3.552  -3.128  1.00  0.00     0.009 A 
ATOM     60  C   UNL     1     -13.955  -2.902  -3.425  1.00  0.00     0.009 A 
ATOM     61  C   UNL     1     -16.657  -2.407  -3.818  1.00  0.00     0.001 A 
ATOM     62  C   UNL     1     -14.365  -1.738  -4.081  1.00  0.00     0.001 A 
ATOM     63  C   UNL     1     -15.715  -1.506  -4.302  1.00  0.00     0.000 A 
ENDBRANCH  44  58
BRANCH  45  64
ATOM     64  C   UNL     1      -9.794  -8.215  -8.563  1.00  0.00    -0.014 A 
ATOM     65  C   UNL     1     -10.285  -8.189  -9.878  1.00  0.00     0.009 A 
ATOM     66  C   UNL     1      -8.497  -7.715  -8.341  1.00  0.00     0.009 A 
ATOM     67  C   UNL     1      -9.524  -7.640 -10.922  1.00  0.00     0.001 A 
ATOM     68  C   UNL     1      -7.738  -7.167  -9.382  1.00  0.00     0.001 A 
ATOM     69  C   UNL     1      -8.259  -7.114 -10.670  1.00  0.00     0.000 A 
ENDBRANCH  45  64
BRANCH  57  70
ATOM     70  C   UNL     1     -14.692 -10.275  -5.285  1.00  0.00    -0.014 A 
ATOM     71  C   UNL     1     -13.530 -11.036  -5.051  1.00  0.00     0.009 A 
ATOM     72  C   UNL     1     -15.923 -10.945  -5.305  1.00  0.00     0.009 A 
ATOM     73  C   UNL     1     -13.598 -12.422  -4.872  1.00  0.00     0.001 A 
ATOM     74  C   UNL     1     -15.994 -12.326  -5.107  1.00  0.00     0.001 A 
ATOM     75  C   UNL     1     -14.833 -13.066  -4.896  1.00  0.00     0.000 A 
ENDBRANCH  57  70
ENDBRANCH  31  32
ENDBRANCH  23  26
ENDBRANCH  21  22
ENDBRANCH   1  21
TORSDOF 12
