REMARK SMILES Cc1cc(NC(=O)CCC(=O)NCCCNC(=O)c2ccc(-c3c4nc(c(-c5ccccc5)c5ccc([nH]5)c(-c5ccccc5)c5nc(c(-c6ccccc6)c6ccc3[nH]6)C=C5)C=C4)cc2)ccc1S(=O)(=O)[O-]
REMARK SMILES IDX 13 1 12 2 10 3 11 4 9 6 8 7 6 8 5 9 7 11 4 12 1 13 2 14 3 15
REMARK SMILES IDX 69 16 68 17 67 18 70 19 71 20 72 21 73 22 14 23 15 24 16 25
REMARK SMILES IDX 17 26 18 28 19 29 20 30 66 31 21 32 65 33 22 34 23 35 24 36
REMARK SMILES IDX 59 37 25 38 64 39 58 40 60 41 26 42 63 43 57 44 56 45 27 47
REMARK SMILES IDX 49 48 34 49 48 50 35 51 38 52 47 53 61 54 36 55 37 56 46 58
REMARK SMILES IDX 62 59 39 60 28 61 29 62 33 63 30 64 32 65 31 66 50 67 51 68
REMARK SMILES IDX 55 69 52 70 54 71 53 72 40 73 41 74 45 75 42 76 44 77 43 78
REMARK H PARENT 12 5 5 10 16 27 60 46 38 57
REMARK Flexibility Score: inf
ROOT
ATOM      1  C   UNL     1      -2.361  -3.122  -2.376  1.00  0.00     0.117 C 
ENDROOT
BRANCH   1   2
ATOM      2  N   UNL     1      -1.386  -2.080  -2.099  1.00  0.00    -0.356 N 
ATOM      3  C   UNL     1      -0.043  -2.172  -1.898  1.00  0.00     0.220 C 
ATOM      4  O   UNL     1       0.634  -1.149  -2.009  1.00  0.00    -0.275 OA
ATOM      5  H   UNL     1      -1.753  -1.168  -2.049  1.00  0.00     0.163 HD
BRANCH   3   6
ATOM      6  C   UNL     1       0.610  -3.494  -1.565  1.00  0.00     0.110 C 
BRANCH   6   7
ATOM      7  C   UNL     1       0.742  -3.876  -0.093  1.00  0.00     0.110 C 
BRANCH   7   8
ATOM      8  C   UNL     1      -0.432  -3.618   0.829  1.00  0.00     0.224 C 
ATOM      9  N   UNL     1      -0.798  -2.381   1.271  1.00  0.00    -0.326 N 
ATOM     10  H   UNL     1      -1.635  -2.377   1.791  1.00  0.00     0.169 HD
ATOM     11  O   UNL     1      -1.148  -4.569   1.167  1.00  0.00    -0.275 OA
BRANCH   9  12
ATOM     12  C   UNL     1      -0.215  -1.115   1.128  1.00  0.00     0.041 A 
ATOM     13  C   UNL     1       3.147   0.384   0.287  1.00  0.00     0.046 C 
ATOM     14  C   UNL     1       1.683   0.356   0.618  1.00  0.00    -0.032 A 
ATOM     15  C   UNL     1       1.152  -0.904   0.968  1.00  0.00     0.030 A 
ATOM     16  C   UNL     1       0.789   1.428   0.485  1.00  0.00     0.057 A 
ATOM     17  C   UNL     1      -0.576   1.246   0.773  1.00  0.00     0.021 A 
ATOM     18  C   UNL     1      -1.071  -0.015   1.105  1.00  0.00     0.027 A 
BRANCH  16  19
ATOM     19  S   UNL     1       1.213   3.062  -0.081  1.00  0.00     0.124 S 
ATOM     20  O   UNL     1       0.640   3.236  -1.385  1.00  0.00    -0.237 OA
ATOM     21  O   UNL     1       0.907   3.974   1.014  1.00  0.00    -0.237 OA
ATOM     22  O   UNL     1       2.810   3.160  -0.246  1.00  0.00    -0.744 OA
ENDBRANCH  16  19
ENDBRANCH   9  12
ENDBRANCH   7   8
ENDBRANCH   6   7
ENDBRANCH   3   6
ENDBRANCH   1   2
BRANCH   1  23
ATOM     23  C   UNL     1      -3.358  -3.358  -1.254  1.00  0.00     0.042 C 
BRANCH  23  24
ATOM     24  C   UNL     1      -4.218  -2.163  -0.884  1.00  0.00     0.118 C 
BRANCH  24  25
ATOM     25  N   UNL     1      -5.527  -2.144  -1.520  1.00  0.00    -0.352 N 
ATOM     26  C   UNL     1      -6.631  -1.350  -1.276  1.00  0.00     0.251 C 
ATOM     27  H   UNL     1      -5.645  -2.805  -2.241  1.00  0.00     0.163 HD
ATOM     28  O   UNL     1      -7.680  -1.592  -1.869  1.00  0.00    -0.269 OA
BRANCH  26  29
ATOM     29  C   UNL     1      -6.522  -0.115  -0.457  1.00  0.00     0.039 A 
ATOM     30  C   UNL     1      -7.268   1.000  -0.873  1.00  0.00     0.014 A 
ATOM     31  C   UNL     1      -5.552   0.040   0.524  1.00  0.00     0.014 A 
ATOM     32  C   UNL     1      -6.843   2.278  -0.529  1.00  0.00     0.010 A 
ATOM     33  C   UNL     1      -5.049   1.295   0.765  1.00  0.00     0.010 A 
ATOM     34  C   UNL     1      -5.654   2.404   0.177  1.00  0.00    -0.014 A 
BRANCH  34  35
ATOM     35  C   UNL     1      -4.933   3.644   0.368  1.00  0.00     0.031 A 
ATOM     36  C   UNL     1      -5.056   4.344   1.653  1.00  0.00     0.074 A 
ATOM     37  C   UNL     1      -4.028   4.024  -0.558  1.00  0.00     0.049 A 
ATOM     38  N   UNL     1      -4.729   5.574   1.827  1.00  0.00    -0.248 NA
ATOM     39  C   UNL     1      -5.619   3.718   2.845  1.00  0.00     0.031 C 
ATOM     40  C   UNL     1      -2.939   4.982  -0.408  1.00  0.00     0.029 A 
ATOM     41  N   UNL     1      -4.055   3.742  -1.924  1.00  0.00    -0.354 N 
ATOM     42  C   UNL     1      -4.737   5.808   3.180  1.00  0.00     0.074 A 
ATOM     43  C   UNL     1      -5.405   4.668   3.760  1.00  0.00     0.031 C 
ATOM     44  C   UNL     1      -2.566   5.407  -1.627  1.00  0.00     0.029 A 
ATOM     45  C   UNL     1      -3.527   4.875  -2.579  1.00  0.00     0.049 A 
ATOM     46  H   UNL     1      -4.379   2.914  -2.348  1.00  0.00     0.167 HD
ATOM     47  C   UNL     1      -4.048   6.878   3.659  1.00  0.00     0.031 A 
ATOM     48  C   UNL     1      -4.319   5.634  -3.397  1.00  0.00     0.031 A 
ATOM     49  C   UNL     1      -3.468   7.669   2.575  1.00  0.00     0.049 A 
ATOM     50  C   UNL     1      -4.508   7.067  -2.934  1.00  0.00     0.074 A 
ATOM     51  C   UNL     1      -2.197   7.778   2.036  1.00  0.00     0.029 A 
ATOM     52  N   UNL     1      -4.323   8.263   1.665  1.00  0.00    -0.354 N 
ATOM     53  N   UNL     1      -4.125   7.520  -1.773  1.00  0.00    -0.248 NA
ATOM     54  C   UNL     1      -5.234   8.078  -3.704  1.00  0.00     0.031 C 
ATOM     55  C   UNL     1      -2.303   8.470   0.795  1.00  0.00     0.029 A 
ATOM     56  C   UNL     1      -3.632   8.798   0.599  1.00  0.00     0.049 A 
ATOM     57  H   UNL     1      -5.301   8.298   1.765  1.00  0.00     0.167 HD
ATOM     58  C   UNL     1      -4.572   8.803  -1.604  1.00  0.00     0.074 A 
ATOM     59  C   UNL     1      -5.263   9.111  -2.843  1.00  0.00     0.031 C 
ATOM     60  C   UNL     1      -4.380   9.487  -0.439  1.00  0.00     0.031 A 
BRANCH  47  61
ATOM     61  C   UNL     1      -3.700   7.100   5.107  1.00  0.00    -0.014 A 
ATOM     62  C   UNL     1      -2.647   7.977   5.426  1.00  0.00     0.009 A 
ATOM     63  C   UNL     1      -4.325   6.470   6.196  1.00  0.00     0.009 A 
ATOM     64  C   UNL     1      -2.195   8.153   6.739  1.00  0.00     0.001 A 
ATOM     65  C   UNL     1      -3.864   6.620   7.511  1.00  0.00     0.001 A 
ATOM     66  C   UNL     1      -2.791   7.456   7.781  1.00  0.00     0.000 A 
ENDBRANCH  47  61
BRANCH  48  67
ATOM     67  C   UNL     1      -5.372   4.824  -4.079  1.00  0.00    -0.014 A 
ATOM     68  C   UNL     1      -4.961   3.854  -5.017  1.00  0.00     0.009 A 
ATOM     69  C   UNL     1      -6.645   4.703  -3.502  1.00  0.00     0.009 A 
ATOM     70  C   UNL     1      -5.738   2.715  -5.250  1.00  0.00     0.001 A 
ATOM     71  C   UNL     1      -7.426   3.568  -3.755  1.00  0.00     0.001 A 
ATOM     72  C   UNL     1      -6.952   2.555  -4.588  1.00  0.00     0.000 A 
ENDBRANCH  48  67
BRANCH  60  73
ATOM     73  C   UNL     1      -4.917  10.863  -0.141  1.00  0.00    -0.014 A 
ATOM     74  C   UNL     1      -4.961  11.894  -1.085  1.00  0.00     0.009 A 
ATOM     75  C   UNL     1      -5.304  11.193   1.178  1.00  0.00     0.009 A 
ATOM     76  C   UNL     1      -5.429  13.171  -0.740  1.00  0.00     0.001 A 
ATOM     77  C   UNL     1      -5.748  12.467   1.532  1.00  0.00     0.001 A 
ATOM     78  C   UNL     1      -5.824  13.456   0.566  1.00  0.00     0.000 A 
ENDBRANCH  60  73
ENDBRANCH  34  35
ENDBRANCH  26  29
ENDBRANCH  24  25
ENDBRANCH  23  24
ENDBRANCH   1  23
TORSDOF 14
