REMARK SMILES COc1ccc(NC(=O)[C@@H]2[C@@H](C(=O)NCCCNC(=O)c3ccc(-c4c5nc(c(-c6ccccc6)c6ccc([nH]6)c(-c6ccccc6)c6nc(c(-c7ccccc7)c7ccc4[nH]7)C=C6)C=C5)cc3)[C@@H]3CC[C@H]2C3=C(C)C)cc1
REMARK SMILES IDX 15 1 14 2 12 3 13 4 11 6 10 7 72 8 69 9 71 10 73 11 70 12
REMARK SMILES IDX 74 13 75 14 76 15 8 16 7 17 9 19 6 20 3 21 4 22 78 23 5 24
REMARK SMILES IDX 77 25 2 26 1 27 16 28 17 29 18 30 19 31 20 33 21 34 22 35
REMARK SMILES IDX 68 36 23 37 67 38 24 39 25 40 26 41 61 42 27 43 66 44 60 45
REMARK SMILES IDX 62 46 28 47 65 48 59 49 58 50 29 52 51 53 36 54 50 55 37 56
REMARK SMILES IDX 40 57 49 58 63 59 38 60 39 61 48 63 64 64 41 65 30 66 31 67
REMARK SMILES IDX 35 68 32 69 34 70 33 71 52 72 53 73 57 74 54 75 56 76 55 77
REMARK SMILES IDX 42 78 43 79 47 80 44 81 46 82 45 83
REMARK H PARENT 14 5 7 18 18 32 62 51 40 62
REMARK Flexibility Score: inf
ROOT
ATOM      1  C   UNL     1      -3.575  -1.571  -5.561  1.00  0.00     0.117 C 
ENDROOT
BRANCH   1   2
ATOM      2  N   UNL     1      -2.259  -1.741  -4.995  1.00  0.00    -0.356 N 
ATOM      3  C   UNL     1      -1.072  -1.991  -5.599  1.00  0.00     0.224 C 
ATOM      4  O   UNL     1      -0.239  -2.589  -4.908  1.00  0.00    -0.275 OA
ATOM      5  H   UNL     1      -2.217  -1.665  -4.014  1.00  0.00     0.163 HD
BRANCH   3   6
ATOM      6  C   UNL     1      -0.685  -1.544  -7.004  1.00  0.00     0.098 C 
ATOM      7  C   UNL     1      -0.589  -0.018  -7.253  1.00  0.00     0.099 C 
ATOM      8  C   UNL     1      -1.111   0.087  -8.712  1.00  0.00     0.028 C 
ATOM      9  C   UNL     1      -1.574  -2.064  -8.172  1.00  0.00     0.028 C 
ATOM     10  C   UNL     1      -0.311  -0.763  -9.737  1.00  0.00     0.009 C 
ATOM     11  C   UNL     1      -2.305  -0.819  -8.627  1.00  0.00    -0.064 C 
ATOM     12  C   UNL     1      -0.657  -2.225  -9.388  1.00  0.00     0.009 C 
ATOM     13  C   UNL     1      -3.583  -0.557  -8.955  1.00  0.00    -0.077 C 
ATOM     14  C   UNL     1      -4.656  -1.604  -9.045  1.00  0.00     0.039 C 
ATOM     15  C   UNL     1      -4.055   0.843  -9.251  1.00  0.00     0.039 C 
BRANCH   7  16
ATOM     16  C   UNL     1       0.809   0.603  -7.170  1.00  0.00     0.228 C 
ATOM     17  N   UNL     1       1.573   0.612  -6.046  1.00  0.00    -0.326 N 
ATOM     18  H   UNL     1       2.516   0.827  -6.230  1.00  0.00     0.169 HD
ATOM     19  O   UNL     1       1.330   1.128  -8.162  1.00  0.00    -0.274 OA
BRANCH  17  20
ATOM     20  C   UNL     1       1.325   0.386  -4.688  1.00  0.00     0.041 A 
ATOM     21  C   UNL     1       1.000  -0.239  -1.982  1.00  0.00     0.119 A 
ATOM     22  C   UNL     1      -0.097   0.139  -2.747  1.00  0.00     0.048 A 
ATOM     23  C   UNL     1       2.274  -0.249  -2.538  1.00  0.00     0.048 A 
ATOM     24  C   UNL     1       0.071   0.481  -4.092  1.00  0.00     0.030 A 
ATOM     25  C   UNL     1       2.435   0.081  -3.886  1.00  0.00     0.030 A 
BRANCH  21  26
ATOM     26  O   UNL     1       0.775  -0.697  -0.714  1.00  0.00    -0.497 OA
ATOM     27  C   UNL     1       1.164   0.269   0.257  1.00  0.00     0.278 C 
ENDBRANCH  21  26
ENDBRANCH  17  20
ENDBRANCH   7  16
ENDBRANCH   3   6
ENDBRANCH   1   2
BRANCH   1  28
ATOM     28  C   UNL     1      -4.245  -2.931  -5.742  1.00  0.00     0.042 C 
BRANCH  28  29
ATOM     29  C   UNL     1      -5.324  -3.187  -4.702  1.00  0.00     0.118 C 
BRANCH  29  30
ATOM     30  N   UNL     1      -6.494  -2.339  -4.907  1.00  0.00    -0.352 N 
ATOM     31  C   UNL     1      -7.805  -2.671  -5.139  1.00  0.00     0.251 C 
ATOM     32  H   UNL     1      -6.313  -1.372  -4.872  1.00  0.00     0.163 HD
ATOM     33  O   UNL     1      -8.598  -1.794  -5.481  1.00  0.00    -0.269 OA
BRANCH  31  34
ATOM     34  C   UNL     1      -8.269  -4.068  -5.006  1.00  0.00     0.039 A 
ATOM     35  C   UNL     1      -9.241  -4.550  -5.889  1.00  0.00     0.014 A 
ATOM     36  C   UNL     1      -7.766  -4.903  -4.008  1.00  0.00     0.014 A 
ATOM     37  C   UNL     1      -9.653  -5.882  -5.811  1.00  0.00     0.010 A 
ATOM     38  C   UNL     1      -8.088  -6.254  -4.006  1.00  0.00     0.010 A 
ATOM     39  C   UNL     1      -9.048  -6.756  -4.895  1.00  0.00    -0.014 A 
BRANCH  39  40
ATOM     40  C   UNL     1      -9.416  -8.192  -4.821  1.00  0.00     0.031 A 
ATOM     41  C   UNL     1      -9.973  -8.758  -3.542  1.00  0.00     0.074 A 
ATOM     42  C   UNL     1      -9.179  -8.999  -5.873  1.00  0.00     0.049 A 
ATOM     43  N   UNL     1     -10.266  -9.999  -3.244  1.00  0.00    -0.248 NA
ATOM     44  C   UNL     1     -10.195  -7.810  -2.437  1.00  0.00     0.031 C 
ATOM     45  C   UNL     1      -8.607  -8.581  -7.155  1.00  0.00     0.029 A 
ATOM     46  N   UNL     1      -9.387 -10.347  -6.028  1.00  0.00    -0.354 N 
ATOM     47  C   UNL     1     -10.679  -9.980  -1.918  1.00  0.00     0.074 A 
ATOM     48  C   UNL     1     -10.537  -8.620  -1.448  1.00  0.00     0.031 C 
ATOM     49  C   UNL     1      -8.547  -9.641  -7.977  1.00  0.00     0.029 A 
ATOM     50  C   UNL     1      -9.027 -10.820  -7.266  1.00  0.00     0.049 A 
ATOM     51  H   UNL     1      -9.759 -10.920  -5.319  1.00  0.00     0.167 HD
ATOM     52  C   UNL     1     -11.161 -10.996  -1.163  1.00  0.00     0.031 A 
ATOM     53  C   UNL     1      -9.073 -12.068  -7.770  1.00  0.00     0.031 A 
ATOM     54  C   UNL     1     -11.315 -12.344  -1.638  1.00  0.00     0.049 A 
ATOM     55  C   UNL     1      -9.592 -13.184  -6.907  1.00  0.00     0.074 A 
ATOM     56  C   UNL     1     -11.842 -13.438  -0.974  1.00  0.00     0.029 A 
ATOM     57  N   UNL     1     -10.941 -12.781  -2.900  1.00  0.00    -0.354 N 
ATOM     58  N   UNL     1     -10.038 -13.138  -5.674  1.00  0.00    -0.248 NA
ATOM     59  C   UNL     1      -9.622 -14.524  -7.510  1.00  0.00     0.031 C 
ATOM     60  C   UNL     1     -11.736 -14.549  -1.816  1.00  0.00     0.029 A 
ATOM     61  C   UNL     1     -11.204 -14.134  -3.027  1.00  0.00     0.049 A 
ATOM     62  H   UNL     1     -10.547 -12.213  -3.601  1.00  0.00     0.167 HD
ATOM     63  C   UNL     1     -10.431 -14.434  -5.366  1.00  0.00     0.074 A 
ATOM     64  C   UNL     1     -10.186 -15.238  -6.546  1.00  0.00     0.031 C 
ATOM     65  C   UNL     1     -10.952 -14.915  -4.210  1.00  0.00     0.031 A 
BRANCH  52  66
ATOM     66  C   UNL     1     -11.549 -10.678   0.256  1.00  0.00    -0.014 A 
ATOM     67  C   UNL     1     -12.645  -9.849   0.545  1.00  0.00     0.009 A 
ATOM     68  C   UNL     1     -10.817 -11.226   1.321  1.00  0.00     0.009 A 
ATOM     69  C   UNL     1     -12.970  -9.536   1.867  1.00  0.00     0.001 A 
ATOM     70  C   UNL     1     -11.165 -10.940   2.643  1.00  0.00     0.001 A 
ATOM     71  C   UNL     1     -12.232 -10.085   2.915  1.00  0.00     0.000 A 
ENDBRANCH  52  66
BRANCH  53  72
ATOM     72  C   UNL     1      -8.641 -12.325  -9.169  1.00  0.00    -0.014 A 
ATOM     73  C   UNL     1      -9.584 -12.669 -10.150  1.00  0.00     0.009 A 
ATOM     74  C   UNL     1      -7.289 -12.231  -9.534  1.00  0.00     0.009 A 
ATOM     75  C   UNL     1      -9.179 -12.941 -11.459  1.00  0.00     0.001 A 
ATOM     76  C   UNL     1      -6.890 -12.473 -10.851  1.00  0.00     0.001 A 
ATOM     77  C   UNL     1      -7.834 -12.838 -11.809  1.00  0.00     0.000 A 
ENDBRANCH  53  72
BRANCH  65  78
ATOM     78  C   UNL     1     -11.330 -16.370  -4.182  1.00  0.00    -0.014 A 
ATOM     79  C   UNL     1     -10.356 -17.380  -4.166  1.00  0.00     0.009 A 
ATOM     80  C   UNL     1     -12.686 -16.730  -4.127  1.00  0.00     0.009 A 
ATOM     81  C   UNL     1     -10.735 -18.724  -4.133  1.00  0.00     0.001 A 
ATOM     82  C   UNL     1     -13.061 -18.072  -4.059  1.00  0.00     0.001 A 
ATOM     83  C   UNL     1     -12.085 -19.068  -4.073  1.00  0.00     0.000 A 
ENDBRANCH  65  78
ENDBRANCH  39  40
ENDBRANCH  31  34
ENDBRANCH  29  30
ENDBRANCH  28  29
ENDBRANCH   1  28
TORSDOF 13
