REMARK SMILES O=C(NCCCNC(=O)c1cc(S(=O)(=O)NNC(=O)[C@H]2C=C(c3ccccc3)N=N2)ccc1F)c1ccc(-c2c3nc(c(-c4ccccc4)c4ccc([nH]4)c(-c4ccccc4)c4nc(c(-c5ccccc5)c5ccc2[nH]5)C=C4)C=C3)cc1
REMARK SMILES IDX 7 1 8 2 9 3 6 5 5 6 4 7 3 8 1 9 2 10 35 12 36 13 82 14 37 15
REMARK SMILES IDX 81 16 38 17 39 18 40 19 75 20 41 21 80 22 74 23 76 24 42 25
REMARK SMILES IDX 79 26 73 27 72 28 43 30 65 31 50 32 64 33 51 34 54 35 63 36
REMARK SMILES IDX 77 37 52 38 53 39 62 41 78 42 55 43 44 44 45 45 49 46 46 47
REMARK SMILES IDX 48 48 47 49 66 50 67 51 71 52 68 53 70 54 69 55 56 56 57 57
REMARK SMILES IDX 61 58 58 59 60 60 59 61 10 62 11 63 33 64 12 65 32 66 34 67
REMARK SMILES IDX 31 68 13 69 14 70 15 71 16 72 17 74 18 75 19 77 20 78 21 79
REMARK SMILES IDX 30 80 22 81 29 82 23 83 24 84 28 85 25 86 27 87 26 88
REMARK H PARENT 7 4 3 11 76 29 54 40 16 73 17 76
REMARK Flexibility Score: inf
ROOT
ATOM      1  N   UNL     1      17.785 -13.251  13.751  1.00  0.00    -0.352 N 
ATOM      2  C   UNL     1      17.531 -12.142  12.980  1.00  0.00     0.254 C 
ATOM      3  O   UNL     1      18.453 -11.449  12.559  1.00  0.00    -0.269 OA
ATOM      4  H   UNL     1      18.727 -13.382  14.004  1.00  0.00     0.163 HD
ENDROOT
BRANCH   1   5
ATOM      5  C   UNL     1      16.858 -14.264  14.249  1.00  0.00     0.118 C 
BRANCH   5   6
ATOM      6  C   UNL     1      17.172 -15.670  13.754  1.00  0.00     0.042 C 
BRANCH   6   7
ATOM      7  C   UNL     1      18.502 -16.209  14.249  1.00  0.00     0.118 C 
BRANCH   7   8
ATOM      8  N   UNL     1      18.536 -16.383  15.680  1.00  0.00    -0.352 N 
ATOM      9  O   UNL     1      18.850 -17.293  17.660  1.00  0.00    -0.269 OA
ATOM     10  C   UNL     1      18.519 -17.480  16.485  1.00  0.00     0.251 C 
ATOM     11  H   UNL     1      18.582 -15.534  16.176  1.00  0.00     0.163 HD
BRANCH  10  12
ATOM     12  C   UNL     1      17.877 -18.769  16.118  1.00  0.00     0.039 A 
ATOM     13  C   UNL     1      17.529 -19.310  14.880  1.00  0.00     0.014 A 
ATOM     14  C   UNL     1      17.364 -19.423  17.229  1.00  0.00     0.014 A 
ATOM     15  C   UNL     1      16.344 -20.163  14.819  1.00  0.00     0.010 A 
ATOM     16  C   UNL     1      16.471 -20.465  17.053  1.00  0.00     0.010 A 
ATOM     17  C   UNL     1      15.554 -20.452  16.009  1.00  0.00    -0.014 A 
BRANCH  17  18
ATOM     18  C   UNL     1      14.366 -21.579  16.314  1.00  0.00     0.031 A 
ATOM     19  C   UNL     1      15.376 -22.898  15.765  1.00  0.00     0.074 A 
ATOM     20  C   UNL     1      12.950 -21.506  16.953  1.00  0.00     0.049 A 
ATOM     21  N   UNL     1      15.444 -23.289  14.512  1.00  0.00    -0.248 NA
ATOM     22  C   UNL     1      16.723 -23.438  16.364  1.00  0.00     0.031 C 
ATOM     23  C   UNL     1      11.945 -20.412  17.603  1.00  0.00     0.029 A 
ATOM     24  N   UNL     1      11.929 -22.524  17.209  1.00  0.00    -0.354 N 
ATOM     25  C   UNL     1      16.147 -24.513  14.546  1.00  0.00     0.074 A 
ATOM     26  C   UNL     1      17.142 -24.395  15.524  1.00  0.00     0.031 C 
ATOM     27  C   UNL     1      10.954 -20.935  18.446  1.00  0.00     0.029 A 
ATOM     28  C   UNL     1      10.906 -22.371  18.304  1.00  0.00     0.049 A 
ATOM     29  H   UNL     1      11.910 -23.333  16.648  1.00  0.00     0.167 HD
ATOM     30  C   UNL     1      15.460 -25.653  14.293  1.00  0.00     0.031 A 
ATOM     31  C   UNL     1       9.971 -23.304  18.845  1.00  0.00     0.031 A 
ATOM     32  C   UNL     1      14.243 -25.259  13.644  1.00  0.00     0.049 A 
ATOM     33  C   UNL     1      10.112 -24.499  17.967  1.00  0.00     0.074 A 
ATOM     34  C   UNL     1      13.949 -24.505  12.525  1.00  0.00     0.029 A 
ATOM     35  N   UNL     1      13.270 -25.007  14.561  1.00  0.00    -0.354 N 
ATOM     36  N   UNL     1       9.702 -24.474  16.728  1.00  0.00    -0.248 NA
ATOM     37  C   UNL     1      11.353 -25.215  18.272  1.00  0.00     0.031 C 
ATOM     38  C   UNL     1      12.792 -23.740  12.849  1.00  0.00     0.029 A 
ATOM     39  C   UNL     1      12.317 -24.179  14.077  1.00  0.00     0.049 A 
ATOM     40  H   UNL     1      13.261 -25.384  15.470  1.00  0.00     0.167 HD
ATOM     41  C   UNL     1      10.872 -24.651  16.011  1.00  0.00     0.074 A 
ATOM     42  C   UNL     1      11.870 -25.143  17.035  1.00  0.00     0.031 C 
ATOM     43  C   UNL     1      11.113 -23.978  14.823  1.00  0.00     0.031 A 
BRANCH  30  44
ATOM     44  C   UNL     1      15.522 -26.894  15.172  1.00  0.00    -0.014 A 
ATOM     45  C   UNL     1      14.797 -27.988  14.690  1.00  0.00     0.009 A 
ATOM     46  C   UNL     1      16.000 -26.988  16.506  1.00  0.00     0.009 A 
ATOM     47  C   UNL     1      14.537 -29.104  15.484  1.00  0.00     0.001 A 
ATOM     48  C   UNL     1      15.790 -28.135  17.288  1.00  0.00     0.001 A 
ATOM     49  C   UNL     1      15.045 -29.187  16.776  1.00  0.00     0.000 A 
ENDBRANCH  30  44
BRANCH  31  50
ATOM     50  C   UNL     1       9.469 -23.530  20.324  1.00  0.00    -0.014 A 
ATOM     51  C   UNL     1       8.483 -24.412  20.908  1.00  0.00     0.009 A 
ATOM     52  C   UNL     1      10.342 -22.978  21.263  1.00  0.00     0.009 A 
ATOM     53  C   UNL     1       8.440 -24.686  22.325  1.00  0.00     0.001 A 
ATOM     54  C   UNL     1      10.331 -23.280  22.636  1.00  0.00     0.001 A 
ATOM     55  C   UNL     1       9.392 -24.140  23.179  1.00  0.00     0.000 A 
ENDBRANCH  31  50
BRANCH  43  56
ATOM     56  C   UNL     1      10.070 -23.090  14.154  1.00  0.00    -0.014 A 
ATOM     57  C   UNL     1       9.715 -21.752  14.456  1.00  0.00     0.009 A 
ATOM     58  C   UNL     1       9.532 -23.629  12.982  1.00  0.00     0.009 A 
ATOM     59  C   UNL     1       8.688 -21.098  13.744  1.00  0.00     0.001 A 
ATOM     60  C   UNL     1       8.566 -22.958  12.236  1.00  0.00     0.001 A 
ATOM     61  C   UNL     1       8.093 -21.721  12.652  1.00  0.00     0.000 A 
ENDBRANCH  43  56
ENDBRANCH  17  18
ENDBRANCH  10  12
ENDBRANCH   7   8
ENDBRANCH   6   7
ENDBRANCH   5   6
ENDBRANCH   1   5
BRANCH   2  62
ATOM     62  C   UNL     1      16.146 -11.820  12.601  1.00  0.00     0.076 A 
ATOM     63  C   UNL     1      15.839 -11.588  11.258  1.00  0.00     0.038 A 
ATOM     64  C   UNL     1      15.135 -11.792  13.561  1.00  0.00     0.136 A 
ATOM     65  C   UNL     1      14.496 -11.457  10.886  1.00  0.00     0.085 A 
ATOM     66  C   UNL     1      13.802 -11.718  13.183  1.00  0.00     0.041 A 
ATOM     67  F   UNL     1      15.416 -11.923  14.866  1.00  0.00    -0.206 F 
ATOM     68  C   UNL     1      13.476 -11.586  11.836  1.00  0.00     0.025 A 
BRANCH  65  69
ATOM     69  S   UNL     1      14.150 -11.081   9.188  1.00  0.00     0.257 S 
ATOM     70  O   UNL     1      14.754  -9.765   8.925  1.00  0.00    -0.205 OA
ATOM     71  O   UNL     1      14.466 -12.236   8.416  1.00  0.00    -0.205 OA
BRANCH  69  72
ATOM     72  N   UNL     1      12.457 -10.850   9.100  1.00  0.00    -0.123 NA
ATOM     73  H   UNL     1      12.017 -11.692   9.472  1.00  0.00     0.167 HD
BRANCH  72  74
ATOM     74  N   UNL     1      11.884  -9.717   9.803  1.00  0.00    -0.275 N 
ATOM     75  C   UNL     1      11.117  -8.728   9.260  1.00  0.00     0.265 C 
ATOM     76  H   UNL     1      12.066  -9.656  10.769  1.00  0.00     0.186 HD
ATOM     77  O   UNL     1      10.715  -7.847  10.033  1.00  0.00    -0.271 OA
BRANCH  75  78
ATOM     78  C   UNL     1      10.811  -8.642   7.765  1.00  0.00     0.244 C 
ATOM     79  C   UNL     1      11.452  -7.418   7.225  1.00  0.00     0.042 C 
ATOM     80  N   UNL     1      11.451  -9.716   6.957  1.00  0.00    -0.171 NA
ATOM     81  C   UNL     1      12.333  -7.849   6.323  1.00  0.00     0.091 C 
ATOM     82  N   UNL     1      12.299  -9.212   6.165  1.00  0.00    -0.155 NA
BRANCH  81  83
ATOM     83  C   UNL     1      13.258  -6.979   5.601  1.00  0.00     0.002 A 
ATOM     84  C   UNL     1      13.280  -6.952   4.202  1.00  0.00     0.010 A 
ATOM     85  C   UNL     1      14.140  -6.154   6.314  1.00  0.00     0.010 A 
ATOM     86  C   UNL     1      14.170  -6.110   3.529  1.00  0.00     0.001 A 
ATOM     87  C   UNL     1      15.020  -5.306   5.641  1.00  0.00     0.001 A 
ATOM     88  C   UNL     1      15.035  -5.285   4.248  1.00  0.00     0.000 A 
ENDBRANCH  81  83
ENDBRANCH  75  78
ENDBRANCH  72  74
ENDBRANCH  69  72
ENDBRANCH  65  69
ENDBRANCH   2  62
TORSDOF 15
