REMARK SMILES C[NH+]1CCC([N@@H+](C)CCC(=O)NCCCNC(=O)c2ccc(-c3c4nc(c(-c5ccccc5)c5ccc([nH]5)c(-c5ccccc5)c5nc(c(-c6ccccc6)c6ccc3[nH]6)C=C5)C=C4)cc2)CC1
REMARK SMILES IDX 13 1 12 2 10 3 11 4 9 6 8 7 6 8 7 9 5 11 1 12 2 13 3 14
REMARK SMILES IDX 68 15 4 17 67 18 14 19 15 20 16 21 17 22 18 24 19 25 20 26
REMARK SMILES IDX 66 27 21 28 65 29 22 30 23 31 24 32 59 33 25 34 64 35 58 36
REMARK SMILES IDX 60 37 26 38 63 39 57 40 56 41 27 43 49 44 34 45 48 46 35 47
REMARK SMILES IDX 38 48 47 49 61 50 36 51 37 52 46 54 62 55 39 56 28 57 29 58
REMARK SMILES IDX 33 59 30 60 32 61 31 62 50 63 51 64 55 65 52 66 54 67 53 68
REMARK SMILES IDX 40 69 41 70 45 71 42 72 44 73 43 74
REMARK H PARENT 12 5 6 10 2 16 16 23 60 42 38 53
REMARK Flexibility Score: inf
ROOT
ATOM      1  C   UNL     1       0.886   0.565  -0.822  1.00  0.00     0.117 C 
ENDROOT
BRANCH   1   2
ATOM      2  N   UNL     1       0.868   0.587   1.172  1.00  0.00    -0.356 N 
ATOM      3  C   UNL     1       1.278   0.680   2.499  1.00  0.00     0.225 C 
ATOM      4  O   UNL     1       0.363   0.553   3.330  1.00  0.00    -0.275 OA
ATOM      5  H   UNL     1      -0.089   0.411   1.318  1.00  0.00     0.163 HD
BRANCH   3   6
ATOM      6  C   UNL     1       2.658   0.992   3.053  1.00  0.00     0.161 C 
BRANCH   6   7
ATOM      7  C   UNL     1       3.822   0.242   2.457  1.00  0.00     0.272 C 
BRANCH   7   8
ATOM      8  N   UNL     1       4.042   0.557   1.058  1.00  0.00    -0.334 N 
ATOM      9  C   UNL     1       4.840   1.761   0.863  1.00  0.00     0.332 C 
ATOM     10  H   UNL     1       4.599  -0.199   0.658  1.00  0.00     0.348 HD
BRANCH   8  11
ATOM     11  C   UNL     1       2.762   0.608   0.338  1.00  0.00     0.195 C 
ATOM     12  C   UNL     1      -2.369   0.539  -0.210  1.00  0.00     0.332 C 
ATOM     13  N   UNL     1      -1.106   0.559   0.515  1.00  0.00    -0.337 N 
ATOM     14  C   UNL     1      -0.208   2.169   0.335  1.00  0.00     0.268 C 
ATOM     15  C   UNL     1      -0.172  -1.032   0.366  1.00  0.00     0.268 C 
ATOM     16  H   UNL     1      -1.288   0.564   1.518  1.00  0.00     0.347 HD
ATOM     17  C   UNL     1       1.738   2.284   0.430  1.00  0.00     0.126 C 
ATOM     18  C   UNL     1       1.776  -1.081   0.529  1.00  0.00     0.126 C 
ENDBRANCH   8  11
ENDBRANCH   7   8
ENDBRANCH   6   7
ENDBRANCH   3   6
ENDBRANCH   1   2
BRANCH   1  19
ATOM     19  C   UNL     1       1.423  -0.520  -1.915  1.00  0.00     0.042 C 
BRANCH  19  20
ATOM     20  C   UNL     1       0.637  -0.433  -3.225  1.00  0.00     0.118 C 
BRANCH  20  21
ATOM     21  N   UNL     1       0.596   0.845  -3.913  1.00  0.00    -0.352 N 
ATOM     22  C   UNL     1       0.169   1.037  -5.217  1.00  0.00     0.251 C 
ATOM     23  H   UNL     1       0.896   1.638  -3.413  1.00  0.00     0.163 HD
ATOM     24  O   UNL     1       0.167   2.142  -5.736  1.00  0.00    -0.269 OA
BRANCH  22  25
ATOM     25  C   UNL     1      -0.211  -0.169  -5.990  1.00  0.00     0.039 A 
ATOM     26  C   UNL     1       0.552  -0.517  -7.106  1.00  0.00     0.014 A 
ATOM     27  C   UNL     1      -1.164  -1.050  -5.477  1.00  0.00     0.014 A 
ATOM     28  C   UNL     1       0.441  -1.805  -7.635  1.00  0.00     0.010 A 
ATOM     29  C   UNL     1      -1.188  -2.362  -5.932  1.00  0.00     0.010 A 
ATOM     30  C   UNL     1      -0.377  -2.760  -7.008  1.00  0.00    -0.014 A 
BRANCH  30  31
ATOM     31  C   UNL     1      -0.400  -4.181  -7.446  1.00  0.00     0.031 A 
ATOM     32  C   UNL     1      -1.698  -4.810  -7.872  1.00  0.00     0.074 A 
ATOM     33  C   UNL     1       0.714  -4.937  -7.363  1.00  0.00     0.049 A 
ATOM     34  N   UNL     1      -1.959  -6.062  -8.149  1.00  0.00    -0.248 NA
ATOM     35  C   UNL     1      -2.870  -3.922  -7.946  1.00  0.00     0.031 C 
ATOM     36  C   UNL     1       2.027  -4.483  -6.895  1.00  0.00     0.029 A 
ATOM     37  N   UNL     1       0.915  -6.261  -7.668  1.00  0.00    -0.354 N 
ATOM     38  C   UNL     1      -3.330  -6.120  -8.364  1.00  0.00     0.074 A 
ATOM     39  C   UNL     1      -3.850  -4.787  -8.152  1.00  0.00     0.031 C 
ATOM     40  C   UNL     1       2.904  -5.497  -6.989  1.00  0.00     0.029 A 
ATOM     41  C   UNL     1       2.212  -6.680  -7.488  1.00  0.00     0.049 A 
ATOM     42  H   UNL     1       0.197  -6.855  -7.987  1.00  0.00     0.167 HD
ATOM     43  C   UNL     1      -4.090  -7.179  -8.727  1.00  0.00     0.031 A 
ATOM     44  C   UNL     1       2.781  -7.880  -7.709  1.00  0.00     0.031 A 
ATOM     45  C   UNL     1      -3.570  -8.485  -9.019  1.00  0.00     0.049 A 
ATOM     46  C   UNL     1       1.940  -9.011  -8.229  1.00  0.00     0.074 A 
ATOM     47  C   UNL     1      -4.247  -9.604  -9.473  1.00  0.00     0.029 A 
ATOM     48  N   UNL     1      -2.234  -8.837  -8.914  1.00  0.00    -0.354 N 
ATOM     49  N   UNL     1       0.652  -9.036  -8.471  1.00  0.00    -0.248 NA
ATOM     50  C   UNL     1       2.634 -10.275  -8.519  1.00  0.00     0.031 C 
ATOM     51  C   UNL     1      -3.317 -10.637  -9.639  1.00  0.00     0.029 A 
ATOM     52  C   UNL     1      -2.062 -10.151  -9.309  1.00  0.00     0.049 A 
ATOM     53  H   UNL     1      -1.515  -8.240  -8.604  1.00  0.00     0.167 HD
ATOM     54  C   UNL     1       0.387 -10.306  -8.965  1.00  0.00     0.074 A 
ATOM     55  C   UNL     1       1.646 -11.020  -8.997  1.00  0.00     0.031 C 
ATOM     56  C   UNL     1      -0.798 -10.834  -9.356  1.00  0.00     0.031 A 
BRANCH  43  57
ATOM     57  C   UNL     1      -5.569  -6.950  -8.836  1.00  0.00    -0.014 A 
ATOM     58  C   UNL     1      -6.112  -6.203  -9.894  1.00  0.00     0.009 A 
ATOM     59  C   UNL     1      -6.430  -7.480  -7.864  1.00  0.00     0.009 A 
ATOM     60  C   UNL     1      -7.483  -5.950  -9.948  1.00  0.00     0.001 A 
ATOM     61  C   UNL     1      -7.805  -7.248  -7.936  1.00  0.00     0.001 A 
ATOM     62  C   UNL     1      -8.328  -6.473  -8.970  1.00  0.00     0.000 A 
ENDBRANCH  43  57
BRANCH  44  63
ATOM     63  C   UNL     1       4.238  -8.065  -7.495  1.00  0.00    -0.014 A 
ATOM     64  C   UNL     1       5.109  -8.106  -8.595  1.00  0.00     0.009 A 
ATOM     65  C   UNL     1       4.766  -8.208  -6.204  1.00  0.00     0.009 A 
ATOM     66  C   UNL     1       6.478  -8.312  -8.408  1.00  0.00     0.001 A 
ATOM     67  C   UNL     1       6.138  -8.394  -6.019  1.00  0.00     0.001 A 
ATOM     68  C   UNL     1       6.991  -8.453  -7.120  1.00  0.00     0.000 A 
ENDBRANCH  44  63
BRANCH  56  69
ATOM     69  C   UNL     1      -0.782 -12.231  -9.897  1.00  0.00    -0.014 A 
ATOM     70  C   UNL     1      -0.718 -13.338  -9.038  1.00  0.00     0.009 A 
ATOM     71  C   UNL     1      -0.890 -12.439 -11.280  1.00  0.00     0.009 A 
ATOM     72  C   UNL     1      -0.744 -14.632  -9.560  1.00  0.00     0.001 A 
ATOM     73  C   UNL     1      -0.932 -13.735 -11.796  1.00  0.00     0.001 A 
ATOM     74  C   UNL     1      -0.855 -14.829 -10.936  1.00  0.00     0.000 A 
ENDBRANCH  56  69
ENDBRANCH  30  31
ENDBRANCH  22  25
ENDBRANCH  20  21
ENDBRANCH  19  20
ENDBRANCH   1  19
TORSDOF 13
