REMARK SMILES C[C@H](NC(=O)N(CC(=O)NCCCNC(=O)c1ccc(-c2c3nc(c(-c4ccccc4)c4ccc([nH]4)c(-c4ccccc4)c4nc(c(-c5ccccc5)c5ccc2[nH]5)C=C4)C=C3)cc1)CC(F)(F)F)[C@@H]1CCCO1
REMARK SMILES IDX 11 1 10 2 8 3 9 4 7 6 6 7 4 8 3 9 5 11 2 12 1 13 70 14 71 15
REMARK SMILES IDX 74 16 72 17 73 18 65 19 66 20 67 21 68 22 69 23 12 24 13 25
REMARK SMILES IDX 14 26 15 27 16 29 17 30 18 31 64 32 19 33 63 34 20 35 21 36
REMARK SMILES IDX 22 37 57 38 23 39 62 40 56 41 58 42 24 43 61 44 55 45 54 46
REMARK SMILES IDX 25 48 47 49 32 50 46 51 33 52 36 53 45 54 59 55 34 56 35 57
REMARK SMILES IDX 44 59 60 60 37 61 26 62 27 63 31 64 28 65 30 66 29 67 48 68
REMARK SMILES IDX 49 69 53 70 50 71 52 72 51 73 38 74 39 75 43 76 40 77 42 78
REMARK SMILES IDX 41 79
REMARK H PARENT 10 5 3 10 14 28 58 47 36 58
REMARK Flexibility Score: inf
ROOT
ATOM      1  C   UNL     1       2.339   1.042   3.201  1.00  0.00     0.117 C 
ENDROOT
BRANCH   1   2
ATOM      2  N   UNL     1       3.230   2.183   3.180  1.00  0.00    -0.354 N 
ATOM      3  C   UNL     1       3.695   2.926   2.141  1.00  0.00     0.239 C 
ATOM      4  O   UNL     1       4.472   3.849   2.400  1.00  0.00    -0.273 OA
ATOM      5  H   UNL     1       3.553   2.468   4.066  1.00  0.00     0.163 HD
BRANCH   3   6
ATOM      6  C   UNL     1       3.162   2.742   0.717  1.00  0.00     0.221 C 
BRANCH   6   7
ATOM      7  N   UNL     1       3.359   1.447   0.055  1.00  0.00    -0.306 N 
BRANCH   7   8
ATOM      8  C   UNL     1       2.462   0.451  -0.193  1.00  0.00     0.318 C 
ATOM      9  N   UNL     1       1.129   0.586  -0.093  1.00  0.00    -0.333 N 
ATOM     10  H   UNL     1       0.667  -0.283  -0.121  1.00  0.00     0.165 HD
ATOM     11  O   UNL     1       2.842  -0.664  -0.562  1.00  0.00    -0.249 OA
BRANCH   9  12
ATOM     12  C   UNL     1       0.190   1.704   0.046  1.00  0.00     0.109 C 
ATOM     13  C   UNL     1       0.283   2.644  -1.161  1.00  0.00     0.034 C 
BRANCH  12  14
ATOM     14  C   UNL     1      -1.264   1.230   0.318  1.00  0.00     0.140 C 
ATOM     15  C   UNL     1      -1.852   0.269  -0.715  1.00  0.00     0.036 C 
ATOM     16  O   UNL     1      -2.141   2.376   0.375  1.00  0.00    -0.376 OA
ATOM     17  C   UNL     1      -3.239   0.812  -0.964  1.00  0.00     0.031 C 
ATOM     18  C   UNL     1      -3.056   2.289  -0.723  1.00  0.00     0.160 C 
ENDBRANCH  12  14
ENDBRANCH   9  12
ENDBRANCH   7   8
BRANCH   7  19
ATOM     19  C   UNL     1       4.749   1.184  -0.402  1.00  0.00     0.237 C 
BRANCH  19  20
ATOM     20  C   UNL     1       5.653   0.337   0.500  1.00  0.00     0.406 C 
ATOM     21  F   UNL     1       5.238  -0.936   0.644  1.00  0.00    -0.169 F 
ATOM     22  F   UNL     1       6.906   0.292  -0.018  1.00  0.00    -0.169 F 
ATOM     23  F   UNL     1       5.760   0.876   1.737  1.00  0.00    -0.169 F 
ENDBRANCH  19  20
ENDBRANCH   7  19
ENDBRANCH   6   7
ENDBRANCH   3   6
ENDBRANCH   1   2
BRANCH   1  24
ATOM     24  C   UNL     1       3.093  -0.273   3.343  1.00  0.00     0.042 C 
BRANCH  24  25
ATOM     25  C   UNL     1       3.907  -0.361   4.626  1.00  0.00     0.118 C 
BRANCH  25  26
ATOM     26  N   UNL     1       3.059  -0.385   5.811  1.00  0.00    -0.352 N 
ATOM     27  C   UNL     1       3.046  -1.286   6.846  1.00  0.00     0.251 C 
ATOM     28  H   UNL     1       2.404   0.347   5.878  1.00  0.00     0.163 HD
ATOM     29  O   UNL     1       2.124  -1.286   7.653  1.00  0.00    -0.269 OA
BRANCH  27  30
ATOM     30  C   UNL     1       4.145  -2.264   6.971  1.00  0.00     0.039 A 
ATOM     31  C   UNL     1       3.836  -3.595   7.259  1.00  0.00     0.014 A 
ATOM     32  C   UNL     1       5.474  -1.866   6.803  1.00  0.00     0.014 A 
ATOM     33  C   UNL     1       4.861  -4.540   7.324  1.00  0.00     0.010 A 
ATOM     34  C   UNL     1       6.484  -2.821   6.788  1.00  0.00     0.010 A 
ATOM     35  C   UNL     1       6.188  -4.165   7.057  1.00  0.00    -0.014 A 
BRANCH  35  36
ATOM     36  C   UNL     1       7.283  -5.165   7.058  1.00  0.00     0.031 A 
ATOM     37  C   UNL     1       8.398  -5.064   8.062  1.00  0.00     0.074 A 
ATOM     38  C   UNL     1       7.304  -6.129   6.117  1.00  0.00     0.049 A 
ATOM     39  N   UNL     1       9.464  -5.812   8.190  1.00  0.00    -0.248 NA
ATOM     40  C   UNL     1       8.316  -3.963   9.036  1.00  0.00     0.031 C 
ATOM     41  C   UNL     1       6.302  -6.309   5.065  1.00  0.00     0.029 A 
ATOM     42  N   UNL     1       8.207  -7.136   5.892  1.00  0.00    -0.354 N 
ATOM     43  C   UNL     1      10.184  -5.264   9.243  1.00  0.00     0.074 A 
ATOM     44  C   UNL     1       9.464  -4.090   9.684  1.00  0.00     0.031 C 
ATOM     45  C   UNL     1       6.628  -7.382   4.327  1.00  0.00     0.029 A 
ATOM     46  C   UNL     1       7.883  -7.936   4.823  1.00  0.00     0.049 A 
ATOM     47  H   UNL     1       9.011  -7.274   6.444  1.00  0.00     0.167 HD
ATOM     48  C   UNL     1      11.332  -5.708   9.808  1.00  0.00     0.031 A 
ATOM     49  C   UNL     1       8.530  -8.992   4.295  1.00  0.00     0.031 A 
ATOM     50  C   UNL     1      12.048  -6.875   9.367  1.00  0.00     0.049 A 
ATOM     51  C   UNL     1       9.820  -9.446   4.920  1.00  0.00     0.074 A 
ATOM     52  C   UNL     1      13.192  -7.439   9.903  1.00  0.00     0.029 A 
ATOM     53  N   UNL     1      11.691  -7.653   8.276  1.00  0.00    -0.354 N 
ATOM     54  N   UNL     1      10.451  -8.961   5.962  1.00  0.00    -0.248 NA
ATOM     55  C   UNL     1      10.482 -10.602   4.298  1.00  0.00     0.031 C 
ATOM     56  C   UNL     1      13.562  -8.523   9.101  1.00  0.00     0.029 A 
ATOM     57  C   UNL     1      12.611  -8.675   8.104  1.00  0.00     0.049 A 
ATOM     58  H   UNL     1      10.902  -7.502   7.708  1.00  0.00     0.167 HD
ATOM     59  C   UNL     1      11.568  -9.767   6.137  1.00  0.00     0.074 A 
ATOM     60  C   UNL     1      11.517 -10.784   5.106  1.00  0.00     0.031 C 
ATOM     61  C   UNL     1      12.549  -9.675   7.069  1.00  0.00     0.031 A 
BRANCH  48  62
ATOM     62  C   UNL     1      11.890  -4.913  10.957  1.00  0.00    -0.014 A 
ATOM     63  C   UNL     1      11.234  -4.865  12.198  1.00  0.00     0.009 A 
ATOM     64  C   UNL     1      13.102  -4.221  10.805  1.00  0.00     0.009 A 
ATOM     65  C   UNL     1      11.757  -4.107  13.248  1.00  0.00     0.001 A 
ATOM     66  C   UNL     1      13.640  -3.491  11.867  1.00  0.00     0.001 A 
ATOM     67  C   UNL     1      12.962  -3.425  13.083  1.00  0.00     0.000 A 
ENDBRANCH  48  62
BRANCH  49  68
ATOM     68  C   UNL     1       7.962  -9.701   3.118  1.00  0.00    -0.014 A 
ATOM     69  C   UNL     1       7.454 -11.002   3.248  1.00  0.00     0.009 A 
ATOM     70  C   UNL     1       7.927  -9.082   1.859  1.00  0.00     0.009 A 
ATOM     71  C   UNL     1       6.946 -11.679   2.137  1.00  0.00     0.001 A 
ATOM     72  C   UNL     1       7.390  -9.749   0.756  1.00  0.00     0.001 A 
ATOM     73  C   UNL     1       6.910 -11.051   0.893  1.00  0.00     0.000 A 
ENDBRANCH  49  68
BRANCH  61  74
ATOM     74  C   UNL     1      13.629 -10.720   7.034  1.00  0.00    -0.014 A 
ATOM     75  C   UNL     1      14.590 -10.746   6.012  1.00  0.00     0.009 A 
ATOM     76  C   UNL     1      13.707 -11.671   8.065  1.00  0.00     0.009 A 
ATOM     77  C   UNL     1      15.584 -11.726   6.003  1.00  0.00     0.001 A 
ATOM     78  C   UNL     1      14.721 -12.628   8.071  1.00  0.00     0.001 A 
ATOM     79  C   UNL     1      15.653 -12.662   7.034  1.00  0.00     0.000 A 
ENDBRANCH  61  74
ENDBRANCH  35  36
ENDBRANCH  27  30
ENDBRANCH  25  26
ENDBRANCH  24  25
ENDBRANCH   1  24
TORSDOF 16
