REMARK SMILES CCCCCCNC(=O)Oc1cccc(-c2ccc([C@@H](C)C(=O)NCCCNC(=O)c3ccc(-c4c5nc(c(-c6ccccc6)c6ccc([nH]6)c(-c6ccccc6)c6nc(c(-c7ccccc7)c7ccc4[nH]7)C=C6)C=C5)cc3)cc2N)c1
REMARK SMILES IDX 16 1 17 2 18 3 19 4 79 5 80 6 15 7 11 8 12 9 82 10 13 11
REMARK SMILES IDX 14 12 10 13 8 14 7 15 9 17 6 18 5 19 4 20 3 21 2 22 1 23
REMARK SMILES IDX 81 24 20 27 21 28 22 29 23 30 24 31 25 33 26 34 27 35 28 36
REMARK SMILES IDX 29 37 30 39 31 40 32 41 78 42 33 43 77 44 34 45 35 46 36 47
REMARK SMILES IDX 71 48 37 49 76 50 70 51 72 52 38 53 75 54 69 55 68 56 39 58
REMARK SMILES IDX 61 59 46 60 60 61 47 62 50 63 59 64 73 65 48 66 49 67 58 69
REMARK SMILES IDX 74 70 51 71 40 72 41 73 45 74 42 75 44 76 43 77 62 78 63 79
REMARK SMILES IDX 67 80 64 81 66 82 65 83 52 84 53 85 57 86 54 87 56 88 55 89
REMARK H PARENT 7 16 81 25 81 26 24 32 28 38 72 57 50 68
REMARK Flexibility Score: inf
ROOT
ATOM      1  C   UNL     1      -5.350   7.035  -6.716  1.00  0.00     0.005 A 
ATOM      2  C   UNL     1      -5.726   8.282  -7.252  1.00  0.00     0.011 A 
ATOM      3  C   UNL     1      -5.677   8.543  -8.624  1.00  0.00     0.005 A 
ATOM      4  C   UNL     1      -5.151   7.604  -9.508  1.00  0.00    -0.034 A 
ATOM      5  C   UNL     1      -4.810   6.345  -8.988  1.00  0.00     0.030 A 
ATOM      6  C   UNL     1      -4.979   6.021  -7.628  1.00  0.00     0.040 A 
ENDROOT
BRANCH   1   7
ATOM      7  C   UNL     1      -5.361   6.854  -5.242  1.00  0.00    -0.013 A 
ATOM      8  C   UNL     1      -4.325   6.072  -3.183  1.00  0.00     0.133 A 
ATOM      9  C   UNL     1      -5.405   6.524  -2.429  1.00  0.00     0.047 A 
ATOM     10  C   UNL     1      -4.289   6.241  -4.568  1.00  0.00     0.056 A 
ATOM     11  C   UNL     1      -6.460   7.162  -3.071  1.00  0.00     0.004 A 
ATOM     12  C   UNL     1      -6.442   7.314  -4.462  1.00  0.00     0.009 A 
BRANCH   8  13
ATOM     13  O   UNL     1      -3.361   5.307  -2.505  1.00  0.00    -0.410 OA
BRANCH  13  14
ATOM     14  C   UNL     1      -2.018   5.616  -2.661  1.00  0.00     0.412 C 
ATOM     15  N   UNL     1      -1.192   4.726  -2.028  1.00  0.00    -0.321 N 
ATOM     16  H   UNL     1      -0.225   4.899  -2.093  1.00  0.00     0.167 HD
ATOM     17  O   UNL     1      -1.566   6.574  -3.274  1.00  0.00    -0.224 OA
BRANCH  15  18
ATOM     18  C   UNL     1      -1.593   3.557  -1.270  1.00  0.00     0.119 C 
BRANCH  18  19
ATOM     19  C   UNL     1      -0.992   2.270  -1.837  1.00  0.00     0.021 C 
BRANCH  19  20
ATOM     20  C   UNL     1       0.537   2.182  -1.757  1.00  0.00     0.002 C 
BRANCH  20  21
ATOM     21  C   UNL     1       1.134   2.292  -0.350  1.00  0.00    -0.000 C 
BRANCH  21  22
ATOM     22  C   UNL     1       0.646   1.247   0.656  1.00  0.00    -0.003 C 
ATOM     23  C   UNL     1       1.008  -0.178   0.268  1.00  0.00     0.004 C 
ENDBRANCH  21  22
ENDBRANCH  20  21
ENDBRANCH  19  20
ENDBRANCH  18  19
ENDBRANCH  15  18
ENDBRANCH  13  14
ENDBRANCH   8  13
ENDBRANCH   1   7
BRANCH   6  24
ATOM     24  N   UNL     1      -4.657   4.724  -7.221  1.00  0.00    -0.398 N 
ATOM     25  H   UNL     1      -4.763   4.465  -6.277  1.00  0.00     0.156 HD
ATOM     26  H   UNL     1      -4.324   4.071  -7.877  1.00  0.00     0.156 HD
ENDBRANCH   6  24
BRANCH   4  27
ATOM     27  C   UNL     1      -4.911   7.898 -10.980  1.00  0.00     0.105 C 
ATOM     28  C   UNL     1      -6.096   8.504 -11.730  1.00  0.00     0.023 C 
BRANCH  27  29
ATOM     29  C   UNL     1      -3.558   8.568 -11.267  1.00  0.00     0.227 C 
ATOM     30  O   UNL     1      -2.623   7.895 -11.719  1.00  0.00    -0.274 OA
ATOM     31  N   UNL     1      -3.300   9.889 -11.070  1.00  0.00    -0.356 N 
ATOM     32  H   UNL     1      -2.404  10.169 -11.367  1.00  0.00     0.163 HD
BRANCH  31  33
ATOM     33  C   UNL     1      -4.094  10.963 -10.506  1.00  0.00     0.117 C 
BRANCH  33  34
ATOM     34  C   UNL     1      -3.746  11.233  -9.045  1.00  0.00     0.042 C 
BRANCH  34  35
ATOM     35  C   UNL     1      -2.506  12.096  -8.852  1.00  0.00     0.118 C 
BRANCH  35  36
ATOM     36  N   UNL     1      -2.731  13.479  -9.251  1.00  0.00    -0.352 N 
ATOM     37  C   UNL     1      -2.721  14.638  -8.515  1.00  0.00     0.251 C 
ATOM     38  H   UNL     1      -2.923  13.603 -10.209  1.00  0.00     0.163 HD
ATOM     39  O   UNL     1      -3.152  15.670  -9.024  1.00  0.00    -0.269 OA
BRANCH  37  40
ATOM     40  C   UNL     1      -2.213  14.668  -7.124  1.00  0.00     0.039 A 
ATOM     41  C   UNL     1      -2.839  15.514  -6.200  1.00  0.00     0.014 A 
ATOM     42  C   UNL     1      -1.092  13.931  -6.733  1.00  0.00     0.014 A 
ATOM     43  C   UNL     1      -2.376  15.579  -4.883  1.00  0.00     0.010 A 
ATOM     44  C   UNL     1      -0.682  13.934  -5.401  1.00  0.00     0.010 A 
ATOM     45  C   UNL     1      -1.310  14.767  -4.465  1.00  0.00    -0.014 A 
BRANCH  45  46
ATOM     46  C   UNL     1      -0.827  14.789  -3.060  1.00  0.00     0.031 A 
ATOM     47  C   UNL     1       0.571  15.252  -2.746  1.00  0.00     0.074 A 
ATOM     48  C   UNL     1      -1.623  14.335  -2.072  1.00  0.00     0.049 A 
ATOM     49  N   UNL     1       1.194  15.278  -1.594  1.00  0.00    -0.248 NA
ATOM     50  C   UNL     1       1.384  15.725  -3.878  1.00  0.00     0.031 C 
ATOM     51  C   UNL     1      -2.983  13.822  -2.246  1.00  0.00     0.029 A 
ATOM     52  N   UNL     1      -1.395  14.222  -0.723  1.00  0.00    -0.354 N 
ATOM     53  C   UNL     1       2.474  15.742  -1.868  1.00  0.00     0.074 A 
ATOM     54  C   UNL     1       2.554  15.947  -3.297  1.00  0.00     0.031 C 
ATOM     55  C   UNL     1      -3.476  13.470  -1.048  1.00  0.00     0.029 A 
ATOM     56  C   UNL     1      -2.457  13.694  -0.029  1.00  0.00     0.049 A 
ATOM     57  H   UNL     1      -0.552  14.494  -0.294  1.00  0.00     0.167 HD
ATOM     58  C   UNL     1       3.489  15.992  -1.006  1.00  0.00     0.031 A 
ATOM     59  C   UNL     1      -2.591  13.413   1.280  1.00  0.00     0.031 A 
ATOM     60  C   UNL     1       3.407  15.806   0.418  1.00  0.00     0.049 A 
ATOM     61  C   UNL     1      -1.451  13.699   2.216  1.00  0.00     0.074 A 
ATOM     62  C   UNL     1       4.359  16.090   1.381  1.00  0.00     0.029 A 
ATOM     63  N   UNL     1       2.307  15.286   1.082  1.00  0.00    -0.354 N 
ATOM     64  N   UNL     1      -0.270  14.202   1.950  1.00  0.00    -0.248 NA
ATOM     65  C   UNL     1      -1.667  13.387   3.636  1.00  0.00     0.031 C 
ATOM     66  C   UNL     1       3.852  15.700   2.625  1.00  0.00     0.029 A 
ATOM     67  C   UNL     1       2.565  15.222   2.441  1.00  0.00     0.049 A 
ATOM     68  H   UNL     1       1.468  15.005   0.652  1.00  0.00     0.167 HD
ATOM     69  C   UNL     1       0.387  14.292   3.170  1.00  0.00     0.074 A 
ATOM     70  C   UNL     1      -0.532  13.806   4.179  1.00  0.00     0.031 C 
ATOM     71  C   UNL     1       1.640  14.737   3.432  1.00  0.00     0.031 A 
BRANCH  58  72
ATOM     72  C   UNL     1       4.784  16.490  -1.586  1.00  0.00    -0.014 A 
ATOM     73  C   UNL     1       4.894  17.787  -2.114  1.00  0.00     0.009 A 
ATOM     74  C   UNL     1       5.919  15.665  -1.572  1.00  0.00     0.009 A 
ATOM     75  C   UNL     1       6.104  18.232  -2.650  1.00  0.00     0.001 A 
ATOM     76  C   UNL     1       7.135  16.123  -2.082  1.00  0.00     0.001 A 
ATOM     77  C   UNL     1       7.224  17.402  -2.629  1.00  0.00     0.000 A 
ENDBRANCH  58  72
BRANCH  59  78
ATOM     78  C   UNL     1      -3.864  12.839   1.790  1.00  0.00    -0.014 A 
ATOM     79  C   UNL     1      -4.727  13.614   2.579  1.00  0.00     0.009 A 
ATOM     80  C   UNL     1      -4.221  11.515   1.493  1.00  0.00     0.009 A 
ATOM     81  C   UNL     1      -5.909  13.067   3.083  1.00  0.00     0.001 A 
ATOM     82  C   UNL     1      -5.417  10.979   1.975  1.00  0.00     0.001 A 
ATOM     83  C   UNL     1      -6.255  11.752   2.776  1.00  0.00     0.000 A 
ENDBRANCH  59  78
BRANCH  71  84
ATOM     84  C   UNL     1       2.076  14.752   4.869  1.00  0.00    -0.014 A 
ATOM     85  C   UNL     1       2.387  13.564   5.549  1.00  0.00     0.009 A 
ATOM     86  C   UNL     1       2.217  15.978   5.538  1.00  0.00     0.009 A 
ATOM     87  C   UNL     1       2.799  13.603   6.882  1.00  0.00     0.001 A 
ATOM     88  C   UNL     1       2.656  16.015   6.862  1.00  0.00     0.001 A 
ATOM     89  C   UNL     1       2.938  14.828   7.535  1.00  0.00     0.000 A 
ENDBRANCH  71  84
ENDBRANCH  45  46
ENDBRANCH  37  40
ENDBRANCH  35  36
ENDBRANCH  34  35
ENDBRANCH  33  34
ENDBRANCH  31  33
ENDBRANCH  27  29
ENDBRANCH   4  27
TORSDOF 20
