REMARK SMILES Cc1ccc(OCC(=O)Oc2ccc(C(=O)NCCCNC(=O)c3ccc(-c4c5nc(c(-c6ccccc6)c6ccc([nH]6)c(-c6ccccc6)c6nc(c(-c7ccccc7)c7ccc4[nH]7)C=C6)C=C5)cc3)cc2)cc1C
REMARK SMILES IDX 15 1 16 2 17 3 14 5 11 6 12 7 73 8 13 9 72 10 10 11 8 12
REMARK SMILES IDX 9 13 7 14 6 15 5 16 1 17 2 18 3 19 75 20 4 21 74 22 76 23
REMARK SMILES IDX 18 24 19 25 20 26 21 27 22 28 23 30 24 31 25 32 71 33 26 34
REMARK SMILES IDX 70 35 27 36 28 37 29 38 64 39 30 40 69 41 63 42 65 43 31 44
REMARK SMILES IDX 68 45 62 46 61 47 32 49 54 50 39 51 53 52 40 53 43 54 52 55
REMARK SMILES IDX 66 56 41 57 42 58 51 60 67 61 44 62 33 63 34 64 38 65 35 66
REMARK SMILES IDX 37 67 36 68 55 69 56 70 60 71 57 72 59 73 58 74 45 75 46 76
REMARK SMILES IDX 50 77 47 78 49 79 48 80
REMARK H PARENT 17 4 21 29 65 48 43 59
REMARK Flexibility Score: inf
ROOT
ATOM      1  C   UNL     1      -5.363   2.037   7.153  1.00  0.00     0.251 C 
ATOM      2  O   UNL     1      -4.872   1.585   8.186  1.00  0.00    -0.269 OA
ATOM      3  N   UNL     1      -6.046   3.226   7.219  1.00  0.00    -0.352 N 
ATOM      4  H   UNL     1      -6.172   3.574   8.131  1.00  0.00     0.163 HD
ENDROOT
BRANCH   1   5
ATOM      5  C   UNL     1      -5.159   1.310   5.874  1.00  0.00     0.040 A 
ATOM      6  C   UNL     1      -4.635  -0.036   3.486  1.00  0.00     0.131 A 
ATOM      7  C   UNL     1      -3.657   0.005   4.477  1.00  0.00     0.048 A 
ATOM      8  C   UNL     1      -5.897   0.512   3.706  1.00  0.00     0.048 A 
ATOM      9  C   UNL     1      -3.921   0.681   5.672  1.00  0.00     0.017 A 
ATOM     10  C   UNL     1      -6.158   1.179   4.905  1.00  0.00     0.017 A 
BRANCH   6  11
ATOM     11  O   UNL     1      -4.320  -0.707   2.298  1.00  0.00    -0.424 OA
BRANCH  11  12
ATOM     12  C   UNL     1      -4.532   0.005   1.120  1.00  0.00     0.349 C 
ATOM     13  O   UNL     1      -5.008   1.132   1.019  1.00  0.00    -0.248 OA
BRANCH  12  14
ATOM     14  C   UNL     1      -4.118  -0.837  -0.079  1.00  0.00     0.352 C 
BRANCH  14  15
ATOM     15  O   UNL     1      -2.849  -1.463  -0.002  1.00  0.00    -0.482 OA
BRANCH  15  16
ATOM     16  C   UNL     1      -1.738  -0.668  -0.060  1.00  0.00     0.120 A 
ATOM     17  C   UNL     1       2.003   1.505  -0.052  1.00  0.00     0.044 C 
ATOM     18  C   UNL     1       0.724   0.715  -0.070  1.00  0.00    -0.048 A 
ATOM     19  C   UNL     1      -0.495   1.402  -0.172  1.00  0.00     0.007 A 
ATOM     20  C   UNL     1       0.710  -0.689   0.008  1.00  0.00    -0.045 A 
ATOM     21  C   UNL     1      -1.715   0.718  -0.176  1.00  0.00     0.047 A 
ATOM     22  C   UNL     1      -0.527  -1.359   0.019  1.00  0.00     0.050 A 
ATOM     23  C   UNL     1       1.958  -1.525   0.074  1.00  0.00     0.045 C 
ENDBRANCH  15  16
ENDBRANCH  14  15
ENDBRANCH  12  14
ENDBRANCH  11  12
ENDBRANCH   6  11
ENDBRANCH   1   5
BRANCH   3  24
ATOM     24  C   UNL     1      -6.616   4.061   6.174  1.00  0.00     0.118 C 
BRANCH  24  25
ATOM     25  C   UNL     1      -8.140   3.951   6.135  1.00  0.00     0.042 C 
BRANCH  25  26
ATOM     26  C   UNL     1      -8.837   4.643   7.302  1.00  0.00     0.118 C 
BRANCH  26  27
ATOM     27  N   UNL     1      -8.793   6.092   7.191  1.00  0.00    -0.352 N 
ATOM     28  C   UNL     1      -9.816   7.008   7.176  1.00  0.00     0.251 C 
ATOM     29  H   UNL     1      -7.889   6.476   7.115  1.00  0.00     0.163 HD
ATOM     30  O   UNL     1      -9.577   8.174   6.875  1.00  0.00    -0.269 OA
BRANCH  28  31
ATOM     31  C   UNL     1     -11.203   6.607   7.503  1.00  0.00     0.039 A 
ATOM     32  C   UNL     1     -12.252   7.159   6.759  1.00  0.00     0.014 A 
ATOM     33  C   UNL     1     -11.485   5.743   8.565  1.00  0.00     0.014 A 
ATOM     34  C   UNL     1     -13.573   6.809   7.047  1.00  0.00     0.010 A 
ATOM     35  C   UNL     1     -12.798   5.343   8.809  1.00  0.00     0.010 A 
ATOM     36  C   UNL     1     -13.856   5.878   8.059  1.00  0.00    -0.014 A 
BRANCH  36  37
ATOM     37  C   UNL     1     -15.250   5.463   8.353  1.00  0.00     0.031 A 
ATOM     38  C   UNL     1     -15.881   5.802   9.675  1.00  0.00     0.074 A 
ATOM     39  C   UNL     1     -15.931   4.727   7.454  1.00  0.00     0.049 A 
ATOM     40  N   UNL     1     -17.061   5.470  10.137  1.00  0.00    -0.248 NA
ATOM     41  C   UNL     1     -15.071   6.599  10.610  1.00  0.00     0.031 C 
ATOM     42  C   UNL     1     -15.421   4.299   6.149  1.00  0.00     0.029 A 
ATOM     43  N   UNL     1     -17.196   4.199   7.507  1.00  0.00    -0.354 N 
ATOM     44  C   UNL     1     -17.127   6.001  11.419  1.00  0.00     0.074 A 
ATOM     45  C   UNL     1     -15.853   6.637  11.679  1.00  0.00     0.031 C 
ATOM     46  C   UNL     1     -16.371   3.589   5.519  1.00  0.00     0.029 A 
ATOM     47  C   UNL     1     -17.540   3.482   6.387  1.00  0.00     0.049 A 
ATOM     48  H   UNL     1     -17.800   4.322   8.275  1.00  0.00     0.167 HD
ATOM     49  C   UNL     1     -18.158   5.978  12.297  1.00  0.00     0.031 A 
ATOM     50  C   UNL     1     -18.666   2.806   6.093  1.00  0.00     0.031 A 
ATOM     51  C   UNL     1     -19.428   5.351  12.040  1.00  0.00     0.049 A 
ATOM     52  C   UNL     1     -19.796   2.789   7.082  1.00  0.00     0.074 A 
ATOM     53  C   UNL     1     -20.552   5.314  12.847  1.00  0.00     0.029 A 
ATOM     54  N   UNL     1     -19.741   4.650  10.886  1.00  0.00    -0.354 N 
ATOM     55  N   UNL     1     -19.863   3.344   8.268  1.00  0.00    -0.248 NA
ATOM     56  C   UNL     1     -21.011   2.063   6.686  1.00  0.00     0.031 C 
ATOM     57  C   UNL     1     -21.531   4.554  12.199  1.00  0.00     0.029 A 
ATOM     58  C   UNL     1     -21.034   4.160  10.967  1.00  0.00     0.049 A 
ATOM     59  H   UNL     1     -19.134   4.519  10.122  1.00  0.00     0.167 HD
ATOM     60  C   UNL     1     -21.132   3.053   8.751  1.00  0.00     0.074 A 
ATOM     61  C   UNL     1     -21.806   2.286   7.723  1.00  0.00     0.031 C 
ATOM     62  C   UNL     1     -21.689   3.393   9.939  1.00  0.00     0.031 A 
BRANCH  49  63
ATOM     63  C   UNL     1     -17.944   6.646  13.627  1.00  0.00    -0.014 A 
ATOM     64  C   UNL     1     -17.855   8.044  13.731  1.00  0.00     0.009 A 
ATOM     65  C   UNL     1     -17.846   5.872  14.793  1.00  0.00     0.009 A 
ATOM     66  C   UNL     1     -17.629   8.649  14.969  1.00  0.00     0.001 A 
ATOM     67  C   UNL     1     -17.649   6.481  16.034  1.00  0.00     0.001 A 
ATOM     68  C   UNL     1     -17.529   7.867  16.119  1.00  0.00     0.000 A 
ENDBRANCH  49  63
BRANCH  50  69
ATOM     69  C   UNL     1     -18.783   2.101   4.791  1.00  0.00    -0.014 A 
ATOM     70  C   UNL     1     -19.608   2.611   3.778  1.00  0.00     0.009 A 
ATOM     71  C   UNL     1     -18.057   0.924   4.550  1.00  0.00     0.009 A 
ATOM     72  C   UNL     1     -19.718   1.946   2.555  1.00  0.00     0.001 A 
ATOM     73  C   UNL     1     -18.150   0.276   3.317  1.00  0.00     0.001 A 
ATOM     74  C   UNL     1     -18.985   0.783   2.323  1.00  0.00     0.000 A 
ENDBRANCH  50  69
BRANCH  62  75
ATOM     75  C   UNL     1     -23.106   2.959  10.180  1.00  0.00    -0.014 A 
ATOM     76  C   UNL     1     -23.420   1.620  10.457  1.00  0.00     0.009 A 
ATOM     77  C   UNL     1     -24.136   3.912  10.166  1.00  0.00     0.009 A 
ATOM     78  C   UNL     1     -24.744   1.239  10.685  1.00  0.00     0.001 A 
ATOM     79  C   UNL     1     -25.455   3.533  10.420  1.00  0.00     0.001 A 
ATOM     80  C   UNL     1     -25.759   2.196  10.671  1.00  0.00     0.000 A 
ENDBRANCH  62  75
ENDBRANCH  36  37
ENDBRANCH  28  31
ENDBRANCH  26  27
ENDBRANCH  25  26
ENDBRANCH  24  25
ENDBRANCH   3  24
TORSDOF 15
