REMARK SMILES O=C(NCCCNC(=O)[C@H]1CCCN1S(=O)(=O)c1ccccc1Cl)c1ccc(-c2c3nc(c(-c4ccccc4)c4ccc([nH]4)c(-c4ccccc4)c4nc(c(-c5ccccc5)c5ccc2[nH]5)C=C4)C=C3)cc1
REMARK SMILES IDX 5 1 4 2 3 3 1 4 2 5 25 7 26 8 72 9 27 10 71 11 28 12 29 13
REMARK SMILES IDX 30 14 65 15 31 16 70 17 64 18 66 19 32 20 69 21 63 22 62 23
REMARK SMILES IDX 33 25 55 26 40 27 54 28 41 29 44 30 53 31 67 32 42 33 43 34
REMARK SMILES IDX 52 36 68 37 45 38 34 39 35 40 39 41 36 42 38 43 37 44 56 45
REMARK SMILES IDX 57 46 61 47 58 48 60 49 59 50 46 51 47 52 51 53 48 54 50 55
REMARK SMILES IDX 49 56 6 57 7 58 8 59 9 61 10 62 11 63 14 64 12 65 13 66
REMARK SMILES IDX 15 67 16 68 17 69 18 70 19 71 23 72 20 73 22 74 24 75 21 76
REMARK H PARENT 3 6 66 24 44 35 7 60
REMARK Flexibility Score: inf
ROOT
ATOM      1  C   UNL     1       6.222  -4.024   2.720  1.00  0.00     0.042 C 
ENDROOT
BRANCH   1   2
ATOM      2  C   UNL     1       7.402  -3.776   3.660  1.00  0.00     0.118 C 
BRANCH   2   3
ATOM      3  N   UNL     1       7.748  -2.366   3.777  1.00  0.00    -0.352 N 
ATOM      4  O   UNL     1       7.976  -0.354   4.759  1.00  0.00    -0.269 OA
ATOM      5  C   UNL     1       7.829  -1.565   4.891  1.00  0.00     0.251 C 
ATOM      6  H   UNL     1       7.957  -1.917   2.926  1.00  0.00     0.163 HD
BRANCH   5   7
ATOM      7  C   UNL     1       7.718  -2.147   6.246  1.00  0.00     0.039 A 
ATOM      8  C   UNL     1       8.395  -3.321   6.587  1.00  0.00     0.014 A 
ATOM      9  C   UNL     1       6.946  -1.483   7.205  1.00  0.00     0.014 A 
ATOM     10  C   UNL     1       8.190  -3.901   7.836  1.00  0.00     0.010 A 
ATOM     11  C   UNL     1       6.800  -2.029   8.483  1.00  0.00     0.010 A 
ATOM     12  C   UNL     1       7.389  -3.263   8.797  1.00  0.00    -0.014 A 
BRANCH  12  13
ATOM     13  C   UNL     1       7.203  -3.890  10.130  1.00  0.00     0.031 A 
ATOM     14  C   UNL     1       5.855  -4.396  10.567  1.00  0.00     0.074 A 
ATOM     15  C   UNL     1       8.268  -4.034  10.943  1.00  0.00     0.049 A 
ATOM     16  N   UNL     1       5.527  -5.017  11.673  1.00  0.00    -0.248 NA
ATOM     17  C   UNL     1       4.728  -4.170   9.649  1.00  0.00     0.031 C 
ATOM     18  C   UNL     1       9.627  -3.582  10.639  1.00  0.00     0.029 A 
ATOM     19  N   UNL     1       8.379  -4.622  12.177  1.00  0.00    -0.354 N 
ATOM     20  C   UNL     1       4.157  -5.234  11.595  1.00  0.00     0.074 A 
ATOM     21  C   UNL     1       3.710  -4.658  10.344  1.00  0.00     0.031 C 
ATOM     22  C   UNL     1      10.446  -3.958  11.633  1.00  0.00     0.029 A 
ATOM     23  C   UNL     1       9.662  -4.629  12.665  1.00  0.00     0.049 A 
ATOM     24  H   UNL     1       7.613  -5.001  12.665  1.00  0.00     0.167 HD
ATOM     25  C   UNL     1       3.344  -5.861  12.480  1.00  0.00     0.031 A 
ATOM     26  C   UNL     1      10.158  -5.120  13.815  1.00  0.00     0.031 A 
ATOM     27  C   UNL     1       3.786  -6.441  13.721  1.00  0.00     0.049 A 
ATOM     28  C   UNL     1       9.234  -5.793  14.787  1.00  0.00     0.074 A 
ATOM     29  C   UNL     1       3.043  -7.133  14.663  1.00  0.00     0.029 A 
ATOM     30  N   UNL     1       5.087  -6.392  14.196  1.00  0.00    -0.354 N 
ATOM     31  N   UNL     1       7.949  -6.026  14.678  1.00  0.00    -0.248 NA
ATOM     32  C   UNL     1       9.832  -6.273  16.040  1.00  0.00     0.031 C 
ATOM     33  C   UNL     1       3.886  -7.461  15.731  1.00  0.00     0.029 A 
ATOM     34  C   UNL     1       5.164  -7.020  15.429  1.00  0.00     0.049 A 
ATOM     35  H   UNL     1       5.845  -5.973  13.727  1.00  0.00     0.167 HD
ATOM     36  C   UNL     1       7.588  -6.701  15.836  1.00  0.00     0.074 A 
ATOM     37  C   UNL     1       8.793  -6.851  16.627  1.00  0.00     0.031 C 
ATOM     38  C   UNL     1       6.368  -7.158  16.208  1.00  0.00     0.031 A 
BRANCH  25  39
ATOM     39  C   UNL     1       1.879  -5.922  12.148  1.00  0.00    -0.014 A 
ATOM     40  C   UNL     1       1.392  -6.758  11.130  1.00  0.00     0.009 A 
ATOM     41  C   UNL     1       0.967  -5.149  12.884  1.00  0.00     0.009 A 
ATOM     42  C   UNL     1       0.027  -6.788  10.832  1.00  0.00     0.001 A 
ATOM     43  C   UNL     1      -0.399  -5.202  12.602  1.00  0.00     0.001 A 
ATOM     44  C   UNL     1      -0.867  -6.013  11.569  1.00  0.00     0.000 A 
ENDBRANCH  25  39
BRANCH  26  45
ATOM     45  C   UNL     1      11.611  -5.008  14.098  1.00  0.00    -0.014 A 
ATOM     46  C   UNL     1      12.434  -6.143  14.050  1.00  0.00     0.009 A 
ATOM     47  C   UNL     1      12.186  -3.762  14.395  1.00  0.00     0.009 A 
ATOM     48  C   UNL     1      13.801  -6.035  14.309  1.00  0.00     0.001 A 
ATOM     49  C   UNL     1      13.558  -3.654  14.627  1.00  0.00     0.001 A 
ATOM     50  C   UNL     1      14.363  -4.791  14.591  1.00  0.00     0.000 A 
ENDBRANCH  26  45
BRANCH  38  51
ATOM     51  C   UNL     1       6.286  -7.895  17.514  1.00  0.00    -0.014 A 
ATOM     52  C   UNL     1       6.374  -7.218  18.740  1.00  0.00     0.009 A 
ATOM     53  C   UNL     1       6.095  -9.285  17.514  1.00  0.00     0.009 A 
ATOM     54  C   UNL     1       6.309  -7.927  19.942  1.00  0.00     0.001 A 
ATOM     55  C   UNL     1       6.005  -9.987  18.717  1.00  0.00     0.001 A 
ATOM     56  C   UNL     1       6.122  -9.309  19.929  1.00  0.00     0.000 A 
ENDBRANCH  38  51
ENDBRANCH  12  13
ENDBRANCH   5   7
ENDBRANCH   2   3
ENDBRANCH   1   2
BRANCH   1  57
ATOM     57  C   UNL     1       6.506  -3.678   1.260  1.00  0.00     0.117 C 
BRANCH  57  58
ATOM     58  N   UNL     1       7.586  -4.482   0.729  1.00  0.00    -0.355 N 
ATOM     59  C   UNL     1       7.569  -5.635   0.006  1.00  0.00     0.238 C 
ATOM     60  H   UNL     1       8.487  -4.136   0.924  1.00  0.00     0.163 HD
ATOM     61  O   UNL     1       8.662  -6.197  -0.124  1.00  0.00    -0.273 OA
BRANCH  59  62
ATOM     62  C   UNL     1       6.309  -6.135  -0.720  1.00  0.00     0.162 C 
ATOM     63  C   UNL     1       6.470  -7.608  -1.097  1.00  0.00     0.032 C 
ATOM     64  N   UNL     1       5.045  -6.118   0.079  1.00  0.00    -0.185 NA
ATOM     65  C   UNL     1       6.071  -8.324   0.181  1.00  0.00     0.019 C 
ATOM     66  C   UNL     1       5.020  -7.426   0.827  1.00  0.00     0.103 C 
BRANCH  64  67
ATOM     67  S   UNL     1       3.574  -5.875  -0.796  1.00  0.00     0.245 S 
ATOM     68  O   UNL     1       3.503  -6.856  -1.857  1.00  0.00    -0.207 OA
ATOM     69  O   UNL     1       2.527  -5.841   0.204  1.00  0.00    -0.207 OA
BRANCH  67  70
ATOM     70  C   UNL     1       3.667  -4.242  -1.494  1.00  0.00     0.101 A 
ATOM     71  C   UNL     1       3.058  -3.205  -0.760  1.00  0.00     0.023 A 
ATOM     72  C   UNL     1       4.187  -3.966  -2.762  1.00  0.00     0.061 A 
ATOM     73  C   UNL     1       3.017  -1.903  -1.262  1.00  0.00     0.002 A 
ATOM     74  C   UNL     1       4.170  -2.646  -3.240  1.00  0.00     0.022 A 
ATOM     75  Cl  UNL     1       4.864  -5.130  -3.844  1.00  0.00    -0.083 Cl
ATOM     76  C   UNL     1       3.588  -1.620  -2.496  1.00  0.00     0.002 A 
ENDBRANCH  67  70
ENDBRANCH  64  67
ENDBRANCH  59  62
ENDBRANCH  57  58
ENDBRANCH   1  57
TORSDOF 12
