REMARK SMILES Cc1cc(N2N=C(C(=O)NCCCNC(=O)c3ccc(-c4c5nc(c(-c6ccccc6)c6ccc([nH]6)c(-c6ccccc6)c6nc(c(-c7ccccc7)c7ccc4[nH]7)C=C6)C=C5)cc3)C[C@H]2c2ccccc2)c([N+](=O)[O-])cc1C
REMARK SMILES IDX 12 1 11 2 10 3 8 4 9 5 7 7 5 8 6 9 66 10 65 11 4 12 1 13
REMARK SMILES IDX 2 14 3 15 78 16 77 17 79 18 73 19 74 20 75 21 76 22 67 23
REMARK SMILES IDX 68 24 72 25 69 26 71 27 70 28 13 29 14 30 15 31 16 33 17 34
REMARK SMILES IDX 18 35 64 36 19 37 63 38 20 39 21 40 22 41 57 42 23 43 62 44
REMARK SMILES IDX 56 45 58 46 24 47 61 48 55 49 54 50 25 52 47 53 32 54 46 55
REMARK SMILES IDX 33 56 36 57 45 58 59 59 34 60 35 61 44 63 60 64 37 65 26 66
REMARK SMILES IDX 27 67 31 68 28 69 30 70 29 71 48 72 49 73 53 74 50 75 52 76
REMARK SMILES IDX 51 77 38 78 39 79 43 80 40 81 42 82 41 83
REMARK H PARENT 10 6 14 32 58 51 36 62
REMARK Flexibility Score: inf
ROOT
ATOM      1  C   UNL     1      -8.577   3.350  -0.640  1.00  0.00     0.042 C 
ENDROOT
BRANCH   1   2
ATOM      2  C   UNL     1      -7.496   3.864   0.303  1.00  0.00     0.118 C 
BRANCH   2   3
ATOM      3  N   UNL     1      -7.190   2.882   1.320  1.00  0.00    -0.351 N 
ATOM      4  C   UNL     1      -6.146   2.024   1.534  1.00  0.00     0.267 C 
ATOM      5  O   UNL     1      -6.239   1.251   2.485  1.00  0.00    -0.268 OA
ATOM      6  H   UNL     1      -7.887   2.818   2.012  1.00  0.00     0.163 HD
BRANCH   4   7
ATOM      7  C   UNL     1      -4.870   2.010   0.709  1.00  0.00     0.128 C 
ATOM      8  N   UNL     1      -2.810   1.661   0.274  1.00  0.00    -0.250 N 
ATOM      9  N   UNL     1      -3.776   1.519   1.214  1.00  0.00    -0.171 NA
ATOM     10  C   UNL     1      -3.276   2.288  -0.968  1.00  0.00     0.144 C 
ATOM     11  C   UNL     1      -4.785   2.417  -0.729  1.00  0.00     0.096 C 
BRANCH   8  12
ATOM     12  C   UNL     1      -1.721   0.794   0.257  1.00  0.00     0.138 A 
ATOM     13  C   UNL     1       2.046   1.379   0.232  1.00  0.00     0.045 C 
ATOM     14  C   UNL     1       0.742   0.629   0.228  1.00  0.00    -0.046 A 
ATOM     15  C   UNL     1      -0.444   1.369   0.365  1.00  0.00     0.039 A 
ATOM     16  C   UNL     1       0.665  -0.763   0.073  1.00  0.00    -0.041 A 
ATOM     17  C   UNL     1      -0.602  -1.370   0.020  1.00  0.00     0.091 A 
ATOM     18  C   UNL     1       1.880  -1.644  -0.027  1.00  0.00     0.045 C 
ATOM     19  C   UNL     1      -1.776  -0.594   0.094  1.00  0.00     0.294 A 
BRANCH  19  20
ATOM     20  N   UNL     1      -3.044  -1.288  -0.098  1.00  0.00     0.065 N 
ATOM     21  O   UNL     1      -3.185  -2.380   0.473  1.00  0.00    -0.258 OA
ATOM     22  O   UNL     1      -3.855  -0.809  -0.909  1.00  0.00    -0.258 OA
ENDBRANCH  19  20
ENDBRANCH   8  12
BRANCH  10  23
ATOM     23  C   UNL     1      -2.516   3.587  -1.240  1.00  0.00    -0.023 A 
ATOM     24  C   UNL     1      -2.941   4.854  -0.806  1.00  0.00     0.006 A 
ATOM     25  C   UNL     1      -1.288   3.512  -1.926  1.00  0.00     0.006 A 
ATOM     26  C   UNL     1      -2.182   5.999  -1.075  1.00  0.00     0.000 A 
ATOM     27  C   UNL     1      -0.507   4.648  -2.151  1.00  0.00     0.000 A 
ATOM     28  C   UNL     1      -0.962   5.894  -1.736  1.00  0.00     0.000 A 
ENDBRANCH  10  23
ENDBRANCH   4   7
ENDBRANCH   2   3
ENDBRANCH   1   2
BRANCH   1  29
ATOM     29  C   UNL     1      -9.963   3.420  -0.008  1.00  0.00     0.118 C 
BRANCH  29  30
ATOM     30  N   UNL     1     -10.370   4.799   0.252  1.00  0.00    -0.352 N 
ATOM     31  C   UNL     1     -11.360   5.549  -0.327  1.00  0.00     0.251 C 
ATOM     32  H   UNL     1      -9.852   5.261   0.951  1.00  0.00     0.163 HD
ATOM     33  O   UNL     1     -11.377   6.769  -0.174  1.00  0.00    -0.269 OA
BRANCH  31  34
ATOM     34  C   UNL     1     -12.399   4.888  -1.136  1.00  0.00     0.039 A 
ATOM     35  C   UNL     1     -12.835   5.485  -2.321  1.00  0.00     0.014 A 
ATOM     36  C   UNL     1     -12.946   3.675  -0.713  1.00  0.00     0.014 A 
ATOM     37  C   UNL     1     -13.771   4.825  -3.119  1.00  0.00     0.010 A 
ATOM     38  C   UNL     1     -13.795   2.974  -1.555  1.00  0.00     0.010 A 
ATOM     39  C   UNL     1     -14.227   3.547  -2.760  1.00  0.00    -0.014 A 
BRANCH  39  40
ATOM     40  C   UNL     1     -15.181   2.786  -3.600  1.00  0.00     0.031 A 
ATOM     41  C   UNL     1     -16.520   2.398  -3.035  1.00  0.00     0.074 A 
ATOM     42  C   UNL     1     -14.809   2.362  -4.823  1.00  0.00     0.049 A 
ATOM     43  N   UNL     1     -17.436   1.616  -3.543  1.00  0.00    -0.248 NA
ATOM     44  C   UNL     1     -16.856   2.933  -1.704  1.00  0.00     0.031 C 
ATOM     45  C   UNL     1     -13.526   2.648  -5.470  1.00  0.00     0.029 A 
ATOM     46  N   UNL     1     -15.473   1.582  -5.735  1.00  0.00    -0.354 N 
ATOM     47  C   UNL     1     -18.439   1.543  -2.584  1.00  0.00     0.074 A 
ATOM     48  C   UNL     1     -17.996   2.312  -1.444  1.00  0.00     0.031 C 
ATOM     49  C   UNL     1     -13.507   2.070  -6.682  1.00  0.00     0.029 A 
ATOM     50  C   UNL     1     -14.750   1.330  -6.875  1.00  0.00     0.049 A 
ATOM     51  H   UNL     1     -16.383   1.235  -5.586  1.00  0.00     0.167 HD
ATOM     52  C   UNL     1     -19.632   0.908  -2.655  1.00  0.00     0.031 A 
ATOM     53  C   UNL     1     -15.048   0.573  -7.948  1.00  0.00     0.031 A 
ATOM     54  C   UNL     1     -20.074   0.156  -3.797  1.00  0.00     0.049 A 
ATOM     55  C   UNL     1     -16.369  -0.145  -7.991  1.00  0.00     0.074 A 
ATOM     56  C   UNL     1     -21.286  -0.481  -3.992  1.00  0.00     0.029 A 
ATOM     57  N   UNL     1     -19.316  -0.061  -4.937  1.00  0.00    -0.354 N 
ATOM     58  N   UNL     1     -17.333  -0.157  -7.102  1.00  0.00    -0.248 NA
ATOM     59  C   UNL     1     -16.646  -0.947  -9.191  1.00  0.00     0.031 C 
ATOM     60  C   UNL     1     -21.240  -1.133  -5.227  1.00  0.00     0.029 A 
ATOM     61  C   UNL     1     -20.027  -0.842  -5.831  1.00  0.00     0.049 A 
ATOM     62  H   UNL     1     -18.409   0.289  -5.089  1.00  0.00     0.167 HD
ATOM     63  C   UNL     1     -18.345  -0.933  -7.652  1.00  0.00     0.074 A 
ATOM     64  C   UNL     1     -17.881  -1.368  -8.953  1.00  0.00     0.031 C 
ATOM     65  C   UNL     1     -19.554  -1.253  -7.128  1.00  0.00     0.031 A 
BRANCH  52  66
ATOM     66  C   UNL     1     -20.536   0.994  -1.455  1.00  0.00    -0.014 A 
ATOM     67  C   UNL     1     -21.138   2.205  -1.079  1.00  0.00     0.009 A 
ATOM     68  C   UNL     1     -20.812  -0.161  -0.707  1.00  0.00     0.009 A 
ATOM     69  C   UNL     1     -21.964   2.267   0.046  1.00  0.00     0.001 A 
ATOM     70  C   UNL     1     -21.665  -0.104   0.397  1.00  0.00     0.001 A 
ATOM     71  C   UNL     1     -22.231   1.112   0.779  1.00  0.00     0.000 A 
ENDBRANCH  52  66
BRANCH  53  72
ATOM     72  C   UNL     1     -14.083   0.461  -9.074  1.00  0.00    -0.014 A 
ATOM     73  C   UNL     1     -14.374   1.038 -10.320  1.00  0.00     0.009 A 
ATOM     74  C   UNL     1     -12.872  -0.230  -8.915  1.00  0.00     0.009 A 
ATOM     75  C   UNL     1     -13.488   0.899 -11.390  1.00  0.00     0.001 A 
ATOM     76  C   UNL     1     -11.973  -0.340  -9.978  1.00  0.00     0.001 A 
ATOM     77  C   UNL     1     -12.287   0.214 -11.218  1.00  0.00     0.000 A 
ENDBRANCH  53  72
BRANCH  65  78
ATOM     78  C   UNL     1     -20.489  -2.062  -7.982  1.00  0.00    -0.014 A 
ATOM     79  C   UNL     1     -20.265  -3.424  -8.231  1.00  0.00     0.009 A 
ATOM     80  C   UNL     1     -21.653  -1.459  -8.486  1.00  0.00     0.009 A 
ATOM     81  C   UNL     1     -21.177  -4.160  -8.991  1.00  0.00     0.001 A 
ATOM     82  C   UNL     1     -22.578  -2.204  -9.217  1.00  0.00     0.001 A 
ATOM     83  C   UNL     1     -22.336  -3.552  -9.476  1.00  0.00     0.000 A 
ENDBRANCH  65  78
ENDBRANCH  39  40
ENDBRANCH  31  34
ENDBRANCH  29  30
ENDBRANCH   1  29
TORSDOF 13
