REMARK SMILES C[C@H](Oc1ccccc1[N+](=O)[O-])C(=O)N1CCC[C@H](C(=O)NCCCNC(=O)c2ccc(-c3c4nc(c(-c5ccccc5)c5ccc([nH]5)c(-c5ccccc5)c5nc(c(-c6ccccc6)c6ccc3[nH]6)C=C5)C=C4)cc2)C1
REMARK SMILES IDX 20 1 21 2 22 3 19 5 15 6 16 7 77 8 17 9 18 10 13 11 14 12
REMARK SMILES IDX 2 13 1 14 3 15 4 16 5 17 9 18 6 19 8 20 7 21 10 22 11 23
REMARK SMILES IDX 12 24 23 25 24 26 25 27 26 28 27 29 28 31 29 32 30 33 76 34
REMARK SMILES IDX 31 35 75 36 32 37 33 38 34 39 69 40 35 41 74 42 68 43 70 44
REMARK SMILES IDX 36 45 73 46 67 47 66 48 37 50 59 51 44 52 58 53 45 54 48 55
REMARK SMILES IDX 57 56 71 57 46 58 47 59 56 61 72 62 49 63 38 64 39 65 43 66
REMARK SMILES IDX 40 67 42 68 41 69 60 70 61 71 65 72 62 73 64 74 63 75 50 76
REMARK SMILES IDX 51 77 55 78 52 79 54 80 53 81
REMARK H PARENT 22 4 26 30 70 49 48 60
REMARK Flexibility Score: inf
ROOT
ATOM      1  C   UNL     1      -3.134  -0.466   1.860  1.00  0.00     0.224 C 
ATOM      2  O   UNL     1      -3.296  -0.398   3.084  1.00  0.00    -0.275 OA
ATOM      3  N   UNL     1      -3.582   0.595   1.142  1.00  0.00    -0.356 N 
ATOM      4  H   UNL     1      -4.062   1.272   1.671  1.00  0.00     0.163 HD
ENDROOT
BRANCH   1   5
ATOM      5  C   UNL     1      -2.514  -1.735   1.255  1.00  0.00     0.098 C 
ATOM      6  N   UNL     1      -1.403  -1.478  -0.994  1.00  0.00    -0.339 N 
ATOM      7  C   UNL     1      -2.325  -2.421  -1.613  1.00  0.00     0.119 C 
ATOM      8  C   UNL     1      -1.222  -1.544   0.454  1.00  0.00     0.133 C 
ATOM      9  C   UNL     1      -3.665  -2.529  -0.900  1.00  0.00     0.022 C 
ATOM     10  C   UNL     1      -3.534  -2.672   0.609  1.00  0.00     0.017 C 
BRANCH   6  11
ATOM     11  C   UNL     1      -0.731  -0.552  -1.799  1.00  0.00     0.263 C 
ATOM     12  O   UNL     1      -1.312   0.031  -2.720  1.00  0.00    -0.271 OA
BRANCH  11  13
ATOM     13  C   UNL     1       0.818  -0.536  -1.717  1.00  0.00     0.259 C 
ATOM     14  C   UNL     1       1.188  -1.820  -2.475  1.00  0.00     0.064 C 
BRANCH  13  15
ATOM     15  O   UNL     1       1.263  -0.414  -0.369  1.00  0.00    -0.474 OA
BRANCH  15  16
ATOM     16  C   UNL     1       2.534  -0.676   0.045  1.00  0.00     0.197 A 
ATOM     17  C   UNL     1       3.606  -0.921  -0.810  1.00  0.00     0.054 A 
ATOM     18  C   UNL     1       2.774  -0.780   1.427  1.00  0.00     0.310 A 
ATOM     19  C   UNL     1       4.798  -1.474  -0.328  1.00  0.00     0.004 A 
ATOM     20  C   UNL     1       3.971  -1.326   1.922  1.00  0.00     0.090 A 
ATOM     21  C   UNL     1       4.965  -1.717   1.032  1.00  0.00     0.007 A 
BRANCH  18  22
ATOM     22  N   UNL     1       1.812  -0.267   2.405  1.00  0.00     0.066 N 
ATOM     23  O   UNL     1       1.779  -0.822   3.513  1.00  0.00    -0.258 OA
ATOM     24  O   UNL     1       1.128   0.719   2.096  1.00  0.00    -0.258 OA
ENDBRANCH  18  22
ENDBRANCH  15  16
ENDBRANCH  13  15
ENDBRANCH  11  13
ENDBRANCH   6  11
ENDBRANCH   1   5
BRANCH   3  25
ATOM     25  C   UNL     1      -3.475   0.901  -0.264  1.00  0.00     0.117 C 
BRANCH  25  26
ATOM     26  C   UNL     1      -4.806   0.896  -0.992  1.00  0.00     0.042 C 
BRANCH  26  27
ATOM     27  C   UNL     1      -5.354   2.288  -1.222  1.00  0.00     0.118 C 
BRANCH  27  28
ATOM     28  N   UNL     1      -4.557   3.062  -2.169  1.00  0.00    -0.352 N 
ATOM     29  C   UNL     1      -4.913   3.691  -3.340  1.00  0.00     0.251 C 
ATOM     30  H   UNL     1      -3.606   3.147  -1.931  1.00  0.00     0.163 HD
ATOM     31  O   UNL     1      -4.057   4.200  -4.048  1.00  0.00    -0.269 OA
BRANCH  29  32
ATOM     32  C   UNL     1      -6.330   3.721  -3.766  1.00  0.00     0.039 A 
ATOM     33  C   UNL     1      -6.632   3.557  -5.121  1.00  0.00     0.014 A 
ATOM     34  C   UNL     1      -7.358   3.892  -2.840  1.00  0.00     0.014 A 
ATOM     35  C   UNL     1      -7.965   3.486  -5.530  1.00  0.00     0.010 A 
ATOM     36  C   UNL     1      -8.675   3.690  -3.226  1.00  0.00     0.010 A 
ATOM     37  C   UNL     1      -8.996   3.507  -4.578  1.00  0.00    -0.014 A 
BRANCH  37  38
ATOM     38  C   UNL     1     -10.422   3.381  -4.965  1.00  0.00     0.031 A 
ATOM     39  C   UNL     1     -11.385   4.491  -4.634  1.00  0.00     0.074 A 
ATOM     40  C   UNL     1     -10.867   2.245  -5.535  1.00  0.00     0.049 A 
ATOM     41  N   UNL     1     -12.681   4.540  -4.803  1.00  0.00    -0.248 NA
ATOM     42  C   UNL     1     -10.820   5.688  -3.987  1.00  0.00     0.031 C 
ATOM     43  C   UNL     1     -10.044   1.078  -5.866  1.00  0.00     0.029 A 
ATOM     44  N   UNL     1     -12.127   1.885  -5.939  1.00  0.00    -0.354 N 
ATOM     45  C   UNL     1     -13.086   5.748  -4.250  1.00  0.00     0.074 A 
ATOM     46  C   UNL     1     -11.911   6.373  -3.686  1.00  0.00     0.031 C 
ATOM     47  C   UNL     1     -10.812   0.155  -6.467  1.00  0.00     0.029 A 
ATOM     48  C   UNL     1     -12.186   0.643  -6.521  1.00  0.00     0.049 A 
ATOM     49  H   UNL     1     -12.916   2.464  -5.822  1.00  0.00     0.167 HD
ATOM     50  C   UNL     1     -14.320   6.304  -4.233  1.00  0.00     0.031 A 
ATOM     51  C   UNL     1     -13.231  -0.026  -7.042  1.00  0.00     0.031 A 
ATOM     52  C   UNL     1     -15.479   5.698  -4.828  1.00  0.00     0.049 A 
ATOM     53  C   UNL     1     -14.591   0.613  -7.019  1.00  0.00     0.074 A 
ATOM     54  C   UNL     1     -16.759   6.210  -4.942  1.00  0.00     0.029 A 
ATOM     55  N   UNL     1     -15.493   4.441  -5.413  1.00  0.00    -0.354 N 
ATOM     56  N   UNL     1     -14.945   1.788  -6.558  1.00  0.00    -0.248 NA
ATOM     57  C   UNL     1     -15.694  -0.168  -7.596  1.00  0.00     0.031 C 
ATOM     58  C   UNL     1     -17.561   5.240  -5.553  1.00  0.00     0.029 A 
ATOM     59  C   UNL     1     -16.767   4.148  -5.867  1.00  0.00     0.049 A 
ATOM     60  H   UNL     1     -14.713   3.845  -5.493  1.00  0.00     0.167 HD
ATOM     61  C   UNL     1     -16.305   1.902  -6.816  1.00  0.00     0.074 A 
ATOM     62  C   UNL     1     -16.707   0.681  -7.485  1.00  0.00     0.031 C 
ATOM     63  C   UNL     1     -17.145   2.926  -6.530  1.00  0.00     0.031 A 
BRANCH  50  64
ATOM     64  C   UNL     1     -14.468   7.631  -3.540  1.00  0.00    -0.014 A 
ATOM     65  C   UNL     1     -13.880   8.798  -4.056  1.00  0.00     0.009 A 
ATOM     66  C   UNL     1     -15.204   7.715  -2.349  1.00  0.00     0.009 A 
ATOM     67  C   UNL     1     -13.980  10.008  -3.366  1.00  0.00     0.001 A 
ATOM     68  C   UNL     1     -15.332   8.934  -1.678  1.00  0.00     0.001 A 
ATOM     69  C   UNL     1     -14.709  10.075  -2.180  1.00  0.00     0.000 A 
ENDBRANCH  50  64
BRANCH  51  70
ATOM     70  C   UNL     1     -13.025  -1.355  -7.673  1.00  0.00    -0.014 A 
ATOM     71  C   UNL     1     -13.112  -1.493  -9.067  1.00  0.00     0.009 A 
ATOM     72  C   UNL     1     -12.738  -2.488  -6.896  1.00  0.00     0.009 A 
ATOM     73  C   UNL     1     -12.938  -2.741  -9.669  1.00  0.00     0.001 A 
ATOM     74  C   UNL     1     -12.537  -3.730  -7.504  1.00  0.00     0.001 A 
ATOM     75  C   UNL     1     -12.646  -3.857  -8.888  1.00  0.00     0.000 A 
ENDBRANCH  51  70
BRANCH  63  76
ATOM     76  C   UNL     1     -18.573   2.784  -6.972  1.00  0.00    -0.014 A 
ATOM     77  C   UNL     1     -19.454   1.908  -6.320  1.00  0.00     0.009 A 
ATOM     78  C   UNL     1     -19.051   3.572  -8.031  1.00  0.00     0.009 A 
ATOM     79  C   UNL     1     -20.781   1.801  -6.743  1.00  0.00     0.001 A 
ATOM     80  C   UNL     1     -20.385   3.484  -8.431  1.00  0.00     0.001 A 
ATOM     81  C   UNL     1     -21.245   2.593  -7.793  1.00  0.00     0.000 A 
ENDBRANCH  63  76
ENDBRANCH  37  38
ENDBRANCH  29  32
ENDBRANCH  27  28
ENDBRANCH  26  27
ENDBRANCH  25  26
ENDBRANCH   3  25
TORSDOF 15
