REMARK SMILES N#CCCn1cc(C(=O)NCCCNC(=O)c2ccc(-c3c4nc(c(-c5ccccc5)c5ccc([nH]5)c(-c5ccccc5)c5nc(c(-c6ccccc6)c6ccc3[nH]6)C=C5)C=C4)cc2)c(-c2cccc([N+](=O)[O-])c2)n1
REMARK SMILES IDX 11 1 10 2 8 3 9 4 7 6 5 7 6 8 75 9 65 10 4 11 3 12 2 13 1 14
REMARK SMILES IDX 66 15 67 16 74 17 68 18 70 19 69 20 71 21 72 22 73 23 12 24
REMARK SMILES IDX 13 25 14 26 15 27 16 29 17 30 18 31 64 32 19 33 63 34 20 35
REMARK SMILES IDX 21 36 22 37 57 38 23 39 62 40 56 41 58 42 24 43 61 44 55 45
REMARK SMILES IDX 54 46 25 48 47 49 32 50 46 51 33 52 36 53 45 54 59 55 34 56
REMARK SMILES IDX 35 57 44 59 60 60 37 61 26 62 27 63 31 64 28 65 30 66 29 67
REMARK SMILES IDX 48 68 49 69 53 70 50 71 52 72 51 73 38 74 39 75 43 76 40 77
REMARK SMILES IDX 42 78 41 79
REMARK H PARENT 10 5 14 28 58 47 36 58
REMARK Flexibility Score: inf
ROOT
ATOM      1  C   UNL     1       1.678   0.202   4.293  1.00  0.00     0.118 C 
ENDROOT
BRANCH   1   2
ATOM      2  N   UNL     1       1.980   1.423   5.026  1.00  0.00    -0.352 N 
ATOM      3  C   UNL     1       2.631   2.575   4.648  1.00  0.00     0.255 C 
ATOM      4  O   UNL     1       2.624   3.502   5.457  1.00  0.00    -0.269 OA
ATOM      5  H   UNL     1       1.662   1.425   5.957  1.00  0.00     0.163 HD
BRANCH   3   6
ATOM      6  C   UNL     1       3.261   2.680   3.340  1.00  0.00     0.085 A 
ATOM      7  N   UNL     1       3.997   2.210   1.322  1.00  0.00    -0.270 N 
ATOM      8  C   UNL     1       3.706   1.662   2.528  1.00  0.00     0.123 A 
ATOM      9  N   UNL     1       4.039   3.552   1.360  1.00  0.00    -0.172 NA
ATOM     10  C   UNL     1       3.632   3.859   2.608  1.00  0.00     0.105 A 
BRANCH   7  11
ATOM     11  C   UNL     1       4.260   1.481   0.090  1.00  0.00     0.159 C 
BRANCH  11  12
ATOM     12  C   UNL     1       3.714   0.042   0.061  1.00  0.00     0.144 C 
BRANCH  12  13
ATOM     13  C   UNL     1       2.194   0.042   0.061  1.00  0.00     0.064 C 
ATOM     14  N   UNL     1       0.933   0.042   0.061  1.00  0.00    -0.198 NA
ENDBRANCH  12  13
ENDBRANCH  11  12
ENDBRANCH   7  11
BRANCH  10  15
ATOM     15  C   UNL     1       3.615   5.239   3.092  1.00  0.00     0.010 A 
ATOM     16  C   UNL     1       4.362   5.571   4.236  1.00  0.00     0.011 A 
ATOM     17  C   UNL     1       2.832   6.220   2.475  1.00  0.00     0.096 A 
ATOM     18  C   UNL     1       4.287   6.845   4.801  1.00  0.00     0.008 A 
ATOM     19  C   UNL     1       2.760   7.500   3.050  1.00  0.00     0.270 A 
ATOM     20  C   UNL     1       3.477   7.812   4.215  1.00  0.00     0.085 A 
BRANCH  19  21
ATOM     21  N   UNL     1       1.902   8.526   2.444  1.00  0.00     0.062 N 
ATOM     22  O   UNL     1       1.837   9.629   3.006  1.00  0.00    -0.258 OA
ATOM     23  O   UNL     1       1.290   8.231   1.408  1.00  0.00    -0.258 OA
ENDBRANCH  19  21
ENDBRANCH  10  15
ENDBRANCH   3   6
ENDBRANCH   1   2
BRANCH   1  24
ATOM     24  C   UNL     1       2.736  -0.888   4.513  1.00  0.00     0.042 C 
BRANCH  24  25
ATOM     25  C   UNL     1       2.580  -1.589   5.850  1.00  0.00     0.118 C 
BRANCH  25  26
ATOM     26  N   UNL     1       1.361  -2.394   5.913  1.00  0.00    -0.352 N 
ATOM     27  C   UNL     1       0.826  -3.064   6.991  1.00  0.00     0.251 C 
ATOM     28  H   UNL     1       0.855  -2.468   5.072  1.00  0.00     0.163 HD
ATOM     29  O   UNL     1      -0.001  -3.958   6.825  1.00  0.00    -0.269 OA
BRANCH  27  30
ATOM     30  C   UNL     1       1.269  -2.708   8.347  1.00  0.00     0.039 A 
ATOM     31  C   UNL     1       1.499  -3.692   9.314  1.00  0.00     0.014 A 
ATOM     32  C   UNL     1       1.494  -1.366   8.632  1.00  0.00     0.014 A 
ATOM     33  C   UNL     1       2.045  -3.318  10.539  1.00  0.00     0.010 A 
ATOM     34  C   UNL     1       2.189  -1.023   9.761  1.00  0.00     0.010 A 
ATOM     35  C   UNL     1       2.411  -1.981  10.747  1.00  0.00    -0.014 A 
BRANCH  35  36
ATOM     36  C   UNL     1       3.131  -1.571  11.948  1.00  0.00     0.031 A 
ATOM     37  C   UNL     1       4.407  -2.294  12.198  1.00  0.00     0.074 A 
ATOM     38  C   UNL     1       2.808  -0.450  12.630  1.00  0.00     0.049 A 
ATOM     39  N   UNL     1       4.714  -3.026  13.216  1.00  0.00    -0.248 NA
ATOM     40  C   UNL     1       5.432  -2.288  11.139  1.00  0.00     0.031 C 
ATOM     41  C   UNL     1       1.768   0.535  12.304  1.00  0.00     0.029 A 
ATOM     42  N   UNL     1       3.452   0.134  13.675  1.00  0.00    -0.354 N 
ATOM     43  C   UNL     1       6.036  -3.420  13.027  1.00  0.00     0.074 A 
ATOM     44  C   UNL     1       6.365  -3.085  11.664  1.00  0.00     0.031 C 
ATOM     45  C   UNL     1       2.026   1.693  12.948  1.00  0.00     0.029 A 
ATOM     46  C   UNL     1       3.132   1.474  13.861  1.00  0.00     0.049 A 
ATOM     47  H   UNL     1       4.089  -0.349  14.250  1.00  0.00     0.167 HD
ATOM     48  C   UNL     1       6.835  -3.757  14.077  1.00  0.00     0.031 A 
ATOM     49  C   UNL     1       3.756   2.357  14.677  1.00  0.00     0.031 A 
ATOM     50  C   UNL     1       6.069  -3.982  15.277  1.00  0.00     0.049 A 
ATOM     51  C   UNL     1       4.521   1.573  15.671  1.00  0.00     0.074 A 
ATOM     52  C   UNL     1       5.051  -4.840  15.638  1.00  0.00     0.029 A 
ATOM     53  N   UNL     1       6.059  -2.970  16.207  1.00  0.00    -0.354 N 
ATOM     54  N   UNL     1       3.961   0.841  16.589  1.00  0.00    -0.248 NA
ATOM     55  C   UNL     1       5.908   1.251  15.377  1.00  0.00     0.031 C 
ATOM     56  C   UNL     1       4.186  -4.056  16.458  1.00  0.00     0.029 A 
ATOM     57  C   UNL     1       4.762  -2.793  16.611  1.00  0.00     0.049 A 
ATOM     58  H   UNL     1       6.841  -2.463  16.525  1.00  0.00     0.167 HD
ATOM     59  C   UNL     1       4.744  -0.302  16.648  1.00  0.00     0.074 A 
ATOM     60  C   UNL     1       5.991   0.060  15.978  1.00  0.00     0.031 C 
ATOM     61  C   UNL     1       4.195  -1.512  16.970  1.00  0.00     0.031 A 
BRANCH  48  62
ATOM     62  C   UNL     1       8.317  -3.465  14.133  1.00  0.00    -0.014 A 
ATOM     63  C   UNL     1       9.042  -3.875  15.268  1.00  0.00     0.009 A 
ATOM     64  C   UNL     1       8.960  -2.558  13.270  1.00  0.00     0.009 A 
ATOM     65  C   UNL     1      10.300  -3.337  15.565  1.00  0.00     0.001 A 
ATOM     66  C   UNL     1      10.234  -2.052  13.540  1.00  0.00     0.001 A 
ATOM     67  C   UNL     1      10.891  -2.417  14.705  1.00  0.00     0.000 A 
ENDBRANCH  48  62
BRANCH  49  68
ATOM     68  C   UNL     1       3.922   3.818  14.522  1.00  0.00    -0.014 A 
ATOM     69  C   UNL     1       4.311   4.612  15.611  1.00  0.00     0.009 A 
ATOM     70  C   UNL     1       3.958   4.400  13.241  1.00  0.00     0.009 A 
ATOM     71  C   UNL     1       4.766   5.924  15.419  1.00  0.00     0.001 A 
ATOM     72  C   UNL     1       4.406   5.711  13.050  1.00  0.00     0.001 A 
ATOM     73  C   UNL     1       4.829   6.467  14.138  1.00  0.00     0.000 A 
ENDBRANCH  49  68
BRANCH  61  74
ATOM     74  C   UNL     1       2.779  -1.528  17.495  1.00  0.00    -0.014 A 
ATOM     75  C   UNL     1       1.678  -1.057  16.757  1.00  0.00     0.009 A 
ATOM     76  C   UNL     1       2.530  -2.179  18.712  1.00  0.00     0.009 A 
ATOM     77  C   UNL     1       0.373  -1.202  17.240  1.00  0.00     0.001 A 
ATOM     78  C   UNL     1       1.226  -2.344  19.184  1.00  0.00     0.001 A 
ATOM     79  C   UNL     1       0.148  -1.850  18.452  1.00  0.00     0.000 A 
ENDBRANCH  61  74
ENDBRANCH  35  36
ENDBRANCH  27  30
ENDBRANCH  25  26
ENDBRANCH  24  25
ENDBRANCH   1  24
TORSDOF 15
