REMARK SMILES Cc1ccc(C(=O)NCCCNC(=O)c2ccc(-c3c4nc(c(-c5ccccc5)c5ccc([nH]5)c(-c5ccccc5)c5nc(c(-c6ccccc6)c6ccc3[nH]6)C=C5)C=C4)cc2)cc1NC(=O)c1ccc(Br)o1
REMARK SMILES IDX 10 1 9 2 8 3 6 4 7 5 5 7 1 8 2 9 3 10 64 11 4 12 63 13 65 14
REMARK SMILES IDX 66 15 67 17 68 18 69 19 73 20 70 21 71 22 72 23 11 24 12 25
REMARK SMILES IDX 13 26 14 28 15 29 16 30 62 31 17 32 61 33 18 34 19 35 20 36
REMARK SMILES IDX 55 37 21 38 60 39 54 40 56 41 22 42 59 43 53 44 52 45 23 47
REMARK SMILES IDX 45 48 30 49 44 50 31 51 34 52 43 53 57 54 32 55 33 56 42 58
REMARK SMILES IDX 58 59 35 60 24 61 25 62 29 63 26 64 28 65 27 66 46 67 47 68
REMARK SMILES IDX 51 69 48 70 50 71 49 72 36 73 37 74 41 75 38 76 40 77 39 78
REMARK H PARENT 8 6 65 16 12 27 56 46 34 57
REMARK Flexibility Score: inf
ROOT
ATOM      1  C   UNL     1      -3.707   2.905  -1.873  1.00  0.00     0.042 C 
ENDROOT
BRANCH   1   2
ATOM      2  C   UNL     1      -3.204   2.322  -0.574  1.00  0.00     0.118 C 
BRANCH   2   3
ATOM      3  N   UNL     1      -3.693   0.989  -0.273  1.00  0.00    -0.352 N 
ATOM      4  C   UNL     1      -3.012  -0.143   0.119  1.00  0.00     0.251 C 
ATOM      5  O   UNL     1      -3.650  -1.172   0.328  1.00  0.00    -0.269 OA
ATOM      6  H   UNL     1      -4.667   0.876  -0.364  1.00  0.00     0.163 HD
BRANCH   4   7
ATOM      7  C   UNL     1      -1.524  -0.176   0.229  1.00  0.00     0.041 A 
ATOM      8  C   UNL     1       2.775  -0.463   0.035  1.00  0.00     0.046 C 
ATOM      9  C   UNL     1       1.281  -0.277   0.145  1.00  0.00    -0.027 A 
ATOM     10  C   UNL     1       0.507  -1.433  -0.080  1.00  0.00     0.006 A 
ATOM     11  C   UNL     1       0.636   0.943   0.459  1.00  0.00     0.045 A 
ATOM     12  C   UNL     1      -0.883  -1.376  -0.074  1.00  0.00     0.014 A 
ATOM     13  C   UNL     1      -0.750   0.935   0.597  1.00  0.00     0.040 A 
BRANCH  11  14
ATOM     14  N   UNL     1       1.414   2.113   0.540  1.00  0.00    -0.319 N 
ATOM     15  C   UNL     1       1.211   3.473   0.487  1.00  0.00     0.291 C 
ATOM     16  H   UNL     1       2.366   1.900   0.671  1.00  0.00     0.170 HD
ATOM     17  O   UNL     1       2.248   4.125   0.320  1.00  0.00    -0.265 OA
BRANCH  15  18
ATOM     18  C   UNL     1      -0.061   4.147   0.579  1.00  0.00     0.193 A 
ATOM     19  C   UNL     1      -1.044   4.223   1.552  1.00  0.00     0.057 A 
ATOM     20  O   UNL     1      -0.300   5.114  -0.363  1.00  0.00    -0.444 OA
ATOM     21  C   UNL     1      -1.899   5.303   1.194  1.00  0.00     0.059 A 
ATOM     22  C   UNL     1      -1.374   5.835   0.038  1.00  0.00     0.170 A 
ATOM     23  Br  UNL     1      -1.974   7.364  -0.843  1.00  0.00    -0.008 Br
ENDBRANCH  15  18
ENDBRANCH  11  14
ENDBRANCH   4   7
ENDBRANCH   2   3
ENDBRANCH   1   2
BRANCH   1  24
ATOM     24  C   UNL     1      -4.949   3.758  -1.712  1.00  0.00     0.118 C 
BRANCH  24  25
ATOM     25  N   UNL     1      -4.703   5.068  -1.093  1.00  0.00    -0.352 N 
ATOM     26  C   UNL     1      -5.475   6.223  -1.106  1.00  0.00     0.251 C 
ATOM     27  H   UNL     1      -3.860   5.139  -0.590  1.00  0.00     0.163 HD
ATOM     28  O   UNL     1      -5.244   7.147  -0.339  1.00  0.00    -0.269 OA
BRANCH  26  29
ATOM     29  C   UNL     1      -6.691   6.248  -1.947  1.00  0.00     0.039 A 
ATOM     30  C   UNL     1      -7.886   6.230  -1.225  1.00  0.00     0.014 A 
ATOM     31  C   UNL     1      -6.606   5.709  -3.222  1.00  0.00     0.014 A 
ATOM     32  C   UNL     1      -8.846   5.299  -1.583  1.00  0.00     0.010 A 
ATOM     33  C   UNL     1      -7.514   4.714  -3.526  1.00  0.00     0.010 A 
ATOM     34  C   UNL     1      -8.562   4.436  -2.639  1.00  0.00    -0.014 A 
BRANCH  34  35
ATOM     35  C   UNL     1      -9.269   3.174  -2.810  1.00  0.00     0.031 A 
ATOM     36  C   UNL     1     -10.294   3.106  -3.857  1.00  0.00     0.074 A 
ATOM     37  C   UNL     1      -9.093   2.116  -1.984  1.00  0.00     0.049 A 
ATOM     38  N   UNL     1     -11.447   2.551  -3.701  1.00  0.00    -0.248 NA
ATOM     39  C   UNL     1     -10.117   3.753  -5.150  1.00  0.00     0.031 C 
ATOM     40  C   UNL     1      -9.705   0.794  -2.120  1.00  0.00     0.029 A 
ATOM     41  N   UNL     1      -8.502   2.081  -0.722  1.00  0.00    -0.354 N 
ATOM     42  C   UNL     1     -12.038   2.514  -4.941  1.00  0.00     0.074 A 
ATOM     43  C   UNL     1     -11.227   3.367  -5.779  1.00  0.00     0.031 C 
ATOM     44  C   UNL     1      -9.741   0.210  -0.911  1.00  0.00     0.029 A 
ATOM     45  C   UNL     1      -9.233   1.166   0.057  1.00  0.00     0.049 A 
ATOM     46  H   UNL     1      -7.718   2.600  -0.430  1.00  0.00     0.167 HD
ATOM     47  C   UNL     1     -13.053   1.641  -5.185  1.00  0.00     0.031 A 
ATOM     48  C   UNL     1      -9.795   1.465   1.263  1.00  0.00     0.031 A 
ATOM     49  C   UNL     1     -13.384   0.846  -4.004  1.00  0.00     0.049 A 
ATOM     50  C   UNL     1     -11.299   1.290   1.267  1.00  0.00     0.074 A 
ATOM     51  C   UNL     1     -13.018  -0.433  -3.615  1.00  0.00     0.029 A 
ATOM     52  N   UNL     1     -13.922   1.461  -2.879  1.00  0.00    -0.354 N 
ATOM     53  N   UNL     1     -12.004   1.081   0.191  1.00  0.00    -0.248 NA
ATOM     54  C   UNL     1     -12.135   1.439   2.458  1.00  0.00     0.031 C 
ATOM     55  C   UNL     1     -13.284  -0.564  -2.230  1.00  0.00     0.029 A 
ATOM     56  C   UNL     1     -13.834   0.624  -1.781  1.00  0.00     0.049 A 
ATOM     57  H   UNL     1     -14.312   2.365  -2.866  1.00  0.00     0.167 HD
ATOM     58  C   UNL     1     -13.338   1.137   0.498  1.00  0.00     0.074 A 
ATOM     59  C   UNL     1     -13.370   1.329   1.935  1.00  0.00     0.031 C 
ATOM     60  C   UNL     1     -14.297   1.063  -0.470  1.00  0.00     0.031 A 
BRANCH  47  61
ATOM     61  C   UNL     1     -13.478   1.284  -6.588  1.00  0.00    -0.014 A 
ATOM     62  C   UNL     1     -13.967  -0.005  -6.858  1.00  0.00     0.009 A 
ATOM     63  C   UNL     1     -13.361   2.143  -7.695  1.00  0.00     0.009 A 
ATOM     64  C   UNL     1     -14.207  -0.447  -8.166  1.00  0.00     0.001 A 
ATOM     65  C   UNL     1     -13.546   1.695  -9.009  1.00  0.00     0.001 A 
ATOM     66  C   UNL     1     -13.958   0.392  -9.245  1.00  0.00     0.000 A 
ENDBRANCH  47  61
BRANCH  48  67
ATOM     67  C   UNL     1      -9.075   2.535   2.002  1.00  0.00    -0.014 A 
ATOM     68  C   UNL     1      -7.772   2.249   2.457  1.00  0.00     0.009 A 
ATOM     69  C   UNL     1      -9.462   3.874   1.858  1.00  0.00     0.009 A 
ATOM     70  C   UNL     1      -6.828   3.269   2.595  1.00  0.00     0.001 A 
ATOM     71  C   UNL     1      -8.516   4.892   2.017  1.00  0.00     0.001 A 
ATOM     72  C   UNL     1      -7.192   4.587   2.331  1.00  0.00     0.000 A 
ENDBRANCH  48  67
BRANCH  60  73
ATOM     73  C   UNL     1     -15.768   1.328  -0.271  1.00  0.00    -0.014 A 
ATOM     74  C   UNL     1     -16.297   2.129   0.750  1.00  0.00     0.009 A 
ATOM     75  C   UNL     1     -16.683   0.842  -1.232  1.00  0.00     0.009 A 
ATOM     76  C   UNL     1     -17.673   2.382   0.840  1.00  0.00     0.001 A 
ATOM     77  C   UNL     1     -18.048   1.132  -1.174  1.00  0.00     0.001 A 
ATOM     78  C   UNL     1     -18.546   1.890  -0.125  1.00  0.00     0.000 A 
ENDBRANCH  60  73
ENDBRANCH  34  35
ENDBRANCH  26  29
ENDBRANCH  24  25
ENDBRANCH   1  24
TORSDOF 12
