REMARK SMILES C[C@H]1CCCCN1C(=O)NC[C@H]1CC[C@H](C(=O)NCCCNC(=O)c2ccc(-c3c4nc(c(-c5ccccc5)c5ccc([nH]5)c(-c5ccccc5)c5nc(c(-c6ccccc6)c6ccc3[nH]6)C=C5)C=C4)cc2)O1
REMARK SMILES IDX 19 1 18 2 16 3 17 4 15 6 12 7 13 8 73 9 14 10 11 11 10 12
REMARK SMILES IDX 8 13 9 14 7 16 1 17 2 18 3 19 4 20 6 21 5 22 20 23 21 24
REMARK SMILES IDX 22 25 23 26 24 28 25 29 26 30 72 31 27 32 71 33 28 34 29 35
REMARK SMILES IDX 30 36 65 37 31 38 70 39 64 40 66 41 32 42 69 43 63 44 62 45
REMARK SMILES IDX 33 47 55 48 40 49 54 50 41 51 44 52 53 53 67 54 42 55 43 56
REMARK SMILES IDX 52 58 68 59 45 60 34 61 35 62 39 63 36 64 38 65 37 66 56 67
REMARK SMILES IDX 57 68 61 69 58 70 60 71 59 72 46 73 47 74 51 75 48 76 50 77
REMARK SMILES IDX 49 78
REMARK H PARENT 18 5 10 15 22 27 66 46 44 57
REMARK Flexibility Score: inf
ROOT
ATOM      1  C   UNL     1       4.595  -1.786  -3.756  1.00  0.00     0.117 C 
ENDROOT
BRANCH   1   2
ATOM      2  N   UNL     1       5.550  -2.870  -3.700  1.00  0.00    -0.354 N 
ATOM      3  C   UNL     1       6.067  -3.537  -2.631  1.00  0.00     0.249 C 
ATOM      4  O   UNL     1       6.875  -4.440  -2.871  1.00  0.00    -0.272 OA
ATOM      5  H   UNL     1       5.880  -3.176  -4.576  1.00  0.00     0.163 HD
BRANCH   3   6
ATOM      6  C   UNL     1       5.748  -3.137  -1.173  1.00  0.00     0.207 C 
ATOM      7  C   UNL     1       4.402  -1.417  -0.295  1.00  0.00     0.138 C 
ATOM      8  C   UNL     1       5.809  -0.864  -0.431  1.00  0.00     0.037 C 
ATOM      9  O   UNL     1       4.412  -2.734  -0.881  1.00  0.00    -0.363 OA
ATOM     10  C   UNL     1       6.690  -2.054  -0.685  1.00  0.00     0.045 C 
BRANCH   7  11
ATOM     11  C   UNL     1       3.776  -1.496   1.101  1.00  0.00     0.149 C 
BRANCH  11  12
ATOM     12  N   UNL     1       4.593  -2.174   2.070  1.00  0.00    -0.335 N 
ATOM     13  C   UNL     1       5.483  -1.961   3.025  1.00  0.00     0.317 C 
ATOM     14  O   UNL     1       5.808  -3.039   3.548  1.00  0.00    -0.249 OA
ATOM     15  H   UNL     1       4.434  -3.143   1.996  1.00  0.00     0.165 HD
BRANCH  13  16
ATOM     16  N   UNL     1       6.040  -0.780   3.425  1.00  0.00    -0.322 N 
ATOM     17  C   UNL     1       4.779   1.233   2.218  1.00  0.00     0.031 C 
ATOM     18  C   UNL     1       5.935   0.669   3.037  1.00  0.00     0.083 C 
ATOM     19  C   UNL     1       5.948   1.573   4.303  1.00  0.00     0.025 C 
ATOM     20  C   UNL     1       7.087   1.286   5.262  1.00  0.00     0.004 C 
ATOM     21  C   UNL     1       7.190  -1.003   4.335  1.00  0.00     0.121 C 
ATOM     22  C   UNL     1       7.091  -0.185   5.612  1.00  0.00     0.022 C 
ENDBRANCH  13  16
ENDBRANCH  11  12
ENDBRANCH   7  11
ENDBRANCH   3   6
ENDBRANCH   1   2
BRANCH   1  23
ATOM     23  C   UNL     1       5.274  -0.443  -3.994  1.00  0.00     0.042 C 
BRANCH  23  24
ATOM     24  C   UNL     1       5.512  -0.164  -5.470  1.00  0.00     0.118 C 
BRANCH  24  25
ATOM     25  N   UNL     1       4.262   0.044  -6.191  1.00  0.00    -0.352 N 
ATOM     26  C   UNL     1       3.879   1.075  -7.004  1.00  0.00     0.251 C 
ATOM     27  H   UNL     1       3.591  -0.667  -6.074  1.00  0.00     0.163 HD
ATOM     28  O   UNL     1       2.702   1.168  -7.356  1.00  0.00    -0.269 OA
BRANCH  26  29
ATOM     29  C   UNL     1       4.861   2.083  -7.450  1.00  0.00     0.039 A 
ATOM     30  C   UNL     1       4.463   3.420  -7.543  1.00  0.00     0.014 A 
ATOM     31  C   UNL     1       6.160   1.712  -7.805  1.00  0.00     0.014 A 
ATOM     32  C   UNL     1       5.381   4.388  -7.949  1.00  0.00     0.010 A 
ATOM     33  C   UNL     1       7.097   2.688  -8.120  1.00  0.00     0.010 A 
ATOM     34  C   UNL     1       6.712   4.032  -8.216  1.00  0.00    -0.014 A 
BRANCH  34  35
ATOM     35  C   UNL     1       7.714   5.038  -8.641  1.00  0.00     0.031 A 
ATOM     36  C   UNL     1       8.351   4.924  -9.999  1.00  0.00     0.074 A 
ATOM     37  C   UNL     1       8.098   6.005  -7.786  1.00  0.00     0.049 A 
ATOM     38  N   UNL     1       9.322   5.631 -10.518  1.00  0.00    -0.248 NA
ATOM     39  C   UNL     1       7.853   3.852 -10.878  1.00  0.00     0.031 C 
ATOM     40  C   UNL     1       7.577   6.197  -6.430  1.00  0.00     0.029 A 
ATOM     41  N   UNL     1       9.029   7.002  -7.928  1.00  0.00    -0.354 N 
ATOM     42  C   UNL     1       9.561   5.078 -11.770  1.00  0.00     0.074 A 
ATOM     43  C   UNL     1       8.677   3.943 -11.910  1.00  0.00     0.031 C 
ATOM     44  C   UNL     1       8.184   7.258  -5.874  1.00  0.00     0.029 A 
ATOM     45  C   UNL     1       9.164   7.792  -6.813  1.00  0.00     0.049 A 
ATOM     46  H   UNL     1       9.551   7.138  -8.752  1.00  0.00     0.167 HD
ATOM     47  C   UNL     1      10.422   5.492 -12.729  1.00  0.00     0.031 A 
ATOM     48  C   UNL     1       9.995   8.823  -6.571  1.00  0.00     0.031 A 
ATOM     49  C   UNL     1      11.289   6.630 -12.591  1.00  0.00     0.049 A 
ATOM     50  C   UNL     1      10.952   9.256  -7.648  1.00  0.00     0.074 A 
ATOM     51  C   UNL     1      12.171   7.159 -13.517  1.00  0.00     0.029 A 
ATOM     52  N   UNL     1      11.376   7.420 -11.455  1.00  0.00    -0.354 N 
ATOM     53  N   UNL     1      11.130   8.754  -8.846  1.00  0.00    -0.248 NA
ATOM     54  C   UNL     1      11.812  10.408  -7.343  1.00  0.00     0.031 C 
ATOM     55  C   UNL     1      12.825   8.243 -12.923  1.00  0.00     0.029 A 
ATOM     56  C   UNL     1      12.307   8.424 -11.651  1.00  0.00     0.049 A 
ATOM     57  H   UNL     1      10.853   7.285 -10.632  1.00  0.00     0.167 HD
ATOM     58  C   UNL     1      12.097   9.547  -9.449  1.00  0.00     0.074 A 
ATOM     59  C   UNL     1      12.456  10.572  -8.490  1.00  0.00     0.031 C 
ATOM     60  C   UNL     1      12.640   9.440 -10.686  1.00  0.00     0.031 A 
BRANCH  47  61
ATOM     61  C   UNL     1      10.463   4.707 -14.010  1.00  0.00    -0.014 A 
ATOM     62  C   UNL     1       9.386   4.732 -14.912  1.00  0.00     0.009 A 
ATOM     63  C   UNL     1      11.604   3.959 -14.339  1.00  0.00     0.009 A 
ATOM     64  C   UNL     1       9.437   3.996 -16.097  1.00  0.00     0.001 A 
ATOM     65  C   UNL     1      11.665   3.248 -15.539  1.00  0.00     0.001 A 
ATOM     66  C   UNL     1      10.578   3.260 -16.412  1.00  0.00     0.000 A 
ENDBRANCH  47  61
BRANCH  48  67
ATOM     67  C   UNL     1       9.960   9.520  -5.259  1.00  0.00    -0.014 A 
ATOM     68  C   UNL     1       9.483  10.836  -5.161  1.00  0.00     0.009 A 
ATOM     69  C   UNL     1      10.416   8.877  -4.097  1.00  0.00     0.009 A 
ATOM     70  C   UNL     1       9.496  11.506  -3.935  1.00  0.00     0.001 A 
ATOM     71  C   UNL     1      10.399   9.538  -2.867  1.00  0.00     0.001 A 
ATOM     72  C   UNL     1       9.951  10.855  -2.789  1.00  0.00     0.000 A 
ENDBRANCH  48  67
BRANCH  60  73
ATOM     73  C   UNL     1      13.640  10.484 -11.092  1.00  0.00    -0.014 A 
ATOM     74  C   UNL     1      14.935  10.506 -10.552  1.00  0.00     0.009 A 
ATOM     75  C   UNL     1      13.293  11.427 -12.073  1.00  0.00     0.009 A 
ATOM     76  C   UNL     1      15.852  11.474 -10.964  1.00  0.00     0.001 A 
ATOM     77  C   UNL     1      14.222  12.374 -12.504  1.00  0.00     0.001 A 
ATOM     78  C   UNL     1      15.498  12.402 -11.944  1.00  0.00     0.000 A 
ENDBRANCH  60  73
ENDBRANCH  34  35
ENDBRANCH  26  29
ENDBRANCH  24  25
ENDBRANCH  23  24
ENDBRANCH   1  23
TORSDOF 13
