REMARK SMILES COC(=O)[C@H]1CC[C@]2(C)[C@H]3CC=C4[C@@H]5CC(C)(C)CC[C@@]5(C(=O)NCCCNC(=O)c5ccc(-c6c7nc(c(-c8ccccc8)c8ccc([nH]8)c(-c8ccccc8)c8nc(c(-c9ccccc9)c9ccc6[nH]9)C=C8)C=C7)cc5)CC[C@@]4(C)[C@@]3(C)CC[C@H]2C1(C)C
REMARK SMILES IDX 26 1 25 2 24 3 22 4 23 5 21 7 5 8 6 9 88 10 7 11 87 12 89 13
REMARK SMILES IDX 90 14 8 15 86 16 9 17 10 18 85 19 11 20 83 21 12 22 81 23
REMARK SMILES IDX 84 24 13 25 80 26 82 27 14 28 79 29 15 30 16 31 20 32 17 33
REMARK SMILES IDX 18 34 19 35 3 36 4 37 2 38 1 39 27 40 28 41 29 42 30 44
REMARK SMILES IDX 31 45 32 46 78 47 33 48 77 49 34 50 35 51 36 52 71 53 37 54
REMARK SMILES IDX 76 55 70 56 72 57 38 58 75 59 69 60 68 61 39 63 61 64 46 65
REMARK SMILES IDX 60 66 47 67 50 68 59 69 73 70 48 71 49 72 58 74 74 75 51 76
REMARK SMILES IDX 40 77 41 78 45 79 42 80 44 81 43 82 62 83 63 84 67 85 64 86
REMARK SMILES IDX 66 87 65 88 52 89 53 90 57 91 54 92 56 93 55 94
REMARK H PARENT 24 6 28 43 72 62 50 73
REMARK Flexibility Score: inf
ROOT
ATOM      1  C   UNL     1      -7.270  -5.663  -4.469  1.00  0.00     0.042 C 
ENDROOT
BRANCH   1   2
ATOM      2  C   UNL     1      -6.204  -5.097  -5.404  1.00  0.00     0.117 C 
BRANCH   2   3
ATOM      3  N   UNL     1      -5.310  -6.078  -5.984  1.00  0.00    -0.356 N 
ATOM      4  C   UNL     1      -3.990  -6.005  -6.332  1.00  0.00     0.226 C 
ATOM      5  O   UNL     1      -3.584  -6.938  -7.033  1.00  0.00    -0.274 OA
ATOM      6  H   UNL     1      -5.728  -6.952  -6.159  1.00  0.00     0.163 HD
BRANCH   4   7
ATOM      7  C   UNL     1      -3.037  -4.856  -5.885  1.00  0.00     0.056 C 
ATOM      8  C   UNL     1       1.486  -3.617   0.870  1.00  0.00     0.105 C 
ATOM      9  C   UNL     1       2.140  -5.056   0.846  1.00  0.00     0.016 C 
ATOM     10  C   UNL     1       0.411  -3.285  -0.250  1.00  0.00    -0.019 C 
ATOM     11  C   UNL     1       1.986  -5.972  -0.399  1.00  0.00     0.008 C 
ATOM     12  C   UNL     1       0.719  -4.248  -1.445  1.00  0.00     0.002 C 
ATOM     13  C   UNL     1      -1.083  -3.333   0.184  1.00  0.00     0.012 C 
ATOM     14  C   UNL     1       0.629  -1.801  -0.677  1.00  0.00     0.012 C 
ATOM     15  C   UNL     1       0.611  -5.775  -1.090  1.00  0.00    -0.026 C 
ATOM     16  C   UNL     1       0.071  -3.918  -2.761  1.00  0.00     0.005 C 
ATOM     17  C   UNL     1      -0.411  -6.155   0.021  1.00  0.00     0.012 C 
ATOM     18  C   UNL     1       0.393  -6.791  -2.354  1.00  0.00     0.006 C 
ATOM     19  C   UNL     1       0.763  -4.664  -3.892  1.00  0.00     0.008 C 
ATOM     20  C   UNL     1      -0.954  -7.643  -2.267  1.00  0.00     0.032 C 
ATOM     21  C   UNL     1       0.602  -6.203  -3.872  1.00  0.00    -0.020 C 
ATOM     22  C   UNL     1      -2.104  -6.921  -2.902  1.00  0.00    -0.027 C 
ATOM     23  C   UNL     1      -0.624  -6.656  -4.855  1.00  0.00    -0.006 C 
ATOM     24  C   UNL     1       1.954  -6.764  -4.401  1.00  0.00     0.012 C 
ATOM     25  C   UNL     1      -1.893  -6.284  -4.067  1.00  0.00    -0.064 C 
ATOM     26  C   UNL     1      -0.704  -6.079  -6.319  1.00  0.00     0.013 C 
ATOM     27  C   UNL     1      -0.487  -8.201  -5.157  1.00  0.00     0.017 C 
ATOM     28  C   UNL     1      -2.600  -4.965  -4.427  1.00  0.00     0.031 C 
ATOM     29  C   UNL     1      -1.682  -4.941  -6.681  1.00  0.00     0.018 C 
ATOM     30  C   UNL     1      -3.569  -4.386  -3.386  1.00  0.00     0.015 C 
ATOM     31  C   UNL     1      -3.903  -2.886  -3.596  1.00  0.00    -0.035 C 
ATOM     32  C   UNL     1      -3.655  -3.463  -6.211  1.00  0.00     0.018 C 
ATOM     33  C   UNL     1      -5.288  -2.578  -2.974  1.00  0.00     0.011 C 
ATOM     34  C   UNL     1      -2.927  -2.000  -2.782  1.00  0.00     0.011 C 
ATOM     35  C   UNL     1      -3.805  -2.428  -5.076  1.00  0.00     0.007 C 
BRANCH   8  36
ATOM     36  C   UNL     1       1.027  -3.230   2.288  1.00  0.00     0.309 C 
ATOM     37  O   UNL     1       0.132  -2.438   2.551  1.00  0.00    -0.252 OA
BRANCH  36  38
ATOM     38  O   UNL     1       1.793  -3.843   3.234  1.00  0.00    -0.469 OA
ATOM     39  C   UNL     1       1.337  -3.654   4.573  1.00  0.00     0.282 C 
ENDBRANCH  36  38
ENDBRANCH   8  36
ENDBRANCH   4   7
ENDBRANCH   2   3
ENDBRANCH   1   2
BRANCH   1  40
ATOM     40  C   UNL     1      -6.730  -6.482  -3.291  1.00  0.00     0.118 C 
BRANCH  40  41
ATOM     41  N   UNL     1      -6.717  -5.802  -1.996  1.00  0.00    -0.352 N 
ATOM     42  C   UNL     1      -7.708  -5.319  -1.175  1.00  0.00     0.251 C 
ATOM     43  H   UNL     1      -5.811  -5.662  -1.638  1.00  0.00     0.163 HD
ATOM     44  O   UNL     1      -7.392  -4.818  -0.095  1.00  0.00    -0.269 OA
BRANCH  42  45
ATOM     45  C   UNL     1      -9.133  -5.304  -1.585  1.00  0.00     0.039 A 
ATOM     46  C   UNL     1      -9.931  -4.219  -1.197  1.00  0.00     0.014 A 
ATOM     47  C   UNL     1      -9.692  -6.308  -2.367  1.00  0.00     0.014 A 
ATOM     48  C   UNL     1     -11.240  -4.097  -1.677  1.00  0.00     0.010 A 
ATOM     49  C   UNL     1     -10.946  -6.128  -2.940  1.00  0.00     0.010 A 
ATOM     50  C   UNL     1     -11.736  -5.018  -2.611  1.00  0.00    -0.014 A 
BRANCH  50  51
ATOM     51  C   UNL     1     -13.056  -4.859  -3.280  1.00  0.00     0.031 A 
ATOM     52  C   UNL     1     -14.055  -5.988  -3.253  1.00  0.00     0.074 A 
ATOM     53  C   UNL     1     -13.299  -3.775  -4.043  1.00  0.00     0.049 A 
ATOM     54  N   UNL     1     -15.135  -6.158  -3.973  1.00  0.00    -0.248 NA
ATOM     55  C   UNL     1     -13.760  -7.107  -2.343  1.00  0.00     0.031 C 
ATOM     56  C   UNL     1     -12.395  -2.637  -4.226  1.00  0.00     0.029 A 
ATOM     57  N   UNL     1     -14.380  -3.466  -4.832  1.00  0.00    -0.354 N 
ATOM     58  C   UNL     1     -15.595  -7.433  -3.666  1.00  0.00     0.074 A 
ATOM     59  C   UNL     1     -14.660  -8.002  -2.721  1.00  0.00     0.031 C 
ATOM     60  C   UNL     1     -12.969  -1.743  -5.046  1.00  0.00     0.029 A 
ATOM     61  C   UNL     1     -14.257  -2.264  -5.488  1.00  0.00     0.049 A 
ATOM     62  H   UNL     1     -15.168  -4.049  -4.920  1.00  0.00     0.167 HD
ATOM     63  C   UNL     1     -16.703  -8.069  -4.117  1.00  0.00     0.031 A 
ATOM     64  C   UNL     1     -15.081  -1.653  -6.359  1.00  0.00     0.031 A 
ATOM     65  C   UNL     1     -17.681  -7.467  -4.983  1.00  0.00     0.049 A 
ATOM     66  C   UNL     1     -16.368  -2.322  -6.747  1.00  0.00     0.074 A 
ATOM     67  C   UNL     1     -18.895  -7.981  -5.405  1.00  0.00     0.029 A 
ATOM     68  N   UNL     1     -17.566  -6.202  -5.538  1.00  0.00    -0.354 N 
ATOM     69  N   UNL     1     -16.814  -3.507  -6.409  1.00  0.00    -0.248 NA
ATOM     70  C   UNL     1     -17.268  -1.565  -7.628  1.00  0.00     0.031 C 
ATOM     71  C   UNL     1     -19.506  -7.032  -6.232  1.00  0.00     0.029 A 
ATOM     72  C   UNL     1     -18.688  -5.916  -6.296  1.00  0.00     0.049 A 
ATOM     73  H   UNL     1     -16.799  -5.597  -5.412  1.00  0.00     0.167 HD
ATOM     74  C   UNL     1     -18.054  -3.631  -7.020  1.00  0.00     0.074 A 
ATOM     75  C   UNL     1     -18.297  -2.394  -7.735  1.00  0.00     0.031 C 
ATOM     76  C   UNL     1     -18.913  -4.678  -6.995  1.00  0.00     0.031 A 
BRANCH  63  77
ATOM     77  C   UNL     1     -16.914  -9.491  -3.671  1.00  0.00    -0.014 A 
ATOM     78  C   UNL     1     -17.219  -9.804  -2.337  1.00  0.00     0.009 A 
ATOM     79  C   UNL     1     -16.806 -10.535  -4.604  1.00  0.00     0.009 A 
ATOM     80  C   UNL     1     -17.352 -11.134  -1.934  1.00  0.00     0.001 A 
ATOM     81  C   UNL     1     -16.975 -11.863  -4.205  1.00  0.00     0.001 A 
ATOM     82  C   UNL     1     -17.232 -12.162  -2.868  1.00  0.00     0.000 A 
ENDBRANCH  63  77
BRANCH  64  83
ATOM     83  C   UNL     1     -14.726  -0.314  -6.894  1.00  0.00    -0.014 A 
ATOM     84  C   UNL     1     -15.375   0.832  -6.408  1.00  0.00     0.009 A 
ATOM     85  C   UNL     1     -13.726  -0.169  -7.867  1.00  0.00     0.009 A 
ATOM     86  C   UNL     1     -15.043   2.095  -6.901  1.00  0.00     0.001 A 
ATOM     87  C   UNL     1     -13.380   1.098  -8.341  1.00  0.00     0.001 A 
ATOM     88  C   UNL     1     -14.043   2.228  -7.862  1.00  0.00     0.000 A 
ENDBRANCH  64  83
BRANCH  76  89
ATOM     89  C   UNL     1     -20.208  -4.518  -7.736  1.00  0.00    -0.014 A 
ATOM     90  C   UNL     1     -20.257  -4.599  -9.135  1.00  0.00     0.009 A 
ATOM     91  C   UNL     1     -21.400  -4.329  -7.019  1.00  0.00     0.009 A 
ATOM     92  C   UNL     1     -21.474  -4.467  -9.805  1.00  0.00     0.001 A 
ATOM     93  C   UNL     1     -22.617  -4.219  -7.690  1.00  0.00     0.001 A 
ATOM     94  C   UNL     1     -22.653  -4.282  -9.083  1.00  0.00     0.000 A 
ENDBRANCH  76  89
ENDBRANCH  50  51
ENDBRANCH  42  45
ENDBRANCH  40  41
ENDBRANCH   1  40
TORSDOF 12
