REMARK SMILES C[C@H](Sc1ccccn1)C(=O)N[C@H](C(=O)NCCCNC(=O)c1ccc(-c2c3nc(c(-c4ccccc4)c4ccc([nH]4)c(-c4ccccc4)c4nc(c(-c5ccccc5)c5ccc2[nH]5)C=C4)C=C3)cc1)c1ccc(F)cc1
REMARK SMILES IDX 17 1 16 2 14 3 15 4 13 6 12 7 10 8 11 9 2 11 1 12 3 13 4 14
REMARK SMILES IDX 5 15 9 16 6 17 8 18 7 19 71 20 72 21 77 22 73 23 76 24 74 25
REMARK SMILES IDX 75 26 18 27 19 28 20 29 21 30 22 32 23 33 24 34 70 35 25 36
REMARK SMILES IDX 69 37 26 38 27 39 28 40 63 41 29 42 68 43 62 44 64 45 30 46
REMARK SMILES IDX 67 47 61 48 60 49 31 51 53 52 38 53 52 54 39 55 42 56 51 57
REMARK SMILES IDX 65 58 40 59 41 60 50 62 66 63 43 64 32 65 33 66 37 67 34 68
REMARK SMILES IDX 36 69 35 70 54 71 55 72 59 73 56 74 58 75 57 76 44 77 45 78
REMARK SMILES IDX 49 79 46 80 48 81 47 82
REMARK H PARENT 16 5 12 10 20 31 64 50 42 61
REMARK Flexibility Score: inf
ROOT
ATOM      1  C   UNL     1      -0.989  -0.872   0.988  1.00  0.00     0.117 C 
ENDROOT
BRANCH   1   2
ATOM      2  N   UNL     1      -1.041   0.211   0.021  1.00  0.00    -0.354 N 
ATOM      3  C   UNL     1      -1.177   0.170  -1.341  1.00  0.00     0.247 C 
ATOM      4  O   UNL     1      -1.012   1.245  -1.925  1.00  0.00    -0.272 OA
ATOM      5  H   UNL     1      -0.967   1.114   0.405  1.00  0.00     0.163 HD
BRANCH   3   6
ATOM      6  C   UNL     1      -1.277  -1.197  -2.073  1.00  0.00     0.202 C 
BRANCH   6   7
ATOM      7  N   UNL     1      -1.981  -2.250  -1.329  1.00  0.00    -0.340 N 
ATOM      8  C   UNL     1      -3.260  -2.473  -0.946  1.00  0.00     0.234 C 
ATOM      9  O   UNL     1      -3.422  -3.509  -0.285  1.00  0.00    -0.274 OA
ATOM     10  H   UNL     1      -1.375  -2.969  -1.038  1.00  0.00     0.164 HD
BRANCH   8  11
ATOM     11  C   UNL     1      -4.460  -1.564  -1.228  1.00  0.00     0.139 C 
ATOM     12  C   UNL     1      -4.702  -1.256  -2.688  1.00  0.00     0.030 C 
BRANCH  11  13
ATOM     13  S   UNL     1      -4.613  -0.256   0.062  1.00  0.00    -0.093 SA
BRANCH  13  14
ATOM     14  C   UNL     1      -4.537   1.308  -0.773  1.00  0.00     0.097 A 
ATOM     15  C   UNL     1      -5.420   1.671  -1.784  1.00  0.00     0.035 A 
ATOM     16  N   UNL     1      -3.634   2.180  -0.265  1.00  0.00    -0.250 NA
ATOM     17  C   UNL     1      -5.325   2.941  -2.350  1.00  0.00     0.004 A 
ATOM     18  C   UNL     1      -3.580   3.416  -0.813  1.00  0.00     0.112 A 
ATOM     19  C   UNL     1      -4.388   3.836  -1.855  1.00  0.00     0.020 A 
ENDBRANCH  13  14
ENDBRANCH  11  13
ENDBRANCH   8  11
ENDBRANCH   6   7
BRANCH   6  20
ATOM     20  C   UNL     1      -1.596  -1.245  -3.568  1.00  0.00    -0.016 A 
ATOM     21  C   UNL     1      -1.883  -0.116  -4.355  1.00  0.00     0.009 A 
ATOM     22  C   UNL     1      -1.589  -2.503  -4.213  1.00  0.00     0.009 A 
ATOM     23  C   UNL     1      -2.194  -0.241  -5.713  1.00  0.00     0.039 A 
ATOM     24  C   UNL     1      -1.903  -2.629  -5.567  1.00  0.00     0.039 A 
ATOM     25  C   UNL     1      -2.210  -1.495  -6.304  1.00  0.00     0.123 A 
ATOM     26  F   UNL     1      -2.527  -1.613  -7.599  1.00  0.00    -0.207 F 
ENDBRANCH   6  20
ENDBRANCH   3   6
ENDBRANCH   1   2
BRANCH   1  27
ATOM     27  C   UNL     1      -0.559  -0.411   2.368  1.00  0.00     0.042 C 
BRANCH  27  28
ATOM     28  C   UNL     1      -1.540   0.557   3.018  1.00  0.00     0.118 C 
BRANCH  28  29
ATOM     29  N   UNL     1      -2.777  -0.064   3.473  1.00  0.00    -0.352 N 
ATOM     30  C   UNL     1      -3.290  -0.195   4.744  1.00  0.00     0.251 C 
ATOM     31  H   UNL     1      -3.334  -0.451   2.759  1.00  0.00     0.163 HD
ATOM     32  O   UNL     1      -4.319  -0.835   4.940  1.00  0.00    -0.269 OA
BRANCH  30  33
ATOM     33  C   UNL     1      -2.573   0.398   5.894  1.00  0.00     0.039 A 
ATOM     34  C   UNL     1      -2.386  -0.370   7.046  1.00  0.00     0.014 A 
ATOM     35  C   UNL     1      -2.049   1.689   5.826  1.00  0.00     0.014 A 
ATOM     36  C   UNL     1      -1.577   0.115   8.077  1.00  0.00     0.010 A 
ATOM     37  C   UNL     1      -1.152   2.120   6.796  1.00  0.00     0.010 A 
ATOM     38  C   UNL     1      -0.900   1.337   7.933  1.00  0.00    -0.014 A 
BRANCH  38  39
ATOM     39  C   UNL     1       0.085   1.805   8.943  1.00  0.00     0.031 A 
ATOM     40  C   UNL     1      -0.110   3.123   9.644  1.00  0.00     0.074 A 
ATOM     41  C   UNL     1       1.205   1.089   9.166  1.00  0.00     0.049 A 
ATOM     42  N   UNL     1       0.677   3.729  10.498  1.00  0.00    -0.248 NA
ATOM     43  C   UNL     1      -1.328   3.880   9.313  1.00  0.00     0.031 C 
ATOM     44  C   UNL     1       1.559  -0.168   8.501  1.00  0.00     0.029 A 
ATOM     45  N   UNL     1       2.261   1.322  10.013  1.00  0.00    -0.354 N 
ATOM     46  C   UNL     1       0.066   4.945  10.777  1.00  0.00     0.074 A 
ATOM     47  C   UNL     1      -1.126   5.016   9.962  1.00  0.00     0.031 C 
ATOM     48  C   UNL     1       2.729  -0.611   8.989  1.00  0.00     0.029 A 
ATOM     49  C   UNL     1       3.227   0.346   9.972  1.00  0.00     0.049 A 
ATOM     50  H   UNL     1       2.320   2.114  10.594  1.00  0.00     0.167 HD
ATOM     51  C   UNL     1       0.447   5.908  11.649  1.00  0.00     0.031 A 
ATOM     52  C   UNL     1       4.386   0.231  10.647  1.00  0.00     0.031 A 
ATOM     53  C   UNL     1       1.613   5.827  12.487  1.00  0.00     0.049 A 
ATOM     54  C   UNL     1       4.767   1.290  11.641  1.00  0.00     0.074 A 
ATOM     55  C   UNL     1       2.035   6.710  13.465  1.00  0.00     0.029 A 
ATOM     56  N   UNL     1       2.542   4.800  12.445  1.00  0.00    -0.354 N 
ATOM     57  N   UNL     1       4.131   2.392  11.957  1.00  0.00    -0.248 NA
ATOM     58  C   UNL     1       6.018   1.081  12.383  1.00  0.00     0.031 C 
ATOM     59  C   UNL     1       3.245   6.238  13.986  1.00  0.00     0.029 A 
ATOM     60  C   UNL     1       3.549   5.037  13.366  1.00  0.00     0.049 A 
ATOM     61  H   UNL     1       2.493   4.017  11.849  1.00  0.00     0.167 HD
ATOM     62  C   UNL     1       4.893   2.998  12.947  1.00  0.00     0.074 A 
ATOM     63  C   UNL     1       6.027   2.130  13.194  1.00  0.00     0.031 C 
ATOM     64  C   UNL     1       4.673   4.168  13.594  1.00  0.00     0.031 A 
BRANCH  51  65
ATOM     65  C   UNL     1      -0.417   7.136  11.738  1.00  0.00    -0.014 A 
ATOM     66  C   UNL     1      -1.706   7.082  12.295  1.00  0.00     0.009 A 
ATOM     67  C   UNL     1       0.068   8.366  11.269  1.00  0.00     0.009 A 
ATOM     68  C   UNL     1      -2.507   8.225  12.337  1.00  0.00     0.001 A 
ATOM     69  C   UNL     1      -0.724   9.514  11.341  1.00  0.00     0.001 A 
ATOM     70  C   UNL     1      -2.014   9.440  11.863  1.00  0.00     0.000 A 
ENDBRANCH  51  65
BRANCH  52  71
ATOM     71  C   UNL     1       5.260  -0.951  10.425  1.00  0.00    -0.014 A 
ATOM     72  C   UNL     1       5.360  -1.954  11.402  1.00  0.00     0.009 A 
ATOM     73  C   UNL     1       5.994  -1.084   9.237  1.00  0.00     0.009 A 
ATOM     74  C   UNL     1       6.196  -3.054  11.203  1.00  0.00     0.001 A 
ATOM     75  C   UNL     1       6.808  -2.199   9.029  1.00  0.00     0.001 A 
ATOM     76  C   UNL     1       6.916  -3.179  10.015  1.00  0.00     0.000 A 
ENDBRANCH  52  71
BRANCH  64  77
ATOM     77  C   UNL     1       5.669   4.565  14.646  1.00  0.00    -0.014 A 
ATOM     78  C   UNL     1       6.950   5.021  14.300  1.00  0.00     0.009 A 
ATOM     79  C   UNL     1       5.307   4.512  16.001  1.00  0.00     0.009 A 
ATOM     80  C   UNL     1       7.862   5.383  15.293  1.00  0.00     0.001 A 
ATOM     81  C   UNL     1       6.211   4.901  16.991  1.00  0.00     0.001 A 
ATOM     82  C   UNL     1       7.490   5.327  16.637  1.00  0.00     0.000 A 
ENDBRANCH  64  77
ENDBRANCH  38  39
ENDBRANCH  30  33
ENDBRANCH  28  29
ENDBRANCH  27  28
ENDBRANCH   1  27
TORSDOF 15
