REMARK SMILES Cc1c(NC(=O)c2cccc(-c3cc4ccccc4oc3=O)c2)cccc1C(=O)NCCCNC(=O)c1ccc(-c2c3nc(c(-c4ccccc4)c4ccc([nH]4)c(-c4ccccc4)c4nc(c(-c5ccccc5)c5ccc2[nH]5)C=C4)C=C3)cc1
REMARK SMILES IDX 31 1 30 2 28 3 29 4 27 6 1 7 2 8 3 9 24 10 26 11 25 12 4 13
REMARK SMILES IDX 5 14 6 16 7 17 8 18 23 19 9 20 11 21 10 22 12 23 13 24 21 25
REMARK SMILES IDX 14 26 20 27 22 28 15 29 19 30 16 31 18 32 17 33 32 34 33 35
REMARK SMILES IDX 34 36 35 37 36 39 37 40 38 41 84 42 39 43 83 44 40 45 41 46
REMARK SMILES IDX 42 47 77 48 43 49 82 50 76 51 78 52 44 53 81 54 75 55 74 56
REMARK SMILES IDX 45 58 67 59 52 60 66 61 53 62 56 63 65 64 79 65 54 66 55 67
REMARK SMILES IDX 64 69 80 70 57 71 46 72 47 73 51 74 48 75 50 76 49 77 68 78
REMARK SMILES IDX 69 79 73 80 70 81 72 82 71 83 58 84 59 85 63 86 60 87 62 88
REMARK SMILES IDX 61 89
REMARK H PARENT 30 5 4 15 34 38 78 57 56 68
REMARK Flexibility Score: inf
ROOT
ATOM      1  C   UNL     1       3.717   1.543   0.686  1.00  0.00     0.118 C 
ENDROOT
BRANCH   1   2
ATOM      2  N   UNL     1       2.466   2.250   0.439  1.00  0.00    -0.352 N 
ATOM      3  C   UNL     1       1.115   2.032   0.462  1.00  0.00     0.251 C 
ATOM      4  O   UNL     1       0.472   3.051   0.165  1.00  0.00    -0.269 OA
ATOM      5  H   UNL     1       2.652   3.179   0.169  1.00  0.00     0.163 HD
BRANCH   3   6
ATOM      6  C   UNL     1       0.307   0.786   0.768  1.00  0.00     0.044 A 
ATOM      7  C   UNL     1       2.024  -1.046   0.329  1.00  0.00     0.047 C 
ATOM      8  C   UNL     1       0.667  -0.581   0.738  1.00  0.00    -0.015 A 
ATOM      9  C   UNL     1      -0.323  -1.588   0.945  1.00  0.00     0.045 A 
ATOM     10  C   UNL     1      -1.661  -1.256   1.131  1.00  0.00     0.026 A 
ATOM     11  C   UNL     1      -1.068   1.070   0.980  1.00  0.00     0.014 A 
ATOM     12  C   UNL     1      -2.036   0.076   1.141  1.00  0.00     0.003 A 
BRANCH   9  13
ATOM     13  N   UNL     1       0.086  -2.933   0.989  1.00  0.00    -0.322 N 
ATOM     14  C   UNL     1      -0.488  -4.098   0.544  1.00  0.00     0.255 C 
ATOM     15  H   UNL     1       0.958  -3.066   1.427  1.00  0.00     0.170 HD
ATOM     16  O   UNL     1      -0.007  -5.162   0.938  1.00  0.00    -0.269 OA
BRANCH  14  17
ATOM     17  C   UNL     1      -1.559  -4.140  -0.490  1.00  0.00     0.040 A 
ATOM     18  C   UNL     1      -2.325  -5.309  -0.577  1.00  0.00     0.014 A 
ATOM     19  C   UNL     1      -1.728  -3.144  -1.462  1.00  0.00     0.022 A 
ATOM     20  C   UNL     1      -3.273  -5.460  -1.587  1.00  0.00     0.001 A 
ATOM     21  C   UNL     1      -2.688  -3.276  -2.480  1.00  0.00    -0.010 A 
ATOM     22  C   UNL     1      -3.460  -4.446  -2.526  1.00  0.00     0.009 A 
BRANCH  21  23
ATOM     23  C   UNL     1      -2.847  -2.298  -3.589  1.00  0.00     0.068 A 
ATOM     24  C   UNL     1      -2.687  -0.965  -3.430  1.00  0.00     0.028 A 
ATOM     25  C   UNL     1      -2.252  -2.746  -4.890  1.00  0.00     0.344 A 
ATOM     26  C   UNL     1      -1.267  -0.554  -3.507  1.00  0.00     0.018 A 
ATOM     27  O   UNL     1      -0.899  -2.425  -5.020  1.00  0.00    -0.422 OA
ATOM     28  O   UNL     1      -2.872  -3.414  -5.707  1.00  0.00    -0.246 OA
ATOM     29  C   UNL     1      -0.776   0.570  -2.850  1.00  0.00     0.012 A 
ATOM     30  C   UNL     1      -0.391  -1.365  -4.239  1.00  0.00     0.138 A 
ATOM     31  C   UNL     1       0.595   0.836  -2.888  1.00  0.00     0.001 A 
ATOM     32  C   UNL     1       0.977  -1.133  -4.247  1.00  0.00     0.048 A 
ATOM     33  C   UNL     1       1.470  -0.028  -3.557  1.00  0.00     0.004 A 
ENDBRANCH  21  23
ENDBRANCH  14  17
ENDBRANCH   9  13
ENDBRANCH   3   6
ENDBRANCH   1   2
BRANCH   1  34
ATOM     34  C   UNL     1       4.239   0.853  -0.577  1.00  0.00     0.042 C 
BRANCH  34  35
ATOM     35  C   UNL     1       5.546   1.379  -1.139  1.00  0.00     0.118 C 
BRANCH  35  36
ATOM     36  N   UNL     1       6.688   0.482  -0.935  1.00  0.00    -0.352 N 
ATOM     37  C   UNL     1       7.985   0.671  -1.380  1.00  0.00     0.251 C 
ATOM     38  H   UNL     1       6.513  -0.343  -0.427  1.00  0.00     0.163 HD
ATOM     39  O   UNL     1       8.884  -0.117  -1.110  1.00  0.00    -0.269 OA
BRANCH  37  40
ATOM     40  C   UNL     1       8.269   1.934  -2.090  1.00  0.00     0.039 A 
ATOM     41  C   UNL     1       8.974   2.901  -1.371  1.00  0.00     0.014 A 
ATOM     42  C   UNL     1       7.473   2.275  -3.183  1.00  0.00     0.014 A 
ATOM     43  C   UNL     1       8.649   4.236  -1.563  1.00  0.00     0.010 A 
ATOM     44  C   UNL     1       7.088   3.596  -3.313  1.00  0.00     0.010 A 
ATOM     45  C   UNL     1       7.611   4.559  -2.442  1.00  0.00    -0.014 A 
BRANCH  45  46
ATOM     46  C   UNL     1       6.964   5.865  -2.414  1.00  0.00     0.031 A 
ATOM     47  C   UNL     1       7.361   6.882  -3.399  1.00  0.00     0.074 A 
ATOM     48  C   UNL     1       6.091   6.218  -1.442  1.00  0.00     0.049 A 
ATOM     49  N   UNL     1       7.504   8.136  -3.121  1.00  0.00    -0.248 NA
ATOM     50  C   UNL     1       7.687   6.539  -4.776  1.00  0.00     0.031 C 
ATOM     51  C   UNL     1       5.331   7.465  -1.366  1.00  0.00     0.029 A 
ATOM     52  N   UNL     1       5.908   5.635  -0.189  1.00  0.00    -0.354 N 
ATOM     53  C   UNL     1       7.627   8.793  -4.320  1.00  0.00     0.074 A 
ATOM     54  C   UNL     1       7.844   7.755  -5.305  1.00  0.00     0.031 C 
ATOM     55  C   UNL     1       5.063   7.720  -0.076  1.00  0.00     0.029 A 
ATOM     56  C   UNL     1       5.708   6.691   0.719  1.00  0.00     0.049 A 
ATOM     57  H   UNL     1       5.918   4.673   0.020  1.00  0.00     0.167 HD
ATOM     58  C   UNL     1       7.369  10.128  -4.400  1.00  0.00     0.031 A 
ATOM     59  C   UNL     1       6.467   6.890   1.833  1.00  0.00     0.031 A 
ATOM     60  C   UNL     1       6.998  10.712  -3.111  1.00  0.00     0.049 A 
ATOM     61  C   UNL     1       7.148   8.243   1.878  1.00  0.00     0.074 A 
ATOM     62  C   UNL     1       5.792  11.115  -2.558  1.00  0.00     0.029 A 
ATOM     63  N   UNL     1       7.912  10.706  -2.068  1.00  0.00    -0.354 N 
ATOM     64  N   UNL     1       7.065   9.148   0.944  1.00  0.00    -0.248 NA
ATOM     65  C   UNL     1       8.091   8.620   2.929  1.00  0.00     0.031 C 
ATOM     66  C   UNL     1       5.994  11.367  -1.174  1.00  0.00     0.029 A 
ATOM     67  C   UNL     1       7.322  11.121  -0.886  1.00  0.00     0.049 A 
ATOM     68  H   UNL     1       8.857  10.441  -2.156  1.00  0.00     0.167 HD
ATOM     69  C   UNL     1       7.953  10.167   1.204  1.00  0.00     0.074 A 
ATOM     70  C   UNL     1       8.568   9.786   2.462  1.00  0.00     0.031 C 
ATOM     71  C   UNL     1       8.130  11.203   0.326  1.00  0.00     0.031 A 
BRANCH  58  72
ATOM     72  C   UNL     1       7.154  10.816  -5.727  1.00  0.00    -0.014 A 
ATOM     73  C   UNL     1       6.237  11.875  -5.829  1.00  0.00     0.009 A 
ATOM     74  C   UNL     1       7.786  10.428  -6.921  1.00  0.00     0.009 A 
ATOM     75  C   UNL     1       5.873  12.423  -7.065  1.00  0.00     0.001 A 
ATOM     76  C   UNL     1       7.392  10.934  -8.167  1.00  0.00     0.001 A 
ATOM     77  C   UNL     1       6.421  11.924  -8.239  1.00  0.00     0.000 A 
ENDBRANCH  58  72
BRANCH  59  78
ATOM     78  C   UNL     1       7.040   5.640   2.396  1.00  0.00    -0.014 A 
ATOM     79  C   UNL     1       6.157   4.719   2.993  1.00  0.00     0.009 A 
ATOM     80  C   UNL     1       8.312   5.199   2.003  1.00  0.00     0.009 A 
ATOM     81  C   UNL     1       6.489   3.365   3.074  1.00  0.00     0.001 A 
ATOM     82  C   UNL     1       8.639   3.842   2.092  1.00  0.00     0.001 A 
ATOM     83  C   UNL     1       7.715   2.922   2.586  1.00  0.00     0.000 A 
ENDBRANCH  59  78
BRANCH  71  84
ATOM     84  C   UNL     1       9.079  12.382   0.467  1.00  0.00    -0.014 A 
ATOM     85  C   UNL     1       9.733  12.764   1.645  1.00  0.00     0.009 A 
ATOM     86  C   UNL     1       9.298  13.223  -0.652  1.00  0.00     0.009 A 
ATOM     87  C   UNL     1      10.614  13.859   1.681  1.00  0.00     0.001 A 
ATOM     88  C   UNL     1      10.161  14.322  -0.622  1.00  0.00     0.001 A 
ATOM     89  C   UNL     1      10.835  14.632   0.547  1.00  0.00     0.000 A 
ENDBRANCH  71  84
ENDBRANCH  45  46
ENDBRANCH  37  40
ENDBRANCH  35  36
ENDBRANCH  34  35
ENDBRANCH   1  34
TORSDOF 13
