REMARK SMILES C[C@@H](CNc1cccc(F)c1C(=O)NCCCNC(=O)c1ccc(-c2c3nc(c(-c4ccccc4)c4ccc([nH]4)c(-c4ccccc4)c4nc(c(-c5ccccc5)c5ccc2[nH]5)C=C4)C=C3)cc1)[NH+]1CCCCC1
REMARK SMILES IDX 15 1 14 2 12 3 13 4 11 6 5 7 6 8 7 9 9 10 8 11 10 12 4 13
REMARK SMILES IDX 3 15 2 16 1 17 69 18 70 19 74 20 71 22 73 23 72 24 16 25
REMARK SMILES IDX 17 26 18 27 19 28 20 30 21 31 22 32 68 33 23 34 67 35 24 36
REMARK SMILES IDX 25 37 26 38 61 39 27 40 66 41 60 42 62 43 28 44 65 45 59 46
REMARK SMILES IDX 58 47 29 49 51 50 36 51 50 52 37 53 40 54 49 55 63 56 38 57
REMARK SMILES IDX 39 58 48 60 64 61 41 62 30 63 31 64 35 65 32 66 34 67 33 68
REMARK SMILES IDX 52 69 53 70 57 71 54 72 56 73 55 74 42 75 43 76 47 77 44 78
REMARK SMILES IDX 46 79 45 80
REMARK H PARENT 14 5 4 14 69 21 18 29 62 48 40 59
REMARK Flexibility Score: inf
ROOT
ATOM      1  C   UNL     1      -3.764   4.647   0.585  1.00  0.00     0.118 C 
ENDROOT
BRANCH   1   2
ATOM      2  N   UNL     1      -2.459   4.229   0.104  1.00  0.00    -0.352 N 
ATOM      3  C   UNL     1      -1.226   4.143   0.703  1.00  0.00     0.256 C 
ATOM      4  O   UNL     1      -0.277   3.893  -0.046  1.00  0.00    -0.269 OA
ATOM      5  H   UNL     1      -2.458   3.952  -0.841  1.00  0.00     0.163 HD
BRANCH   3   6
ATOM      6  C   UNL     1      -1.005   4.182   2.178  1.00  0.00     0.098 A 
ATOM      7  C   UNL     1      -0.098   3.244   2.752  1.00  0.00     0.050 A 
ATOM      8  C   UNL     1       0.079   3.252   4.146  1.00  0.00     0.027 A 
ATOM      9  C   UNL     1      -0.615   4.141   4.966  1.00  0.00     0.005 A 
ATOM     10  C   UNL     1      -1.649   5.098   3.014  1.00  0.00     0.138 A 
ATOM     11  C   UNL     1      -1.482   5.063   4.397  1.00  0.00     0.040 A 
ATOM     12  F   UNL     1      -2.433   6.067   2.526  1.00  0.00    -0.206 F 
BRANCH   7  13
ATOM     13  N   UNL     1       0.547   2.289   1.969  1.00  0.00    -0.378 N 
ATOM     14  H   UNL     1       0.839   2.554   1.067  1.00  0.00     0.160 HD
BRANCH  13  15
ATOM     15  C   UNL     1       0.818   0.923   2.401  1.00  0.00     0.177 C 
BRANCH  15  16
ATOM     16  C   UNL     1       0.327  -0.181   1.403  1.00  0.00     0.200 C 
ATOM     17  C   UNL     1       1.024  -0.048   0.039  1.00  0.00     0.077 C 
BRANCH  16  18
ATOM     18  N   UNL     1      -1.155  -0.357   1.352  1.00  0.00    -0.331 N 
ATOM     19  C   UNL     1      -1.866   0.745   0.697  1.00  0.00     0.262 C 
ATOM     20  C   UNL     1      -1.548  -1.649   0.772  1.00  0.00     0.262 C 
ATOM     21  H   UNL     1      -1.444  -0.345   2.330  1.00  0.00     0.348 HD
ATOM     22  C   UNL     1      -3.385   0.595   0.763  1.00  0.00     0.062 C 
ATOM     23  C   UNL     1      -3.062  -1.868   0.862  1.00  0.00     0.062 C 
ATOM     24  C   UNL     1      -3.828  -0.738   0.188  1.00  0.00     0.012 C 
ENDBRANCH  16  18
ENDBRANCH  15  16
ENDBRANCH  13  15
ENDBRANCH   7  13
ENDBRANCH   3   6
ENDBRANCH   1   2
BRANCH   1  25
ATOM     25  C   UNL     1      -4.007   6.103   0.192  1.00  0.00     0.042 C 
BRANCH  25  26
ATOM     26  C   UNL     1      -4.333   6.265  -1.289  1.00  0.00     0.118 C 
BRANCH  26  27
ATOM     27  N   UNL     1      -5.715   5.912  -1.585  1.00  0.00    -0.352 N 
ATOM     28  C   UNL     1      -6.692   6.678  -2.176  1.00  0.00     0.251 C 
ATOM     29  H   UNL     1      -5.986   5.001  -1.327  1.00  0.00     0.163 HD
ATOM     30  O   UNL     1      -7.861   6.315  -2.158  1.00  0.00    -0.269 OA
BRANCH  28  31
ATOM     31  C   UNL     1      -6.323   7.955  -2.825  1.00  0.00     0.039 A 
ATOM     32  C   UNL     1      -7.093   9.095  -2.581  1.00  0.00     0.014 A 
ATOM     33  C   UNL     1      -5.215   8.021  -3.673  1.00  0.00     0.014 A 
ATOM     34  C   UNL     1      -6.718  10.318  -3.144  1.00  0.00     0.010 A 
ATOM     35  C   UNL     1      -4.800   9.251  -4.170  1.00  0.00     0.010 A 
ATOM     36  C   UNL     1      -5.551  10.411  -3.918  1.00  0.00    -0.014 A 
BRANCH  36  37
ATOM     37  C   UNL     1      -5.097  11.694  -4.512  1.00  0.00     0.031 A 
ATOM     38  C   UNL     1      -5.009  11.824  -6.010  1.00  0.00     0.074 A 
ATOM     39  C   UNL     1      -4.674  12.698  -3.719  1.00  0.00     0.049 A 
ATOM     40  N   UNL     1      -4.486  12.784  -6.728  1.00  0.00    -0.248 NA
ATOM     41  C   UNL     1      -5.553  10.709  -6.804  1.00  0.00     0.031 C 
ATOM     42  C   UNL     1      -4.693  12.692  -2.254  1.00  0.00     0.029 A 
ATOM     43  N   UNL     1      -4.124  13.916  -4.037  1.00  0.00    -0.354 N 
ATOM     44  C   UNL     1      -4.606  12.372  -8.050  1.00  0.00     0.074 A 
ATOM     45  C   UNL     1      -5.215  11.062  -8.035  1.00  0.00     0.031 C 
ATOM     46  C   UNL     1      -4.189  13.853  -1.803  1.00  0.00     0.029 A 
ATOM     47  C   UNL     1      -3.763  14.662  -2.940  1.00  0.00     0.049 A 
ATOM     48  H   UNL     1      -4.000  14.225  -4.963  1.00  0.00     0.167 HD
ATOM     49  C   UNL     1      -4.250  13.033  -9.176  1.00  0.00     0.031 A 
ATOM     50  C   UNL     1      -3.138  15.853  -2.861  1.00  0.00     0.031 A 
ATOM     51  C   UNL     1      -3.670  14.348  -9.189  1.00  0.00     0.049 A 
ATOM     52  C   UNL     1      -2.733  16.554  -4.132  1.00  0.00     0.074 A 
ATOM     53  C   UNL     1      -3.332  15.127 -10.281  1.00  0.00     0.029 A 
ATOM     54  N   UNL     1      -3.346  15.077  -8.056  1.00  0.00    -0.354 N 
ATOM     55  N   UNL     1      -2.905  16.177  -5.375  1.00  0.00    -0.248 NA
ATOM     56  C   UNL     1      -2.054  17.851  -3.987  1.00  0.00     0.031 C 
ATOM     57  C   UNL     1      -2.750  16.306  -9.809  1.00  0.00     0.029 A 
ATOM     58  C   UNL     1      -2.792  16.290  -8.424  1.00  0.00     0.049 A 
ATOM     59  H   UNL     1      -3.489  14.777  -7.129  1.00  0.00     0.167 HD
ATOM     60  C   UNL     1      -2.404  17.210  -6.158  1.00  0.00     0.074 A 
ATOM     61  C   UNL     1      -1.922  18.230  -5.250  1.00  0.00     0.031 C 
ATOM     62  C   UNL     1      -2.351  17.308  -7.508  1.00  0.00     0.031 A 
BRANCH  49  63
ATOM     63  C   UNL     1      -4.469  12.345 -10.495  1.00  0.00    -0.014 A 
ATOM     64  C   UNL     1      -5.759  12.143 -11.009  1.00  0.00     0.009 A 
ATOM     65  C   UNL     1      -3.362  11.956 -11.267  1.00  0.00     0.009 A 
ATOM     66  C   UNL     1      -5.936  11.541 -12.257  1.00  0.00     0.001 A 
ATOM     67  C   UNL     1      -3.541  11.383 -12.526  1.00  0.00     0.001 A 
ATOM     68  C   UNL     1      -4.828  11.169 -13.017  1.00  0.00     0.000 A 
ENDBRANCH  49  63
BRANCH  50  69
ATOM     69  C   UNL     1      -2.844  16.469  -1.539  1.00  0.00    -0.014 A 
ATOM     70  C   UNL     1      -3.482  17.657  -1.149  1.00  0.00     0.009 A 
ATOM     71  C   UNL     1      -1.891  15.902  -0.678  1.00  0.00     0.009 A 
ATOM     72  C   UNL     1      -3.141  18.287   0.051  1.00  0.00     0.001 A 
ATOM     73  C   UNL     1      -1.577  16.514   0.538  1.00  0.00     0.001 A 
ATOM     74  C   UNL     1      -2.191  17.714   0.894  1.00  0.00     0.000 A 
ENDBRANCH  50  69
BRANCH  62  75
ATOM     75  C   UNL     1      -1.834  18.589  -8.098  1.00  0.00    -0.014 A 
ATOM     76  C   UNL     1      -0.472  18.919  -8.067  1.00  0.00     0.009 A 
ATOM     77  C   UNL     1      -2.727  19.439  -8.772  1.00  0.00     0.009 A 
ATOM     78  C   UNL     1      -0.017  20.088  -8.681  1.00  0.00     0.001 A 
ATOM     79  C   UNL     1      -2.265  20.589  -9.411  1.00  0.00     0.001 A 
ATOM     80  C   UNL     1      -0.912  20.916  -9.360  1.00  0.00     0.000 A 
ENDBRANCH  62  75
ENDBRANCH  36  37
ENDBRANCH  28  31
ENDBRANCH  26  27
ENDBRANCH  25  26
ENDBRANCH   1  25
TORSDOF 14
