REMARK SMILES NS(=O)(=O)c1ccc(-n2nc(C(F)(F)F)cc2-c2ccc(C(=O)NCCCNC(=O)c3ccc(-c4c5nc(c(-c6ccccc6)c6ccc([nH]6)c(-c6ccccc6)c6nc(c(-c7ccccc7)c7ccc4[nH]7)C=C6)C=C5)cc3)cc2)cc1
REMARK SMILES IDX 25 1 24 2 22 3 23 4 21 6 18 7 19 8 80 9 20 10 79 11 17 12
REMARK SMILES IDX 9 13 10 14 11 15 16 16 8 17 5 18 6 19 82 20 7 21 81 22 2 23
REMARK SMILES IDX 3 24 4 25 1 26 12 29 13 30 14 31 15 32 26 33 27 34 28 35
REMARK SMILES IDX 29 36 30 38 31 39 32 40 78 41 33 42 77 43 34 44 35 45 36 46
REMARK SMILES IDX 71 47 37 48 76 49 70 50 72 51 38 52 75 53 69 54 68 55 39 57
REMARK SMILES IDX 61 58 46 59 60 60 47 61 50 62 59 63 73 64 48 65 49 66 58 68
REMARK SMILES IDX 74 69 51 70 40 71 41 72 45 73 42 74 44 75 43 76 62 77 63 78
REMARK SMILES IDX 67 79 64 80 66 81 65 82 52 83 53 84 57 85 54 86 56 87 55 88
REMARK H PARENT 24 5 1 27 1 28 28 37 72 56 50 67
REMARK Flexibility Score: inf
ROOT
ATOM      1  C   UNL     1       7.307   0.778   6.897  1.00  0.00     0.118 C 
ENDROOT
BRANCH   1   2
ATOM      2  N   UNL     1       7.581   0.785   5.467  1.00  0.00    -0.352 N 
ATOM      3  C   UNL     1       7.025   1.509   4.438  1.00  0.00     0.251 C 
ATOM      4  O   UNL     1       7.507   1.383   3.313  1.00  0.00    -0.269 OA
ATOM      5  H   UNL     1       8.289   0.161   5.187  1.00  0.00     0.163 HD
BRANCH   3   6
ATOM      6  C   UNL     1       5.898   2.460   4.645  1.00  0.00     0.039 A 
ATOM      7  C   UNL     1       3.832   4.334   4.984  1.00  0.00     0.000 A 
ATOM      8  C   UNL     1       4.741   4.474   3.928  1.00  0.00     0.011 A 
ATOM      9  C   UNL     1       3.947   3.256   5.853  1.00  0.00     0.011 A 
ATOM     10  C   UNL     1       5.774   3.544   3.765  1.00  0.00     0.014 A 
ATOM     11  C   UNL     1       4.940   2.308   5.649  1.00  0.00     0.014 A 
BRANCH   7  12
ATOM     12  C   UNL     1       2.714   5.242   5.159  1.00  0.00     0.075 A 
ATOM     13  N   UNL     1       1.629   5.340   4.302  1.00  0.00    -0.233 N 
ATOM     14  N   UNL     1       0.824   6.383   4.633  1.00  0.00    -0.163 NA
ATOM     15  C   UNL     1       1.265   6.786   5.844  1.00  0.00     0.167 A 
ATOM     16  C   UNL     1       2.472   6.131   6.183  1.00  0.00     0.064 A 
BRANCH  13  17
ATOM     17  C   UNL     1       1.298   4.481   3.221  1.00  0.00     0.065 A 
ATOM     18  C   UNL     1       0.792   2.807   1.050  1.00  0.00     0.082 A 
ATOM     19  C   UNL     1       1.223   2.253   2.255  1.00  0.00     0.024 A 
ATOM     20  C   UNL     1       0.585   4.188   0.933  1.00  0.00     0.024 A 
ATOM     21  C   UNL     1       1.482   3.093   3.338  1.00  0.00     0.030 A 
ATOM     22  C   UNL     1       0.810   5.026   2.030  1.00  0.00     0.030 A 
BRANCH  18  23
ATOM     23  S   UNL     1       0.520   1.787  -0.368  1.00  0.00     0.238 S 
ATOM     24  O   UNL     1       1.276   2.341  -1.476  1.00  0.00    -0.207 OA
ATOM     25  O   UNL     1      -0.879   1.481  -0.449  1.00  0.00    -0.207 OA
BRANCH  23  26
ATOM     26  N   UNL     1       1.291   0.335  -0.004  1.00  0.00    -0.225 NA
ATOM     27  H   UNL     1       1.179  -0.314  -0.782  1.00  0.00     0.137 HD
ATOM     28  H   UNL     1       0.879  -0.068   0.837  1.00  0.00     0.137 HD
ENDBRANCH  23  26
ENDBRANCH  18  23
ENDBRANCH  13  17
BRANCH  15  29
ATOM     29  C   UNL     1       0.544   7.791   6.703  1.00  0.00     0.435 C 
ATOM     30  F   UNL     1       0.302   8.963   6.063  1.00  0.00    -0.164 F 
ATOM     31  F   UNL     1      -0.649   7.317   7.149  1.00  0.00    -0.164 F 
ATOM     32  F   UNL     1       1.267   8.100   7.817  1.00  0.00    -0.164 F 
ENDBRANCH  15  29
ENDBRANCH   7  12
ENDBRANCH   3   6
ENDBRANCH   1   2
BRANCH   1  33
ATOM     33  C   UNL     1       6.309  -0.324   7.287  1.00  0.00     0.042 C 
BRANCH  33  34
ATOM     34  C   UNL     1       6.972  -1.669   7.488  1.00  0.00     0.118 C 
BRANCH  34  35
ATOM     35  N   UNL     1       7.809  -1.696   8.686  1.00  0.00    -0.352 N 
ATOM     36  C   UNL     1       8.681  -2.681   9.101  1.00  0.00     0.251 C 
ATOM     37  H   UNL     1       7.741  -0.909   9.274  1.00  0.00     0.163 HD
ATOM     38  O   UNL     1       9.048  -2.746  10.267  1.00  0.00    -0.269 OA
BRANCH  36  39
ATOM     39  C   UNL     1       9.152  -3.662   8.112  1.00  0.00     0.039 A 
ATOM     40  C   UNL     1       9.258  -5.019   8.428  1.00  0.00     0.014 A 
ATOM     41  C   UNL     1       9.432  -3.203   6.830  1.00  0.00     0.014 A 
ATOM     42  C   UNL     1       9.565  -5.918   7.411  1.00  0.00     0.010 A 
ATOM     43  C   UNL     1       9.534  -4.101   5.803  1.00  0.00     0.010 A 
ATOM     44  C   UNL     1       9.678  -5.452   6.092  1.00  0.00    -0.014 A 
BRANCH  44  45
ATOM     45  C   UNL     1       9.873  -6.372   4.981  1.00  0.00     0.031 A 
ATOM     46  C   UNL     1       8.884  -7.478   4.883  1.00  0.00     0.074 A 
ATOM     47  C   UNL     1      10.740  -6.128   3.975  1.00  0.00     0.049 A 
ATOM     48  N   UNL     1       9.107  -8.743   5.016  1.00  0.00    -0.248 NA
ATOM     49  C   UNL     1       7.463  -7.135   4.716  1.00  0.00     0.031 C 
ATOM     50  C   UNL     1      11.559  -4.934   3.732  1.00  0.00     0.029 A 
ATOM     51  N   UNL     1      10.965  -6.870   2.860  1.00  0.00    -0.354 N 
ATOM     52  C   UNL     1       7.893  -9.379   4.778  1.00  0.00     0.074 A 
ATOM     53  C   UNL     1       6.891  -8.341   4.753  1.00  0.00     0.031 C 
ATOM     54  C   UNL     1      11.969  -4.922   2.445  1.00  0.00     0.029 A 
ATOM     55  C   UNL     1      11.607  -6.188   1.837  1.00  0.00     0.049 A 
ATOM     56  H   UNL     1      10.695  -7.814   2.784  1.00  0.00     0.167 HD
ATOM     57  C   UNL     1       7.832 -10.686   4.399  1.00  0.00     0.031 A 
ATOM     58  C   UNL     1      11.794  -6.626   0.569  1.00  0.00     0.031 A 
ATOM     59  C   UNL     1       9.086 -11.364   4.608  1.00  0.00     0.049 A 
ATOM     60  C   UNL     1      11.645  -8.100   0.591  1.00  0.00     0.074 A 
ATOM     61  C   UNL     1       9.890 -11.592   5.708  1.00  0.00     0.029 A 
ATOM     62  N   UNL     1       9.894 -11.558   3.511  1.00  0.00    -0.354 N 
ATOM     63  N   UNL     1      12.483  -8.893   1.194  1.00  0.00    -0.248 NA
ATOM     64  C   UNL     1      10.326  -8.659   0.341  1.00  0.00     0.031 C 
ATOM     65  C   UNL     1      11.220 -11.387   5.233  1.00  0.00     0.029 A 
ATOM     66  C   UNL     1      11.150 -11.131   3.861  1.00  0.00     0.049 A 
ATOM     67  H   UNL     1       9.622 -11.931   2.641  1.00  0.00     0.167 HD
ATOM     68  C   UNL     1      11.686  -9.857   1.794  1.00  0.00     0.074 A 
ATOM     69  C   UNL     1      10.381  -9.725   1.146  1.00  0.00     0.031 C 
ATOM     70  C   UNL     1      12.065 -10.472   2.955  1.00  0.00     0.031 A 
BRANCH  57  71
ATOM     71  C   UNL     1       6.765 -11.246   3.496  1.00  0.00    -0.014 A 
ATOM     72  C   UNL     1       6.728 -12.632   3.260  1.00  0.00     0.009 A 
ATOM     73  C   UNL     1       5.968 -10.439   2.662  1.00  0.00     0.009 A 
ATOM     74  C   UNL     1       5.978 -13.170   2.206  1.00  0.00     0.001 A 
ATOM     75  C   UNL     1       5.186 -10.977   1.637  1.00  0.00     0.001 A 
ATOM     76  C   UNL     1       5.211 -12.341   1.393  1.00  0.00     0.000 A 
ENDBRANCH  57  71
BRANCH  58  77
ATOM     77  C   UNL     1      11.844  -5.846  -0.684  1.00  0.00    -0.014 A 
ATOM     78  C   UNL     1      12.332  -6.427  -1.865  1.00  0.00     0.009 A 
ATOM     79  C   UNL     1      11.160  -4.621  -0.791  1.00  0.00     0.009 A 
ATOM     80  C   UNL     1      12.100  -5.829  -3.111  1.00  0.00     0.001 A 
ATOM     81  C   UNL     1      10.933  -4.021  -2.035  1.00  0.00     0.001 A 
ATOM     82  C   UNL     1      11.387  -4.636  -3.196  1.00  0.00     0.000 A 
ENDBRANCH  58  77
BRANCH  70  83
ATOM     83  C   UNL     1      13.463 -10.220   3.475  1.00  0.00    -0.014 A 
ATOM     84  C   UNL     1      13.946  -8.938   3.795  1.00  0.00     0.009 A 
ATOM     85  C   UNL     1      14.259 -11.325   3.810  1.00  0.00     0.009 A 
ATOM     86  C   UNL     1      15.196  -8.767   4.399  1.00  0.00     0.001 A 
ATOM     87  C   UNL     1      15.498 -11.157   4.434  1.00  0.00     0.001 A 
ATOM     88  C   UNL     1      15.969  -9.879   4.723  1.00  0.00     0.000 A 
ENDBRANCH  70  83
ENDBRANCH  44  45
ENDBRANCH  36  39
ENDBRANCH  34  35
ENDBRANCH  33  34
ENDBRANCH   1  33
TORSDOF 15
