REMARK SMILES COC(=O)c1c(NC(=O)[C@@H]2C[C@@H]2C(=O)NCCCNC(=O)c2ccc(-c3c4nc(c(-c5ccccc5)c5ccc([nH]5)c(-c5ccccc5)c5nc(c(-c6ccccc6)c6ccc3[nH]6)C=C5)C=C4)cc2)sc2c1CC[N@@H+](Cc1ccccc1)C2
REMARK SMILES IDX 16 1 15 2 13 3 14 4 12 6 10 7 11 8 8 9 7 10 9 12 6 13 5 14
REMARK SMILES IDX 72 15 70 16 71 17 73 18 83 19 74 20 75 21 3 23 4 24 2 25
REMARK SMILES IDX 1 26 76 27 77 28 78 29 82 30 79 31 81 32 80 33 17 34 18 35
REMARK SMILES IDX 19 36 20 37 21 39 22 40 23 41 69 42 24 43 68 44 25 45 26 46
REMARK SMILES IDX 27 47 62 48 28 49 67 50 61 51 63 52 29 53 66 54 60 55 59 56
REMARK SMILES IDX 30 58 52 59 37 60 51 61 38 62 41 63 50 64 64 65 39 66 40 67
REMARK SMILES IDX 49 69 65 70 42 71 31 72 32 73 36 74 33 75 35 76 34 77 53 78
REMARK SMILES IDX 54 79 58 80 55 81 57 82 56 83 43 84 44 85 48 86 45 87 47 88
REMARK SMILES IDX 46 89
REMARK H PARENT 15 5 7 11 75 22 19 38 63 57 41 68
REMARK Flexibility Score: inf
ROOT
ATOM      1  C   UNL     1      -0.891   1.742  -4.897  1.00  0.00     0.117 C 
ENDROOT
BRANCH   1   2
ATOM      2  N   UNL     1      -0.511  -0.185  -4.036  1.00  0.00    -0.356 N 
ATOM      3  C   UNL     1      -0.652  -1.035  -2.788  1.00  0.00     0.223 C 
ATOM      4  O   UNL     1      -0.705  -2.251  -2.996  1.00  0.00    -0.275 OA
ATOM      5  H   UNL     1      -0.070  -0.735  -4.722  1.00  0.00     0.163 HD
BRANCH   3   6
ATOM      6  C   UNL     1      -0.843  -0.643  -1.287  1.00  0.00     0.091 C 
ATOM      7  C   UNL     1      -2.222  -0.321  -0.737  1.00  0.00     0.092 C 
ATOM      8  C   UNL     1      -1.133   0.656  -0.510  1.00  0.00     0.028 C 
BRANCH   7   9
ATOM      9  C   UNL     1      -3.321   0.110  -1.603  1.00  0.00     0.228 C 
ATOM     10  N   UNL     1      -3.037   0.787  -2.751  1.00  0.00    -0.317 N 
ATOM     11  H   UNL     1      -3.802   1.178  -3.230  1.00  0.00     0.170 HD
ATOM     12  O   UNL     1      -4.475  -0.184  -1.315  1.00  0.00    -0.274 OA
BRANCH  10  13
ATOM     13  C   UNL     1      -1.794   0.985  -3.314  1.00  0.00     0.110 A 
ATOM     14  C   UNL     1       0.003   1.401  -3.117  1.00  0.00     0.098 A 
ATOM     15  C   UNL     1       1.002   0.888  -4.686  1.00  0.00    -0.006 A 
ATOM     16  S   UNL     1      -2.136  -0.098  -5.364  1.00  0.00    -0.116 S 
ATOM     17  C   UNL     1       0.060   0.222  -5.926  1.00  0.00     0.065 A 
ATOM     18  C   UNL     1       2.477   0.976  -4.930  1.00  0.00     0.099 C 
ATOM     19  C   UNL     1       0.587  -0.380  -7.161  1.00  0.00     0.310 C 
ATOM     20  C   UNL     1       2.789   0.776  -6.441  1.00  0.00     0.267 C 
ATOM     21  N   UNL     1       2.062  -0.252  -7.211  1.00  0.00    -0.326 N 
ATOM     22  H   UNL     1       2.052   0.283  -8.079  1.00  0.00     0.348 HD
BRANCH  14  23
ATOM     23  C   UNL     1       0.884   1.699  -1.968  1.00  0.00     0.341 C 
ATOM     24  O   UNL     1       1.060   2.822  -1.521  1.00  0.00    -0.246 OA
BRANCH  23  25
ATOM     25  O   UNL     1       1.541   0.573  -1.524  1.00  0.00    -0.465 OA
ATOM     26  C   UNL     1       1.994   0.547  -0.158  1.00  0.00     0.282 C 
ENDBRANCH  23  25
ENDBRANCH  14  23
BRANCH  21  27
ATOM     27  C   UNL     1       2.806  -1.486  -7.470  1.00  0.00     0.299 C 
BRANCH  27  28
ATOM     28  C   UNL     1       2.839  -2.340  -6.246  1.00  0.00     0.006 A 
ATOM     29  C   UNL     1       3.833  -2.127  -5.288  1.00  0.00     0.009 A 
ATOM     30  C   UNL     1       1.709  -3.103  -5.941  1.00  0.00     0.009 A 
ATOM     31  C   UNL     1       3.589  -2.493  -3.972  1.00  0.00     0.001 A 
ATOM     32  C   UNL     1       1.464  -3.448  -4.627  1.00  0.00     0.001 A 
ATOM     33  C   UNL     1       2.381  -3.101  -3.638  1.00  0.00     0.000 A 
ENDBRANCH  27  28
ENDBRANCH  21  27
ENDBRANCH  10  13
ENDBRANCH   7   9
ENDBRANCH   3   6
ENDBRANCH   1   2
BRANCH   1  34
ATOM     34  C   UNL     1       0.017   3.016  -5.529  1.00  0.00     0.042 C 
BRANCH  34  35
ATOM     35  C   UNL     1       0.092   3.299  -7.045  1.00  0.00     0.118 C 
BRANCH  35  36
ATOM     36  N   UNL     1      -1.019   2.927  -7.949  1.00  0.00    -0.352 N 
ATOM     37  C   UNL     1      -1.110   2.763  -9.351  1.00  0.00     0.251 C 
ATOM     38  H   UNL     1      -1.868   2.761  -7.479  1.00  0.00     0.163 HD
ATOM     39  O   UNL     1      -2.202   2.961  -9.885  1.00  0.00    -0.269 OA
BRANCH  37  40
ATOM     40  C   UNL     1      -0.019   2.153 -10.186  1.00  0.00     0.039 A 
ATOM     41  C   UNL     1      -0.068   1.771 -11.537  1.00  0.00     0.014 A 
ATOM     42  C   UNL     1       1.051   1.675  -9.514  1.00  0.00     0.014 A 
ATOM     43  C   UNL     1       0.782   0.713 -12.030  1.00  0.00     0.010 A 
ATOM     44  C   UNL     1       1.800   0.628  -9.960  1.00  0.00     0.010 A 
ATOM     45  C   UNL     1       1.609   0.005 -11.155  1.00  0.00    -0.014 A 
BRANCH  45  46
ATOM     46  C   UNL     1       2.669  -1.021 -11.321  1.00  0.00     0.031 A 
ATOM     47  C   UNL     1       3.959  -0.280 -11.585  1.00  0.00     0.074 A 
ATOM     48  C   UNL     1       2.668  -2.346 -10.967  1.00  0.00     0.049 A 
ATOM     49  N   UNL     1       4.291   0.091 -12.777  1.00  0.00    -0.248 NA
ATOM     50  C   UNL     1       4.740   0.449 -10.539  1.00  0.00     0.031 C 
ATOM     51  C   UNL     1       1.620  -3.212 -10.396  1.00  0.00     0.029 A 
ATOM     52  N   UNL     1       3.717  -3.242 -11.037  1.00  0.00    -0.354 N 
ATOM     53  C   UNL     1       5.485   0.769 -12.637  1.00  0.00     0.074 A 
ATOM     54  C   UNL     1       5.512   1.244 -11.287  1.00  0.00     0.031 C 
ATOM     55  C   UNL     1       2.141  -4.413 -10.004  1.00  0.00     0.029 A 
ATOM     56  C   UNL     1       3.532  -4.499 -10.417  1.00  0.00     0.049 A 
ATOM     57  H   UNL     1       4.557  -3.015 -11.499  1.00  0.00     0.167 HD
ATOM     58  C   UNL     1       6.503   0.512 -13.501  1.00  0.00     0.031 A 
ATOM     59  C   UNL     1       4.421  -5.550 -10.343  1.00  0.00     0.031 A 
ATOM     60  C   UNL     1       6.029  -0.321 -14.586  1.00  0.00     0.049 A 
ATOM     61  C   UNL     1       5.381  -5.370 -11.459  1.00  0.00     0.074 A 
ATOM     62  C   UNL     1       5.014  -0.203 -15.516  1.00  0.00     0.029 A 
ATOM     63  N   UNL     1       6.280  -1.668 -14.450  1.00  0.00    -0.354 N 
ATOM     64  N   UNL     1       5.018  -5.471 -12.705  1.00  0.00    -0.248 NA
ATOM     65  C   UNL     1       6.537  -4.530 -11.193  1.00  0.00     0.031 C 
ATOM     66  C   UNL     1       4.396  -1.487 -15.550  1.00  0.00     0.029 A 
ATOM     67  C   UNL     1       5.149  -2.369 -14.776  1.00  0.00     0.049 A 
ATOM     68  H   UNL     1       7.135  -2.064 -14.164  1.00  0.00     0.167 HD
ATOM     69  C   UNL     1       5.537  -4.330 -13.291  1.00  0.00     0.074 A 
ATOM     70  C   UNL     1       6.502  -3.803 -12.315  1.00  0.00     0.031 C 
ATOM     71  C   UNL     1       4.890  -3.718 -14.327  1.00  0.00     0.031 A 
BRANCH  58  72
ATOM     72  C   UNL     1       7.960   0.557 -13.128  1.00  0.00    -0.014 A 
ATOM     73  C   UNL     1       8.893   0.318 -14.150  1.00  0.00     0.009 A 
ATOM     74  C   UNL     1       8.445   0.548 -11.806  1.00  0.00     0.009 A 
ATOM     75  C   UNL     1      10.224   0.008 -13.861  1.00  0.00     0.001 A 
ATOM     76  C   UNL     1       9.784   0.274 -11.516  1.00  0.00     0.001 A 
ATOM     77  C   UNL     1      10.667  -0.021 -12.543  1.00  0.00     0.000 A 
ENDBRANCH  58  72
BRANCH  59  78
ATOM     78  C   UNL     1       4.735  -6.566  -9.278  1.00  0.00    -0.014 A 
ATOM     79  C   UNL     1       5.575  -7.688  -9.508  1.00  0.00     0.009 A 
ATOM     80  C   UNL     1       4.486  -6.247  -7.935  1.00  0.00     0.009 A 
ATOM     81  C   UNL     1       6.156  -8.418  -8.446  1.00  0.00     0.001 A 
ATOM     82  C   UNL     1       5.074  -6.966  -6.877  1.00  0.00     0.001 A 
ATOM     83  C   UNL     1       5.919  -8.043  -7.129  1.00  0.00     0.000 A 
ENDBRANCH  59  78
BRANCH  71  84
ATOM     84  C   UNL     1       3.715  -4.425 -14.965  1.00  0.00    -0.014 A 
ATOM     85  C   UNL     1       2.510  -4.740 -14.308  1.00  0.00     0.009 A 
ATOM     86  C   UNL     1       3.783  -4.631 -16.349  1.00  0.00     0.009 A 
ATOM     87  C   UNL     1       1.423  -5.271 -15.020  1.00  0.00     0.001 A 
ATOM     88  C   UNL     1       2.696  -5.139 -17.061  1.00  0.00     0.001 A 
ATOM     89  C   UNL     1       1.519  -5.468 -16.396  1.00  0.00     0.000 A 
ENDBRANCH  71  84
ENDBRANCH  45  46
ENDBRANCH  37  40
ENDBRANCH  35  36
ENDBRANCH  34  35
ENDBRANCH   1  34
TORSDOF 16
