REMARK SMILES CC(C)c1cc(C#N)cc2nc(-c3ccc(C(=O)NCCCNC(=O)c4ccc(-c5c6nc(c(-c7ccccc7)c7ccc([nH]7)c(-c7ccccc7)c7nc(c(-c8ccccc8)c8ccc5[nH]8)C=C7)C=C6)cc4)cc3)oc12
REMARK SMILES IDX 21 1 20 2 19 3 17 4 18 5 16 7 13 8 14 9 75 10 15 11 74 12
REMARK SMILES IDX 12 13 4 14 5 15 77 16 6 17 10 18 76 19 9 20 11 21 2 22 1 23
REMARK SMILES IDX 3 24 7 25 8 26 22 27 23 28 24 29 25 31 26 32 27 33 73 34
REMARK SMILES IDX 28 35 72 36 29 37 30 38 31 39 66 40 32 41 71 42 65 43 67 44
REMARK SMILES IDX 33 45 70 46 64 47 63 48 34 50 56 51 41 52 55 53 42 54 45 55
REMARK SMILES IDX 54 56 68 57 43 58 44 59 53 61 69 62 46 63 35 64 36 65 40 66
REMARK SMILES IDX 37 67 39 68 38 69 57 70 58 71 62 72 59 73 61 74 60 75 47 76
REMARK SMILES IDX 48 77 52 78 49 79 51 80 50 81
REMARK H PARENT 19 6 23 30 67 49 45 60
REMARK Flexibility Score: inf
ROOT
ATOM      1  C   UNL     1      -3.423 -10.291  -2.720  1.00  0.00     0.042 C 
ENDROOT
BRANCH   1   2
ATOM      2  C   UNL     1      -3.974  -9.998  -1.324  1.00  0.00     0.118 C 
BRANCH   2   3
ATOM      3  N   UNL     1      -3.116 -10.380  -0.207  1.00  0.00    -0.352 N 
ATOM      4  C   UNL     1      -2.554  -9.696   0.853  1.00  0.00     0.251 C 
ATOM      5  O   UNL     1      -1.923 -10.362   1.678  1.00  0.00    -0.269 OA
ATOM      6  H   UNL     1      -2.888 -11.338  -0.209  1.00  0.00     0.163 HD
BRANCH   4   7
ATOM      7  C   UNL     1      -2.607  -8.213   1.034  1.00  0.00     0.039 A 
ATOM      8  C   UNL     1      -2.473  -5.388   1.272  1.00  0.00     0.037 A 
ATOM      9  C   UNL     1      -1.548  -6.189   1.944  1.00  0.00     0.014 A 
ATOM     10  C   UNL     1      -3.501  -6.015   0.559  1.00  0.00     0.014 A 
ATOM     11  C   UNL     1      -1.613  -7.591   1.817  1.00  0.00     0.014 A 
ATOM     12  C   UNL     1      -3.600  -7.403   0.497  1.00  0.00     0.014 A 
BRANCH   8  13
ATOM     13  C   UNL     1      -2.507  -3.935   1.325  1.00  0.00     0.227 A 
ATOM     14  C   UNL     1      -0.915  -0.785   1.126  1.00  0.00     0.001 A 
ATOM     15  C   UNL     1      -1.646   0.429   1.084  1.00  0.00     0.027 A 
ATOM     16  C   UNL     1      -1.718  -1.929   1.209  1.00  0.00     0.158 A 
ATOM     17  C   UNL     1      -3.051   0.474   1.087  1.00  0.00     0.055 A 
ATOM     18  C   UNL     1      -3.104  -1.915   1.201  1.00  0.00     0.111 A 
ATOM     19  O   UNL     1      -1.322  -3.243   1.304  1.00  0.00    -0.436 OA
ATOM     20  C   UNL     1      -3.799  -0.706   1.129  1.00  0.00     0.052 A 
ATOM     21  N   UNL     1      -3.590  -3.184   1.260  1.00  0.00    -0.209 NA
BRANCH  14  22
ATOM     22  C   UNL     1       0.596  -0.815   1.106  1.00  0.00     0.017 C 
ATOM     23  C   UNL     1       1.176  -0.022  -0.070  1.00  0.00     0.012 C 
ATOM     24  C   UNL     1       1.159  -0.311   2.435  1.00  0.00     0.012 C 
ENDBRANCH  14  22
BRANCH  17  25
ATOM     25  C   UNL     1      -3.732   1.730   1.055  1.00  0.00     0.099 C 
ATOM     26  N   UNL     1      -4.293   2.754   1.037  1.00  0.00    -0.192 NA
ENDBRANCH  17  25
ENDBRANCH   8  13
ENDBRANCH   4   7
ENDBRANCH   2   3
ENDBRANCH   1   2
BRANCH   1  27
ATOM     27  C   UNL     1      -3.499 -11.740  -3.183  1.00  0.00     0.118 C 
BRANCH  27  28
ATOM     28  N   UNL     1      -4.806 -12.351  -3.041  1.00  0.00    -0.352 N 
ATOM     29  C   UNL     1      -5.899 -12.570  -3.829  1.00  0.00     0.251 C 
ATOM     30  H   UNL     1      -4.942 -12.702  -2.131  1.00  0.00     0.163 HD
ATOM     31  O   UNL     1      -6.719 -13.363  -3.356  1.00  0.00    -0.269 OA
BRANCH  29  32
ATOM     32  C   UNL     1      -6.242 -11.906  -5.122  1.00  0.00     0.039 A 
ATOM     33  C   UNL     1      -5.522 -10.912  -5.778  1.00  0.00     0.014 A 
ATOM     34  C   UNL     1      -7.492 -12.281  -5.668  1.00  0.00     0.014 A 
ATOM     35  C   UNL     1      -6.115 -10.223  -6.854  1.00  0.00     0.010 A 
ATOM     36  C   UNL     1      -8.074 -11.612  -6.742  1.00  0.00     0.010 A 
ATOM     37  C   UNL     1      -7.425 -10.523  -7.298  1.00  0.00    -0.014 A 
BRANCH  37  38
ATOM     38  C   UNL     1      -7.982  -9.874  -8.502  1.00  0.00     0.031 A 
ATOM     39  C   UNL     1      -7.086 -10.084  -9.667  1.00  0.00     0.074 A 
ATOM     40  C   UNL     1      -9.166  -9.219  -8.644  1.00  0.00     0.049 A 
ATOM     41  N   UNL     1      -6.268  -9.203 -10.134  1.00  0.00    -0.248 NA
ATOM     42  C   UNL     1      -6.886 -11.434 -10.218  1.00  0.00     0.031 C 
ATOM     43  C   UNL     1     -10.238  -9.048  -7.657  1.00  0.00     0.029 A 
ATOM     44  N   UNL     1      -9.693  -8.567  -9.740  1.00  0.00    -0.354 N 
ATOM     45  C   UNL     1      -5.628  -9.806 -11.205  1.00  0.00     0.074 A 
ATOM     46  C   UNL     1      -5.897 -11.216 -11.090  1.00  0.00     0.031 C 
ATOM     47  C   UNL     1     -11.352  -8.546  -8.252  1.00  0.00     0.029 A 
ATOM     48  C   UNL     1     -11.050  -8.222  -9.637  1.00  0.00     0.049 A 
ATOM     49  H   UNL     1      -9.156  -8.358 -10.538  1.00  0.00     0.167 HD
ATOM     50  C   UNL     1      -5.205  -9.039 -12.246  1.00  0.00     0.031 A 
ATOM     51  C   UNL     1     -11.854  -7.599 -10.552  1.00  0.00     0.031 A 
ATOM     52  C   UNL     1      -5.176  -7.644 -11.867  1.00  0.00     0.049 A 
ATOM     53  C   UNL     1     -10.966  -6.852 -11.456  1.00  0.00     0.074 A 
ATOM     54  C   UNL     1      -4.499  -6.880 -10.940  1.00  0.00     0.029 A 
ATOM     55  N   UNL     1      -6.308  -6.949 -12.206  1.00  0.00    -0.354 N 
ATOM     56  N   UNL     1     -10.307  -5.793 -11.096  1.00  0.00    -0.248 NA
ATOM     57  C   UNL     1     -10.487  -7.536 -12.641  1.00  0.00     0.031 C 
ATOM     58  C   UNL     1      -5.442  -5.908 -10.492  1.00  0.00     0.029 A 
ATOM     59  C   UNL     1      -6.614  -6.037 -11.240  1.00  0.00     0.049 A 
ATOM     60  H   UNL     1      -6.828  -7.090 -13.030  1.00  0.00     0.167 HD
ATOM     61  C   UNL     1      -9.066  -5.972 -11.677  1.00  0.00     0.074 A 
ATOM     62  C   UNL     1      -9.274  -6.987 -12.713  1.00  0.00     0.031 C 
ATOM     63  C   UNL     1      -7.947  -5.505 -11.052  1.00  0.00     0.031 A 
BRANCH  50  64
ATOM     64  C   UNL     1      -5.376  -9.457 -13.692  1.00  0.00    -0.014 A 
ATOM     65  C   UNL     1      -6.123 -10.578 -14.099  1.00  0.00     0.009 A 
ATOM     66  C   UNL     1      -5.034  -8.535 -14.700  1.00  0.00     0.009 A 
ATOM     67  C   UNL     1      -6.522 -10.767 -15.425  1.00  0.00     0.001 A 
ATOM     68  C   UNL     1      -5.462  -8.701 -16.024  1.00  0.00     0.001 A 
ATOM     69  C   UNL     1      -6.207  -9.818 -16.385  1.00  0.00     0.000 A 
ENDBRANCH  50  64
BRANCH  51  70
ATOM     70  C   UNL     1     -13.228  -7.952 -11.034  1.00  0.00    -0.014 A 
ATOM     71  C   UNL     1     -13.738  -9.243 -10.838  1.00  0.00     0.009 A 
ATOM     72  C   UNL     1     -13.882  -7.143 -11.994  1.00  0.00     0.009 A 
ATOM     73  C   UNL     1     -14.798  -9.734 -11.619  1.00  0.00     0.001 A 
ATOM     74  C   UNL     1     -14.942  -7.635 -12.776  1.00  0.00     0.001 A 
ATOM     75  C   UNL     1     -15.384  -8.941 -12.603  1.00  0.00     0.000 A 
ENDBRANCH  51  70
BRANCH  63  76
ATOM     76  C   UNL     1      -8.104  -4.477  -9.954  1.00  0.00    -0.014 A 
ATOM     77  C   UNL     1      -7.346  -3.302 -10.084  1.00  0.00     0.009 A 
ATOM     78  C   UNL     1      -8.809  -4.685  -8.756  1.00  0.00     0.009 A 
ATOM     79  C   UNL     1      -7.251  -2.384  -9.040  1.00  0.00     0.001 A 
ATOM     80  C   UNL     1      -8.741  -3.744  -7.719  1.00  0.00     0.001 A 
ATOM     81  C   UNL     1      -7.947  -2.605  -7.856  1.00  0.00     0.000 A 
ENDBRANCH  63  76
ENDBRANCH  37  38
ENDBRANCH  29  32
ENDBRANCH  27  28
ENDBRANCH   1  27
TORSDOF 13
