REMARK SMILES O=C(NCCCNC(=O)c1ccc(-c2c3nc(c(-c4ccccc4)c4ccc([nH]4)c(-c4ccccc4)c4nc(c(-c5ccccc5)c5ccc2[nH]5)C=C4)C=C3)cc1)C1=Cc2c(Cl)cc(Cl)cc2O[C@@H]1C(F)(F)F
REMARK SMILES IDX 5 1 4 2 3 3 1 4 2 5 58 7 59 8 69 9 60 10 68 11 61 12 67 13
REMARK SMILES IDX 62 14 63 15 66 16 64 17 65 18 70 19 71 20 72 21 73 22 6 23
REMARK SMILES IDX 7 24 8 25 9 27 10 28 11 29 57 30 12 31 56 32 13 33 14 34
REMARK SMILES IDX 15 35 50 36 16 37 55 38 49 39 51 40 17 41 54 42 48 43 47 44
REMARK SMILES IDX 18 46 40 47 25 48 39 49 26 50 29 51 38 52 52 53 27 54 28 55
REMARK SMILES IDX 37 57 53 58 30 59 19 60 20 61 24 62 21 63 23 64 22 65 41 66
REMARK SMILES IDX 42 67 46 68 43 69 45 70 44 71 31 72 32 73 36 74 33 75 35 76
REMARK SMILES IDX 34 77
REMARK H PARENT 3 6 7 26 51 45 29 56
REMARK Flexibility Score: inf
ROOT
ATOM      1  C   UNL     1       4.103   0.627   2.606  1.00  0.00     0.042 C 
ENDROOT
BRANCH   1   2
ATOM      2  C   UNL     1       3.270  -0.159   1.599  1.00  0.00     0.118 C 
BRANCH   2   3
ATOM      3  N   UNL     1       2.263   0.656   0.918  1.00  0.00    -0.352 N 
ATOM      4  O   UNL     1       1.086   1.471  -0.840  1.00  0.00    -0.270 OA
ATOM      5  C   UNL     1       2.102   0.939  -0.417  1.00  0.00     0.251 C 
ATOM      6  H   UNL     1       1.594   1.068   1.512  1.00  0.00     0.163 HD
BRANCH   5   7
ATOM      7  C   UNL     1       3.183   0.515  -1.325  1.00  0.00     0.067 C 
ATOM      8  C   UNL     1       4.349   1.163  -1.222  1.00  0.00     0.027 C 
ATOM      9  C   UNL     1       3.045  -0.822  -1.975  1.00  0.00     0.314 C 
ATOM     10  C   UNL     1       5.512   0.265  -1.088  1.00  0.00     0.036 A 
ATOM     11  O   UNL     1       4.138  -1.709  -1.636  1.00  0.00    -0.475 OA
ATOM     12  C   UNL     1       6.693   0.725  -0.475  1.00  0.00     0.053 A 
ATOM     13  C   UNL     1       5.298  -1.129  -1.177  1.00  0.00     0.130 A 
ATOM     14  Cl  UNL     1       7.047   2.410  -0.287  1.00  0.00    -0.083 Cl
ATOM     15  C   UNL     1       7.567  -0.176   0.138  1.00  0.00     0.042 A 
ATOM     16  C   UNL     1       6.189  -2.026  -0.586  1.00  0.00     0.067 A 
ATOM     17  C   UNL     1       7.294  -1.540   0.104  1.00  0.00     0.046 A 
ATOM     18  Cl  UNL     1       8.281  -2.625   1.002  1.00  0.00    -0.084 Cl
BRANCH   9  19
ATOM     19  C   UNL     1       2.909  -0.683  -3.499  1.00  0.00     0.429 C 
ATOM     20  F   UNL     1       2.620  -1.877  -4.072  1.00  0.00    -0.167 F 
ATOM     21  F   UNL     1       1.914   0.167  -3.842  1.00  0.00    -0.167 F 
ATOM     22  F   UNL     1       4.047  -0.227  -4.073  1.00  0.00    -0.167 F 
ENDBRANCH   9  19
ENDBRANCH   5   7
ENDBRANCH   2   3
ENDBRANCH   1   2
BRANCH   1  23
ATOM     23  C   UNL     1       4.017   0.044   4.010  1.00  0.00     0.118 C 
BRANCH  23  24
ATOM     24  N   UNL     1       4.598  -1.289   4.138  1.00  0.00    -0.352 N 
ATOM     25  C   UNL     1       5.408  -1.812   5.120  1.00  0.00     0.251 C 
ATOM     26  H   UNL     1       4.375  -1.911   3.408  1.00  0.00     0.163 HD
ATOM     27  O   UNL     1       5.838  -2.958   5.004  1.00  0.00    -0.269 OA
BRANCH  25  28
ATOM     28  C   UNL     1       5.796  -0.998   6.295  1.00  0.00     0.039 A 
ATOM     29  C   UNL     1       7.091  -1.116   6.810  1.00  0.00     0.014 A 
ATOM     30  C   UNL     1       4.896  -0.113   6.887  1.00  0.00     0.014 A 
ATOM     31  C   UNL     1       7.493  -0.302   7.873  1.00  0.00     0.010 A 
ATOM     32  C   UNL     1       5.337   0.788   7.845  1.00  0.00     0.010 A 
ATOM     33  C   UNL     1       6.628   0.681   8.378  1.00  0.00    -0.014 A 
BRANCH  33  34
ATOM     34  C   UNL     1       7.014   1.563   9.508  1.00  0.00     0.031 A 
ATOM     35  C   UNL     1       6.192   1.553  10.774  1.00  0.00     0.074 A 
ATOM     36  C   UNL     1       8.045   2.419   9.378  1.00  0.00     0.049 A 
ATOM     37  N   UNL     1       6.306   2.298  11.843  1.00  0.00    -0.248 NA
ATOM     38  C   UNL     1       5.057   0.614  10.823  1.00  0.00     0.031 C 
ATOM     39  C   UNL     1       8.876   2.578   8.182  1.00  0.00     0.029 A 
ATOM     40  N   UNL     1       8.570   3.322  10.268  1.00  0.00    -0.354 N 
ATOM     41  C   UNL     1       5.238   1.948  12.661  1.00  0.00     0.074 A 
ATOM     42  C   UNL     1       4.447   0.982  11.937  1.00  0.00     0.031 C 
ATOM     43  C   UNL     1       9.834   3.487   8.431  1.00  0.00     0.029 A 
ATOM     44  C   UNL     1       9.664   3.998   9.786  1.00  0.00     0.049 A 
ATOM     45  H   UNL     1       8.198   3.470  11.168  1.00  0.00     0.167 HD
ATOM     46  C   UNL     1       4.956   2.363  13.918  1.00  0.00     0.031 A 
ATOM     47  C   UNL     1      10.448   4.918  10.378  1.00  0.00     0.031 A 
ATOM     48  C   UNL     1       5.775   3.283  14.657  1.00  0.00     0.049 A 
ATOM     49  C   UNL     1      10.157   5.316  11.798  1.00  0.00     0.074 A 
ATOM     50  C   UNL     1       5.631   3.712  15.964  1.00  0.00     0.029 A 
ATOM     51  N   UNL     1       6.907   3.903  14.151  1.00  0.00    -0.354 N 
ATOM     52  N   UNL     1       9.184   4.922  12.585  1.00  0.00    -0.248 NA
ATOM     53  C   UNL     1      11.088   6.267  12.419  1.00  0.00     0.031 C 
ATOM     54  C   UNL     1       6.658   4.623  16.237  1.00  0.00     0.029 A 
ATOM     55  C   UNL     1       7.469   4.719  15.116  1.00  0.00     0.049 A 
ATOM     56  H   UNL     1       7.258   3.781  13.239  1.00  0.00     0.167 HD
ATOM     57  C   UNL     1       9.402   5.554  13.802  1.00  0.00     0.074 A 
ATOM     58  C   UNL     1      10.611   6.339  13.653  1.00  0.00     0.031 C 
ATOM     59  C   UNL     1       8.671   5.491  14.942  1.00  0.00     0.031 A 
BRANCH  46  60
ATOM     60  C   UNL     1       3.713   1.811  14.564  1.00  0.00    -0.014 A 
ATOM     61  C   UNL     1       3.611   0.453  14.911  1.00  0.00     0.009 A 
ATOM     62  C   UNL     1       2.626   2.658  14.826  1.00  0.00     0.009 A 
ATOM     63  C   UNL     1       2.430  -0.054  15.455  1.00  0.00     0.001 A 
ATOM     64  C   UNL     1       1.458   2.155  15.403  1.00  0.00     0.001 A 
ATOM     65  C   UNL     1       1.355   0.798  15.704  1.00  0.00     0.000 A 
ENDBRANCH  46  60
BRANCH  47  66
ATOM     66  C   UNL     1      11.615   5.481   9.651  1.00  0.00    -0.014 A 
ATOM     67  C   UNL     1      12.921   5.115  10.014  1.00  0.00     0.009 A 
ATOM     68  C   UNL     1      11.435   6.381   8.590  1.00  0.00     0.009 A 
ATOM     69  C   UNL     1      14.022   5.661   9.349  1.00  0.00     0.001 A 
ATOM     70  C   UNL     1      12.537   6.903   7.908  1.00  0.00     0.001 A 
ATOM     71  C   UNL     1      13.829   6.551   8.294  1.00  0.00     0.000 A 
ENDBRANCH  47  66
BRANCH  59  72
ATOM     72  C   UNL     1       9.186   6.263  16.124  1.00  0.00    -0.014 A 
ATOM     73  C   UNL     1       9.133   7.665  16.160  1.00  0.00     0.009 A 
ATOM     74  C   UNL     1       9.712   5.570  17.225  1.00  0.00     0.009 A 
ATOM     75  C   UNL     1       9.640   8.360  17.260  1.00  0.00     0.001 A 
ATOM     76  C   UNL     1      10.189   6.267  18.336  1.00  0.00     0.001 A 
ATOM     77  C   UNL     1      10.164   7.660  18.347  1.00  0.00     0.000 A 
ENDBRANCH  59  72
ENDBRANCH  33  34
ENDBRANCH  25  28
ENDBRANCH  23  24
ENDBRANCH   1  23
TORSDOF 11
