REMARK SMILES CC(C)[C@@H](NC(=O)/C(=C\c1ccccc1F)NC(=O)c1ccccc1)C(=O)NCCCNC(=O)c1ccc(-c2c3nc(c(-c4ccccc4)c4ccc([nH]4)c(-c4ccccc4)c4nc(c(-c5ccccc5)c5ccc2[nH]5)C=C4)C=C3)cc1
REMARK SMILES IDX 29 1 28 2 26 3 27 4 4 6 2 7 1 8 3 9 5 10 6 11 7 13 8 14 9 15
REMARK SMILES IDX 17 16 18 17 19 19 20 20 21 21 25 22 22 23 24 24 23 25 10 26
REMARK SMILES IDX 11 27 15 28 12 29 14 30 16 31 13 32 30 33 31 34 32 35 33 36
REMARK SMILES IDX 34 38 35 39 36 40 82 41 37 42 81 43 38 44 39 45 40 46 75 47
REMARK SMILES IDX 41 48 80 49 74 50 76 51 42 52 79 53 73 54 72 55 43 57 65 58
REMARK SMILES IDX 50 59 64 60 51 61 54 62 63 63 77 64 52 65 53 66 62 68 78 69
REMARK SMILES IDX 55 70 44 71 45 72 49 73 46 74 48 75 47 76 66 77 67 78 71 79
REMARK SMILES IDX 68 80 70 81 69 82 56 83 57 84 61 85 58 86 60 87 59 88
REMARK H PARENT 28 5 5 12 17 18 32 37 76 56 54 67
REMARK Flexibility Score: inf
ROOT
ATOM      1  C   UNL     1       0.019   3.256  -2.581  1.00  0.00     0.117 C 
ENDROOT
BRANCH   1   2
ATOM      2  N   UNL     1      -0.359   1.945  -3.052  1.00  0.00    -0.354 N 
ATOM      3  C   UNL     1      -0.131   0.771  -2.417  1.00  0.00     0.242 C 
ATOM      4  O   UNL     1       0.339  -0.148  -3.090  1.00  0.00    -0.273 OA
ATOM      5  H   UNL     1      -0.827   1.900  -3.917  1.00  0.00     0.163 HD
BRANCH   3   6
ATOM      6  C   UNL     1      -0.311   0.667  -0.905  1.00  0.00     0.174 C 
BRANCH   6   7
ATOM      7  C   UNL     1       1.073   0.899  -0.207  1.00  0.00     0.015 C 
ATOM      8  C   UNL     1       1.112   0.301   1.203  1.00  0.00     0.010 C 
ATOM      9  C   UNL     1       2.259   0.308  -0.995  1.00  0.00     0.010 C 
ENDBRANCH   6   7
BRANCH   6  10
ATOM     10  N   UNL     1      -1.383   1.548  -0.376  1.00  0.00    -0.339 N 
ATOM     11  C   UNL     1      -2.731   1.524  -0.674  1.00  0.00     0.268 C 
ATOM     12  H   UNL     1      -1.097   2.235   0.269  1.00  0.00     0.164 HD
ATOM     13  O   UNL     1      -3.529   1.500   0.264  1.00  0.00    -0.268 OA
BRANCH  11  14
ATOM     14  C   UNL     1      -3.248   1.788  -2.074  1.00  0.00     0.107 C 
ATOM     15  C   UNL     1      -3.347   0.847  -3.042  1.00  0.00     0.043 C 
BRANCH  14  16
ATOM     16  N   UNL     1      -3.741   3.042  -2.424  1.00  0.00    -0.317 N 
ATOM     17  C   UNL     1      -3.944   4.239  -1.785  1.00  0.00     0.255 C 
ATOM     18  H   UNL     1      -4.012   3.079  -3.370  1.00  0.00     0.170 HD
ATOM     19  O   UNL     1      -4.434   5.171  -2.423  1.00  0.00    -0.269 OA
BRANCH  17  20
ATOM     20  C   UNL     1      -3.623   4.468  -0.376  1.00  0.00     0.040 A 
ATOM     21  C   UNL     1      -4.673   4.586   0.537  1.00  0.00     0.014 A 
ATOM     22  C   UNL     1      -2.305   4.692   0.022  1.00  0.00     0.014 A 
ATOM     23  C   UNL     1      -4.389   4.849   1.876  1.00  0.00     0.001 A 
ATOM     24  C   UNL     1      -2.023   4.940   1.364  1.00  0.00     0.001 A 
ATOM     25  C   UNL     1      -3.065   5.008   2.290  1.00  0.00     0.000 A 
ENDBRANCH  17  20
ENDBRANCH  14  16
BRANCH  15  26
ATOM     26  C   UNL     1      -2.889  -0.546  -3.083  1.00  0.00     0.012 A 
ATOM     27  C   UNL     1      -2.168  -0.954  -4.219  1.00  0.00     0.011 A 
ATOM     28  C   UNL     1      -3.077  -1.464  -2.052  1.00  0.00     0.130 A 
ATOM     29  C   UNL     1      -1.519  -2.191  -4.242  1.00  0.00     0.001 A 
ATOM     30  C   UNL     1      -2.446  -2.705  -2.077  1.00  0.00     0.040 A 
ATOM     31  F   UNL     1      -3.840  -1.154  -0.997  1.00  0.00    -0.206 F 
ATOM     32  C   UNL     1      -1.634  -3.054  -3.156  1.00  0.00     0.003 A 
ENDBRANCH  15  26
ENDBRANCH  11  14
ENDBRANCH   6  10
ENDBRANCH   3   6
ENDBRANCH   1   2
BRANCH   1  33
ATOM     33  C   UNL     1       1.209   3.728  -3.395  1.00  0.00     0.042 C 
BRANCH  33  34
ATOM     34  C   UNL     1       0.816   3.939  -4.850  1.00  0.00     0.118 C 
BRANCH  34  35
ATOM     35  N   UNL     1      -0.052   5.098  -5.005  1.00  0.00    -0.352 N 
ATOM     36  C   UNL     1       0.260   6.311  -5.567  1.00  0.00     0.251 C 
ATOM     37  H   UNL     1      -0.971   5.000  -4.667  1.00  0.00     0.163 HD
ATOM     38  O   UNL     1      -0.444   7.292  -5.391  1.00  0.00    -0.269 OA
BRANCH  36  39
ATOM     39  C   UNL     1       1.490   6.398  -6.374  1.00  0.00     0.039 A 
ATOM     40  C   UNL     1       2.394   7.429  -6.128  1.00  0.00     0.014 A 
ATOM     41  C   UNL     1       1.768   5.406  -7.319  1.00  0.00     0.014 A 
ATOM     42  C   UNL     1       3.615   7.431  -6.798  1.00  0.00     0.010 A 
ATOM     43  C   UNL     1       3.026   5.346  -7.893  1.00  0.00     0.010 A 
ATOM     44  C   UNL     1       3.954   6.370  -7.656  1.00  0.00    -0.014 A 
BRANCH  44  45
ATOM     45  C   UNL     1       5.263   6.324  -8.347  1.00  0.00     0.031 A 
ATOM     46  C   UNL     1       5.310   6.340  -9.850  1.00  0.00     0.074 A 
ATOM     47  C   UNL     1       6.396   6.203  -7.629  1.00  0.00     0.049 A 
ATOM     48  N   UNL     1       6.345   6.245 -10.644  1.00  0.00    -0.248 NA
ATOM     49  C   UNL     1       4.020   6.442 -10.556  1.00  0.00     0.031 C 
ATOM     50  C   UNL     1       6.474   6.128  -6.168  1.00  0.00     0.029 A 
ATOM     51  N   UNL     1       7.702   6.120  -8.036  1.00  0.00    -0.354 N 
ATOM     52  C   UNL     1       5.830   6.254 -11.934  1.00  0.00     0.074 A 
ATOM     53  C   UNL     1       4.390   6.299 -11.819  1.00  0.00     0.031 C 
ATOM     54  C   UNL     1       7.763   6.049  -5.801  1.00  0.00     0.029 A 
ATOM     55  C   UNL     1       8.597   6.022  -6.998  1.00  0.00     0.049 A 
ATOM     56  H   UNL     1       7.974   6.130  -8.982  1.00  0.00     0.167 HD
ATOM     57  C   UNL     1       6.496   6.253 -13.111  1.00  0.00     0.031 A 
ATOM     58  C   UNL     1       9.938   5.919  -7.012  1.00  0.00     0.031 A 
ATOM     59  C   UNL     1       7.928   6.229 -13.222  1.00  0.00     0.049 A 
ATOM     60  C   UNL     1      10.655   5.913  -8.333  1.00  0.00     0.074 A 
ATOM     61  C   UNL     1       8.705   6.287 -14.365  1.00  0.00     0.029 A 
ATOM     62  N   UNL     1       8.798   6.140 -12.147  1.00  0.00    -0.354 N 
ATOM     63  N   UNL     1      10.158   5.995  -9.544  1.00  0.00    -0.248 NA
ATOM     64  C   UNL     1      12.120   5.812  -8.289  1.00  0.00     0.031 C 
ATOM     65  C   UNL     1      10.046   6.178 -13.984  1.00  0.00     0.029 A 
ATOM     66  C   UNL     1      10.105   6.115 -12.601  1.00  0.00     0.049 A 
ATOM     67  H   UNL     1       8.527   6.100 -11.201  1.00  0.00     0.167 HD
ATOM     68  C   UNL     1      11.249   5.985 -10.403  1.00  0.00     0.074 A 
ATOM     69  C   UNL     1      12.434   5.906  -9.573  1.00  0.00     0.031 C 
ATOM     70  C   UNL     1      11.270   6.037 -11.757  1.00  0.00     0.031 A 
BRANCH  57  71
ATOM     71  C   UNL     1       5.675   6.277 -14.370  1.00  0.00    -0.014 A 
ATOM     72  C   UNL     1       4.930   7.411 -14.735  1.00  0.00     0.009 A 
ATOM     73  C   UNL     1       5.663   5.158 -15.217  1.00  0.00     0.009 A 
ATOM     74  C   UNL     1       4.161   7.409 -15.901  1.00  0.00     0.001 A 
ATOM     75  C   UNL     1       4.920   5.171 -16.399  1.00  0.00     0.001 A 
ATOM     76  C   UNL     1       4.161   6.292 -16.734  1.00  0.00     0.000 A 
ENDBRANCH  57  71
BRANCH  58  77
ATOM     77  C   UNL     1      10.694   5.833  -5.735  1.00  0.00    -0.014 A 
ATOM     78  C   UNL     1      11.501   6.900  -5.312  1.00  0.00     0.009 A 
ATOM     79  C   UNL     1      10.618   4.682  -4.935  1.00  0.00     0.009 A 
ATOM     80  C   UNL     1      12.240   6.805  -4.130  1.00  0.00     0.001 A 
ATOM     81  C   UNL     1      11.334   4.602  -3.738  1.00  0.00     0.001 A 
ATOM     82  C   UNL     1      12.152   5.658  -3.343  1.00  0.00     0.000 A 
ENDBRANCH  58  77
BRANCH  70  83
ATOM     83  C   UNL     1      12.617   6.048 -12.423  1.00  0.00    -0.014 A 
ATOM     84  C   UNL     1      13.423   4.900 -12.459  1.00  0.00     0.009 A 
ATOM     85  C   UNL     1      13.063   7.216 -13.061  1.00  0.00     0.009 A 
ATOM     86  C   UNL     1      14.667   4.933 -13.092  1.00  0.00     0.001 A 
ATOM     87  C   UNL     1      14.292   7.236 -13.720  1.00  0.00     0.001 A 
ATOM     88  C   UNL     1      15.097   6.098 -13.727  1.00  0.00     0.000 A 
ENDBRANCH  70  83
ENDBRANCH  44  45
ENDBRANCH  36  39
ENDBRANCH  34  35
ENDBRANCH  33  34
ENDBRANCH   1  33
TORSDOF 16
