REMARK SMILES Cc1ccc(NC(=O)c2cnn3c2NC2=C(C(=O)CCC2)[C@H]3c2ccc(C(=O)NCCCNC(=O)c3ccc(-c4c5nc(c(-c6ccccc6)c6ccc([nH]6)c(-c6ccccc6)c6nc(c(-c7ccccc7)c7ccc4[nH]7)C=C6)C=C5)cc3)cc2)cc1
REMARK SMILES IDX 30 1 29 2 27 3 28 4 26 6 23 7 24 8 85 9 25 10 84 11 22 12
REMARK SMILES IDX 9 13 10 14 13 15 11 16 12 17 14 18 15 19 16 21 21 22 17 23
REMARK SMILES IDX 20 24 18 25 19 26 7 27 6 28 8 30 5 31 1 32 2 33 3 34 87 35
REMARK SMILES IDX 4 36 86 37 31 38 32 39 33 40 34 41 35 43 36 44 37 45 83 46
REMARK SMILES IDX 38 47 82 48 39 49 40 50 41 51 76 52 42 53 81 54 75 55 77 56
REMARK SMILES IDX 43 57 80 58 74 59 73 60 44 62 66 63 51 64 65 65 52 66 55 67
REMARK SMILES IDX 64 68 78 69 53 70 54 71 63 73 79 74 56 75 45 76 46 77 50 78
REMARK SMILES IDX 47 79 49 80 48 81 67 82 68 83 72 84 69 85 71 86 70 87 57 88
REMARK SMILES IDX 58 89 62 90 59 91 61 92 60 93
REMARK H PARENT 29 5 14 20 6 29 33 42 77 61 55 72
REMARK Flexibility Score: inf
ROOT
ATOM      1  C   UNL     1      -2.023  -2.938  -6.422  1.00  0.00     0.118 C 
ENDROOT
BRANCH   1   2
ATOM      2  N   UNL     1      -1.594  -4.213  -6.985  1.00  0.00    -0.352 N 
ATOM      3  C   UNL     1      -1.396  -5.454  -6.418  1.00  0.00     0.251 C 
ATOM      4  O   UNL     1      -1.205  -6.402  -7.180  1.00  0.00    -0.269 OA
ATOM      5  H   UNL     1      -1.411  -4.181  -7.952  1.00  0.00     0.163 HD
BRANCH   3   6
ATOM      6  C   UNL     1      -1.447  -5.716  -4.948  1.00  0.00     0.039 A 
ATOM      7  C   UNL     1      -1.833  -6.260  -2.181  1.00  0.00    -0.019 A 
ATOM      8  C   UNL     1      -2.054  -7.257  -3.147  1.00  0.00     0.007 A 
ATOM      9  C   UNL     1      -1.201  -5.085  -2.617  1.00  0.00     0.007 A 
ATOM     10  C   UNL     1      -1.871  -6.981  -4.513  1.00  0.00     0.014 A 
ATOM     11  C   UNL     1      -1.041  -4.805  -3.979  1.00  0.00     0.014 A 
BRANCH   7  12
ATOM     12  C   UNL     1      -2.451  -6.365  -0.749  1.00  0.00     0.175 C 
ATOM     13  C   UNL     1      -3.470  -2.967  -0.266  1.00  0.00     0.102 A 
ATOM     14  C   UNL     1      -2.549  -3.207   0.799  1.00  0.00     0.151 A 
ATOM     15  C   UNL     1      -3.724  -4.232  -0.748  1.00  0.00     0.142 A 
ATOM     16  N   UNL     1      -2.047  -4.447   0.796  1.00  0.00    -0.178 NA
ATOM     17  N   UNL     1      -2.706  -5.014  -0.226  1.00  0.00    -0.237 N 
ATOM     18  N   UNL     1      -4.642  -4.846  -1.560  1.00  0.00    -0.343 N 
ATOM     19  C   UNL     1      -4.817  -6.237  -1.448  1.00  0.00     0.026 C 
ATOM     20  H   UNL     1      -5.167  -4.324  -2.209  1.00  0.00     0.168 HD
ATOM     21  C   UNL     1      -3.846  -6.949  -0.823  1.00  0.00     0.044 C 
ATOM     22  C   UNL     1      -6.165  -6.857  -1.683  1.00  0.00     0.055 C 
ATOM     23  C   UNL     1      -4.348  -7.737   0.333  1.00  0.00     0.163 C 
ATOM     24  C   UNL     1      -6.710  -7.559  -0.434  1.00  0.00     0.014 C 
ATOM     25  O   UNL     1      -3.591  -8.447   0.986  1.00  0.00    -0.294 OA
ATOM     26  C   UNL     1      -5.777  -7.438   0.764  1.00  0.00     0.081 C 
BRANCH  13  27
ATOM     27  C   UNL     1      -4.066  -1.720  -0.689  1.00  0.00     0.261 C 
ATOM     28  N   UNL     1      -3.320  -0.556  -0.629  1.00  0.00    -0.322 N 
ATOM     29  H   UNL     1      -3.858   0.269  -0.645  1.00  0.00     0.170 HD
ATOM     30  O   UNL     1      -5.235  -1.663  -1.073  1.00  0.00    -0.269 OA
BRANCH  28  31
ATOM     31  C   UNL     1      -1.927  -0.336  -0.549  1.00  0.00     0.041 A 
ATOM     32  C   UNL     1       2.293   0.413   0.042  1.00  0.00     0.044 C 
ATOM     33  C   UNL     1       0.833   0.186  -0.215  1.00  0.00    -0.051 A 
ATOM     34  C   UNL     1       0.397  -1.050  -0.692  1.00  0.00     0.005 A 
ATOM     35  C   UNL     1      -0.119   1.175   0.052  1.00  0.00     0.005 A 
ATOM     36  C   UNL     1      -0.966  -1.287  -0.892  1.00  0.00     0.026 A 
ATOM     37  C   UNL     1      -1.486   0.919  -0.123  1.00  0.00     0.026 A 
ENDBRANCH  28  31
ENDBRANCH  13  27
ENDBRANCH   7  12
ENDBRANCH   3   6
ENDBRANCH   1   2
BRANCH   1  38
ATOM     38  C   UNL     1      -0.843  -2.052  -6.027  1.00  0.00     0.042 C 
BRANCH  38  39
ATOM     39  C   UNL     1      -0.347  -1.116  -7.121  1.00  0.00     0.118 C 
BRANCH  39  40
ATOM     40  N   UNL     1      -0.746   0.277  -6.929  1.00  0.00    -0.352 N 
ATOM     41  C   UNL     1      -0.334   1.410  -7.626  1.00  0.00     0.251 C 
ATOM     42  H   UNL     1      -1.397   0.436  -6.208  1.00  0.00     0.163 HD
ATOM     43  O   UNL     1      -0.818   2.492  -7.408  1.00  0.00    -0.269 OA
BRANCH  41  44
ATOM     44  C   UNL     1       0.630   1.220  -8.739  1.00  0.00     0.039 A 
ATOM     45  C   UNL     1       0.212   1.591 -10.019  1.00  0.00     0.014 A 
ATOM     46  C   UNL     1       1.769   0.442  -8.554  1.00  0.00     0.014 A 
ATOM     47  C   UNL     1       0.771   0.948 -11.118  1.00  0.00     0.010 A 
ATOM     48  C   UNL     1       2.257  -0.269  -9.633  1.00  0.00     0.010 A 
ATOM     49  C   UNL     1       1.696  -0.075 -10.900  1.00  0.00    -0.014 A 
BRANCH  49  50
ATOM     50  C   UNL     1       1.972  -1.097 -11.904  1.00  0.00     0.031 A 
ATOM     51  C   UNL     1       3.249  -1.120 -12.636  1.00  0.00     0.074 A 
ATOM     52  C   UNL     1       1.043  -2.042 -12.169  1.00  0.00     0.049 A 
ATOM     53  N   UNL     1       3.388  -1.602 -13.826  1.00  0.00    -0.248 NA
ATOM     54  C   UNL     1       4.473  -0.540 -12.099  1.00  0.00     0.031 C 
ATOM     55  C   UNL     1       1.213  -3.268 -12.943  1.00  0.00     0.029 A 
ATOM     56  N   UNL     1      -0.329  -1.957 -11.962  1.00  0.00    -0.354 N 
ATOM     57  C   UNL     1       4.735  -1.674 -14.083  1.00  0.00     0.074 A 
ATOM     58  C   UNL     1       5.361  -0.913 -13.024  1.00  0.00     0.031 C 
ATOM     59  C   UNL     1       0.006  -3.699 -13.346  1.00  0.00     0.029 A 
ATOM     60  C   UNL     1      -0.968  -2.688 -12.971  1.00  0.00     0.049 A 
ATOM     61  H   UNL     1      -0.774  -1.468 -11.232  1.00  0.00     0.167 HD
ATOM     62  C   UNL     1       5.192  -2.497 -15.069  1.00  0.00     0.031 A 
ATOM     63  C   UNL     1      -1.839  -2.089 -13.834  1.00  0.00     0.031 A 
ATOM     64  C   UNL     1       4.103  -3.156 -15.788  1.00  0.00     0.049 A 
ATOM     65  C   UNL     1      -1.410  -2.155 -15.284  1.00  0.00     0.074 A 
ATOM     66  C   UNL     1       3.566  -4.432 -15.723  1.00  0.00     0.029 A 
ATOM     67  N   UNL     1       3.212  -2.394 -16.535  1.00  0.00    -0.354 N 
ATOM     68  N   UNL     1      -0.200  -2.442 -15.678  1.00  0.00    -0.248 NA
ATOM     69  C   UNL     1      -2.298  -1.850 -16.402  1.00  0.00     0.031 C 
ATOM     70  C   UNL     1       2.323  -4.425 -16.406  1.00  0.00     0.029 A 
ATOM     71  C   UNL     1       2.116  -3.151 -16.903  1.00  0.00     0.049 A 
ATOM     72  H   UNL     1       3.343  -1.447 -16.768  1.00  0.00     0.167 HD
ATOM     73  C   UNL     1      -0.125  -2.353 -17.044  1.00  0.00     0.074 A 
ATOM     74  C   UNL     1      -1.471  -1.998 -17.453  1.00  0.00     0.031 C 
ATOM     75  C   UNL     1       1.051  -2.564 -17.708  1.00  0.00     0.031 A 
BRANCH  62  76
ATOM     76  C   UNL     1       6.634  -2.938 -15.163  1.00  0.00    -0.014 A 
ATOM     77  C   UNL     1       6.943  -4.205 -15.694  1.00  0.00     0.009 A 
ATOM     78  C   UNL     1       7.725  -2.186 -14.698  1.00  0.00     0.009 A 
ATOM     79  C   UNL     1       8.239  -4.734 -15.652  1.00  0.00     0.001 A 
ATOM     80  C   UNL     1       9.017  -2.723 -14.612  1.00  0.00     0.001 A 
ATOM     81  C   UNL     1       9.271  -4.006 -15.077  1.00  0.00     0.000 A 
ENDBRANCH  62  76
BRANCH  63  82
ATOM     82  C   UNL     1      -2.598  -0.956 -13.237  1.00  0.00    -0.014 A 
ATOM     83  C   UNL     1      -3.538  -1.238 -12.226  1.00  0.00     0.009 A 
ATOM     84  C   UNL     1      -2.163   0.366 -13.397  1.00  0.00     0.009 A 
ATOM     85  C   UNL     1      -3.947  -0.245 -11.331  1.00  0.00     0.001 A 
ATOM     86  C   UNL     1      -2.584   1.361 -12.505  1.00  0.00     0.001 A 
ATOM     87  C   UNL     1      -3.447   1.048 -11.455  1.00  0.00     0.000 A 
ENDBRANCH  63  82
BRANCH  75  88
ATOM     88  C   UNL     1       1.333  -2.312 -19.174  1.00  0.00    -0.014 A 
ATOM     89  C   UNL     1       0.534  -1.540 -20.027  1.00  0.00     0.009 A 
ATOM     90  C   UNL     1       2.548  -2.790 -19.723  1.00  0.00     0.009 A 
ATOM     91  C   UNL     1       0.908  -1.292 -21.357  1.00  0.00     0.001 A 
ATOM     92  C   UNL     1       2.947  -2.508 -21.032  1.00  0.00     0.001 A 
ATOM     93  C   UNL     1       2.118  -1.764 -21.855  1.00  0.00     0.000 A 
ENDBRANCH  75  88
ENDBRANCH  49  50
ENDBRANCH  41  44
ENDBRANCH  39  40
ENDBRANCH  38  39
ENDBRANCH   1  38
TORSDOF 13
