REMARK SMILES [NH3+]CCOCC(=O)N[C@H](C(=O)NCCCNC(=O)c1ccc(-c2c3nc(c(-c4ccccc4)c4ccc([nH]4)c(-c4ccccc4)c4nc(c(-c5ccccc5)c5ccc2[nH]5)C=C4)C=C3)cc1)C1CCCCC1
REMARK SMILES IDX 10 1 11 2 12 3 9 5 8 6 6 7 7 8 5 10 4 11 3 12 2 13 1 14
REMARK SMILES IDX 67 18 68 19 72 20 69 21 71 22 70 23 13 24 14 25 15 26 16 27
REMARK SMILES IDX 17 28 18 30 19 31 20 32 66 33 21 34 65 35 22 36 23 37 24 38
REMARK SMILES IDX 59 39 25 40 64 41 58 42 60 43 26 44 63 45 57 46 56 47 27 49
REMARK SMILES IDX 49 50 34 51 48 52 35 53 38 54 47 55 61 56 36 57 37 58 46 60
REMARK SMILES IDX 62 61 39 62 28 63 29 64 33 65 30 66 32 67 31 68 50 69 51 70
REMARK SMILES IDX 55 71 52 72 54 73 53 74 40 75 41 76 45 77 42 78 44 79 43 80
REMARK H PARENT 12 4 8 9 1 15 1 16 1 17 16 29 60 48 38 59
REMARK Flexibility Score: inf
ROOT
ATOM      1  C   UNL     1       2.805  -1.254   3.221  1.00  0.00     0.242 C 
ATOM      2  O   UNL     1       3.122  -0.091   3.463  1.00  0.00    -0.273 OA
ATOM      3  N   UNL     1       2.519  -1.551   1.917  1.00  0.00    -0.354 N 
ATOM      4  H   UNL     1       2.687  -0.819   1.279  1.00  0.00     0.163 HD
ENDROOT
BRANCH   1   5
ATOM      5  C   UNL     1       2.594  -2.339   4.308  1.00  0.00     0.174 C 
BRANCH   5   6
ATOM      6  N   UNL     1       3.300  -3.581   3.941  1.00  0.00    -0.342 N 
ATOM      7  C   UNL     1       4.632  -3.800   3.739  1.00  0.00     0.246 C 
ATOM      8  O   UNL     1       5.003  -4.955   3.513  1.00  0.00    -0.272 OA
ATOM      9  H   UNL     1       2.724  -4.371   3.824  1.00  0.00     0.164 HD
BRANCH   7  10
ATOM     10  C   UNL     1       5.631  -2.632   3.716  1.00  0.00     0.260 C 
BRANCH  10  11
ATOM     11  O   UNL     1       5.657  -1.804   2.568  1.00  0.00    -0.366 OA
BRANCH  11  12
ATOM     12  C   UNL     1       5.770  -2.470   1.314  1.00  0.00     0.222 C 
BRANCH  12  13
ATOM     13  C   UNL     1       7.213  -2.797   0.907  1.00  0.00     0.287 C 
BRANCH  13  14
ATOM     14  N   UNL     1       7.800  -3.933   1.617  1.00  0.00    -0.356 N 
ATOM     15  H   UNL     1       8.754  -4.082   1.289  1.00  0.00     0.344 HD
ATOM     16  H   UNL     1       7.244  -4.769   1.439  1.00  0.00     0.344 HD
ATOM     17  H   UNL     1       7.810  -3.739   2.618  1.00  0.00     0.344 HD
ENDBRANCH  13  14
ENDBRANCH  12  13
ENDBRANCH  11  12
ENDBRANCH  10  11
ENDBRANCH   7  10
ENDBRANCH   5   6
BRANCH   5  18
ATOM     18  C   UNL     1       2.826  -1.984   5.803  1.00  0.00     0.021 C 
ATOM     19  C   UNL     1       2.383  -0.567   6.210  1.00  0.00     0.006 C 
ATOM     20  C   UNL     1       2.082  -3.022   6.682  1.00  0.00     0.006 C 
ATOM     21  C   UNL     1       2.551  -0.313   7.707  1.00  0.00     0.000 C 
ATOM     22  C   UNL     1       2.249  -2.759   8.175  1.00  0.00     0.000 C 
ATOM     23  C   UNL     1       1.816  -1.347   8.545  1.00  0.00     0.000 C 
ENDBRANCH   5  18
ENDBRANCH   1   5
BRANCH   3  24
ATOM     24  C   UNL     1       2.008  -2.773   1.323  1.00  0.00     0.117 C 
BRANCH  24  25
ATOM     25  C   UNL     1       0.875  -2.500   0.346  1.00  0.00     0.042 C 
BRANCH  25  26
ATOM     26  C   UNL     1       1.260  -1.626  -0.839  1.00  0.00     0.118 C 
BRANCH  26  27
ATOM     27  N   UNL     1       2.177  -2.272  -1.766  1.00  0.00    -0.352 N 
ATOM     28  C   UNL     1       2.086  -2.364  -3.138  1.00  0.00     0.251 C 
ATOM     29  H   UNL     1       2.965  -2.699  -1.360  1.00  0.00     0.163 HD
ATOM     30  O   UNL     1       2.886  -3.038  -3.772  1.00  0.00    -0.269 OA
BRANCH  28  31
ATOM     31  C   UNL     1       0.977  -1.674  -3.832  1.00  0.00     0.039 A 
ATOM     32  C   UNL     1       0.186  -2.398  -4.726  1.00  0.00     0.014 A 
ATOM     33  C   UNL     1       0.685  -0.337  -3.551  1.00  0.00     0.014 A 
ATOM     34  C   UNL     1      -0.952  -1.803  -5.275  1.00  0.00     0.010 A 
ATOM     35  C   UNL     1      -0.491   0.226  -4.034  1.00  0.00     0.010 A 
ATOM     36  C   UNL     1      -1.325  -0.503  -4.897  1.00  0.00    -0.014 A 
BRANCH  36  37
ATOM     37  C   UNL     1      -2.585   0.113  -5.384  1.00  0.00     0.031 A 
ATOM     38  C   UNL     1      -2.539   1.355  -6.231  1.00  0.00     0.074 A 
ATOM     39  C   UNL     1      -3.772  -0.395  -4.998  1.00  0.00     0.049 A 
ATOM     40  N   UNL     1      -3.529   2.082  -6.683  1.00  0.00    -0.248 NA
ATOM     41  C   UNL     1      -1.205   1.861  -6.594  1.00  0.00     0.031 C 
ATOM     42  C   UNL     1      -3.958  -1.564  -4.136  1.00  0.00     0.029 A 
ATOM     43  N   UNL     1      -5.052   0.018  -5.275  1.00  0.00    -0.354 N 
ATOM     44  C   UNL     1      -2.938   3.143  -7.357  1.00  0.00     0.074 A 
ATOM     45  C   UNL     1      -1.506   2.990  -7.218  1.00  0.00     0.031 C 
ATOM     46  C   UNL     1      -5.272  -1.789  -3.977  1.00  0.00     0.029 A 
ATOM     47  C   UNL     1      -6.021  -0.760  -4.691  1.00  0.00     0.049 A 
ATOM     48  H   UNL     1      -5.256   0.799  -5.839  1.00  0.00     0.167 HD
ATOM     49  C   UNL     1      -3.531   4.146  -8.047  1.00  0.00     0.031 A 
ATOM     50  C   UNL     1      -7.363  -0.656  -4.721  1.00  0.00     0.031 A 
ATOM     51  C   UNL     1      -4.952   4.287  -8.209  1.00  0.00     0.049 A 
ATOM     52  C   UNL     1      -7.998   0.458  -5.505  1.00  0.00     0.074 A 
ATOM     53  C   UNL     1      -5.645   5.229  -8.950  1.00  0.00     0.029 A 
ATOM     54  N   UNL     1      -5.898   3.462  -7.623  1.00  0.00    -0.354 N 
ATOM     55  N   UNL     1      -7.424   1.413  -6.195  1.00  0.00    -0.248 NA
ATOM     56  C   UNL     1      -9.467   0.503  -5.521  1.00  0.00     0.031 C 
ATOM     57  C   UNL     1      -7.014   4.999  -8.776  1.00  0.00     0.029 A 
ATOM     58  C   UNL     1      -7.170   3.885  -7.967  1.00  0.00     0.049 A 
ATOM     59  H   UNL     1      -5.695   2.689  -7.047  1.00  0.00     0.167 HD
ATOM     60  C   UNL     1      -8.459   2.155  -6.748  1.00  0.00     0.074 A 
ATOM     61  C   UNL     1      -9.696   1.532  -6.324  1.00  0.00     0.031 C 
ATOM     62  C   UNL     1      -8.390   3.254  -7.538  1.00  0.00     0.031 A 
BRANCH  49  63
ATOM     63  C   UNL     1      -2.634   5.174  -8.678  1.00  0.00    -0.014 A 
ATOM     64  C   UNL     1      -1.839   4.859  -9.792  1.00  0.00     0.009 A 
ATOM     65  C   UNL     1      -2.608   6.482  -8.171  1.00  0.00     0.009 A 
ATOM     66  C   UNL     1      -1.006   5.825 -10.361  1.00  0.00     0.001 A 
ATOM     67  C   UNL     1      -1.796   7.453  -8.760  1.00  0.00     0.001 A 
ATOM     68  C   UNL     1      -0.989   7.121  -9.848  1.00  0.00     0.000 A 
ENDBRANCH  49  63
BRANCH  50  69
ATOM     69  C   UNL     1      -8.203  -1.647  -4.000  1.00  0.00    -0.014 A 
ATOM     70  C   UNL     1      -8.938  -2.607  -4.713  1.00  0.00     0.009 A 
ATOM     71  C   UNL     1      -8.277  -1.638  -2.599  1.00  0.00     0.009 A 
ATOM     72  C   UNL     1      -9.750  -3.521  -4.037  1.00  0.00     0.001 A 
ATOM     73  C   UNL     1      -9.069  -2.571  -1.925  1.00  0.00     0.001 A 
ATOM     74  C   UNL     1      -9.811  -3.505  -2.645  1.00  0.00     0.000 A 
ENDBRANCH  50  69
BRANCH  62  75
ATOM     75  C   UNL     1      -9.688   3.835  -8.021  1.00  0.00    -0.014 A 
ATOM     76  C   UNL     1     -10.528   4.557  -7.160  1.00  0.00     0.009 A 
ATOM     77  C   UNL     1     -10.050   3.697  -9.371  1.00  0.00     0.009 A 
ATOM     78  C   UNL     1     -11.720   5.105  -7.635  1.00  0.00     0.001 A 
ATOM     79  C   UNL     1     -11.229   4.269  -9.848  1.00  0.00     0.001 A 
ATOM     80  C   UNL     1     -12.067   4.966  -8.979  1.00  0.00     0.000 A 
ENDBRANCH  62  75
ENDBRANCH  36  37
ENDBRANCH  28  31
ENDBRANCH  26  27
ENDBRANCH  25  26
ENDBRANCH  24  25
ENDBRANCH   3  24
TORSDOF 17
