REMARK SMILES COc1ccc(-c2cc([C@@H]3CC[N@@H+](CC(=O)NCCCNC(=O)c4ccc(-c5c6nc(c(-c7ccccc7)c7ccc([nH]7)c(-c7ccccc7)c7nc(c(-c8ccccc8)c8ccc5[nH]8)C=C7)C=C6)cc4)C3)ccn2)c2ccc(C)nc12
REMARK SMILES IDX 18 1 17 2 15 3 16 4 14 6 13 7 10 8 11 9 72 10 12 11 9 13
REMARK SMILES IDX 7 14 8 15 75 16 74 17 73 18 6 19 3 20 4 21 82 22 5 23 76 24
REMARK SMILES IDX 81 25 77 26 79 27 78 28 80 29 2 30 1 31 19 32 20 33 21 34
REMARK SMILES IDX 22 35 23 37 24 38 25 39 71 40 26 41 70 42 27 43 28 44 29 45
REMARK SMILES IDX 64 46 30 47 69 48 63 49 65 50 31 51 68 52 62 53 61 54 32 56
REMARK SMILES IDX 54 57 39 58 53 59 40 60 43 61 52 62 66 63 41 64 42 65 51 67
REMARK SMILES IDX 67 68 44 69 33 70 34 71 38 72 35 73 37 74 36 75 55 76 56 77
REMARK SMILES IDX 60 78 57 79 59 80 58 81 45 82 46 83 50 84 47 85 49 86 48 87
REMARK H PARENT 17 5 13 12 21 36 65 55 43 66
REMARK Flexibility Score: inf
ROOT
ATOM      1  C   UNL     1       4.262  -0.101 -11.699  1.00  0.00     0.118 C 
ENDROOT
BRANCH   1   2
ATOM      2  N   UNL     1       5.059   1.117 -11.651  1.00  0.00    -0.351 N 
ATOM      3  C   UNL     1       5.933   1.625 -10.732  1.00  0.00     0.275 C 
ATOM      4  O   UNL     1       6.436   2.723 -10.995  1.00  0.00    -0.269 OA
ATOM      5  H   UNL     1       4.944   1.692 -12.442  1.00  0.00     0.163 HD
BRANCH   3   6
ATOM      6  C   UNL     1       6.261   0.900  -9.422  1.00  0.00     0.363 C 
BRANCH   6   7
ATOM      7  N   UNL     1       5.508   1.361  -8.231  1.00  0.00    -0.327 N 
ATOM      8  C   UNL     1       4.293   3.483  -8.243  1.00  0.00     0.080 C 
ATOM      9  C   UNL     1       3.471   2.365  -8.890  1.00  0.00     0.075 C 
ATOM     10  C   UNL     1       5.640   2.798  -7.911  1.00  0.00     0.271 C 
ATOM     11  C   UNL     1       4.082   1.089  -8.332  1.00  0.00     0.263 C 
ATOM     12  H   UNL     1       5.945   0.821  -7.484  1.00  0.00     0.348 HD
BRANCH   8  13
ATOM     13  C   UNL     1       3.483   4.037  -7.085  1.00  0.00    -0.035 A 
ATOM     14  C   UNL     1       2.241   3.645  -5.040  1.00  0.00     0.071 A 
ATOM     15  C   UNL     1       3.215   3.257  -5.959  1.00  0.00     0.033 A 
ATOM     16  N   UNL     1       1.557   4.803  -5.168  1.00  0.00    -0.256 NA
ATOM     17  C   UNL     1       1.868   5.585  -6.229  1.00  0.00     0.112 A 
ATOM     18  C   UNL     1       2.800   5.247  -7.203  1.00  0.00     0.024 A 
BRANCH  14  19
ATOM     19  C   UNL     1       1.811   2.709  -3.984  1.00  0.00     0.010 A 
ATOM     20  C   UNL     1       0.953   0.682  -2.260  1.00  0.00     0.145 A 
ATOM     21  C   UNL     1       0.040   1.297  -3.118  1.00  0.00     0.049 A 
ATOM     22  C   UNL     1       2.315   1.029  -2.247  1.00  0.00     0.113 A 
ATOM     23  C   UNL     1       0.465   2.305  -3.970  1.00  0.00     0.015 A 
ATOM     24  C   UNL     1       2.733   2.087  -3.087  1.00  0.00     0.013 A 
ATOM     25  N   UNL     1       3.202   0.353  -1.474  1.00  0.00    -0.249 NA
ATOM     26  C   UNL     1       4.091   2.465  -2.999  1.00  0.00     0.013 A 
ATOM     27  C   UNL     1       4.510   0.697  -1.478  1.00  0.00     0.038 A 
ATOM     28  C   UNL     1       4.987   1.768  -2.202  1.00  0.00     0.024 A 
ATOM     29  C   UNL     1       5.431  -0.124  -0.628  1.00  0.00     0.067 C 
BRANCH  20  30
ATOM     30  O   UNL     1       0.406  -0.321  -1.486  1.00  0.00    -0.494 OA
ATOM     31  C   UNL     1       0.687  -0.153  -0.097  1.00  0.00     0.278 C 
ENDBRANCH  20  30
ENDBRANCH  14  19
ENDBRANCH   8  13
ENDBRANCH   6   7
ENDBRANCH   3   6
ENDBRANCH   1   2
BRANCH   1  32
ATOM     32  C   UNL     1       2.756   0.090 -11.444  1.00  0.00     0.042 C 
BRANCH  32  33
ATOM     33  C   UNL     1       2.087   1.291 -12.114  1.00  0.00     0.118 C 
BRANCH  33  34
ATOM     34  N   UNL     1       1.471   0.929 -13.373  1.00  0.00    -0.352 N 
ATOM     35  C   UNL     1       0.158   1.026 -13.762  1.00  0.00     0.251 C 
ATOM     36  H   UNL     1       2.083   0.558 -14.049  1.00  0.00     0.163 HD
ATOM     37  O   UNL     1      -0.206   0.430 -14.773  1.00  0.00    -0.269 OA
BRANCH  35  38
ATOM     38  C   UNL     1      -0.833   1.834 -13.004  1.00  0.00     0.039 A 
ATOM     39  C   UNL     1      -2.136   1.333 -12.882  1.00  0.00     0.014 A 
ATOM     40  C   UNL     1      -0.546   3.118 -12.528  1.00  0.00     0.014 A 
ATOM     41  C   UNL     1      -3.141   2.108 -12.292  1.00  0.00     0.010 A 
ATOM     42  C   UNL     1      -1.545   3.881 -11.907  1.00  0.00     0.010 A 
ATOM     43  C   UNL     1      -2.858   3.392 -11.803  1.00  0.00    -0.014 A 
BRANCH  43  44
ATOM     44  C   UNL     1      -3.943   4.231 -11.225  1.00  0.00     0.031 A 
ATOM     45  C   UNL     1      -4.480   5.419 -11.979  1.00  0.00     0.074 A 
ATOM     46  C   UNL     1      -4.459   3.929 -10.018  1.00  0.00     0.049 A 
ATOM     47  N   UNL     1      -5.444   6.244 -11.645  1.00  0.00    -0.248 NA
ATOM     48  C   UNL     1      -3.850   5.726 -13.272  1.00  0.00     0.031 C 
ATOM     49  C   UNL     1      -4.032   2.818  -9.168  1.00  0.00     0.029 A 
ATOM     50  N   UNL     1      -5.462   4.534  -9.300  1.00  0.00    -0.354 N 
ATOM     51  C   UNL     1      -5.528   7.169 -12.677  1.00  0.00     0.074 A 
ATOM     52  C   UNL     1      -4.498   6.825 -13.635  1.00  0.00     0.031 C 
ATOM     53  C   UNL     1      -4.781   2.808  -8.053  1.00  0.00     0.029 A 
ATOM     54  C   UNL     1      -5.724   3.923  -8.098  1.00  0.00     0.049 A 
ATOM     55  H   UNL     1      -5.947   5.330  -9.617  1.00  0.00     0.167 HD
ATOM     56  C   UNL     1      -6.390   8.205 -12.826  1.00  0.00     0.031 A 
ATOM     57  C   UNL     1      -6.621   4.222  -7.140  1.00  0.00     0.031 A 
ATOM     58  C   UNL     1      -7.427   8.553 -11.891  1.00  0.00     0.049 A 
ATOM     59  C   UNL     1      -7.552   5.387  -7.319  1.00  0.00     0.074 A 
ATOM     60  C   UNL     1      -8.383   9.550 -11.995  1.00  0.00     0.029 A 
ATOM     61  N   UNL     1      -7.643   7.920 -10.679  1.00  0.00    -0.354 N 
ATOM     62  N   UNL     1      -7.658   6.212  -8.331  1.00  0.00    -0.248 NA
ATOM     63  C   UNL     1      -8.495   5.655  -6.222  1.00  0.00     0.031 C 
ATOM     64  C   UNL     1      -9.151   9.547 -10.826  1.00  0.00     0.029 A 
ATOM     65  C   UNL     1      -8.698   8.522 -10.013  1.00  0.00     0.049 A 
ATOM     66  H   UNL     1      -7.124   7.155 -10.340  1.00  0.00     0.167 HD
ATOM     67  C   UNL     1      -8.691   7.081  -8.004  1.00  0.00     0.074 A 
ATOM     68  C   UNL     1      -9.188   6.677  -6.705  1.00  0.00     0.031 C 
ATOM     69  C   UNL     1      -9.183   8.120  -8.720  1.00  0.00     0.031 A 
BRANCH  56  70
ATOM     70  C   UNL     1      -6.242   9.055 -14.056  1.00  0.00    -0.014 A 
ATOM     71  C   UNL     1      -6.669   8.594 -15.310  1.00  0.00     0.009 A 
ATOM     72  C   UNL     1      -5.717  10.352 -13.948  1.00  0.00     0.009 A 
ATOM     73  C   UNL     1      -6.546   9.407 -16.439  1.00  0.00     0.001 A 
ATOM     74  C   UNL     1      -5.615  11.170 -15.075  1.00  0.00     0.001 A 
ATOM     75  C   UNL     1      -6.023  10.694 -16.320  1.00  0.00     0.000 A 
ENDBRANCH  56  70
BRANCH  57  76
ATOM     76  C   UNL     1      -6.699   3.386  -5.915  1.00  0.00    -0.014 A 
ATOM     77  C   UNL     1      -7.766   2.495  -5.731  1.00  0.00     0.009 A 
ATOM     78  C   UNL     1      -5.713   3.486  -4.922  1.00  0.00     0.009 A 
ATOM     79  C   UNL     1      -7.854   1.732  -4.565  1.00  0.00     0.001 A 
ATOM     80  C   UNL     1      -5.793   2.706  -3.767  1.00  0.00     0.001 A 
ATOM     81  C   UNL     1      -6.867   1.835  -3.587  1.00  0.00     0.000 A 
ENDBRANCH  57  76
BRANCH  69  82
ATOM     82  C   UNL     1     -10.332   8.881  -8.123  1.00  0.00    -0.014 A 
ATOM     83  C   UNL     1     -10.132   9.783  -7.067  1.00  0.00     0.009 A 
ATOM     84  C   UNL     1     -11.626   8.712  -8.640  1.00  0.00     0.009 A 
ATOM     85  C   UNL     1     -11.212  10.480  -6.521  1.00  0.00     0.001 A 
ATOM     86  C   UNL     1     -12.700   9.425  -8.106  1.00  0.00     0.001 A 
ATOM     87  C   UNL     1     -12.494  10.303  -7.042  1.00  0.00     0.000 A 
ENDBRANCH  69  82
ENDBRANCH  43  44
ENDBRANCH  35  38
ENDBRANCH  33  34
ENDBRANCH  32  33
ENDBRANCH   1  32
TORSDOF 14
