REMARK SMILES Cc1cc(OCC(=O)N/C(=C/c2ccccc2Cl)C(=O)NCCCNC(=O)c2ccc(-c3c4nc(c(-c5ccccc5)c5ccc([nH]5)c(-c5ccccc5)c5nc(c(-c6ccccc6)c6ccc3[nH]6)C=C5)C=C4)cc2)cc(C)c1Cl
REMARK SMILES IDX 22 1 21 2 19 3 20 4 10 6 11 7 9 8 7 9 8 10 6 12 5 13 4 14
REMARK SMILES IDX 1 15 2 16 3 17 79 18 77 19 80 20 76 21 78 22 12 23 13 24
REMARK SMILES IDX 17 25 14 26 16 27 18 28 15 29 23 30 24 31 25 32 26 33 27 35
REMARK SMILES IDX 28 36 29 37 75 38 30 39 74 40 31 41 32 42 33 43 68 44 34 45
REMARK SMILES IDX 73 46 67 47 69 48 35 49 72 50 66 51 65 52 36 54 58 55 43 56
REMARK SMILES IDX 57 57 44 58 47 59 56 60 70 61 45 62 46 63 55 65 71 66 48 67
REMARK SMILES IDX 37 68 38 69 42 70 39 71 41 72 40 73 59 74 60 75 64 76 61 77
REMARK SMILES IDX 63 78 62 79 49 80 50 81 54 82 51 83 53 84 52 85
REMARK H PARENT 21 5 9 11 25 34 69 53 47 64
REMARK Flexibility Score: inf
ROOT
ATOM      1  C   UNL     1       7.037  -2.455  -2.552  1.00  0.00     0.118 C 
ENDROOT
BRANCH   1   2
ATOM      2  N   UNL     1       6.378  -1.651  -1.557  1.00  0.00    -0.351 N 
ATOM      3  C   UNL     1       6.112  -0.333  -1.769  1.00  0.00     0.267 C 
ATOM      4  O   UNL     1       6.728   0.472  -1.067  1.00  0.00    -0.268 OA
ATOM      5  H   UNL     1       6.114  -2.063  -0.703  1.00  0.00     0.163 HD
BRANCH   3   6
ATOM      6  C   UNL     1       5.081   0.156  -2.785  1.00  0.00     0.107 C 
ATOM      7  C   UNL     1       4.694  -0.399  -3.963  1.00  0.00     0.041 C 
BRANCH   6   8
ATOM      8  N   UNL     1       4.536   1.417  -2.543  1.00  0.00    -0.318 N 
ATOM      9  C   UNL     1       4.326   2.150  -1.405  1.00  0.00     0.262 C 
ATOM     10  O   UNL     1       4.018   3.341  -1.553  1.00  0.00    -0.271 OA
ATOM     11  H   UNL     1       4.242   1.877  -3.361  1.00  0.00     0.170 HD
BRANCH   9  12
ATOM     12  C   UNL     1       4.334   1.535   0.002  1.00  0.00     0.329 C 
BRANCH  12  13
ATOM     13  O   UNL     1       3.668   0.286   0.119  1.00  0.00    -0.484 OA
BRANCH  13  14
ATOM     14  C   UNL     1       2.300   0.289   0.075  1.00  0.00     0.120 A 
ATOM     15  C   UNL     1      -0.755   2.545  -0.026  1.00  0.00     0.046 C 
ATOM     16  C   UNL     1       0.080   1.293   0.000  1.00  0.00    -0.029 A 
ATOM     17  C   UNL     1       1.480   1.416   0.046  1.00  0.00     0.051 A 
ATOM     18  C   UNL     1      -0.494   0.009  -0.019  1.00  0.00     0.047 A 
ATOM     19  C   UNL     1       0.320  -1.138   0.011  1.00  0.00    -0.029 A 
ATOM     20  Cl  UNL     1      -2.220  -0.160  -0.079  1.00  0.00    -0.084 Cl
ATOM     21  C   UNL     1       1.715  -0.979   0.063  1.00  0.00     0.051 A 
ATOM     22  C   UNL     1      -0.256  -2.527  -0.009  1.00  0.00     0.046 C 
ENDBRANCH  13  14
ENDBRANCH  12  13
ENDBRANCH   9  12
ENDBRANCH   6   8
BRANCH   7  23
ATOM     23  C   UNL     1       5.028  -1.669  -4.635  1.00  0.00    -0.005 A 
ATOM     24  C   UNL     1       6.087  -1.682  -5.563  1.00  0.00     0.010 A 
ATOM     25  C   UNL     1       4.378  -2.880  -4.337  1.00  0.00     0.048 A 
ATOM     26  C   UNL     1       6.578  -2.894  -6.065  1.00  0.00     0.001 A 
ATOM     27  C   UNL     1       4.860  -4.088  -4.859  1.00  0.00     0.021 A 
ATOM     28  Cl  UNL     1       3.031  -2.946  -3.256  1.00  0.00    -0.084 Cl
ATOM     29  C   UNL     1       5.980  -4.097  -5.693  1.00  0.00     0.002 A 
ENDBRANCH   7  23
ENDBRANCH   3   6
ENDBRANCH   1   2
BRANCH   1  30
ATOM     30  C   UNL     1       8.460  -2.856  -2.237  1.00  0.00     0.042 C 
BRANCH  30  31
ATOM     31  C   UNL     1       8.541  -3.946  -1.189  1.00  0.00     0.118 C 
BRANCH  31  32
ATOM     32  N   UNL     1       7.891  -5.191  -1.602  1.00  0.00    -0.352 N 
ATOM     33  C   UNL     1       8.367  -6.324  -2.219  1.00  0.00     0.251 C 
ATOM     34  H   UNL     1       6.928  -5.224  -1.399  1.00  0.00     0.163 HD
ATOM     35  O   UNL     1       7.572  -7.150  -2.666  1.00  0.00    -0.269 OA
BRANCH  33  36
ATOM     36  C   UNL     1       9.819  -6.542  -2.389  1.00  0.00     0.039 A 
ATOM     37  C   UNL     1      10.303  -7.205  -3.521  1.00  0.00     0.014 A 
ATOM     38  C   UNL     1      10.716  -6.083  -1.432  1.00  0.00     0.014 A 
ATOM     39  C   UNL     1      11.683  -7.303  -3.730  1.00  0.00     0.010 A 
ATOM     40  C   UNL     1      12.065  -6.013  -1.728  1.00  0.00     0.010 A 
ATOM     41  C   UNL     1      12.574  -6.649  -2.865  1.00  0.00    -0.014 A 
BRANCH  41  42
ATOM     42  C   UNL     1      14.043  -6.633  -3.080  1.00  0.00     0.031 A 
ATOM     43  C   UNL     1      14.963  -7.111  -1.984  1.00  0.00     0.074 A 
ATOM     44  C   UNL     1      14.552  -6.088  -4.202  1.00  0.00     0.049 A 
ATOM     45  N   UNL     1      16.268  -7.045  -1.910  1.00  0.00    -0.248 NA
ATOM     46  C   UNL     1      14.328  -7.686  -0.784  1.00  0.00     0.031 C 
ATOM     47  C   UNL     1      13.773  -5.533  -5.312  1.00  0.00     0.029 A 
ATOM     48  N   UNL     1      15.855  -5.903  -4.590  1.00  0.00    -0.354 N 
ATOM     49  C   UNL     1      16.596  -7.518  -0.644  1.00  0.00     0.074 A 
ATOM     50  C   UNL     1      15.356  -7.794   0.042  1.00  0.00     0.031 C 
ATOM     51  C   UNL     1      14.611  -5.122  -6.276  1.00  0.00     0.029 A 
ATOM     52  C   UNL     1      15.983  -5.329  -5.831  1.00  0.00     0.049 A 
ATOM     53  H   UNL     1      16.625  -6.157  -4.031  1.00  0.00     0.167 HD
ATOM     54  C   UNL     1      17.820  -7.736  -0.108  1.00  0.00     0.031 A 
ATOM     55  C   UNL     1      17.086  -5.006  -6.531  1.00  0.00     0.031 A 
ATOM     56  C   UNL     1      19.050  -7.504  -0.813  1.00  0.00     0.049 A 
ATOM     57  C   UNL     1      18.436  -5.275  -5.928  1.00  0.00     0.074 A 
ATOM     58  C   UNL     1      20.343  -7.775  -0.405  1.00  0.00     0.029 A 
ATOM     59  N   UNL     1      19.134  -6.947  -2.080  1.00  0.00    -0.354 N 
ATOM     60  N   UNL     1      18.731  -5.797  -4.761  1.00  0.00    -0.248 NA
ATOM     61  C   UNL     1      19.604  -4.918  -6.743  1.00  0.00     0.031 C 
ATOM     62  C   UNL     1      21.214  -7.329  -1.403  1.00  0.00     0.029 A 
ATOM     63  C   UNL     1      20.461  -6.840  -2.459  1.00  0.00     0.049 A 
ATOM     64  H   UNL     1      18.365  -6.669  -2.628  1.00  0.00     0.167 HD
ATOM     65  C   UNL     1      20.117  -5.860  -4.715  1.00  0.00     0.074 A 
ATOM     66  C   UNL     1      20.601  -5.336  -5.976  1.00  0.00     0.031 C 
ATOM     67  C   UNL     1      20.919  -6.313  -3.719  1.00  0.00     0.031 A 
BRANCH  54  68
ATOM     68  C   UNL     1      17.874  -8.247   1.307  1.00  0.00    -0.014 A 
ATOM     69  C   UNL     1      17.397  -9.525   1.647  1.00  0.00     0.009 A 
ATOM     70  C   UNL     1      18.410  -7.437   2.320  1.00  0.00     0.009 A 
ATOM     71  C   UNL     1      17.400  -9.954   2.976  1.00  0.00     0.001 A 
ATOM     72  C   UNL     1      18.449  -7.884   3.642  1.00  0.00     0.001 A 
ATOM     73  C   UNL     1      17.930  -9.135   3.972  1.00  0.00     0.000 A 
ENDBRANCH  54  68
BRANCH  55  74
ATOM     74  C   UNL     1      16.958  -4.436  -7.899  1.00  0.00    -0.014 A 
ATOM     75  C   UNL     1      17.304  -5.208  -9.019  1.00  0.00     0.009 A 
ATOM     76  C   UNL     1      16.475  -3.134  -8.097  1.00  0.00     0.009 A 
ATOM     77  C   UNL     1      17.192  -4.681 -10.307  1.00  0.00     0.001 A 
ATOM     78  C   UNL     1      16.336  -2.619  -9.389  1.00  0.00     0.001 A 
ATOM     79  C   UNL     1      16.702  -3.389 -10.491  1.00  0.00     0.000 A 
ENDBRANCH  55  74
BRANCH  67  80
ATOM     80  C   UNL     1      22.400  -6.296  -3.970  1.00  0.00    -0.014 A 
ATOM     81  C   UNL     1      23.123  -5.094  -4.003  1.00  0.00     0.009 A 
ATOM     82  C   UNL     1      23.087  -7.510  -4.129  1.00  0.00     0.009 A 
ATOM     83  C   UNL     1      24.501  -5.108  -4.224  1.00  0.00     0.001 A 
ATOM     84  C   UNL     1      24.469  -7.522  -4.317  1.00  0.00     0.001 A 
ATOM     85  C   UNL     1      25.173  -6.321  -4.375  1.00  0.00     0.000 A 
ENDBRANCH  67  80
ENDBRANCH  41  42
ENDBRANCH  33  36
ENDBRANCH  31  32
ENDBRANCH  30  31
ENDBRANCH   1  30
TORSDOF 15
