REMARK SMILES Cc1ccnc(C(=O)c2[nH]c3cc(F)ccc3c2CC(=O)NCCCNC(=O)c2ccc(-c3c4nc(c(-c5ccccc5)c5ccc([nH]5)c(-c5ccccc5)c5nc(c(-c6ccccc6)c6ccc3[nH]6)C=C5)C=C4)cc2)c1
REMARK SMILES IDX 23 1 22 2 20 3 21 4 19 6 18 7 9 8 10 9 11 10 17 12 12 13
REMARK SMILES IDX 16 14 13 15 15 16 14 17 7 18 8 19 6 20 1 21 2 22 3 23 77 24
REMARK SMILES IDX 4 25 5 26 24 27 25 28 26 29 27 30 28 32 29 33 30 34 76 35
REMARK SMILES IDX 31 36 75 37 32 38 33 39 34 40 69 41 35 42 74 43 68 44 70 45
REMARK SMILES IDX 36 46 73 47 67 48 66 49 37 51 59 52 44 53 58 54 45 55 48 56
REMARK SMILES IDX 57 57 71 58 46 59 47 60 56 62 72 63 49 64 38 65 39 66 43 67
REMARK SMILES IDX 40 68 42 69 41 70 60 71 61 72 65 73 62 74 64 75 63 76 50 77
REMARK SMILES IDX 51 78 55 79 52 80 54 81 53 82
REMARK H PARENT 22 5 10 11 26 31 70 50 48 61
REMARK Flexibility Score: inf
ROOT
ATOM      1  C   UNL     1       3.587  -6.931   1.083  1.00  0.00     0.117 C 
ENDROOT
BRANCH   1   2
ATOM      2  N   UNL     1       3.964  -5.579   1.447  1.00  0.00    -0.356 N 
ATOM      3  C   UNL     1       3.194  -4.555   1.919  1.00  0.00     0.224 C 
ATOM      4  O   UNL     1       3.751  -3.508   2.256  1.00  0.00    -0.275 OA
ATOM      5  H   UNL     1       4.920  -5.367   1.339  1.00  0.00     0.163 HD
BRANCH   3   6
ATOM      6  C   UNL     1       1.698  -4.732   2.099  1.00  0.00     0.138 C 
BRANCH   6   7
ATOM      7  C   UNL     1       0.918  -4.820   0.818  1.00  0.00    -0.002 A 
ATOM      8  C   UNL     1       0.945  -3.939  -0.259  1.00  0.00     0.093 A 
ATOM      9  N   UNL     1       0.107  -4.439  -1.228  1.00  0.00    -0.351 N 
ATOM     10  C   UNL     1      -0.519  -5.577  -0.788  1.00  0.00     0.049 A 
ATOM     11  H   UNL     1      -0.025  -4.035  -2.116  1.00  0.00     0.167 HD
ATOM     12  C   UNL     1      -0.038  -5.842   0.494  1.00  0.00     0.004 A 
ATOM     13  C   UNL     1      -1.456  -6.392  -1.432  1.00  0.00     0.066 A 
ATOM     14  C   UNL     1      -0.524  -6.983   1.170  1.00  0.00     0.013 A 
ATOM     15  C   UNL     1      -1.913  -7.509  -0.736  1.00  0.00     0.125 A 
ATOM     16  C   UNL     1      -1.463  -7.809   0.542  1.00  0.00     0.040 A 
ATOM     17  F   UNL     1      -2.810  -8.316  -1.319  1.00  0.00    -0.207 F 
BRANCH   8  18
ATOM     18  C   UNL     1       1.733  -2.738  -0.473  1.00  0.00     0.227 C 
ATOM     19  O   UNL     1       2.893  -2.816  -0.866  1.00  0.00    -0.285 OA
BRANCH  18  20
ATOM     20  C   UNL     1       1.046  -1.401  -0.308  1.00  0.00     0.113 A 
ATOM     21  C   UNL     1      -2.263   0.125   0.759  1.00  0.00     0.044 C 
ATOM     22  C   UNL     1      -0.864  -0.039   0.246  1.00  0.00    -0.047 A 
ATOM     23  C   UNL     1      -0.131   1.075  -0.166  1.00  0.00     0.023 A 
ATOM     24  C   UNL     1      -0.255  -1.297   0.192  1.00  0.00     0.036 A 
ATOM     25  C   UNL     1       1.158   0.887  -0.635  1.00  0.00     0.112 A 
ATOM     26  N   UNL     1       1.752  -0.320  -0.729  1.00  0.00    -0.253 NA
ENDBRANCH  18  20
ENDBRANCH   8  18
ENDBRANCH   6   7
ENDBRANCH   3   6
ENDBRANCH   1   2
BRANCH   1  27
ATOM     27  C   UNL     1       3.359  -7.119  -0.416  1.00  0.00     0.042 C 
BRANCH  27  28
ATOM     28  C   UNL     1       4.580  -6.846  -1.291  1.00  0.00     0.118 C 
BRANCH  28  29
ATOM     29  N   UNL     1       5.622  -7.847  -1.121  1.00  0.00    -0.352 N 
ATOM     30  C   UNL     1       6.191  -8.700  -2.033  1.00  0.00     0.251 C 
ATOM     31  H   UNL     1       5.976  -7.924  -0.205  1.00  0.00     0.163 HD
ATOM     32  O   UNL     1       6.936  -9.594  -1.640  1.00  0.00    -0.269 OA
BRANCH  30  33
ATOM     33  C   UNL     1       5.913  -8.575  -3.483  1.00  0.00     0.039 A 
ATOM     34  C   UNL     1       5.684  -9.744  -4.219  1.00  0.00     0.014 A 
ATOM     35  C   UNL     1       5.957  -7.340  -4.136  1.00  0.00     0.014 A 
ATOM     36  C   UNL     1       5.448  -9.672  -5.595  1.00  0.00     0.010 A 
ATOM     37  C   UNL     1       5.693  -7.265  -5.506  1.00  0.00     0.010 A 
ATOM     38  C   UNL     1       5.436  -8.430  -6.245  1.00  0.00    -0.014 A 
BRANCH  38  39
ATOM     39  C   UNL     1       5.167  -8.333  -7.699  1.00  0.00     0.031 A 
ATOM     40  C   UNL     1       6.282  -8.040  -8.659  1.00  0.00     0.074 A 
ATOM     41  C   UNL     1       3.911  -8.473  -8.161  1.00  0.00     0.049 A 
ATOM     42  N   UNL     1       6.218  -7.773  -9.939  1.00  0.00    -0.248 NA
ATOM     43  C   UNL     1       7.646  -8.040  -8.107  1.00  0.00     0.031 C 
ATOM     44  C   UNL     1       2.732  -8.764  -7.344  1.00  0.00     0.029 A 
ATOM     45  N   UNL     1       3.421  -8.381  -9.439  1.00  0.00    -0.354 N 
ATOM     46  C   UNL     1       7.525  -7.532 -10.339  1.00  0.00     0.074 A 
ATOM     47  C   UNL     1       8.364  -7.708  -9.171  1.00  0.00     0.031 C 
ATOM     48  C   UNL     1       1.655  -8.838  -8.145  1.00  0.00     0.029 A 
ATOM     49  C   UNL     1       2.065  -8.574  -9.521  1.00  0.00     0.049 A 
ATOM     50  H   UNL     1       3.987  -8.194 -10.222  1.00  0.00     0.167 HD
ATOM     51  C   UNL     1       7.986  -7.183 -11.563  1.00  0.00     0.031 A 
ATOM     52  C   UNL     1       1.240  -8.527 -10.582  1.00  0.00     0.031 A 
ATOM     53  C   UNL     1       7.172  -7.035 -12.738  1.00  0.00     0.049 A 
ATOM     54  C   UNL     1       1.782  -8.189 -11.939  1.00  0.00     0.074 A 
ATOM     55  C   UNL     1       7.554  -6.657 -14.014  1.00  0.00     0.029 A 
ATOM     56  N   UNL     1       5.810  -7.279 -12.784  1.00  0.00    -0.354 N 
ATOM     57  N   UNL     1       3.010  -7.896 -12.286  1.00  0.00    -0.248 NA
ATOM     58  C   UNL     1       0.816  -8.160 -13.048  1.00  0.00     0.031 C 
ATOM     59  C   UNL     1       6.421  -6.682 -14.837  1.00  0.00     0.029 A 
ATOM     60  C   UNL     1       5.337  -7.075 -14.069  1.00  0.00     0.049 A 
ATOM     61  H   UNL     1       5.259  -7.556 -12.016  1.00  0.00     0.167 HD
ATOM     62  C   UNL     1       2.964  -7.633 -13.647  1.00  0.00     0.074 A 
ATOM     63  C   UNL     1       1.590  -7.815 -14.068  1.00  0.00     0.031 C 
ATOM     64  C   UNL     1       3.971  -7.261 -14.472  1.00  0.00     0.031 A 
BRANCH  51  65
ATOM     65  C   UNL     1       9.454  -6.914 -11.679  1.00  0.00    -0.014 A 
ATOM     66  C   UNL     1      10.348  -7.949 -11.984  1.00  0.00     0.009 A 
ATOM     67  C   UNL     1       9.941  -5.611 -11.497  1.00  0.00     0.009 A 
ATOM     68  C   UNL     1      11.715  -7.685 -12.089  1.00  0.00     0.001 A 
ATOM     69  C   UNL     1      11.307  -5.350 -11.605  1.00  0.00     0.001 A 
ATOM     70  C   UNL     1      12.192  -6.388 -11.898  1.00  0.00     0.000 A 
ENDBRANCH  51  65
BRANCH  52  71
ATOM     71  C   UNL     1      -0.205  -8.787 -10.399  1.00  0.00    -0.014 A 
ATOM     72  C   UNL     1      -0.712 -10.086 -10.547  1.00  0.00     0.009 A 
ATOM     73  C   UNL     1      -1.077  -7.738 -10.075  1.00  0.00     0.009 A 
ATOM     74  C   UNL     1      -2.075 -10.330 -10.380  1.00  0.00     0.001 A 
ATOM     75  C   UNL     1      -2.440  -7.986  -9.905  1.00  0.00     0.001 A 
ATOM     76  C   UNL     1      -2.937  -9.280 -10.060  1.00  0.00     0.000 A 
ENDBRANCH  52  71
BRANCH  64  77
ATOM     77  C   UNL     1       3.615  -7.019 -15.905  1.00  0.00    -0.014 A 
ATOM     78  C   UNL     1       3.220  -5.741 -16.327  1.00  0.00     0.009 A 
ATOM     79  C   UNL     1       3.689  -8.062 -16.839  1.00  0.00     0.009 A 
ATOM     80  C   UNL     1       2.891  -5.514 -17.664  1.00  0.00     0.001 A 
ATOM     81  C   UNL     1       3.358  -7.831 -18.175  1.00  0.00     0.001 A 
ATOM     82  C   UNL     1       2.958  -6.559 -18.586  1.00  0.00     0.000 A 
ENDBRANCH  64  77
ENDBRANCH  38  39
ENDBRANCH  30  33
ENDBRANCH  28  29
ENDBRANCH  27  28
ENDBRANCH   1  27
TORSDOF 13
