REMARK SMILES C[C@H]1[C@H](C(=O)NCCCNC(=O)c2ccc(-c3c4nc(c(-c5ccccc5)c5ccc([nH]5)c(-c5ccccc5)c5nc(c(-c6ccccc6)c6ccc3[nH]6)C=C5)C=C4)cc2)CCN1C(=O)c1ccc2ccccc2c1
REMARK SMILES IDX 8 1 7 2 6 3 4 4 5 5 3 7 1 8 2 9 63 10 61 11 62 12 64 13
REMARK SMILES IDX 65 14 66 15 67 16 75 17 68 18 74 19 69 20 73 21 70 22 72 23
REMARK SMILES IDX 71 24 9 25 10 26 11 27 12 29 13 30 14 31 60 32 15 33 59 34
REMARK SMILES IDX 16 35 17 36 18 37 53 38 19 39 58 40 52 41 54 42 20 43 57 44
REMARK SMILES IDX 51 45 50 46 21 48 43 49 28 50 42 51 29 52 32 53 41 54 55 55
REMARK SMILES IDX 30 56 31 57 40 59 56 60 33 61 22 62 23 63 27 64 24 65 26 66
REMARK SMILES IDX 25 67 44 68 45 69 49 70 46 71 48 72 47 73 34 74 35 75 39 76
REMARK SMILES IDX 36 77 38 78 37 79
REMARK H PARENT 6 6 10 28 54 47 32 58
REMARK Flexibility Score: inf
ROOT
ATOM      1  C   UNL     1      -0.262   0.080   3.970  1.00  0.00     0.042 C 
ENDROOT
BRANCH   1   2
ATOM      2  C   UNL     1      -1.172   0.692   2.917  1.00  0.00     0.117 C 
BRANCH   2   3
ATOM      3  N   UNL     1      -0.622   1.924   2.378  1.00  0.00    -0.356 N 
ATOM      4  C   UNL     1      -0.076   2.208   1.168  1.00  0.00     0.225 C 
ATOM      5  O   UNL     1       0.375   3.345   1.007  1.00  0.00    -0.275 OA
ATOM      6  H   UNL     1      -0.650   2.687   3.000  1.00  0.00     0.163 HD
BRANCH   4   7
ATOM      7  C   UNL     1      -0.003   1.195   0.037  1.00  0.00     0.102 C 
ATOM      8  C   UNL     1       2.087  -0.017  -0.649  1.00  0.00     0.032 C 
ATOM      9  C   UNL     1       0.929   0.010   0.349  1.00  0.00     0.094 C 
ATOM     10  N   UNL     1       0.069  -1.172   0.260  1.00  0.00    -0.335 N 
ATOM     11  C   UNL     1      -1.361   0.619  -0.368  1.00  0.00     0.037 C 
ATOM     12  C   UNL     1      -1.163  -0.883  -0.447  1.00  0.00     0.121 C 
BRANCH  10  13
ATOM     13  C   UNL     1       0.281  -2.441   0.773  1.00  0.00     0.254 C 
ATOM     14  O   UNL     1      -0.592  -3.302   0.835  1.00  0.00    -0.269 OA
BRANCH  13  15
ATOM     15  C   UNL     1       1.641  -2.825   1.189  1.00  0.00     0.040 A 
ATOM     16  C   UNL     1       2.467  -3.399   0.222  1.00  0.00     0.014 A 
ATOM     17  C   UNL     1       2.058  -2.731   2.518  1.00  0.00     0.022 A 
ATOM     18  C   UNL     1       3.752  -3.811   0.566  1.00  0.00     0.009 A 
ATOM     19  C   UNL     1       3.343  -3.174   2.884  1.00  0.00    -0.018 A 
ATOM     20  C   UNL     1       4.205  -3.699   1.889  1.00  0.00    -0.018 A 
ATOM     21  C   UNL     1       3.792  -3.132   4.215  1.00  0.00     0.009 A 
ATOM     22  C   UNL     1       5.494  -4.125   2.243  1.00  0.00     0.009 A 
ATOM     23  C   UNL     1       5.068  -3.591   4.556  1.00  0.00     0.001 A 
ATOM     24  C   UNL     1       5.922  -4.075   3.569  1.00  0.00     0.001 A 
ENDBRANCH  13  15
ENDBRANCH  10  13
ENDBRANCH   4   7
ENDBRANCH   2   3
ENDBRANCH   1   2
BRANCH   1  25
ATOM     25  C   UNL     1      -0.181   0.890   5.255  1.00  0.00     0.118 C 
BRANCH  25  26
ATOM     26  N   UNL     1      -1.454   0.947   5.957  1.00  0.00    -0.352 N 
ATOM     27  C   UNL     1      -1.820   0.455   7.185  1.00  0.00     0.251 C 
ATOM     28  H   UNL     1      -2.171   1.416   5.472  1.00  0.00     0.163 HD
ATOM     29  O   UNL     1      -3.006   0.436   7.497  1.00  0.00    -0.269 OA
BRANCH  27  30
ATOM     30  C   UNL     1      -0.804  -0.065   8.126  1.00  0.00     0.039 A 
ATOM     31  C   UNL     1      -1.120  -1.186   8.899  1.00  0.00     0.014 A 
ATOM     32  C   UNL     1       0.435   0.559   8.282  1.00  0.00     0.014 A 
ATOM     33  C   UNL     1      -0.172  -1.711   9.780  1.00  0.00     0.010 A 
ATOM     34  C   UNL     1       1.413  -0.023   9.083  1.00  0.00     0.010 A 
ATOM     35  C   UNL     1       1.116  -1.157   9.851  1.00  0.00    -0.014 A 
BRANCH  35  36
ATOM     36  C   UNL     1       2.156  -1.752  10.728  1.00  0.00     0.031 A 
ATOM     37  C   UNL     1       2.748  -0.957  11.861  1.00  0.00     0.074 A 
ATOM     38  C   UNL     1       2.602  -2.997  10.474  1.00  0.00     0.049 A 
ATOM     39  N   UNL     1       3.675  -1.305  12.717  1.00  0.00    -0.248 NA
ATOM     40  C   UNL     1       2.252   0.417  12.041  1.00  0.00     0.031 C 
ATOM     41  C   UNL     1       2.146  -3.855   9.377  1.00  0.00     0.029 A 
ATOM     42  N   UNL     1       3.539  -3.760  11.124  1.00  0.00    -0.354 N 
ATOM     43  C   UNL     1       3.879  -0.195  13.527  1.00  0.00     0.074 A 
ATOM     44  C   UNL     1       3.026   0.858  13.021  1.00  0.00     0.031 C 
ATOM     45  C   UNL     1       2.776  -5.038   9.454  1.00  0.00     0.029 A 
ATOM     46  C   UNL     1       3.709  -5.008  10.575  1.00  0.00     0.049 A 
ATOM     47  H   UNL     1       4.042  -3.444  11.909  1.00  0.00     0.167 HD
ATOM     48  C   UNL     1       4.683  -0.068  14.609  1.00  0.00     0.031 A 
ATOM     49  C   UNL     1       4.526  -6.017  10.931  1.00  0.00     0.031 A 
ATOM     50  C   UNL     1       5.532  -1.115  15.112  1.00  0.00     0.049 A 
ATOM     51  C   UNL     1       5.420  -5.847  12.127  1.00  0.00     0.074 A 
ATOM     52  C   UNL     1       6.351  -1.101  16.228  1.00  0.00     0.029 A 
ATOM     53  N   UNL     1       5.676  -2.364  14.527  1.00  0.00    -0.354 N 
ATOM     54  N   UNL     1       5.549  -4.814  12.923  1.00  0.00    -0.248 NA
ATOM     55  C   UNL     1       6.272  -6.991  12.480  1.00  0.00     0.031 C 
ATOM     56  C   UNL     1       7.034  -2.320  16.284  1.00  0.00     0.029 A 
ATOM     57  C   UNL     1       6.590  -3.119  15.242  1.00  0.00     0.049 A 
ATOM     58  H   UNL     1       5.199  -2.668  13.721  1.00  0.00     0.167 HD
ATOM     59  C   UNL     1       6.477  -5.191  13.886  1.00  0.00     0.074 A 
ATOM     60  C   UNL     1       6.858  -6.556  13.586  1.00  0.00     0.031 C 
ATOM     61  C   UNL     1       6.970  -4.471  14.924  1.00  0.00     0.031 A 
BRANCH  48  62
ATOM     62  C   UNL     1       4.684   1.261  15.318  1.00  0.00    -0.014 A 
ATOM     63  C   UNL     1       3.558   1.708  16.028  1.00  0.00     0.009 A 
ATOM     64  C   UNL     1       5.834   2.065  15.298  1.00  0.00     0.009 A 
ATOM     65  C   UNL     1       3.569   2.950  16.667  1.00  0.00     0.001 A 
ATOM     66  C   UNL     1       5.854   3.291  15.966  1.00  0.00     0.001 A 
ATOM     67  C   UNL     1       4.719   3.738  16.640  1.00  0.00     0.000 A 
ENDBRANCH  48  62
BRANCH  49  68
ATOM     68  C   UNL     1       4.526  -7.283  10.152  1.00  0.00    -0.014 A 
ATOM     69  C   UNL     1       4.023  -8.468  10.710  1.00  0.00     0.009 A 
ATOM     70  C   UNL     1       5.030  -7.312   8.842  1.00  0.00     0.009 A 
ATOM     71  C   UNL     1       4.052  -9.661   9.983  1.00  0.00     0.001 A 
ATOM     72  C   UNL     1       5.027  -8.498   8.106  1.00  0.00     0.001 A 
ATOM     73  C   UNL     1       4.548  -9.674   8.681  1.00  0.00     0.000 A 
ENDBRANCH  49  68
BRANCH  61  74
ATOM     74  C   UNL     1       7.958  -5.161  15.825  1.00  0.00    -0.014 A 
ATOM     75  C   UNL     1       9.254  -5.475  15.386  1.00  0.00     0.009 A 
ATOM     76  C   UNL     1       7.590  -5.482  17.141  1.00  0.00     0.009 A 
ATOM     77  C   UNL     1      10.146  -6.137  16.233  1.00  0.00     0.001 A 
ATOM     78  C   UNL     1       8.495  -6.112  17.997  1.00  0.00     0.001 A 
ATOM     79  C   UNL     1       9.767  -6.450  17.538  1.00  0.00     0.000 A 
ENDBRANCH  61  74
ENDBRANCH  35  36
ENDBRANCH  27  30
ENDBRANCH  25  26
ENDBRANCH   1  25
TORSDOF 12
