REMARK SMILES C[C@H](Oc1cc2oc(=O)cc(-c3ccccc3)c2cc1Cl)C(=O)NCCCNC(=O)c1ccc(-c2c3nc(c(-c4ccccc4)c4ccc([nH]4)c(-c4ccccc4)c4nc(c(-c5ccccc5)c5ccc2[nH]5)C=C4)C=C3)cc1
REMARK SMILES IDX 25 1 24 2 22 3 23 4 2 6 1 7 3 8 4 9 5 10 20 11 6 12 19 13
REMARK SMILES IDX 21 14 7 15 18 16 8 17 11 18 9 19 10 20 12 21 13 22 17 23
REMARK SMILES IDX 14 24 16 25 15 26 26 27 27 28 28 29 29 30 30 32 31 33 32 34
REMARK SMILES IDX 78 35 33 36 77 37 34 38 35 39 36 40 71 41 37 42 76 43 70 44
REMARK SMILES IDX 72 45 38 46 75 47 69 48 68 49 39 51 61 52 46 53 60 54 47 55
REMARK SMILES IDX 50 56 59 57 73 58 48 59 49 60 58 62 74 63 51 64 40 65 41 66
REMARK SMILES IDX 45 67 42 68 44 69 43 70 62 71 63 72 67 73 64 74 66 75 65 76
REMARK SMILES IDX 52 77 53 78 57 79 54 80 56 81 55 82
REMARK H PARENT 24 5 28 31 72 50 50 61
REMARK Flexibility Score: inf
ROOT
ATOM      1  C   UNL     1      -1.095  -2.055  -0.986  1.00  0.00     0.118 C 
ENDROOT
BRANCH   1   2
ATOM      2  N   UNL     1      -1.631  -0.713  -1.139  1.00  0.00    -0.353 N 
ATOM      3  C   UNL     1      -0.972   0.456  -1.415  1.00  0.00     0.260 C 
ATOM      4  O   UNL     1      -1.635   1.493  -1.491  1.00  0.00    -0.271 OA
ATOM      5  H   UNL     1      -2.607  -0.633  -1.029  1.00  0.00     0.163 HD
BRANCH   3   6
ATOM      6  C   UNL     1       0.540   0.439  -1.694  1.00  0.00     0.258 C 
ATOM      7  C   UNL     1       0.750  -0.350  -2.991  1.00  0.00     0.064 C 
BRANCH   6   8
ATOM      8  O   UNL     1       1.133   0.027  -0.460  1.00  0.00    -0.479 OA
BRANCH   8   9
ATOM      9  C   UNL     1       2.295  -0.658  -0.305  1.00  0.00     0.142 A 
ATOM     10  C   UNL     1       3.204  -0.941  -1.313  1.00  0.00     0.096 A 
ATOM     11  C   UNL     1       2.557  -1.165   0.982  1.00  0.00     0.084 A 
ATOM     12  C   UNL     1       4.239  -1.848  -1.076  1.00  0.00     0.142 A 
ATOM     13  C   UNL     1       3.647  -2.013   1.226  1.00  0.00     0.037 A 
ATOM     14  Cl  UNL     1       1.522  -0.794   2.321  1.00  0.00    -0.080 Cl
ATOM     15  O   UNL     1       4.993  -2.218  -2.203  1.00  0.00    -0.423 OA
ATOM     16  C   UNL     1       4.479  -2.407   0.177  1.00  0.00     0.027 A 
ATOM     17  C   UNL     1       5.900  -3.258  -2.129  1.00  0.00     0.336 A 
ATOM     18  C   UNL     1       5.575  -3.379   0.329  1.00  0.00    -0.000 A 
ATOM     19  O   UNL     1       6.460  -3.709  -3.121  1.00  0.00    -0.246 OA
ATOM     20  C   UNL     1       6.201  -3.782  -0.790  1.00  0.00     0.103 A 
BRANCH  18  21
ATOM     21  C   UNL     1       6.055  -3.978   1.592  1.00  0.00    -0.017 A 
ATOM     22  C   UNL     1       7.352  -3.699   2.048  1.00  0.00     0.009 A 
ATOM     23  C   UNL     1       5.236  -4.828   2.348  1.00  0.00     0.009 A 
ATOM     24  C   UNL     1       7.822  -4.259   3.237  1.00  0.00     0.001 A 
ATOM     25  C   UNL     1       5.705  -5.378   3.544  1.00  0.00     0.001 A 
ATOM     26  C   UNL     1       6.997  -5.095   3.986  1.00  0.00     0.000 A 
ENDBRANCH  18  21
ENDBRANCH   8   9
ENDBRANCH   6   8
ENDBRANCH   3   6
ENDBRANCH   1   2
BRANCH   1  27
ATOM     27  C   UNL     1      -1.403  -2.649   0.378  1.00  0.00     0.042 C 
BRANCH  27  28
ATOM     28  C   UNL     1      -2.880  -2.929   0.603  1.00  0.00     0.118 C 
BRANCH  28  29
ATOM     29  N   UNL     1      -3.409  -3.933  -0.310  1.00  0.00    -0.352 N 
ATOM     30  C   UNL     1      -4.033  -5.126  -0.045  1.00  0.00     0.251 C 
ATOM     31  H   UNL     1      -3.301  -3.724  -1.266  1.00  0.00     0.163 HD
ATOM     32  O   UNL     1      -4.245  -5.918  -0.957  1.00  0.00    -0.269 OA
BRANCH  30  33
ATOM     33  C   UNL     1      -4.431  -5.470   1.337  1.00  0.00     0.039 A 
ATOM     34  C   UNL     1      -4.263  -6.785   1.778  1.00  0.00     0.014 A 
ATOM     35  C   UNL     1      -4.979  -4.511   2.192  1.00  0.00     0.014 A 
ATOM     36  C   UNL     1      -4.589  -7.120   3.094  1.00  0.00     0.010 A 
ATOM     37  C   UNL     1      -5.209  -4.822   3.528  1.00  0.00     0.010 A 
ATOM     38  C   UNL     1      -5.031  -6.133   3.990  1.00  0.00    -0.014 A 
BRANCH  38  39
ATOM     39  C   UNL     1      -5.326  -6.460   5.407  1.00  0.00     0.031 A 
ATOM     40  C   UNL     1      -6.719  -6.284   5.950  1.00  0.00     0.074 A 
ATOM     41  C   UNL     1      -4.331  -6.867   6.218  1.00  0.00     0.049 A 
ATOM     42  N   UNL     1      -7.163  -6.492   7.165  1.00  0.00    -0.248 NA
ATOM     43  C   UNL     1      -7.742  -5.786   5.016  1.00  0.00     0.031 C 
ATOM     44  C   UNL     1      -2.929  -7.033   5.827  1.00  0.00     0.029 A 
ATOM     45  N   UNL     1      -4.348  -7.218   7.545  1.00  0.00    -0.354 N 
ATOM     46  C   UNL     1      -8.506  -6.136   7.141  1.00  0.00     0.074 A 
ATOM     47  C   UNL     1      -8.790  -5.643   5.812  1.00  0.00     0.031 C 
ATOM     48  C   UNL     1      -2.231  -7.489   6.878  1.00  0.00     0.029 A 
ATOM     49  C   UNL     1      -3.122  -7.607   8.027  1.00  0.00     0.049 A 
ATOM     50  H   UNL     1      -5.162  -7.192   8.099  1.00  0.00     0.167 HD
ATOM     51  C   UNL     1      -9.428  -6.232   8.128  1.00  0.00     0.031 A 
ATOM     52  C   UNL     1      -2.756  -8.014   9.257  1.00  0.00     0.031 A 
ATOM     53  C   UNL     1      -9.147  -6.729   9.449  1.00  0.00     0.049 A 
ATOM     54  C   UNL     1      -3.796  -8.100  10.339  1.00  0.00     0.074 A 
ATOM     55  C   UNL     1     -10.023  -6.914  10.505  1.00  0.00     0.029 A 
ATOM     56  N   UNL     1      -7.893  -7.116   9.896  1.00  0.00    -0.354 N 
ATOM     57  N   UNL     1      -5.077  -7.828  10.280  1.00  0.00    -0.248 NA
ATOM     58  C   UNL     1      -3.339  -8.568  11.655  1.00  0.00     0.031 C 
ATOM     59  C   UNL     1      -9.288  -7.361  11.608  1.00  0.00     0.029 A 
ATOM     60  C   UNL     1      -7.967  -7.517  11.219  1.00  0.00     0.049 A 
ATOM     61  H   UNL     1      -7.072  -7.106   9.353  1.00  0.00     0.167 HD
ATOM     62  C   UNL     1      -5.585  -8.121  11.539  1.00  0.00     0.074 A 
ATOM     63  C   UNL     1      -4.476  -8.611  12.333  1.00  0.00     0.031 C 
ATOM     64  C   UNL     1      -6.855  -7.999  11.997  1.00  0.00     0.031 A 
BRANCH  51  65
ATOM     65  C   UNL     1     -10.829  -5.781   7.813  1.00  0.00    -0.014 A 
ATOM     66  C   UNL     1     -11.640  -6.494   6.915  1.00  0.00     0.009 A 
ATOM     67  C   UNL     1     -11.355  -4.644   8.445  1.00  0.00     0.009 A 
ATOM     68  C   UNL     1     -12.934  -6.054   6.626  1.00  0.00     0.001 A 
ATOM     69  C   UNL     1     -12.661  -4.225   8.179  1.00  0.00     0.001 A 
ATOM     70  C   UNL     1     -13.444  -4.923   7.262  1.00  0.00     0.000 A 
ENDBRANCH  51  65
BRANCH  52  71
ATOM     71  C   UNL     1      -1.344  -8.392   9.529  1.00  0.00    -0.014 A 
ATOM     72  C   UNL     1      -1.001  -9.729   9.781  1.00  0.00     0.009 A 
ATOM     73  C   UNL     1      -0.334  -7.418   9.550  1.00  0.00     0.009 A 
ATOM     74  C   UNL     1       0.318 -10.078  10.082  1.00  0.00     0.001 A 
ATOM     75  C   UNL     1       0.989  -7.774   9.819  1.00  0.00     0.001 A 
ATOM     76  C   UNL     1       1.312  -9.101  10.097  1.00  0.00     0.000 A 
ENDBRANCH  52  71
BRANCH  64  77
ATOM     77  C   UNL     1      -7.120  -8.444  13.409  1.00  0.00    -0.014 A 
ATOM     78  C   UNL     1      -6.628  -7.725  14.510  1.00  0.00     0.009 A 
ATOM     79  C   UNL     1      -7.895  -9.591  13.638  1.00  0.00     0.009 A 
ATOM     80  C   UNL     1      -6.869  -8.174  15.810  1.00  0.00     0.001 A 
ATOM     81  C   UNL     1      -8.164 -10.018  14.939  1.00  0.00     0.001 A 
ATOM     82  C   UNL     1      -7.640  -9.316  16.023  1.00  0.00     0.000 A 
ENDBRANCH  64  77
ENDBRANCH  38  39
ENDBRANCH  30  33
ENDBRANCH  28  29
ENDBRANCH  27  28
ENDBRANCH   1  27
TORSDOF 13
