REMARK SMILES O=C(NCCCNC(=O)c1cc(Cl)ncc1-c1cccc(C(F)(F)F)c1)c1ccc(-c2c3nc(c(-c4ccccc4)c4ccc([nH]4)c(-c4ccccc4)c4nc(c(-c5ccccc5)c5ccc2[nH]5)C=C4)C=C3)cc1
REMARK SMILES IDX 5 1 4 2 3 3 1 4 2 5 27 7 28 8 74 9 29 10 73 11 30 12 31 13
REMARK SMILES IDX 32 14 67 15 33 16 72 17 66 18 68 19 34 20 71 21 65 22 64 23
REMARK SMILES IDX 35 25 57 26 42 27 56 28 43 29 46 30 55 31 69 32 44 33 45 34
REMARK SMILES IDX 54 36 70 37 47 38 36 39 37 40 41 41 38 42 40 43 39 44 58 45
REMARK SMILES IDX 59 46 63 47 60 48 62 49 61 50 48 51 49 52 53 53 50 54 52 55
REMARK SMILES IDX 51 56 6 57 7 58 8 59 9 61 10 62 11 63 16 64 12 65 15 66
REMARK SMILES IDX 13 67 14 68 17 69 18 70 26 71 19 72 21 73 20 74 22 75 23 76
REMARK SMILES IDX 24 77 25 78
REMARK H PARENT 3 6 68 24 46 35 7 60
REMARK Flexibility Score: inf
ROOT
ATOM      1  C   UNL     1       4.895   2.478  -0.750  1.00  0.00     0.042 C 
ENDROOT
BRANCH   1   2
ATOM      2  C   UNL     1       4.486   1.462   0.304  1.00  0.00     0.118 C 
BRANCH   2   3
ATOM      3  N   UNL     1       3.051   1.206   0.327  1.00  0.00    -0.352 N 
ATOM      4  O   UNL     1       1.117   0.120  -0.062  1.00  0.00    -0.269 OA
ATOM      5  C   UNL     1       2.343   0.074   0.000  1.00  0.00     0.251 C 
ATOM      6  H   UNL     1       2.500   1.966   0.624  1.00  0.00     0.163 HD
BRANCH   5   7
ATOM      7  C   UNL     1       3.046  -1.192  -0.299  1.00  0.00     0.039 A 
ATOM      8  C   UNL     1       4.138  -1.601   0.467  1.00  0.00     0.014 A 
ATOM      9  C   UNL     1       2.589  -2.000  -1.345  1.00  0.00     0.014 A 
ATOM     10  C   UNL     1       4.873  -2.716   0.085  1.00  0.00     0.010 A 
ATOM     11  C   UNL     1       3.264  -3.184  -1.659  1.00  0.00     0.010 A 
ATOM     12  C   UNL     1       4.430  -3.537  -0.964  1.00  0.00    -0.014 A 
BRANCH  12  13
ATOM     13  C   UNL     1       5.157  -4.802  -1.240  1.00  0.00     0.031 A 
ATOM     14  C   UNL     1       5.847  -5.042  -2.554  1.00  0.00     0.074 A 
ATOM     15  C   UNL     1       5.213  -5.732  -0.265  1.00  0.00     0.049 A 
ATOM     16  N   UNL     1       6.546  -6.084  -2.933  1.00  0.00    -0.248 NA
ATOM     17  C   UNL     1       5.741  -3.989  -3.575  1.00  0.00     0.031 C 
ATOM     18  C   UNL     1       4.575  -5.614   1.051  1.00  0.00     0.029 A 
ATOM     19  N   UNL     1       5.850  -6.944  -0.214  1.00  0.00    -0.354 N 
ATOM     20  C   UNL     1       6.944  -5.822  -4.238  1.00  0.00     0.074 A 
ATOM     21  C   UNL     1       6.394  -4.532  -4.595  1.00  0.00     0.031 C 
ATOM     22  C   UNL     1       4.897  -6.681   1.794  1.00  0.00     0.029 A 
ATOM     23  C   UNL     1       5.698  -7.592   0.988  1.00  0.00     0.049 A 
ATOM     24  H   UNL     1       6.366  -7.315  -0.966  1.00  0.00     0.167 HD
ATOM     25  C   UNL     1       7.702  -6.588  -5.059  1.00  0.00     0.031 A 
ATOM     26  C   UNL     1       6.132  -8.799   1.394  1.00  0.00     0.031 A 
ATOM     27  C   UNL     1       8.250  -7.870  -4.698  1.00  0.00     0.049 A 
ATOM     28  C   UNL     1       6.934  -9.638   0.444  1.00  0.00     0.074 A 
ATOM     29  C   UNL     1       9.060  -8.703  -5.451  1.00  0.00     0.029 A 
ATOM     30  N   UNL     1       8.038  -8.510  -3.486  1.00  0.00    -0.354 N 
ATOM     31  N   UNL     1       7.338  -9.353  -0.770  1.00  0.00    -0.248 NA
ATOM     32  C   UNL     1       7.338 -10.967   0.921  1.00  0.00     0.031 C 
ATOM     33  C   UNL     1       9.290  -9.872  -4.719  1.00  0.00     0.029 A 
ATOM     34  C   UNL     1       8.675  -9.740  -3.485  1.00  0.00     0.049 A 
ATOM     35  H   UNL     1       7.513  -8.144  -2.739  1.00  0.00     0.167 HD
ATOM     36  C   UNL     1       8.060 -10.459  -1.194  1.00  0.00     0.074 A 
ATOM     37  C   UNL     1       8.062 -11.406  -0.099  1.00  0.00     0.031 C 
ATOM     38  C   UNL     1       8.665 -10.672  -2.388  1.00  0.00     0.031 A 
BRANCH  25  39
ATOM     39  C   UNL     1       7.970  -6.080  -6.450  1.00  0.00    -0.014 A 
ATOM     40  C   UNL     1       8.860  -5.021  -6.683  1.00  0.00     0.009 A 
ATOM     41  C   UNL     1       7.386  -6.730  -7.550  1.00  0.00     0.009 A 
ATOM     42  C   UNL     1       9.144  -4.611  -7.989  1.00  0.00     0.001 A 
ATOM     43  C   UNL     1       7.691  -6.335  -8.854  1.00  0.00     0.001 A 
ATOM     44  C   UNL     1       8.566  -5.272  -9.072  1.00  0.00     0.000 A 
ENDBRANCH  25  39
BRANCH  26  45
ATOM     45  C   UNL     1       5.785  -9.298   2.750  1.00  0.00    -0.014 A 
ATOM     46  C   UNL     1       6.778  -9.487   3.722  1.00  0.00     0.009 A 
ATOM     47  C   UNL     1       4.452  -9.603   3.072  1.00  0.00     0.009 A 
ATOM     48  C   UNL     1       6.447 -10.001   4.978  1.00  0.00     0.001 A 
ATOM     49  C   UNL     1       4.120 -10.082   4.340  1.00  0.00     0.001 A 
ATOM     50  C   UNL     1       5.119 -10.294   5.287  1.00  0.00     0.000 A 
ENDBRANCH  26  45
BRANCH  38  51
ATOM     51  C   UNL     1       9.405 -11.969  -2.552  1.00  0.00    -0.014 A 
ATOM     52  C   UNL     1       8.721 -13.189  -2.671  1.00  0.00     0.009 A 
ATOM     53  C   UNL     1      10.808 -11.965  -2.609  1.00  0.00     0.009 A 
ATOM     54  C   UNL     1       9.430 -14.384  -2.805  1.00  0.00     0.001 A 
ATOM     55  C   UNL     1      11.512 -13.158  -2.775  1.00  0.00     0.001 A 
ATOM     56  C   UNL     1      10.824 -14.367  -2.861  1.00  0.00     0.000 A 
ENDBRANCH  38  51
ENDBRANCH  12  13
ENDBRANCH   5   7
ENDBRANCH   2   3
ENDBRANCH   1   2
BRANCH   1  57
ATOM     57  C   UNL     1       4.348   3.877  -0.515  1.00  0.00     0.118 C 
BRANCH  57  58
ATOM     58  N   UNL     1       4.782   4.445   0.754  1.00  0.00    -0.352 N 
ATOM     59  C   UNL     1       5.577   5.529   1.030  1.00  0.00     0.252 C 
ATOM     60  H   UNL     1       4.448   3.970   1.549  1.00  0.00     0.163 HD
ATOM     61  O   UNL     1       5.867   5.783   2.194  1.00  0.00    -0.269 OA
BRANCH  59  62
ATOM     62  C   UNL     1       6.056   6.401  -0.063  1.00  0.00     0.052 A 
ATOM     63  C   UNL     1       5.101   6.924  -0.943  1.00  0.00     0.055 A 
ATOM     64  C   UNL     1       7.408   6.766  -0.176  1.00  0.00     0.013 A 
ATOM     65  C   UNL     1       5.546   7.719  -1.974  1.00  0.00     0.129 A 
ATOM     66  C   UNL     1       7.720   7.595  -1.256  1.00  0.00     0.122 A 
ATOM     67  Cl  UNL     1       4.455   8.324  -3.149  1.00  0.00    -0.062 Cl
ATOM     68  N   UNL     1       6.831   8.060  -2.165  1.00  0.00    -0.244 NA
BRANCH  64  69
ATOM     69  C   UNL     1       8.475   6.356   0.750  1.00  0.00    -0.015 A 
ATOM     70  C   UNL     1       9.130   7.316   1.540  1.00  0.00     0.009 A 
ATOM     71  C   UNL     1       8.892   5.018   0.851  1.00  0.00     0.021 A 
ATOM     72  C   UNL     1      10.170   6.958   2.399  1.00  0.00     0.001 A 
ATOM     73  C   UNL     1       9.936   4.643   1.717  1.00  0.00     0.056 A 
ATOM     74  C   UNL     1      10.573   5.629   2.485  1.00  0.00     0.013 A 
BRANCH  73  75
ATOM     75  C   UNL     1      10.385   3.207   1.825  1.00  0.00     0.416 C 
ATOM     76  F   UNL     1      11.669   3.033   1.405  1.00  0.00    -0.166 F 
ATOM     77  F   UNL     1      10.342   2.736   3.101  1.00  0.00    -0.166 F 
ATOM     78  F   UNL     1       9.632   2.345   1.084  1.00  0.00    -0.166 F 
ENDBRANCH  73  75
ENDBRANCH  64  69
ENDBRANCH  59  62
ENDBRANCH  57  58
ENDBRANCH   1  57
TORSDOF 12
