REMARK SMILES O=C(NCCCNC(=O)[C@@H](Cc1ccccc1)N1C(=O)/C(=C/c2ccncc2)SC1=S)c1ccc(-c2c3nc(c(-c4ccccc4)c4ccc([nH]4)c(-c4ccccc4)c4nc(c(-c5ccccc5)c5ccc2[nH]5)C=C4)C=C3)cc1
REMARK SMILES IDX 5 1 4 2 3 3 1 4 2 5 32 7 33 8 79 9 34 10 78 11 35 12 36 13
REMARK SMILES IDX 37 14 72 15 38 16 77 17 71 18 73 19 39 20 76 21 70 22 69 23
REMARK SMILES IDX 40 25 62 26 47 27 61 28 48 29 51 30 60 31 74 32 49 33 50 34
REMARK SMILES IDX 59 36 75 37 52 38 41 39 42 40 46 41 43 42 45 43 44 44 63 45
REMARK SMILES IDX 64 46 68 47 65 48 67 49 66 50 53 51 54 52 58 53 55 54 57 55
REMARK SMILES IDX 56 56 6 57 7 58 8 59 9 61 10 62 11 63 12 64 13 65 17 66
REMARK SMILES IDX 14 67 16 68 15 69 18 70 19 71 30 72 20 73 21 74 29 75 31 76
REMARK SMILES IDX 22 77 23 78 24 79 28 80 25 81 27 82 26 83
REMARK H PARENT 3 6 73 24 51 35 7 60
REMARK Flexibility Score: inf
ROOT
ATOM      1  C   UNL     1       5.007  -1.770  -0.331  1.00  0.00     0.042 C 
ENDROOT
BRANCH   1   2
ATOM      2  C   UNL     1       4.277  -1.080  -1.471  1.00  0.00     0.118 C 
BRANCH   2   3
ATOM      3  N   UNL     1       2.893  -0.751  -1.130  1.00  0.00    -0.352 N 
ATOM      4  O   UNL     1       1.127   0.202  -0.136  1.00  0.00    -0.269 OA
ATOM      5  C   UNL     1       2.315   0.290  -0.442  1.00  0.00     0.251 C 
ATOM      6  H   UNL     1       2.242  -1.411  -1.461  1.00  0.00     0.163 HD
BRANCH   5   7
ATOM      7  C   UNL     1       3.071   1.501  -0.041  1.00  0.00     0.039 A 
ATOM      8  C   UNL     1       4.140   1.980  -0.788  1.00  0.00     0.014 A 
ATOM      9  C   UNL     1       2.643   2.244   1.070  1.00  0.00     0.014 A 
ATOM     10  C   UNL     1       4.888   3.061  -0.344  1.00  0.00     0.010 A 
ATOM     11  C   UNL     1       3.301   3.429   1.431  1.00  0.00     0.010 A 
ATOM     12  C   UNL     1       4.447   3.836   0.736  1.00  0.00    -0.014 A 
BRANCH  12  13
ATOM     13  C   UNL     1       5.156   5.111   1.021  1.00  0.00     0.031 A 
ATOM     14  C   UNL     1       5.827   5.360   2.340  1.00  0.00     0.074 A 
ATOM     15  C   UNL     1       5.244   6.029   0.035  1.00  0.00     0.049 A 
ATOM     16  N   UNL     1       6.542   6.392   2.714  1.00  0.00    -0.248 NA
ATOM     17  C   UNL     1       5.671   4.330   3.378  1.00  0.00     0.031 C 
ATOM     18  C   UNL     1       4.627   5.906  -1.291  1.00  0.00     0.029 A 
ATOM     19  N   UNL     1       5.924   7.218  -0.032  1.00  0.00    -0.354 N 
ATOM     20  C   UNL     1       6.891   6.153   4.036  1.00  0.00     0.074 A 
ATOM     21  C   UNL     1       6.297   4.886   4.406  1.00  0.00     0.031 C 
ATOM     22  C   UNL     1       5.035   6.919  -2.065  1.00  0.00     0.029 A 
ATOM     23  C   UNL     1       5.862   7.814  -1.269  1.00  0.00     0.049 A 
ATOM     24  H   UNL     1       6.409   7.607   0.732  1.00  0.00     0.167 HD
ATOM     25  C   UNL     1       7.639   6.921   4.866  1.00  0.00     0.031 A 
ATOM     26  C   UNL     1       6.398   8.963  -1.718  1.00  0.00     0.031 A 
ATOM     27  C   UNL     1       8.232   8.179   4.491  1.00  0.00     0.049 A 
ATOM     28  C   UNL     1       7.202   9.803  -0.773  1.00  0.00     0.074 A 
ATOM     29  C   UNL     1       9.028   9.018   5.253  1.00  0.00     0.029 A 
ATOM     30  N   UNL     1       8.091   8.781   3.250  1.00  0.00    -0.354 N 
ATOM     31  N   UNL     1       7.534   9.552   0.470  1.00  0.00    -0.248 NA
ATOM     32  C   UNL     1       7.691  11.087  -1.288  1.00  0.00     0.031 C 
ATOM     33  C   UNL     1       9.327  10.151   4.487  1.00  0.00     0.029 A 
ATOM     34  C   UNL     1       8.764   9.992   3.231  1.00  0.00     0.049 A 
ATOM     35  H   UNL     1       7.588   8.403   2.493  1.00  0.00     0.167 HD
ATOM     36  C   UNL     1       8.278  10.645   0.887  1.00  0.00     0.074 A 
ATOM     37  C   UNL     1       8.369  11.547  -0.245  1.00  0.00     0.031 C 
ATOM     38  C   UNL     1       8.832  10.882   2.101  1.00  0.00     0.031 A 
BRANCH  25  39
ATOM     39  C   UNL     1       7.818   6.437   6.279  1.00  0.00    -0.014 A 
ATOM     40  C   UNL     1       8.629   5.331   6.580  1.00  0.00     0.009 A 
ATOM     41  C   UNL     1       7.176   7.113   7.329  1.00  0.00     0.009 A 
ATOM     42  C   UNL     1       8.761   4.889   7.899  1.00  0.00     0.001 A 
ATOM     43  C   UNL     1       7.332   6.686   8.649  1.00  0.00     0.001 A 
ATOM     44  C   UNL     1       8.115   5.568   8.932  1.00  0.00     0.000 A 
ENDBRANCH  25  39
BRANCH  26  45
ATOM     45  C   UNL     1       6.169   9.384  -3.124  1.00  0.00    -0.014 A 
ATOM     46  C   UNL     1       7.218   9.370  -4.055  1.00  0.00     0.009 A 
ATOM     47  C   UNL     1       4.887   9.766  -3.552  1.00  0.00     0.009 A 
ATOM     48  C   UNL     1       6.988   9.738  -5.383  1.00  0.00     0.001 A 
ATOM     49  C   UNL     1       4.654  10.104  -4.886  1.00  0.00     0.001 A 
ATOM     50  C   UNL     1       5.706  10.096  -5.799  1.00  0.00     0.000 A 
ENDBRANCH  26  45
BRANCH  38  51
ATOM     51  C   UNL     1       9.603  12.161   2.252  1.00  0.00    -0.014 A 
ATOM     52  C   UNL     1       8.947  13.399   2.333  1.00  0.00     0.009 A 
ATOM     53  C   UNL     1      11.003  12.123   2.332  1.00  0.00     0.009 A 
ATOM     54  C   UNL     1       9.683  14.579   2.457  1.00  0.00     0.001 A 
ATOM     55  C   UNL     1      11.734  13.301   2.483  1.00  0.00     0.001 A 
ATOM     56  C   UNL     1      11.075  14.528   2.536  1.00  0.00     0.000 A 
ENDBRANCH  38  51
ENDBRANCH  12  13
ENDBRANCH   5   7
ENDBRANCH   2   3
ENDBRANCH   1   2
BRANCH   1  57
ATOM     57  C   UNL     1       4.553  -3.206  -0.194  1.00  0.00     0.117 C 
BRANCH  57  58
ATOM     58  N   UNL     1       5.332  -4.168  -0.935  1.00  0.00    -0.354 N 
ATOM     59  C   UNL     1       5.621  -5.449  -0.575  1.00  0.00     0.243 C 
ATOM     60  H   UNL     1       5.697  -3.865  -1.797  1.00  0.00     0.163 HD
ATOM     61  O   UNL     1       5.801  -6.245  -1.505  1.00  0.00    -0.273 OA
BRANCH  59  62
ATOM     62  C   UNL     1       5.710  -5.932   0.895  1.00  0.00     0.185 C 
BRANCH  62  63
ATOM     63  C   UNL     1       6.689  -5.178   1.846  1.00  0.00     0.071 C 
BRANCH  63  64
ATOM     64  C   UNL     1       6.286  -3.912   2.560  1.00  0.00    -0.045 A 
ATOM     65  C   UNL     1       6.941  -2.702   2.275  1.00  0.00     0.004 A 
ATOM     66  C   UNL     1       5.293  -3.910   3.545  1.00  0.00     0.004 A 
ATOM     67  C   UNL     1       6.550  -1.512   2.894  1.00  0.00     0.000 A 
ATOM     68  C   UNL     1       4.881  -2.716   4.142  1.00  0.00     0.000 A 
ATOM     69  C   UNL     1       5.500  -1.516   3.808  1.00  0.00     0.000 A 
ENDBRANCH  63  64
ENDBRANCH  62  63
BRANCH  62  70
ATOM     70  N   UNL     1       4.563  -6.635   1.536  1.00  0.00    -0.280 N 
ATOM     71  C   UNL     1       4.706  -7.990   1.853  1.00  0.00     0.266 C 
ATOM     72  C   UNL     1       3.348  -6.122   1.933  1.00  0.00     0.149 C 
ATOM     73  O   UNL     1       5.633  -8.731   1.562  1.00  0.00    -0.268 OA
ATOM     74  C   UNL     1       3.515  -8.449   2.619  1.00  0.00     0.081 C 
ATOM     75  S   UNL     1       2.744  -7.067   3.278  1.00  0.00    -0.054 SA
ATOM     76  S   UNL     1       2.344  -4.977   1.283  1.00  0.00    -0.052 S 
ATOM     77  C   UNL     1       3.029  -9.697   2.641  1.00  0.00     0.029 C 
BRANCH  77  78
ATOM     78  C   UNL     1       1.725  -9.976   3.259  1.00  0.00    -0.021 A 
ATOM     79  C   UNL     1       0.546  -9.586   2.614  1.00  0.00     0.028 A 
ATOM     80  C   UNL     1       1.658 -10.455   4.564  1.00  0.00     0.028 A 
ATOM     81  C   UNL     1      -0.644  -9.662   3.316  1.00  0.00     0.111 A 
ATOM     82  C   UNL     1       0.415 -10.504   5.175  1.00  0.00     0.111 A 
ATOM     83  N   UNL     1      -0.735 -10.116   4.583  1.00  0.00    -0.265 NA
ENDBRANCH  77  78
ENDBRANCH  62  70
ENDBRANCH  59  62
ENDBRANCH  57  58
ENDBRANCH   1  57
TORSDOF 14
