REMARK SMILES Cc1c(Cc2nc(C(C)(C)C)cs2)cccc1C(=O)NCCCNC(=O)c1ccc(-c2c3nc(c(-c4ccccc4)c4ccc([nH]4)c(-c4ccccc4)c4nc(c(-c5ccccc5)c5ccc2[nH]5)C=C4)C=C3)cc1
REMARK SMILES IDX 21 1 20 2 18 3 19 4 17 6 1 7 2 8 3 9 14 10 16 11 15 12 4 13
REMARK SMILES IDX 5 14 6 15 13 16 7 17 12 18 8 19 9 20 10 21 11 22 22 23 23 24
REMARK SMILES IDX 24 25 25 26 26 28 27 29 28 30 74 31 29 32 73 33 30 34 31 35
REMARK SMILES IDX 32 36 67 37 33 38 72 39 66 40 68 41 34 42 71 43 65 44 64 45
REMARK SMILES IDX 35 47 57 48 42 49 56 50 43 51 46 52 55 53 69 54 44 55 45 56
REMARK SMILES IDX 54 58 70 59 47 60 36 61 37 62 41 63 38 64 40 65 39 66 58 67
REMARK SMILES IDX 59 68 63 69 60 70 62 71 61 72 48 73 49 74 53 75 50 76 52 77
REMARK SMILES IDX 51 78
REMARK H PARENT 20 5 24 27 68 46 46 57
REMARK Flexibility Score: inf
ROOT
ATOM      1  C   UNL     1       3.377   1.327   0.346  1.00  0.00     0.118 C 
ENDROOT
BRANCH   1   2
ATOM      2  N   UNL     1       2.409   2.223  -0.265  1.00  0.00    -0.352 N 
ATOM      3  C   UNL     1       1.071   2.088  -0.557  1.00  0.00     0.251 C 
ATOM      4  O   UNL     1       0.489   3.074  -1.013  1.00  0.00    -0.269 OA
ATOM      5  H   UNL     1       2.784   3.098  -0.519  1.00  0.00     0.163 HD
BRANCH   3   6
ATOM      6  C   UNL     1       0.265   0.861  -0.270  1.00  0.00     0.043 A 
ATOM      7  C   UNL     1       1.731  -0.801  -1.528  1.00  0.00     0.045 C 
ATOM      8  C   UNL     1       0.610  -0.469  -0.593  1.00  0.00    -0.035 A 
ATOM      9  C   UNL     1      -0.200  -1.533  -0.125  1.00  0.00    -0.037 A 
ATOM     10  C   UNL     1      -1.475  -1.242   0.389  1.00  0.00     0.004 A 
ATOM     11  C   UNL     1      -1.007   1.111   0.280  1.00  0.00     0.014 A 
ATOM     12  C   UNL     1      -1.889   0.071   0.562  1.00  0.00     0.001 A 
BRANCH   9  13
ATOM     13  C   UNL     1       0.262  -2.987  -0.167  1.00  0.00     0.103 C 
BRANCH  13  14
ATOM     14  C   UNL     1       0.117  -3.654   1.173  1.00  0.00     0.097 A 
ATOM     15  N   UNL     1      -1.001  -4.211   1.580  1.00  0.00    -0.245 NA
ATOM     16  S   UNL     1       1.388  -3.640   2.328  1.00  0.00    -0.127 S 
ATOM     17  C   UNL     1      -0.924  -4.545   2.920  1.00  0.00     0.057 A 
ATOM     18  C   UNL     1       0.327  -4.344   3.478  1.00  0.00     0.091 A 
BRANCH  17  19
ATOM     19  C   UNL     1      -2.178  -5.065   3.603  1.00  0.00     0.005 C 
ATOM     20  C   UNL     1      -2.010  -6.553   3.947  1.00  0.00     0.017 C 
ATOM     21  C   UNL     1      -2.461  -4.266   4.890  1.00  0.00     0.017 C 
ATOM     22  C   UNL     1      -3.408  -4.912   2.679  1.00  0.00     0.017 C 
ENDBRANCH  17  19
ENDBRANCH  13  14
ENDBRANCH   9  13
ENDBRANCH   3   6
ENDBRANCH   1   2
BRANCH   1  23
ATOM     23  C   UNL     1       4.329   0.718  -0.688  1.00  0.00     0.042 C 
BRANCH  23  24
ATOM     24  C   UNL     1       5.645   1.447  -0.894  1.00  0.00     0.118 C 
BRANCH  24  25
ATOM     25  N   UNL     1       6.788   0.514  -0.882  1.00  0.00    -0.352 N 
ATOM     26  C   UNL     1       8.075   0.689  -1.365  1.00  0.00     0.251 C 
ATOM     27  H   UNL     1       6.609  -0.362  -0.471  1.00  0.00     0.163 HD
ATOM     28  O   UNL     1       8.956  -0.084  -1.150  1.00  0.00    -0.269 OA
BRANCH  26  29
ATOM     29  C   UNL     1       8.329   1.972  -2.075  1.00  0.00     0.039 A 
ATOM     30  C   UNL     1       9.020   2.944  -1.355  1.00  0.00     0.014 A 
ATOM     31  C   UNL     1       7.525   2.287  -3.165  1.00  0.00     0.014 A 
ATOM     32  C   UNL     1       8.674   4.273  -1.549  1.00  0.00     0.010 A 
ATOM     33  C   UNL     1       7.132   3.604  -3.307  1.00  0.00     0.010 A 
ATOM     34  C   UNL     1       7.636   4.577  -2.434  1.00  0.00    -0.014 A 
BRANCH  34  35
ATOM     35  C   UNL     1       6.973   5.874  -2.415  1.00  0.00     0.031 A 
ATOM     36  C   UNL     1       7.370   6.890  -3.400  1.00  0.00     0.074 A 
ATOM     37  C   UNL     1       6.093   6.225  -1.449  1.00  0.00     0.049 A 
ATOM     38  N   UNL     1       7.521   8.142  -3.122  1.00  0.00    -0.248 NA
ATOM     39  C   UNL     1       7.688   6.544  -4.777  1.00  0.00     0.031 C 
ATOM     40  C   UNL     1       5.332   7.471  -1.377  1.00  0.00     0.029 A 
ATOM     41  N   UNL     1       5.900   5.641  -0.198  1.00  0.00    -0.354 N 
ATOM     42  C   UNL     1       7.637   8.798  -4.322  1.00  0.00     0.074 A 
ATOM     43  C   UNL     1       7.848   7.759  -5.307  1.00  0.00     0.031 C 
ATOM     44  C   UNL     1       5.056   7.726  -0.089  1.00  0.00     0.029 A 
ATOM     45  C   UNL     1       5.693   6.695   0.710  1.00  0.00     0.049 A 
ATOM     46  H   UNL     1       5.907   4.679   0.010  1.00  0.00     0.167 HD
ATOM     47  C   UNL     1       7.375  10.133  -4.401  1.00  0.00     0.031 A 
ATOM     48  C   UNL     1       6.443   6.890   1.831  1.00  0.00     0.031 A 
ATOM     49  C   UNL     1       7.003  10.715  -3.111  1.00  0.00     0.049 A 
ATOM     50  C   UNL     1       7.130   8.240   1.880  1.00  0.00     0.074 A 
ATOM     51  C   UNL     1       5.796  11.113  -2.559  1.00  0.00     0.029 A 
ATOM     52  N   UNL     1       7.916  10.707  -2.066  1.00  0.00    -0.354 N 
ATOM     53  N   UNL     1       7.055   9.146   0.946  1.00  0.00    -0.248 NA
ATOM     54  C   UNL     1       8.069   8.614   2.935  1.00  0.00     0.031 C 
ATOM     55  C   UNL     1       5.994  11.360  -1.173  1.00  0.00     0.029 A 
ATOM     56  C   UNL     1       7.323  11.116  -0.884  1.00  0.00     0.049 A 
ATOM     57  H   UNL     1       8.861  10.444  -2.154  1.00  0.00     0.167 HD
ATOM     58  C   UNL     1       7.944  10.162   1.208  1.00  0.00     0.074 A 
ATOM     59  C   UNL     1       8.552   9.779   2.470  1.00  0.00     0.031 C 
ATOM     60  C   UNL     1       8.129  11.196   0.331  1.00  0.00     0.031 A 
BRANCH  47  61
ATOM     61  C   UNL     1       7.157  10.818  -5.728  1.00  0.00    -0.014 A 
ATOM     62  C   UNL     1       6.238  11.876  -5.829  1.00  0.00     0.009 A 
ATOM     63  C   UNL     1       7.785  10.429  -6.924  1.00  0.00     0.009 A 
ATOM     64  C   UNL     1       5.871  12.423  -7.066  1.00  0.00     0.001 A 
ATOM     65  C   UNL     1       7.387  10.932  -8.169  1.00  0.00     0.001 A 
ATOM     66  C   UNL     1       6.416  11.921  -8.241  1.00  0.00     0.000 A 
ENDBRANCH  47  61
BRANCH  48  67
ATOM     67  C   UNL     1       7.004   5.634   2.396  1.00  0.00    -0.014 A 
ATOM     68  C   UNL     1       6.104   4.708   2.960  1.00  0.00     0.009 A 
ATOM     69  C   UNL     1       8.281   5.194   2.024  1.00  0.00     0.009 A 
ATOM     70  C   UNL     1       6.426   3.351   3.021  1.00  0.00     0.001 A 
ATOM     71  C   UNL     1       8.601   3.834   2.098  1.00  0.00     0.001 A 
ATOM     72  C   UNL     1       7.660   2.910   2.554  1.00  0.00     0.000 A 
ENDBRANCH  48  67
BRANCH  60  73
ATOM     73  C   UNL     1       9.078  12.375   0.472  1.00  0.00    -0.014 A 
ATOM     74  C   UNL     1       9.742  12.749   1.646  1.00  0.00     0.009 A 
ATOM     75  C   UNL     1       9.290  13.222  -0.644  1.00  0.00     0.009 A 
ATOM     76  C   UNL     1      10.623  13.845   1.682  1.00  0.00     0.001 A 
ATOM     77  C   UNL     1      10.153  14.321  -0.614  1.00  0.00     0.001 A 
ATOM     78  C   UNL     1      10.835  14.624   0.551  1.00  0.00     0.000 A 
ENDBRANCH  60  73
ENDBRANCH  34  35
ENDBRANCH  26  29
ENDBRANCH  24  25
ENDBRANCH  23  24
ENDBRANCH   1  23
TORSDOF 13
