REMARK SMILES CCOc1ccc2[nH]c(C)c/c(=N\c3cccc(C(=O)NCCCNC(=O)c4ccc(-c5c6nc(c(-c7ccccc7)c7ccc([nH]7)c(-c7ccccc7)c7nc(c(-c8ccccc8)c8ccc5[nH]8)C=C7)C=C6)cc4)c3)c2c1
REMARK SMILES IDX 22 1 21 2 19 3 20 4 18 6 14 7 15 8 76 9 16 10 17 11 13 12
REMARK SMILES IDX 4 13 5 14 78 15 6 16 77 17 7 18 12 19 8 20 11 21 9 22 10 24
REMARK SMILES IDX 3 25 2 26 1 27 23 28 24 29 25 30 26 31 27 33 28 34 29 35
REMARK SMILES IDX 75 36 30 37 74 38 31 39 32 40 33 41 68 42 34 43 73 44 67 45
REMARK SMILES IDX 69 46 35 47 72 48 66 49 65 50 36 52 58 53 43 54 57 55 44 56
REMARK SMILES IDX 47 57 56 58 70 59 45 60 46 61 55 63 71 64 48 65 37 66 38 67
REMARK SMILES IDX 42 68 39 69 41 70 40 71 59 72 60 73 64 74 61 75 63 76 62 77
REMARK SMILES IDX 49 78 50 79 54 80 51 81 53 82 52 83
REMARK H PARENT 21 5 8 23 25 32 69 51 47 62
REMARK Flexibility Score: inf
ROOT
ATOM      1  C   UNL     1       3.872   7.173   5.415  1.00  0.00     0.118 C 
ENDROOT
BRANCH   1   2
ATOM      2  N   UNL     1       4.600   8.433   5.372  1.00  0.00    -0.352 N 
ATOM      3  C   UNL     1       5.141   9.239   4.403  1.00  0.00     0.251 C 
ATOM      4  O   UNL     1       5.709  10.255   4.814  1.00  0.00    -0.269 OA
ATOM      5  H   UNL     1       4.740   8.803   6.274  1.00  0.00     0.163 HD
BRANCH   3   6
ATOM      6  C   UNL     1       5.136   8.977   2.934  1.00  0.00     0.041 A 
ATOM      7  C   UNL     1       4.557   7.710   0.940  1.00  0.00     0.064 A 
ATOM      8  C   UNL     1       5.345   8.550   0.153  1.00  0.00     0.028 A 
ATOM      9  C   UNL     1       4.380   8.004   2.293  1.00  0.00     0.042 A 
ATOM     10  C   UNL     1       6.059   9.585   0.752  1.00  0.00     0.003 A 
ATOM     11  C   UNL     1       5.980   9.773   2.136  1.00  0.00     0.014 A 
BRANCH   7  12
ATOM     12  N   UNL     1       3.998   6.511   0.466  1.00  0.00    -0.248 NA
ATOM     13  C   UNL     1       2.328   2.658  -0.363  1.00  0.00     0.120 A 
ATOM     14  C   UNL     1       3.162   1.701  -0.937  1.00  0.00     0.048 A 
ATOM     15  C   UNL     1       2.829   3.913  -0.012  1.00  0.00     0.059 A 
ATOM     16  C   UNL     1       4.523   1.959  -1.088  1.00  0.00     0.030 A 
ATOM     17  C   UNL     1       4.196   4.179  -0.178  1.00  0.00     0.027 A 
ATOM     18  C   UNL     1       5.054   3.190  -0.698  1.00  0.00     0.048 A 
ATOM     19  C   UNL     1       4.787   5.503   0.209  1.00  0.00     0.075 A 
ATOM     20  N   UNL     1       6.431   3.419  -0.794  1.00  0.00    -0.359 N 
ATOM     21  C   UNL     1       6.291   5.538   0.268  1.00  0.00     0.050 A 
ATOM     22  C   UNL     1       7.014   4.546  -0.272  1.00  0.00     0.014 A 
ATOM     23  H   UNL     1       6.996   2.753  -1.248  1.00  0.00     0.166 HD
ATOM     24  C   UNL     1       8.513   4.636  -0.340  1.00  0.00     0.064 C 
BRANCH  13  25
ATOM     25  O   UNL     1       0.985   2.424  -0.247  1.00  0.00    -0.494 OA
BRANCH  25  26
ATOM     26  C   UNL     1       0.658   1.489   0.791  1.00  0.00     0.226 C 
ATOM     27  C   UNL     1       0.594   0.057   0.279  1.00  0.00     0.049 C 
ENDBRANCH  25  26
ENDBRANCH  13  25
ENDBRANCH   7  12
ENDBRANCH   3   6
ENDBRANCH   1   2
BRANCH   1  28
ATOM     28  C   UNL     1       4.635   6.067   6.131  1.00  0.00     0.042 C 
BRANCH  28  29
ATOM     29  C   UNL     1       4.803   6.314   7.622  1.00  0.00     0.118 C 
BRANCH  29  30
ATOM     30  N   UNL     1       3.537   6.292   8.348  1.00  0.00    -0.352 N 
ATOM     31  C   UNL     1       2.900   5.299   9.058  1.00  0.00     0.251 C 
ATOM     32  H   UNL     1       3.048   7.146   8.327  1.00  0.00     0.163 HD
ATOM     33  O   UNL     1       1.741   5.469   9.419  1.00  0.00    -0.269 OA
BRANCH  31  34
ATOM     34  C   UNL     1       3.577   4.017   9.360  1.00  0.00     0.039 A 
ATOM     35  C   UNL     1       4.925   3.973   9.702  1.00  0.00     0.014 A 
ATOM     36  C   UNL     1       2.836   2.830   9.331  1.00  0.00     0.014 A 
ATOM     37  C   UNL     1       5.579   2.750   9.792  1.00  0.00     0.010 A 
ATOM     38  C   UNL     1       3.471   1.601   9.545  1.00  0.00     0.010 A 
ATOM     39  C   UNL     1       4.862   1.546   9.717  1.00  0.00    -0.014 A 
BRANCH  39  40
ATOM     40  C   UNL     1       5.594   0.255   9.824  1.00  0.00     0.031 A 
ATOM     41  C   UNL     1       5.593  -0.729   8.683  1.00  0.00     0.074 A 
ATOM     42  C   UNL     1       6.325  -0.000  10.929  1.00  0.00     0.049 A 
ATOM     43  N   UNL     1       6.203  -1.885   8.596  1.00  0.00    -0.248 NA
ATOM     44  C   UNL     1       4.809  -0.380   7.487  1.00  0.00     0.031 C 
ATOM     45  C   UNL     1       6.423   0.880  12.096  1.00  0.00     0.029 A 
ATOM     46  N   UNL     1       7.151  -1.052  11.239  1.00  0.00    -0.354 N 
ATOM     47  C   UNL     1       5.859  -2.406   7.355  1.00  0.00     0.074 A 
ATOM     48  C   UNL     1       4.967  -1.457   6.729  1.00  0.00     0.031 C 
ATOM     49  C   UNL     1       7.313   0.370  12.958  1.00  0.00     0.029 A 
ATOM     50  C   UNL     1       7.788  -0.911  12.449  1.00  0.00     0.049 A 
ATOM     51  H   UNL     1       7.275  -1.832  10.651  1.00  0.00     0.167 HD
ATOM     52  C   UNL     1       6.262  -3.566   6.784  1.00  0.00     0.031 A 
ATOM     53  C   UNL     1       8.649  -1.724  13.092  1.00  0.00     0.031 A 
ATOM     54  C   UNL     1       7.170  -4.498   7.395  1.00  0.00     0.049 A 
ATOM     55  C   UNL     1       9.048  -3.021  12.450  1.00  0.00     0.074 A 
ATOM     56  C   UNL     1       7.648  -5.691   6.880  1.00  0.00     0.029 A 
ATOM     57  N   UNL     1       7.744  -4.343   8.647  1.00  0.00    -0.354 N 
ATOM     58  N   UNL     1       8.713  -3.493  11.274  1.00  0.00    -0.248 NA
ATOM     59  C   UNL     1       9.939  -3.900  13.221  1.00  0.00     0.031 C 
ATOM     60  C   UNL     1       8.466  -6.285   7.842  1.00  0.00     0.029 A 
ATOM     61  C   UNL     1       8.552  -5.431   8.929  1.00  0.00     0.049 A 
ATOM     62  H   UNL     1       7.599  -3.575   9.245  1.00  0.00     0.167 HD
ATOM     63  C   UNL     1       9.359  -4.717  11.160  1.00  0.00     0.074 A 
ATOM     64  C   UNL     1      10.125  -4.904  12.374  1.00  0.00     0.031 C 
ATOM     65  C   UNL     1       9.312  -5.606  10.139  1.00  0.00     0.031 A 
BRANCH  52  66
ATOM     66  C   UNL     1       5.726  -3.915   5.422  1.00  0.00    -0.014 A 
ATOM     67  C   UNL     1       4.841  -4.996   5.281  1.00  0.00     0.009 A 
ATOM     68  C   UNL     1       6.187  -3.259   4.270  1.00  0.00     0.009 A 
ATOM     69  C   UNL     1       4.444  -5.428   4.014  1.00  0.00     0.001 A 
ATOM     70  C   UNL     1       5.767  -3.677   3.005  1.00  0.00     0.001 A 
ATOM     71  C   UNL     1       4.907  -4.768   2.877  1.00  0.00     0.000 A 
ENDBRANCH  52  66
BRANCH  53  72
ATOM     72  C   UNL     1       9.176  -1.325  14.424  1.00  0.00    -0.014 A 
ATOM     73  C   UNL     1       8.316  -1.237  15.532  1.00  0.00     0.009 A 
ATOM     74  C   UNL     1      10.527  -0.985  14.588  1.00  0.00     0.009 A 
ATOM     75  C   UNL     1       8.789  -0.788  16.766  1.00  0.00     0.001 A 
ATOM     76  C   UNL     1      11.005  -0.569  15.834  1.00  0.00     0.001 A 
ATOM     77  C   UNL     1      10.134  -0.460  16.918  1.00  0.00     0.000 A 
ENDBRANCH  53  72
BRANCH  65  78
ATOM     78  C   UNL     1      10.120  -6.866  10.268  1.00  0.00    -0.014 A 
ATOM     79  C   UNL     1      11.237  -7.064   9.440  1.00  0.00     0.009 A 
ATOM     80  C   UNL     1       9.714  -7.900  11.124  1.00  0.00     0.009 A 
ATOM     81  C   UNL     1      11.921  -8.280   9.453  1.00  0.00     0.001 A 
ATOM     82  C   UNL     1      10.418  -9.105  11.156  1.00  0.00     0.001 A 
ATOM     83  C   UNL     1      11.513  -9.298  10.313  1.00  0.00     0.000 A 
ENDBRANCH  65  78
ENDBRANCH  39  40
ENDBRANCH  31  34
ENDBRANCH  29  30
ENDBRANCH  28  29
ENDBRANCH   1  28
TORSDOF 13
