REMARK SMILES CC(=O)Nc1cc(NC(C)=O)cc(C(=O)Nc2ccc(Br)cc2C(=O)NCCCNC(=O)c2ccc(-c3c4nc(c(-c5ccccc5)c5ccc([nH]5)c(-c5ccccc5)c5nc(c(-c6ccccc6)c6ccc3[nH]6)C=C5)C=C4)cc2)c1
REMARK SMILES IDX 27 1 26 2 24 3 25 4 23 6 17 7 18 8 19 9 22 10 20 11 21 12
REMARK SMILES IDX 16 13 14 14 15 15 13 17 5 18 6 19 81 20 7 21 12 22 4 23 1 24
REMARK SMILES IDX 2 25 3 26 8 28 9 29 10 31 11 32 28 33 29 34 30 35 31 36
REMARK SMILES IDX 32 38 33 39 34 40 80 41 35 42 79 43 36 44 37 45 38 46 73 47
REMARK SMILES IDX 39 48 78 49 72 50 74 51 40 52 77 53 71 54 70 55 41 57 63 58
REMARK SMILES IDX 48 59 62 60 49 61 52 62 61 63 75 64 50 65 51 66 60 68 76 69
REMARK SMILES IDX 53 70 42 71 43 72 47 73 44 74 46 75 45 76 64 77 65 78 69 79
REMARK SMILES IDX 66 80 68 81 67 82 54 83 55 84 59 85 56 86 58 87 57 88
REMARK H PARENT 26 5 16 16 4 27 8 30 30 37 74 56 52 67
REMARK Flexibility Score: inf
ROOT
ATOM      1  C   UNL     1       6.258  -2.184   0.882  1.00  0.00     0.118 C 
ENDROOT
BRANCH   1   2
ATOM      2  N   UNL     1       5.256  -2.121   1.928  1.00  0.00    -0.352 N 
ATOM      3  C   UNL     1       4.188  -1.279   2.069  1.00  0.00     0.253 C 
ATOM      4  O   UNL     1       3.480  -1.403   3.067  1.00  0.00    -0.269 OA
ATOM      5  H   UNL     1       5.361  -2.785   2.646  1.00  0.00     0.163 HD
BRANCH   3   6
ATOM      6  C   UNL     1       3.923  -0.174   1.115  1.00  0.00     0.064 A 
ATOM      7  C   UNL     1       4.002  -0.230  -0.292  1.00  0.00     0.054 A 
ATOM      8  C   UNL     1       3.959   0.979  -1.009  1.00  0.00     0.028 A 
ATOM      9  C   UNL     1       3.678   2.189  -0.370  1.00  0.00     0.018 A 
ATOM     10  C   UNL     1       3.602   1.046   1.745  1.00  0.00     0.031 A 
ATOM     11  C   UNL     1       3.460   2.210   1.001  1.00  0.00     0.018 A 
ATOM     12  Br  UNL     1       2.973   3.822   1.855  1.00  0.00    -0.051 Br
BRANCH   7  13
ATOM     13  N   UNL     1       4.063  -1.385  -1.111  1.00  0.00    -0.321 N 
ATOM     14  C   UNL     1       3.562  -2.665  -0.956  1.00  0.00     0.255 C 
ATOM     15  O   UNL     1       3.969  -3.564  -1.688  1.00  0.00    -0.269 OA
ATOM     16  H   UNL     1       4.556  -1.250  -1.953  1.00  0.00     0.170 HD
BRANCH  14  17
ATOM     17  C   UNL     1       2.506  -2.972   0.032  1.00  0.00     0.044 A 
ATOM     18  C   UNL     1       0.662  -2.209   1.383  1.00  0.00     0.044 A 
ATOM     19  C   UNL     1       0.699  -3.434   2.070  1.00  0.00     0.052 A 
ATOM     20  C   UNL     1       1.521  -2.025   0.313  1.00  0.00     0.040 A 
ATOM     21  C   UNL     1       1.578  -4.460   1.695  1.00  0.00     0.044 A 
ATOM     22  C   UNL     1       2.506  -4.210   0.681  1.00  0.00     0.040 A 
BRANCH  18  23
ATOM     23  N   UNL     1      -0.167  -1.198   1.904  1.00  0.00    -0.326 N 
ATOM     24  C   UNL     1      -0.280   0.480   0.049  1.00  0.00     0.114 C 
ATOM     25  C   UNL     1      -0.507   0.050   1.471  1.00  0.00     0.221 C 
ATOM     26  O   UNL     1      -1.047   0.825   2.267  1.00  0.00    -0.275 OA
ATOM     27  H   UNL     1      -0.588  -1.442   2.760  1.00  0.00     0.169 HD
ENDBRANCH  18  23
BRANCH  21  28
ATOM     28  N   UNL     1       1.595  -5.742   2.289  1.00  0.00    -0.326 N 
ATOM     29  C   UNL     1       0.730  -6.226   3.255  1.00  0.00     0.221 C 
ATOM     30  H   UNL     1       2.299  -6.358   1.983  1.00  0.00     0.169 HD
ATOM     31  C   UNL     1       0.996  -7.663   3.628  1.00  0.00     0.114 C 
ATOM     32  O   UNL     1      -0.197  -5.617   3.780  1.00  0.00    -0.275 OA
ENDBRANCH  21  28
ENDBRANCH  14  17
ENDBRANCH   7  13
ENDBRANCH   3   6
ENDBRANCH   1   2
BRANCH   1  33
ATOM     33  C   UNL     1       7.551  -2.841   1.319  1.00  0.00     0.042 C 
BRANCH  33  34
ATOM     34  C   UNL     1       7.377  -4.261   1.841  1.00  0.00     0.118 C 
BRANCH  34  35
ATOM     35  N   UNL     1       6.825  -5.209   0.875  1.00  0.00    -0.352 N 
ATOM     36  C   UNL     1       7.386  -6.288   0.231  1.00  0.00     0.251 C 
ATOM     37  H   UNL     1       5.882  -5.046   0.644  1.00  0.00     0.163 HD
ATOM     38  O   UNL     1       6.715  -6.951  -0.557  1.00  0.00    -0.269 OA
BRANCH  36  39
ATOM     39  C   UNL     1       8.812  -6.613   0.429  1.00  0.00     0.039 A 
ATOM     40  C   UNL     1       9.611  -6.883  -0.685  1.00  0.00     0.014 A 
ATOM     41  C   UNL     1       9.380  -6.578   1.698  1.00  0.00     0.014 A 
ATOM     42  C   UNL     1      10.997  -6.980  -0.533  1.00  0.00     0.010 A 
ATOM     43  C   UNL     1      10.759  -6.520   1.826  1.00  0.00     0.010 A 
ATOM     44  C   UNL     1      11.588  -6.720   0.712  1.00  0.00    -0.014 A 
BRANCH  44  45
ATOM     45  C   UNL     1      13.062  -6.648   0.895  1.00  0.00     0.031 A 
ATOM     46  C   UNL     1      13.730  -7.511   1.932  1.00  0.00     0.074 A 
ATOM     47  C   UNL     1      13.782  -5.728   0.222  1.00  0.00     0.049 A 
ATOM     48  N   UNL     1      14.965  -7.478   2.367  1.00  0.00    -0.248 NA
ATOM     49  C   UNL     1      12.882  -8.504   2.613  1.00  0.00     0.031 C 
ATOM     50  C   UNL     1      13.253  -4.775  -0.758  1.00  0.00     0.029 A 
ATOM     51  N   UNL     1      15.122  -5.433   0.275  1.00  0.00    -0.354 N 
ATOM     52  C   UNL     1      15.022  -8.405   3.400  1.00  0.00     0.074 A 
ATOM     53  C   UNL     1      13.687  -8.933   3.572  1.00  0.00     0.031 C 
ATOM     54  C   UNL     1      14.261  -4.030  -1.239  1.00  0.00     0.029 A 
ATOM     55  C   UNL     1      15.498  -4.417  -0.571  1.00  0.00     0.049 A 
ATOM     56  H   UNL     1      15.755  -5.905   0.864  1.00  0.00     0.167 HD
ATOM     57  C   UNL     1      16.092  -8.809   4.124  1.00  0.00     0.031 A 
ATOM     58  C   UNL     1      16.703  -3.856  -0.782  1.00  0.00     0.031 A 
ATOM     59  C   UNL     1      17.429  -8.325   3.918  1.00  0.00     0.049 A 
ATOM     60  C   UNL     1      17.891  -4.359  -0.012  1.00  0.00     0.074 A 
ATOM     61  C   UNL     1      18.598  -8.724   4.542  1.00  0.00     0.029 A 
ATOM     62  N   UNL     1      17.776  -7.343   3.004  1.00  0.00    -0.354 N 
ATOM     63  N   UNL     1      17.939  -5.279   0.921  1.00  0.00    -0.248 NA
ATOM     64  C   UNL     1      19.191  -3.755  -0.334  1.00  0.00     0.031 C 
ATOM     65  C   UNL     1      19.649  -7.961   4.024  1.00  0.00     0.029 A 
ATOM     66  C   UNL     1      19.140  -7.118   3.048  1.00  0.00     0.049 A 
ATOM     67  H   UNL     1      17.144  -6.875   2.410  1.00  0.00     0.167 HD
ATOM     68  C   UNL     1      19.275  -5.380   1.284  1.00  0.00     0.074 A 
ATOM     69  C   UNL     1      20.006  -4.439   0.458  1.00  0.00     0.031 C 
ATOM     70  C   UNL     1      19.846  -6.178   2.218  1.00  0.00     0.031 A 
BRANCH  57  71
ATOM     71  C   UNL     1      15.845  -9.836   5.194  1.00  0.00    -0.014 A 
ATOM     72  C   UNL     1      15.483 -11.153   4.868  1.00  0.00     0.009 A 
ATOM     73  C   UNL     1      15.962  -9.480   6.546  1.00  0.00     0.009 A 
ATOM     74  C   UNL     1      15.187 -12.077   5.872  1.00  0.00     0.001 A 
ATOM     75  C   UNL     1      15.698 -10.416   7.549  1.00  0.00     0.001 A 
ATOM     76  C   UNL     1      15.297 -11.708   7.211  1.00  0.00     0.000 A 
ENDBRANCH  57  71
BRANCH  58  77
ATOM     77  C   UNL     1      16.850  -2.776  -1.792  1.00  0.00    -0.014 A 
ATOM     78  C   UNL     1      17.468  -3.038  -3.024  1.00  0.00     0.009 A 
ATOM     79  C   UNL     1      16.361  -1.485  -1.539  1.00  0.00     0.009 A 
ATOM     80  C   UNL     1      17.612  -2.025  -3.975  1.00  0.00     0.001 A 
ATOM     81  C   UNL     1      16.484  -0.480  -2.502  1.00  0.00     0.001 A 
ATOM     82  C   UNL     1      17.115  -0.749  -3.715  1.00  0.00     0.000 A 
ENDBRANCH  58  77
BRANCH  70  83
ATOM     83  C   UNL     1      21.336  -6.090   2.375  1.00  0.00    -0.014 A 
ATOM     84  C   UNL     1      21.935  -4.994   3.015  1.00  0.00     0.009 A 
ATOM     85  C   UNL     1      22.146  -7.142   1.920  1.00  0.00     0.009 A 
ATOM     86  C   UNL     1      23.321  -4.942   3.171  1.00  0.00     0.001 A 
ATOM     87  C   UNL     1      23.528  -7.099   2.100  1.00  0.00     0.001 A 
ATOM     88  C   UNL     1      24.115  -5.995   2.719  1.00  0.00     0.000 A 
ENDBRANCH  70  83
ENDBRANCH  44  45
ENDBRANCH  36  39
ENDBRANCH  34  35
ENDBRANCH  33  34
ENDBRANCH   1  33
TORSDOF 14
