REMARK SMILES COCC[C@]1(C(=O)NCCCNC(=O)c2ccc(-c3c4nc(c(-c5ccccc5)c5ccc([nH]5)c(-c5ccccc5)c5nc(c(-c6ccccc6)c6ccc3[nH]6)C=C5)C=C4)cc2)CCC[N@@H+](Cc2ccc(C(F)(F)F)nc2)C1
REMARK SMILES IDX 9 1 8 2 6 3 7 4 5 6 63 7 78 8 64 9 66 10 65 11 4 13 3 14
REMARK SMILES IDX 2 15 1 16 67 17 68 18 69 19 77 20 70 21 76 22 71 23 72 24
REMARK SMILES IDX 73 25 74 26 75 27 10 28 11 29 12 30 13 31 14 33 15 34 16 35
REMARK SMILES IDX 62 36 17 37 61 38 18 39 19 40 20 41 55 42 21 43 60 44 54 45
REMARK SMILES IDX 56 46 22 47 59 48 53 49 52 50 23 52 45 53 30 54 44 55 31 56
REMARK SMILES IDX 34 57 43 58 57 59 32 60 33 61 42 63 58 64 35 65 24 66 25 67
REMARK SMILES IDX 29 68 26 69 28 70 27 71 46 72 47 73 51 74 48 75 50 76 49 77
REMARK SMILES IDX 36 78 37 79 41 80 38 81 40 82 39 83
REMARK H PARENT 8 5 66 12 12 32 56 51 34 62
REMARK Flexibility Score: inf
ROOT
ATOM      1  C   UNL     1       2.244   2.612   2.540  1.00  0.00     0.117 C 
ENDROOT
BRANCH   1   2
ATOM      2  N   UNL     1       2.601   1.739   1.432  1.00  0.00    -0.355 N 
ATOM      3  C   UNL     1       2.154   1.644   0.149  1.00  0.00     0.232 C 
ATOM      4  O   UNL     1       2.861   0.952  -0.589  1.00  0.00    -0.274 OA
ATOM      5  H   UNL     1       3.306   1.088   1.653  1.00  0.00     0.163 HD
BRANCH   3   6
ATOM      6  C   UNL     1       0.942   2.442  -0.388  1.00  0.00     0.100 C 
ATOM      7  C   UNL     1      -0.320   2.349   0.508  1.00  0.00     0.029 C 
ATOM      8  C   UNL     1       1.498   3.897  -0.461  1.00  0.00     0.279 C 
ATOM      9  C   UNL     1      -1.251   3.552   0.364  1.00  0.00     0.063 C 
ATOM     10  N   UNL     1       0.549   5.014  -0.468  1.00  0.00    -0.330 N 
ATOM     11  C   UNL     1      -0.507   4.870   0.535  1.00  0.00     0.262 C 
ATOM     12  H   UNL     1       0.075   4.989  -1.370  1.00  0.00     0.348 HD
BRANCH   6  13
ATOM     13  C   UNL     1       0.558   1.966  -1.829  1.00  0.00     0.051 C 
BRANCH  13  14
ATOM     14  C   UNL     1       0.515   0.455  -2.131  1.00  0.00     0.161 C 
BRANCH  14  15
ATOM     15  O   UNL     1      -0.283  -0.306  -1.231  1.00  0.00    -0.385 OA
ATOM     16  C   UNL     1       0.465  -1.080  -0.300  1.00  0.00     0.194 C 
ENDBRANCH  14  15
ENDBRANCH  13  14
ENDBRANCH   6  13
BRANCH  10  17
ATOM     17  C   UNL     1       1.245   6.324  -0.379  1.00  0.00     0.300 C 
BRANCH  17  18
ATOM     18  C   UNL     1       1.927   6.646   0.938  1.00  0.00     0.025 A 
ATOM     19  C   UNL     1       3.190   6.146   1.273  1.00  0.00     0.013 A 
ATOM     20  C   UNL     1       1.295   7.428   1.895  1.00  0.00     0.121 A 
ATOM     21  C   UNL     1       3.719   6.362   2.546  1.00  0.00     0.034 A 
ATOM     22  N   UNL     1       1.790   7.673   3.132  1.00  0.00    -0.251 NA
ATOM     23  C   UNL     1       2.990   7.116   3.465  1.00  0.00     0.144 A 
BRANCH  23  24
ATOM     24  C   UNL     1       3.555   7.341   4.863  1.00  0.00     0.433 C 
ATOM     25  F   UNL     1       4.211   8.530   4.986  1.00  0.00    -0.165 F 
ATOM     26  F   UNL     1       2.607   7.327   5.844  1.00  0.00    -0.165 F 
ATOM     27  F   UNL     1       4.462   6.385   5.227  1.00  0.00    -0.165 F 
ENDBRANCH  23  24
ENDBRANCH  17  18
ENDBRANCH  10  17
ENDBRANCH   3   6
ENDBRANCH   1   2
BRANCH   1  28
ATOM     28  C   UNL     1       1.684   1.844   3.726  1.00  0.00     0.042 C 
BRANCH  28  29
ATOM     29  C   UNL     1       2.643   0.810   4.294  1.00  0.00     0.118 C 
BRANCH  29  30
ATOM     30  N   UNL     1       3.884   1.399   4.775  1.00  0.00    -0.352 N 
ATOM     31  C   UNL     1       4.410   1.457   6.040  1.00  0.00     0.251 C 
ATOM     32  H   UNL     1       4.435   1.825   4.079  1.00  0.00     0.163 HD
ATOM     33  O   UNL     1       5.380   2.176   6.256  1.00  0.00    -0.269 OA
BRANCH  31  34
ATOM     34  C   UNL     1       3.817   0.667   7.141  1.00  0.00     0.039 A 
ATOM     35  C   UNL     1       3.765   1.226   8.421  1.00  0.00     0.014 A 
ATOM     36  C   UNL     1       3.357  -0.635   6.932  1.00  0.00     0.014 A 
ATOM     37  C   UNL     1       3.218   0.493   9.476  1.00  0.00     0.010 A 
ATOM     38  C   UNL     1       2.717  -1.321   7.957  1.00  0.00     0.010 A 
ATOM     39  C   UNL     1       2.671  -0.780   9.248  1.00  0.00    -0.014 A 
BRANCH  39  40
ATOM     40  C   UNL     1       2.101  -1.583  10.359  1.00  0.00     0.031 A 
ATOM     41  C   UNL     1       2.727  -2.903  10.730  1.00  0.00     0.074 A 
ATOM     42  C   UNL     1       1.002  -1.152  11.007  1.00  0.00     0.049 A 
ATOM     43  N   UNL     1       2.364  -3.761  11.650  1.00  0.00    -0.248 NA
ATOM     44  C   UNL     1       3.898  -3.330   9.944  1.00  0.00     0.031 C 
ATOM     45  C   UNL     1       0.273   0.085  10.715  1.00  0.00     0.029 A 
ATOM     46  N   UNL     1       0.308  -1.709  12.050  1.00  0.00    -0.354 N 
ATOM     47  C   UNL     1       3.245  -4.830  11.536  1.00  0.00     0.074 A 
ATOM     48  C   UNL     1       4.117  -4.545  10.420  1.00  0.00     0.031 C 
ATOM     49  C   UNL     1      -0.741   0.212  11.586  1.00  0.00     0.029 A 
ATOM     50  C   UNL     1      -0.755  -0.948  12.472  1.00  0.00     0.049 A 
ATOM     51  H   UNL     1       0.549  -2.572  12.459  1.00  0.00     0.167 HD
ATOM     52  C   UNL     1       3.341  -5.939  12.308  1.00  0.00     0.031 A 
ATOM     53  C   UNL     1      -1.637  -1.158  13.467  1.00  0.00     0.031 A 
ATOM     54  C   UNL     1       2.488  -6.216  13.431  1.00  0.00     0.049 A 
ATOM     55  C   UNL     1      -1.502  -2.391  14.317  1.00  0.00     0.074 A 
ATOM     56  C   UNL     1       2.534  -7.286  14.308  1.00  0.00     0.029 A 
ATOM     57  N   UNL     1       1.435  -5.410  13.836  1.00  0.00    -0.354 N 
ATOM     58  N   UNL     1      -0.624  -3.361  14.236  1.00  0.00    -0.248 NA
ATOM     59  C   UNL     1      -2.470  -2.543  15.412  1.00  0.00     0.031 C 
ATOM     60  C   UNL     1       1.479  -7.149  15.218  1.00  0.00     0.029 A 
ATOM     61  C   UNL     1       0.815  -5.964  14.943  1.00  0.00     0.049 A 
ATOM     62  H   UNL     1       1.168  -4.569  13.400  1.00  0.00     0.167 HD
ATOM     63  C   UNL     1      -0.910  -4.219  15.291  1.00  0.00     0.074 A 
ATOM     64  C   UNL     1      -2.032  -3.643  16.005  1.00  0.00     0.031 C 
ATOM     65  C   UNL     1      -0.298  -5.377  15.641  1.00  0.00     0.031 A 
BRANCH  52  66
ATOM     66  C   UNL     1       4.414  -6.934  11.955  1.00  0.00    -0.014 A 
ATOM     67  C   UNL     1       5.775  -6.629  12.127  1.00  0.00     0.009 A 
ATOM     68  C   UNL     1       4.061  -8.198  11.459  1.00  0.00     0.009 A 
ATOM     69  C   UNL     1       6.759  -7.553  11.768  1.00  0.00     0.001 A 
ATOM     70  C   UNL     1       5.047  -9.132  11.132  1.00  0.00     0.001 A 
ATOM     71  C   UNL     1       6.394  -8.804  11.275  1.00  0.00     0.000 A 
ENDBRANCH  52  66
BRANCH  53  72
ATOM     72  C   UNL     1      -2.703  -0.161  13.744  1.00  0.00    -0.014 A 
ATOM     73  C   UNL     1      -2.658   0.624  14.907  1.00  0.00     0.009 A 
ATOM     74  C   UNL     1      -3.779   0.003  12.857  1.00  0.00     0.009 A 
ATOM     75  C   UNL     1      -3.685   1.526  15.194  1.00  0.00     0.001 A 
ATOM     76  C   UNL     1      -4.789   0.927  13.132  1.00  0.00     0.001 A 
ATOM     77  C   UNL     1      -4.747   1.679  14.305  1.00  0.00     0.000 A 
ENDBRANCH  53  72
BRANCH  65  78
ATOM     78  C   UNL     1      -0.799  -6.066  16.880  1.00  0.00    -0.014 A 
ATOM     79  C   UNL     1      -2.053  -6.695  16.916  1.00  0.00     0.009 A 
ATOM     80  C   UNL     1       0.010  -6.097  18.027  1.00  0.00     0.009 A 
ATOM     81  C   UNL     1      -2.507  -7.296  18.092  1.00  0.00     0.001 A 
ATOM     82  C   UNL     1      -0.432  -6.728  19.190  1.00  0.00     0.001 A 
ATOM     83  C   UNL     1      -1.695  -7.315  19.226  1.00  0.00     0.000 A 
ENDBRANCH  65  78
ENDBRANCH  39  40
ENDBRANCH  31  34
ENDBRANCH  29  30
ENDBRANCH  28  29
ENDBRANCH   1  28
TORSDOF 16
