REMARK SMILES C[C@@H](Nc1ccc(C(=O)NCCCNC(=O)c2ccc(-c3c4nc(c(-c5ccccc5)c5ccc([nH]5)c(-c5ccccc5)c5nc(c(-c6ccccc6)c6ccc3[nH]6)C=C5)C=C4)cc2)cc1)C1CC[NH+](C)CC1
REMARK SMILES IDX 11 1 10 2 8 3 9 4 7 6 4 7 5 8 66 9 6 10 65 11 3 12 2 14 1 15
REMARK SMILES IDX 67 16 68 17 73 18 69 19 72 20 70 21 71 22 12 24 13 25 14 26
REMARK SMILES IDX 15 27 16 29 17 30 18 31 64 32 19 33 63 34 20 35 21 36 22 37
REMARK SMILES IDX 57 38 23 39 62 40 56 41 58 42 24 43 61 44 55 45 54 46 25 48
REMARK SMILES IDX 47 49 32 50 46 51 33 52 36 53 45 54 59 55 34 56 35 57 44 59
REMARK SMILES IDX 60 60 37 61 26 62 27 63 31 64 28 65 30 66 29 67 48 68 49 69
REMARK SMILES IDX 53 70 50 71 52 72 51 73 38 74 39 75 43 76 40 77 42 78 41 79
REMARK H PARENT 10 5 3 13 70 23 14 28 58 47 36 58
REMARK Flexibility Score: inf
ROOT
ATOM      1  C   UNL     1      -4.399  -1.361   5.842  1.00  0.00     0.118 C 
ENDROOT
BRANCH   1   2
ATOM      2  N   UNL     1      -3.901  -0.329   6.723  1.00  0.00    -0.352 N 
ATOM      3  C   UNL     1      -2.684   0.291   6.736  1.00  0.00     0.251 C 
ATOM      4  O   UNL     1      -2.490   1.229   7.506  1.00  0.00    -0.269 OA
ATOM      5  H   UNL     1      -4.533  -0.029   7.417  1.00  0.00     0.163 HD
BRANCH   3   6
ATOM      6  C   UNL     1      -1.619  -0.085   5.801  1.00  0.00     0.039 A 
ATOM      7  C   UNL     1       0.980  -0.699   3.335  1.00  0.00     0.034 A 
ATOM      8  C   UNL     1       0.630   1.006   3.873  1.00  0.00     0.026 A 
ATOM      9  C   UNL     1       0.158  -2.108   4.135  1.00  0.00     0.026 A 
ATOM     10  C   UNL     1      -0.690   1.310   5.093  1.00  0.00     0.016 A 
ATOM     11  C   UNL     1      -1.160  -1.791   5.390  1.00  0.00     0.016 A 
BRANCH   7  12
ATOM     12  N   UNL     1       1.640  -0.844   2.123  1.00  0.00    -0.382 N 
ATOM     13  H   UNL     1       2.624  -0.880   2.092  1.00  0.00     0.160 HD
BRANCH  12  14
ATOM     14  C   UNL     1       0.852  -0.943   0.886  1.00  0.00     0.079 C 
ATOM     15  C   UNL     1       1.430   0.065  -0.120  1.00  0.00     0.031 C 
BRANCH  14  16
ATOM     16  C   UNL     1      -0.707  -0.830   0.919  1.00  0.00     0.022 C 
ATOM     17  C   UNL     1      -1.368   0.497   1.307  1.00  0.00     0.067 C 
ATOM     18  C   UNL     1      -1.401  -1.955   1.672  1.00  0.00     0.067 C 
ATOM     19  C   UNL     1      -1.497   0.795   2.818  1.00  0.00     0.262 C 
ATOM     20  C   UNL     1      -1.892  -1.533   3.066  1.00  0.00     0.262 C 
ATOM     21  N   UNL     1      -1.040  -0.375   3.799  1.00  0.00    -0.337 N 
ATOM     22  C   UNL     1       0.392  -0.446   5.312  1.00  0.00     0.332 C 
ATOM     23  H   UNL     1      -0.687  -0.326   4.755  1.00  0.00     0.347 HD
ENDBRANCH  14  16
ENDBRANCH  12  14
ENDBRANCH   7  12
ENDBRANCH   3   6
ENDBRANCH   1   2
BRANCH   1  24
ATOM     24  C   UNL     1      -4.397  -2.719   6.525  1.00  0.00     0.042 C 
BRANCH  24  25
ATOM     25  C   UNL     1      -5.358  -2.792   7.698  1.00  0.00     0.118 C 
BRANCH  25  26
ATOM     26  N   UNL     1      -6.742  -2.630   7.283  1.00  0.00    -0.352 N 
ATOM     27  C   UNL     1      -7.789  -3.507   7.385  1.00  0.00     0.251 C 
ATOM     28  H   UNL     1      -6.958  -1.763   6.867  1.00  0.00     0.163 HD
ATOM     29  O   UNL     1      -8.818  -3.312   6.745  1.00  0.00    -0.269 OA
BRANCH  27  30
ATOM     30  C   UNL     1      -7.675  -4.686   8.265  1.00  0.00     0.039 A 
ATOM     31  C   UNL     1      -8.248  -5.892   7.859  1.00  0.00     0.014 A 
ATOM     32  C   UNL     1      -7.029  -4.595   9.502  1.00  0.00     0.014 A 
ATOM     33  C   UNL     1      -8.143  -7.013   8.682  1.00  0.00     0.010 A 
ATOM     34  C   UNL     1      -6.824  -5.736  10.264  1.00  0.00     0.010 A 
ATOM     35  C   UNL     1      -7.409  -6.948   9.879  1.00  0.00    -0.014 A 
BRANCH  35  36
ATOM     36  C   UNL     1      -7.278  -8.132  10.759  1.00  0.00     0.031 A 
ATOM     37  C   UNL     1      -7.843  -8.102  12.152  1.00  0.00     0.074 A 
ATOM     38  C   UNL     1      -6.624  -9.219  10.311  1.00  0.00     0.049 A 
ATOM     39  N   UNL     1      -7.847  -9.044  13.061  1.00  0.00    -0.248 NA
ATOM     40  C   UNL     1      -8.460  -6.841  12.595  1.00  0.00     0.031 C 
ATOM     41  C   UNL     1      -5.998  -9.347   8.993  1.00  0.00     0.029 A 
ATOM     42  N   UNL     1      -6.389 -10.428  10.911  1.00  0.00    -0.354 N 
ATOM     43  C   UNL     1      -8.454  -8.484  14.179  1.00  0.00     0.074 A 
ATOM     44  C   UNL     1      -8.733  -7.103  13.863  1.00  0.00     0.031 C 
ATOM     45  C   UNL     1      -5.504 -10.588   8.862  1.00  0.00     0.029 A 
ATOM     46  C   UNL     1      -5.735 -11.323  10.101  1.00  0.00     0.049 A 
ATOM     47  H   UNL     1      -6.663 -10.635  11.834  1.00  0.00     0.167 HD
ATOM     48  C   UNL     1      -8.777  -9.074  15.354  1.00  0.00     0.031 A 
ATOM     49  C   UNL     1      -5.371 -12.598  10.329  1.00  0.00     0.031 A 
ATOM     50  C   UNL     1      -8.484 -10.447  15.666  1.00  0.00     0.049 A 
ATOM     51  C   UNL     1      -5.703 -13.222  11.655  1.00  0.00     0.074 A 
ATOM     52  C   UNL     1      -8.801 -11.161  16.807  1.00  0.00     0.029 A 
ATOM     53  N   UNL     1      -7.791 -11.312  14.830  1.00  0.00    -0.354 N 
ATOM     54  N   UNL     1      -6.345 -12.705  12.675  1.00  0.00    -0.248 NA
ATOM     55  C   UNL     1      -5.269 -14.611  11.854  1.00  0.00     0.031 C 
ATOM     56  C   UNL     1      -8.239 -12.437  16.691  1.00  0.00     0.029 A 
ATOM     57  C   UNL     1      -7.641 -12.543  15.445  1.00  0.00     0.049 A 
ATOM     58  H   UNL     1      -7.456 -11.083  13.933  1.00  0.00     0.167 HD
ATOM     59  C   UNL     1      -6.421 -13.715  13.626  1.00  0.00     0.074 A 
ATOM     60  C   UNL     1      -5.772 -14.877  13.051  1.00  0.00     0.031 C 
ATOM     61  C   UNL     1      -6.982 -13.685  14.860  1.00  0.00     0.031 A 
BRANCH  48  62
ATOM     62  C   UNL     1      -9.462  -8.217  16.387  1.00  0.00    -0.014 A 
ATOM     63  C   UNL     1     -10.749  -7.694  16.169  1.00  0.00     0.009 A 
ATOM     64  C   UNL     1      -8.809  -7.917  17.592  1.00  0.00     0.009 A 
ATOM     65  C   UNL     1     -11.338  -6.842  17.106  1.00  0.00     0.001 A 
ATOM     66  C   UNL     1      -9.417  -7.096  18.545  1.00  0.00     0.001 A 
ATOM     67  C   UNL     1     -10.673  -6.546  18.294  1.00  0.00     0.000 A 
ENDBRANCH  48  62
BRANCH  49  68
ATOM     68  C   UNL     1      -4.693 -13.376   9.259  1.00  0.00    -0.014 A 
ATOM     69  C   UNL     1      -5.362 -14.428   8.616  1.00  0.00     0.009 A 
ATOM     70  C   UNL     1      -3.387 -13.057   8.857  1.00  0.00     0.009 A 
ATOM     71  C   UNL     1      -4.730 -15.158   7.607  1.00  0.00     0.001 A 
ATOM     72  C   UNL     1      -2.769 -13.767   7.826  1.00  0.00     0.001 A 
ATOM     73  C   UNL     1      -3.437 -14.823   7.208  1.00  0.00     0.000 A 
ENDBRANCH  49  68
BRANCH  61  74
ATOM     74  C   UNL     1      -6.952 -14.960  15.659  1.00  0.00    -0.014 A 
ATOM     75  C   UNL     1      -5.755 -15.469  16.186  1.00  0.00     0.009 A 
ATOM     76  C   UNL     1      -8.152 -15.639  15.920  1.00  0.00     0.009 A 
ATOM     77  C   UNL     1      -5.757 -16.653  16.926  1.00  0.00     0.001 A 
ATOM     78  C   UNL     1      -8.157 -16.802  16.691  1.00  0.00     0.001 A 
ATOM     79  C   UNL     1      -6.958 -17.314  17.183  1.00  0.00     0.000 A 
ENDBRANCH  61  74
ENDBRANCH  35  36
ENDBRANCH  27  30
ENDBRANCH  25  26
ENDBRANCH  24  25
ENDBRANCH   1  24
TORSDOF 13
