REMARK SMILES Cc1nn(C)c(C)c1CNC(=O)NCC(=O)NCC(=O)NCCCNC(=O)c1ccc(-c2c3nc(c(-c4ccccc4)c4ccc([nH]4)c(-c4ccccc4)c4nc(c(-c5ccccc5)c5ccc2[nH]5)C=C4)C=C3)cc1
REMARK SMILES IDX 19 1 20 2 21 3 18 5 17 6 15 7 16 8 14 10 13 11 10 12 11 13
REMARK SMILES IDX 12 15 9 17 8 18 1 19 2 20 3 21 4 22 6 23 5 24 7 25 22 26
REMARK SMILES IDX 23 27 24 28 25 29 26 30 27 32 28 33 29 34 75 35 30 36 74 37
REMARK SMILES IDX 31 38 32 39 33 40 68 41 34 42 73 43 67 44 69 45 35 46 72 47
REMARK SMILES IDX 66 48 65 49 36 51 58 52 43 53 57 54 44 55 47 56 56 57 70 58
REMARK SMILES IDX 45 59 46 60 55 62 71 63 48 64 37 65 38 66 42 67 39 68 41 69
REMARK SMILES IDX 40 70 59 71 60 72 64 73 61 74 63 75 62 76 49 77 50 78 54 79
REMARK SMILES IDX 51 80 53 81 52 82
REMARK H PARENT 21 4 17 9 10 14 13 16 25 31 69 50 47 61
REMARK Flexibility Score: inf
ROOT
ATOM      1  C   UNL     1      -1.974   7.214   0.523  1.00  0.00     0.239 C 
ATOM      2  O   UNL     1      -3.094   7.622   0.835  1.00  0.00    -0.273 OA
ATOM      3  N   UNL     1      -0.880   7.927   0.929  1.00  0.00    -0.355 N 
ATOM      4  H   UNL     1      -1.057   8.800   1.349  1.00  0.00     0.163 HD
ENDROOT
BRANCH   1   5
ATOM      5  C   UNL     1      -1.789   5.902  -0.256  1.00  0.00     0.216 C 
BRANCH   5   6
ATOM      6  N   UNL     1      -1.158   6.115  -1.549  1.00  0.00    -0.346 N 
ATOM      7  C   UNL     1      -0.190   5.438  -2.219  1.00  0.00     0.239 C 
ATOM      8  O   UNL     1       0.019   5.788  -3.386  1.00  0.00    -0.273 OA
ATOM      9  H   UNL     1      -1.499   6.902  -2.033  1.00  0.00     0.164 HD
BRANCH   7  10
ATOM     10  C   UNL     1       0.544   4.213  -1.651  1.00  0.00     0.217 C 
BRANCH  10  11
ATOM     11  N   UNL     1       1.141   4.396  -0.340  1.00  0.00    -0.329 N 
ATOM     12  N   UNL     1       0.022   3.018   1.219  1.00  0.00    -0.334 N 
ATOM     13  C   UNL     1       0.941   3.923   0.892  1.00  0.00     0.315 C 
ATOM     14  H   UNL     1       0.022   2.810   2.181  1.00  0.00     0.165 HD
ATOM     15  O   UNL     1       1.658   4.371   1.790  1.00  0.00    -0.249 OA
ATOM     16  H   UNL     1       1.889   5.035  -0.367  1.00  0.00     0.165 HD
BRANCH  12  17
ATOM     17  C   UNL     1      -0.973   2.272   0.492  1.00  0.00     0.157 C 
BRANCH  17  18
ATOM     18  C   UNL     1      -0.512   0.884   0.201  1.00  0.00     0.015 A 
ATOM     19  C   UNL     1      -2.871  -0.255  -0.003  1.00  0.00     0.069 C 
ATOM     20  C   UNL     1      -1.386  -0.228   0.010  1.00  0.00     0.065 A 
ATOM     21  N   UNL     1      -0.715  -1.368  -0.163  1.00  0.00    -0.178 NA
ATOM     22  N   UNL     1       0.575  -1.010  -0.089  1.00  0.00    -0.272 N 
ATOM     23  C   UNL     1       0.762   0.344   0.034  1.00  0.00     0.040 A 
ATOM     24  C   UNL     1       1.570  -2.058  -0.117  1.00  0.00     0.174 C 
ATOM     25  C   UNL     1       2.118   0.955   0.018  1.00  0.00     0.067 C 
ENDBRANCH  17  18
ENDBRANCH  12  17
ENDBRANCH  10  11
ENDBRANCH   7  10
ENDBRANCH   5   6
ENDBRANCH   1   5
BRANCH   3  26
ATOM     26  C   UNL     1       0.509   7.542   0.810  1.00  0.00     0.117 C 
BRANCH  26  27
ATOM     27  C   UNL     1       1.243   8.290  -0.291  1.00  0.00     0.042 C 
BRANCH  27  28
ATOM     28  C   UNL     1       1.808   9.616   0.193  1.00  0.00     0.118 C 
BRANCH  28  29
ATOM     29  N   UNL     1       2.928   9.441   1.113  1.00  0.00    -0.352 N 
ATOM     30  C   UNL     1       4.173  10.028   1.098  1.00  0.00     0.251 C 
ATOM     31  H   UNL     1       2.770   8.810   1.852  1.00  0.00     0.163 HD
ATOM     32  O   UNL     1       5.043   9.656   1.872  1.00  0.00    -0.269 OA
BRANCH  30  33
ATOM     33  C   UNL     1       4.462  11.088   0.111  1.00  0.00     0.039 A 
ATOM     34  C   UNL     1       5.659  11.036  -0.609  1.00  0.00     0.014 A 
ATOM     35  C   UNL     1       3.537  12.105  -0.129  1.00  0.00     0.014 A 
ATOM     36  C   UNL     1       5.886  11.955  -1.635  1.00  0.00     0.010 A 
ATOM     37  C   UNL     1       3.724  12.962  -1.205  1.00  0.00     0.010 A 
ATOM     38  C   UNL     1       4.898  12.893  -1.972  1.00  0.00    -0.014 A 
BRANCH  38  39
ATOM     39  C   UNL     1       5.050  13.818  -3.121  1.00  0.00     0.031 A 
ATOM     40  C   UNL     1       5.043  15.303  -2.886  1.00  0.00     0.074 A 
ATOM     41  C   UNL     1       5.076  13.330  -4.377  1.00  0.00     0.049 A 
ATOM     42  N   UNL     1       4.988  16.277  -3.757  1.00  0.00    -0.248 NA
ATOM     43  C   UNL     1       5.062  15.748  -1.483  1.00  0.00     0.031 C 
ATOM     44  C   UNL     1       5.050  11.912  -4.742  1.00  0.00     0.029 A 
ATOM     45  N   UNL     1       5.112  13.983  -5.583  1.00  0.00    -0.354 N 
ATOM     46  C   UNL     1       4.919  17.445  -3.008  1.00  0.00     0.074 A 
ATOM     47  C   UNL     1       4.905  17.057  -1.615  1.00  0.00     0.031 C 
ATOM     48  C   UNL     1       5.095  11.802  -6.080  1.00  0.00     0.029 A 
ATOM     49  C   UNL     1       5.104  13.137  -6.666  1.00  0.00     0.049 A 
ATOM     50  H   UNL     1       5.141  14.963  -5.665  1.00  0.00     0.167 HD
ATOM     51  C   UNL     1       4.882  18.727  -3.441  1.00  0.00     0.031 A 
ATOM     52  C   UNL     1       5.092  13.409  -7.984  1.00  0.00     0.031 A 
ATOM     53  C   UNL     1       4.937  19.113  -4.824  1.00  0.00     0.049 A 
ATOM     54  C   UNL     1       5.072  14.841  -8.439  1.00  0.00     0.074 A 
ATOM     55  C   UNL     1       4.979  20.387  -5.362  1.00  0.00     0.029 A 
ATOM     56  N   UNL     1       4.965  18.225  -5.888  1.00  0.00    -0.354 N 
ATOM     57  N   UNL     1       5.054  15.935  -7.719  1.00  0.00    -0.248 NA
ATOM     58  C   UNL     1       5.075  15.072  -9.891  1.00  0.00     0.031 C 
ATOM     59  C   UNL     1       5.001  20.270  -6.756  1.00  0.00     0.029 A 
ATOM     60  C   UNL     1       5.013  18.923  -7.082  1.00  0.00     0.049 A 
ATOM     61  H   UNL     1       4.953  17.244  -5.806  1.00  0.00     0.167 HD
ATOM     62  C   UNL     1       5.073  16.985  -8.627  1.00  0.00     0.074 A 
ATOM     63  C   UNL     1       5.113  16.396  -9.950  1.00  0.00     0.031 C 
ATOM     64  C   UNL     1       5.061  18.319  -8.386  1.00  0.00     0.031 A 
BRANCH  51  65
ATOM     65  C   UNL     1       4.771  19.802  -2.399  1.00  0.00    -0.014 A 
ATOM     66  C   UNL     1       5.849  20.112  -1.554  1.00  0.00     0.009 A 
ATOM     67  C   UNL     1       3.578  20.529  -2.273  1.00  0.00     0.009 A 
ATOM     68  C   UNL     1       5.719  21.101  -0.577  1.00  0.00     0.001 A 
ATOM     69  C   UNL     1       3.460  21.537  -1.313  1.00  0.00     0.001 A 
ATOM     70  C   UNL     1       4.527  21.814  -0.460  1.00  0.00     0.000 A 
ENDBRANCH  51  65
BRANCH  52  71
ATOM     71  C   UNL     1       5.119  12.302  -8.973  1.00  0.00    -0.014 A 
ATOM     72  C   UNL     1       6.288  12.041  -9.705  1.00  0.00     0.009 A 
ATOM     73  C   UNL     1       3.986  11.504  -9.194  1.00  0.00     0.009 A 
ATOM     74  C   UNL     1       6.314  11.019 -10.656  1.00  0.00     0.001 A 
ATOM     75  C   UNL     1       4.024  10.467 -10.128  1.00  0.00     0.001 A 
ATOM     76  C   UNL     1       5.184  10.230 -10.864  1.00  0.00     0.000 A 
ENDBRANCH  52  71
BRANCH  64  77
ATOM     77  C   UNL     1       5.138  19.229  -9.576  1.00  0.00    -0.014 A 
ATOM     78  C   UNL     1       4.027  19.438 -10.406  1.00  0.00     0.009 A 
ATOM     79  C   UNL     1       6.330  19.921  -9.841  1.00  0.00     0.009 A 
ATOM     80  C   UNL     1       4.117  20.305 -11.497  1.00  0.00     0.001 A 
ATOM     81  C   UNL     1       6.410  20.805 -10.918  1.00  0.00     0.001 A 
ATOM     82  C   UNL     1       5.306  20.990 -11.749  1.00  0.00     0.000 A 
ENDBRANCH  64  77
ENDBRANCH  38  39
ENDBRANCH  30  33
ENDBRANCH  28  29
ENDBRANCH  27  28
ENDBRANCH  26  27
ENDBRANCH   3  26
TORSDOF 15
