REMARK SMILES COc1cc([C@@H]2CC(NCCCNC(=O)c3ccc(-c4c5nc(c(-c6ccccc6)c6ccc([nH]6)c(-c6ccccc6)c6nc(c(-c7ccccc7)c7ccc4[nH]7)C=C6)C=C5)cc3)=[NH+]c3c(C(=O)[O-])cn(-c4ccc(Cl)cc4)c32)cc(OC)c1O
REMARK SMILES IDX 11 1 10 2 9 3 6 4 7 5 79 6 8 7 65 8 71 9 64 10 66 11 70 12
REMARK SMILES IDX 5 15 3 16 4 17 84 18 81 19 80 20 2 21 1 22 85 23 82 25 83 26
REMARK SMILES IDX 72 27 73 28 78 29 74 30 77 31 75 32 76 33 67 34 68 35 69 36
REMARK SMILES IDX 12 37 13 38 14 39 15 41 16 42 17 43 63 44 18 45 62 46 19 47
REMARK SMILES IDX 20 48 21 49 56 50 22 51 61 52 55 53 57 54 23 55 60 56 54 57
REMARK SMILES IDX 53 58 24 60 46 61 31 62 45 63 32 64 35 65 44 66 58 67 33 68
REMARK SMILES IDX 34 69 43 71 59 72 36 73 25 74 26 75 30 76 27 77 29 78 28 79
REMARK SMILES IDX 47 80 48 81 52 82 49 83 51 84 50 85 37 86 38 87 42 88 39 89
REMARK SMILES IDX 41 90 40 91
REMARK H PARENT 9 13 64 14 85 24 13 40 57 59 35 70
REMARK Flexibility Score: inf
ROOT
ATOM      1  C   UNL     1      -5.187  -1.354  -9.051  1.00  0.00     0.067 C 
ENDROOT
BRANCH   1   2
ATOM      2  C   UNL     1      -4.501   0.011  -8.998  1.00  0.00     0.235 C 
BRANCH   2   3
ATOM      3  N   UNL     1      -4.031   0.350  -7.653  1.00  0.00    -0.278 N 
ATOM      4  C   UNL     1      -0.829   0.969  -5.556  1.00  0.00     0.083 C 
ATOM      5  C   UNL     1      -2.305   1.092  -6.014  1.00  0.00     0.142 C 
ATOM      6  C   UNL     1       0.015   0.496  -6.700  1.00  0.00     0.078 A 
ATOM      7  C   UNL     1      -2.688   0.369  -7.316  1.00  0.00     0.248 C 
ATOM      8  C   UNL     1      -0.494   0.021  -7.881  1.00  0.00     0.155 A 
ATOM      9  N   UNL     1       1.388   0.606  -6.875  1.00  0.00    -0.315 N 
ATOM     10  N   UNL     1      -1.838  -0.158  -8.147  1.00  0.00    -0.243 N 
ATOM     11  C   UNL     1       0.531  -0.172  -8.826  1.00  0.00     0.062 A 
ATOM     12  C   UNL     1       1.685   0.238  -8.175  1.00  0.00     0.106 A 
ATOM     13  H   UNL     1      -4.696   0.573  -6.962  1.00  0.00     0.304 HD
ATOM     14  H   UNL     1      -2.141  -0.664  -8.935  1.00  0.00     0.312 HD
BRANCH   4  15
ATOM     15  C   UNL     1      -0.719   0.116  -4.298  1.00  0.00    -0.031 A 
ATOM     16  C   UNL     1      -0.251  -0.084  -1.906  1.00  0.00     0.164 A 
ATOM     17  C   UNL     1      -0.429   0.704  -3.051  1.00  0.00     0.055 A 
ATOM     18  C   UNL     1      -0.410  -1.476  -1.989  1.00  0.00     0.200 A 
ATOM     19  C   UNL     1      -0.723  -2.080  -3.215  1.00  0.00     0.164 A 
ATOM     20  C   UNL     1      -0.882  -1.275  -4.352  1.00  0.00     0.055 A 
BRANCH  16  21
ATOM     21  O   UNL     1      -0.070   0.596  -0.726  1.00  0.00    -0.493 OA
ATOM     22  C   UNL     1       1.077   0.222   0.039  1.00  0.00     0.278 C 
ENDBRANCH  16  21
BRANCH  18  23
ATOM     23  O   UNL     1      -0.336  -2.226  -0.849  1.00  0.00    -0.502 OA
ATOM     24  H   UNL     1      -0.127  -1.817  -0.032  1.00  0.00     0.293 HD
ENDBRANCH  18  23
BRANCH  19  25
ATOM     25  O   UNL     1      -0.951  -3.403  -3.480  1.00  0.00    -0.493 OA
ATOM     26  C   UNL     1      -0.841  -4.337  -2.417  1.00  0.00     0.278 C 
ENDBRANCH  19  25
ENDBRANCH   4  15
BRANCH   9  27
ATOM     27  C   UNL     1       2.366   1.053  -5.954  1.00  0.00     0.046 A 
ATOM     28  C   UNL     1       2.454   0.478  -4.686  1.00  0.00     0.028 A 
ATOM     29  C   UNL     1       3.288   2.031  -6.344  1.00  0.00     0.028 A 
ATOM     30  C   UNL     1       3.402   0.939  -3.771  1.00  0.00     0.022 A 
ATOM     31  C   UNL     1       4.237   2.493  -5.427  1.00  0.00     0.022 A 
ATOM     32  C   UNL     1       4.279   1.956  -4.140  1.00  0.00     0.041 A 
ATOM     33  Cl  UNL     1       5.429   2.541  -3.003  1.00  0.00    -0.084 Cl
ENDBRANCH   9  27
BRANCH  11  34
ATOM     34  C   UNL     1       0.487  -0.648 -10.197  1.00  0.00     0.077 C 
ATOM     35  O   UNL     1       1.458  -0.811 -10.913  1.00  0.00    -0.545 OA
ATOM     36  O   UNL     1      -0.749  -0.913 -10.686  1.00  0.00    -0.545 OA
ENDBRANCH  11  34
ENDBRANCH   2   3
ENDBRANCH   1   2
BRANCH   1  37
ATOM     37  C   UNL     1      -6.542  -1.351  -8.367  1.00  0.00     0.120 C 
BRANCH  37  38
ATOM     38  N   UNL     1      -7.554  -0.534  -9.056  1.00  0.00    -0.352 N 
ATOM     39  C   UNL     1      -8.887  -0.346  -8.721  1.00  0.00     0.251 C 
ATOM     40  H   UNL     1      -7.244  -0.058  -9.860  1.00  0.00     0.163 HD
ATOM     41  O   UNL     1      -9.693   0.078  -9.539  1.00  0.00    -0.269 OA
BRANCH  39  42
ATOM     42  C   UNL     1      -9.314  -0.646  -7.343  1.00  0.00     0.039 A 
ATOM     43  C   UNL     1     -10.548  -1.226  -7.031  1.00  0.00     0.014 A 
ATOM     44  C   UNL     1      -8.396  -0.360  -6.342  1.00  0.00     0.014 A 
ATOM     45  C   UNL     1     -10.810  -1.561  -5.701  1.00  0.00     0.010 A 
ATOM     46  C   UNL     1      -8.540  -0.931  -5.116  1.00  0.00     0.010 A 
ATOM     47  C   UNL     1      -9.787  -1.411  -4.753  1.00  0.00    -0.014 A 
BRANCH  47  48
ATOM     48  C   UNL     1      -9.901  -1.849  -3.371  1.00  0.00     0.031 A 
ATOM     49  C   UNL     1     -10.079  -3.315  -3.245  1.00  0.00     0.074 A 
ATOM     50  C   UNL     1      -9.548  -1.043  -2.342  1.00  0.00     0.049 A 
ATOM     51  N   UNL     1     -11.152  -3.945  -2.904  1.00  0.00    -0.248 NA
ATOM     52  C   UNL     1      -9.006  -4.194  -3.749  1.00  0.00     0.031 C 
ATOM     53  C   UNL     1      -9.014   0.328  -2.406  1.00  0.00     0.029 A 
ATOM     54  N   UNL     1      -9.453  -1.321  -1.014  1.00  0.00    -0.354 N 
ATOM     55  C   UNL     1     -10.795  -5.288  -2.881  1.00  0.00     0.074 A 
ATOM     56  C   UNL     1      -9.590  -5.391  -3.662  1.00  0.00     0.031 C 
ATOM     57  C   UNL     1      -8.430   0.649  -1.229  1.00  0.00     0.029 A 
ATOM     58  C   UNL     1      -8.684  -0.419  -0.280  1.00  0.00     0.049 A 
ATOM     59  H   UNL     1      -9.894  -2.099  -0.603  1.00  0.00     0.167 HD
ATOM     60  C   UNL     1     -11.292  -6.117  -1.919  1.00  0.00     0.031 A 
ATOM     61  C   UNL     1      -8.258  -0.560   1.004  1.00  0.00     0.031 A 
ATOM     62  C   UNL     1     -12.407  -5.500  -1.233  1.00  0.00     0.049 A 
ATOM     63  C   UNL     1      -9.102  -1.606   1.627  1.00  0.00     0.074 A 
ATOM     64  C   UNL     1     -13.622  -4.964  -1.609  1.00  0.00     0.029 A 
ATOM     65  N   UNL     1     -12.142  -4.993   0.018  1.00  0.00    -0.354 N 
ATOM     66  N   UNL     1     -10.374  -1.454   1.856  1.00  0.00    -0.248 NA
ATOM     67  C   UNL     1      -8.639  -2.981   1.544  1.00  0.00     0.031 C 
ATOM     68  C   UNL     1     -13.793  -3.817  -0.776  1.00  0.00     0.029 A 
ATOM     69  C   UNL     1     -12.727  -3.764   0.123  1.00  0.00     0.049 A 
ATOM     70  H   UNL     1     -11.617  -5.442   0.720  1.00  0.00     0.167 HD
ATOM     71  C   UNL     1     -10.940  -2.660   1.468  1.00  0.00     0.074 A 
ATOM     72  C   UNL     1      -9.815  -3.595   1.384  1.00  0.00     0.031 C 
ATOM     73  C   UNL     1     -12.206  -2.703   0.956  1.00  0.00     0.031 A 
BRANCH  60  74
ATOM     74  C   UNL     1     -10.464  -7.194  -1.240  1.00  0.00    -0.014 A 
ATOM     75  C   UNL     1     -11.059  -7.905  -0.180  1.00  0.00     0.009 A 
ATOM     76  C   UNL     1      -9.067  -7.316  -1.364  1.00  0.00     0.009 A 
ATOM     77  C   UNL     1     -10.288  -8.569   0.780  1.00  0.00     0.001 A 
ATOM     78  C   UNL     1      -8.296  -8.016  -0.432  1.00  0.00     0.001 A 
ATOM     79  C   UNL     1      -8.903  -8.607   0.663  1.00  0.00     0.000 A 
ENDBRANCH  60  74
BRANCH  61  80
ATOM     80  C   UNL     1      -7.017  -0.079   1.659  1.00  0.00    -0.014 A 
ATOM     81  C   UNL     1      -6.894  -0.080   3.061  1.00  0.00     0.009 A 
ATOM     82  C   UNL     1      -5.843   0.105   0.907  1.00  0.00     0.009 A 
ATOM     83  C   UNL     1      -5.641   0.052   3.681  1.00  0.00     0.001 A 
ATOM     84  C   UNL     1      -4.592   0.240   1.526  1.00  0.00     0.001 A 
ATOM     85  C   UNL     1      -4.489   0.196   2.912  1.00  0.00     0.000 A 
ENDBRANCH  61  80
BRANCH  73  86
ATOM     86  C   UNL     1     -13.062  -1.467   1.077  1.00  0.00    -0.014 A 
ATOM     87  C   UNL     1     -12.749  -0.237   0.469  1.00  0.00     0.009 A 
ATOM     88  C   UNL     1     -14.306  -1.600   1.708  1.00  0.00     0.009 A 
ATOM     89  C   UNL     1     -13.650   0.834   0.522  1.00  0.00     0.001 A 
ATOM     90  C   UNL     1     -15.211  -0.540   1.743  1.00  0.00     0.001 A 
ATOM     91  C   UNL     1     -14.882   0.679   1.155  1.00  0.00     0.000 A 
ENDBRANCH  73  86
ENDBRANCH  47  48
ENDBRANCH  39  42
ENDBRANCH  37  38
ENDBRANCH   1  37
TORSDOF 15
