REMARK SMILES Cc1cccc(NC(=O)[C@H]2C=C[C@@H]([NH3+])C2)c1C(=O)NCCCNC(=O)c1ccc(-c2c3nc(c(-c4ccccc4)c4ccc([nH]4)c(-c4ccccc4)c4nc(c(-c5ccccc5)c5ccc2[nH]5)C=C4)C=C3)cc1
REMARK SMILES IDX 20 1 19 2 17 3 18 4 16 6 1 7 2 8 3 9 4 10 6 11 5 12 7 13
REMARK SMILES IDX 8 14 9 16 10 17 11 18 15 19 12 20 13 21 14 22 21 26 22 27
REMARK SMILES IDX 23 28 24 29 25 31 26 32 27 33 73 34 28 35 72 36 29 37 30 38
REMARK SMILES IDX 31 39 66 40 32 41 71 42 65 43 67 44 33 45 70 46 64 47 63 48
REMARK SMILES IDX 34 50 56 51 41 52 55 53 42 54 45 55 54 56 68 57 43 58 44 59
REMARK SMILES IDX 53 61 69 62 46 63 35 64 36 65 40 66 37 67 39 68 38 69 57 70
REMARK SMILES IDX 58 71 62 72 59 73 61 74 60 75 47 76 48 77 52 78 49 79 51 80
REMARK SMILES IDX 50 81
REMARK H PARENT 19 5 7 15 14 23 14 24 14 25 23 30 67 49 45 60
REMARK Flexibility Score: inf
ROOT
ATOM      1  C   UNL     1       3.640   1.370   0.476  1.00  0.00     0.118 C 
ENDROOT
BRANCH   1   2
ATOM      2  N   UNL     1       2.412   2.072   0.144  1.00  0.00    -0.352 N 
ATOM      3  C   UNL     1       1.091   1.803  -0.104  1.00  0.00     0.253 C 
ATOM      4  O   UNL     1       0.454   2.848  -0.308  1.00  0.00    -0.269 OA
ATOM      5  H   UNL     1       2.580   3.039   0.076  1.00  0.00     0.163 HD
BRANCH   3   6
ATOM      6  C   UNL     1       0.321   0.486  -0.158  1.00  0.00     0.066 A 
ATOM      7  C   UNL     1       2.248  -1.262  -0.417  1.00  0.00     0.045 C 
ATOM      8  C   UNL     1       0.840  -0.838  -0.198  1.00  0.00    -0.036 A 
ATOM      9  C   UNL     1      -0.022  -1.955  -0.202  1.00  0.00     0.004 A 
ATOM     10  C   UNL     1      -1.353  -1.803  -0.479  1.00  0.00     0.002 A 
ATOM     11  C   UNL     1      -1.111   0.599  -0.284  1.00  0.00     0.054 A 
ATOM     12  C   UNL     1      -1.846  -0.525  -0.624  1.00  0.00     0.027 A 
BRANCH  11  13
ATOM     13  N   UNL     1      -1.807   1.816  -0.086  1.00  0.00    -0.325 N 
ATOM     14  C   UNL     1      -3.100   2.214   0.070  1.00  0.00     0.231 C 
ATOM     15  H   UNL     1      -1.189   2.581  -0.052  1.00  0.00     0.169 HD
ATOM     16  O   UNL     1      -3.246   3.443   0.214  1.00  0.00    -0.274 OA
BRANCH  14  17
ATOM     17  C   UNL     1      -4.404   1.378   0.035  1.00  0.00     0.107 C 
ATOM     18  C   UNL     1      -4.907   1.188  -1.367  1.00  0.00    -0.012 C 
ATOM     19  C   UNL     1      -4.587   0.001   0.693  1.00  0.00     0.087 C 
ATOM     20  C   UNL     1      -5.447  -0.021  -1.550  1.00  0.00     0.033 C 
ATOM     21  C   UNL     1      -5.394  -0.861  -0.316  1.00  0.00     0.205 C 
BRANCH  21  22
ATOM     22  N   UNL     1      -4.802  -2.162  -0.603  1.00  0.00    -0.352 N 
ATOM     23  H   UNL     1      -3.870  -2.032  -0.996  1.00  0.00     0.345 HD
ATOM     24  H   UNL     1      -5.387  -2.662  -1.272  1.00  0.00     0.345 HD
ATOM     25  H   UNL     1      -4.735  -2.702   0.260  1.00  0.00     0.345 HD
ENDBRANCH  21  22
ENDBRANCH  14  17
ENDBRANCH  11  13
ENDBRANCH   3   6
ENDBRANCH   1   2
BRANCH   1  26
ATOM     26  C   UNL     1       4.329   0.818  -0.770  1.00  0.00     0.042 C 
BRANCH  26  27
ATOM     27  C   UNL     1       5.648   1.451  -1.154  1.00  0.00     0.118 C 
BRANCH  27  28
ATOM     28  N   UNL     1       6.791   0.548  -0.974  1.00  0.00    -0.352 N 
ATOM     29  C   UNL     1       8.092   0.725  -1.420  1.00  0.00     0.251 C 
ATOM     30  H   UNL     1       6.612  -0.284  -0.478  1.00  0.00     0.163 HD
ATOM     31  O   UNL     1       8.982  -0.059  -1.143  1.00  0.00    -0.269 OA
BRANCH  29  32
ATOM     32  C   UNL     1       8.378   1.987  -2.134  1.00  0.00     0.039 A 
ATOM     33  C   UNL     1       9.057   2.958  -1.396  1.00  0.00     0.014 A 
ATOM     34  C   UNL     1       7.579   2.324  -3.224  1.00  0.00     0.014 A 
ATOM     35  C   UNL     1       8.688   4.286  -1.555  1.00  0.00     0.010 A 
ATOM     36  C   UNL     1       7.146   3.634  -3.318  1.00  0.00     0.010 A 
ATOM     37  C   UNL     1       7.636   4.592  -2.423  1.00  0.00    -0.014 A 
BRANCH  37  38
ATOM     38  C   UNL     1       6.971   5.888  -2.392  1.00  0.00     0.031 A 
ATOM     39  C   UNL     1       7.372   6.901  -3.379  1.00  0.00     0.074 A 
ATOM     40  C   UNL     1       6.090   6.237  -1.426  1.00  0.00     0.049 A 
ATOM     41  N   UNL     1       7.518   8.155  -3.109  1.00  0.00    -0.248 NA
ATOM     42  C   UNL     1       7.709   6.549  -4.751  1.00  0.00     0.031 C 
ATOM     43  C   UNL     1       5.336   7.488  -1.349  1.00  0.00     0.029 A 
ATOM     44  N   UNL     1       5.885   5.646  -0.180  1.00  0.00    -0.354 N 
ATOM     45  C   UNL     1       7.646   8.804  -4.312  1.00  0.00     0.074 A 
ATOM     46  C   UNL     1       7.874   7.760  -5.287  1.00  0.00     0.031 C 
ATOM     47  C   UNL     1       5.051   7.734  -0.060  1.00  0.00     0.029 A 
ATOM     48  C   UNL     1       5.683   6.696   0.734  1.00  0.00     0.049 A 
ATOM     49  H   UNL     1       5.881   4.682   0.021  1.00  0.00     0.167 HD
ATOM     50  C   UNL     1       7.380  10.136  -4.401  1.00  0.00     0.031 A 
ATOM     51  C   UNL     1       6.445   6.888   1.848  1.00  0.00     0.031 A 
ATOM     52  C   UNL     1       7.006  10.720  -3.113  1.00  0.00     0.049 A 
ATOM     53  C   UNL     1       7.137   8.237   1.891  1.00  0.00     0.074 A 
ATOM     54  C   UNL     1       5.795  11.105  -2.558  1.00  0.00     0.029 A 
ATOM     55  N   UNL     1       7.920  10.717  -2.068  1.00  0.00    -0.354 N 
ATOM     56  N   UNL     1       7.067   9.136   0.950  1.00  0.00    -0.248 NA
ATOM     57  C   UNL     1       8.072   8.617   2.946  1.00  0.00     0.031 C 
ATOM     58  C   UNL     1       5.992  11.341  -1.170  1.00  0.00     0.029 A 
ATOM     59  C   UNL     1       7.323  11.110  -0.882  1.00  0.00     0.049 A 
ATOM     60  H   UNL     1       8.868  10.467  -2.159  1.00  0.00     0.167 HD
ATOM     61  C   UNL     1       7.950  10.158   1.212  1.00  0.00     0.074 A 
ATOM     62  C   UNL     1       8.554   9.781   2.478  1.00  0.00     0.031 C 
ATOM     63  C   UNL     1       8.130  11.192   0.332  1.00  0.00     0.031 A 
BRANCH  50  64
ATOM     64  C   UNL     1       7.158  10.815  -5.732  1.00  0.00    -0.014 A 
ATOM     65  C   UNL     1       6.247  11.880  -5.832  1.00  0.00     0.009 A 
ATOM     66  C   UNL     1       7.771  10.414  -6.932  1.00  0.00     0.009 A 
ATOM     67  C   UNL     1       5.873  12.422  -7.069  1.00  0.00     0.001 A 
ATOM     68  C   UNL     1       7.366  10.913  -8.177  1.00  0.00     0.001 A 
ATOM     69  C   UNL     1       6.404  11.910  -8.246  1.00  0.00     0.000 A 
ENDBRANCH  50  64
BRANCH  51  70
ATOM     70  C   UNL     1       7.007   5.629   2.405  1.00  0.00    -0.014 A 
ATOM     71  C   UNL     1       6.109   4.707   2.978  1.00  0.00     0.009 A 
ATOM     72  C   UNL     1       8.273   5.180   2.007  1.00  0.00     0.009 A 
ATOM     73  C   UNL     1       6.414   3.345   3.012  1.00  0.00     0.001 A 
ATOM     74  C   UNL     1       8.576   3.815   2.054  1.00  0.00     0.001 A 
ATOM     75  C   UNL     1       7.631   2.895   2.510  1.00  0.00     0.000 A 
ENDBRANCH  51  70
BRANCH  63  76
ATOM     76  C   UNL     1       9.077  12.374   0.471  1.00  0.00    -0.014 A 
ATOM     77  C   UNL     1       9.748  12.748   1.641  1.00  0.00     0.009 A 
ATOM     78  C   UNL     1       9.280  13.223  -0.646  1.00  0.00     0.009 A 
ATOM     79  C   UNL     1      10.627  13.845   1.672  1.00  0.00     0.001 A 
ATOM     80  C   UNL     1      10.144  14.322  -0.621  1.00  0.00     0.001 A 
ATOM     81  C   UNL     1      10.833  14.625   0.540  1.00  0.00     0.000 A 
ENDBRANCH  63  76
ENDBRANCH  37  38
ENDBRANCH  29  32
ENDBRANCH  27  28
ENDBRANCH  26  27
ENDBRANCH   1  26
TORSDOF 13
