REMARK SMILES Cc1ccccc1C[C@@H](CC(F)(F)F)C(=O)NCCCNC(=O)c1ccc(-c2c3nc(c(-c4ccccc4)c4ccc([nH]4)c(-c4ccccc4)c4nc(c(-c5ccccc5)c5ccc2[nH]5)C=C4)C=C3)cc1
REMARK SMILES IDX 19 1 18 2 17 3 15 4 16 5 9 7 8 8 7 9 1 10 2 11 3 12 4 13
REMARK SMILES IDX 6 14 5 15 10 16 11 17 12 18 13 19 14 20 20 21 21 22 22 23
REMARK SMILES IDX 23 25 24 26 25 27 71 28 26 29 70 30 27 31 28 32 29 33 64 34
REMARK SMILES IDX 30 35 69 36 63 37 65 38 31 39 68 40 62 41 61 42 32 44 54 45
REMARK SMILES IDX 39 46 53 47 40 48 43 49 52 50 66 51 41 52 42 53 51 55 67 56
REMARK SMILES IDX 44 57 33 58 34 59 38 60 35 61 37 62 36 63 55 64 56 65 60 66
REMARK SMILES IDX 57 67 59 68 58 69 45 70 46 71 50 72 47 73 49 74 48 75
REMARK H PARENT 17 6 21 24 65 43 43 54
REMARK Flexibility Score: inf
ROOT
ATOM      1  C   UNL     1       0.798   4.887   2.287  1.00  0.00     0.042 C 
ENDROOT
BRANCH   1   2
ATOM      2  C   UNL     1       0.156   5.390   1.007  1.00  0.00     0.117 C 
BRANCH   2   3
ATOM      3  N   UNL     1       1.050   5.368  -0.139  1.00  0.00    -0.356 N 
ATOM      4  C   UNL     1       1.163   4.502  -1.180  1.00  0.00     0.223 C 
ATOM      5  O   UNL     1       1.913   4.828  -2.104  1.00  0.00    -0.275 OA
ATOM      6  H   UNL     1       1.690   6.116  -0.166  1.00  0.00     0.163 HD
BRANCH   4   7
ATOM      7  C   UNL     1       0.394   3.181  -1.264  1.00  0.00     0.092 C 
BRANCH   7   8
ATOM      8  C   UNL     1       0.547   2.336   0.017  1.00  0.00     0.049 C 
BRANCH   8   9
ATOM      9  C   UNL     1       0.078   0.897  -0.047  1.00  0.00    -0.044 A 
ATOM     10  C   UNL     1       2.429  -0.165  -0.262  1.00  0.00     0.044 C 
ATOM     11  C   UNL     1       0.927  -0.222  -0.174  1.00  0.00    -0.048 A 
ATOM     12  C   UNL     1       0.357  -1.513  -0.165  1.00  0.00     0.004 A 
ATOM     13  C   UNL     1      -1.017  -1.704  -0.030  1.00  0.00     0.000 A 
ATOM     14  C   UNL     1      -1.304   0.674   0.112  1.00  0.00     0.004 A 
ATOM     15  C   UNL     1      -1.849  -0.606   0.111  1.00  0.00     0.000 A 
ENDBRANCH   8   9
ENDBRANCH   7   8
BRANCH   7  16
ATOM     16  C   UNL     1      -0.995   3.360  -1.913  1.00  0.00     0.129 C 
BRANCH  16  17
ATOM     17  C   UNL     1      -2.056   4.169  -1.203  1.00  0.00     0.389 C 
ATOM     18  F   UNL     1      -1.714   5.468  -1.084  1.00  0.00    -0.171 F 
ATOM     19  F   UNL     1      -3.217   4.133  -1.897  1.00  0.00    -0.171 F 
ATOM     20  F   UNL     1      -2.327   3.689   0.028  1.00  0.00    -0.171 F 
ENDBRANCH  16  17
ENDBRANCH   7  16
ENDBRANCH   4   7
ENDBRANCH   2   3
ENDBRANCH   1   2
BRANCH   1  21
ATOM     21  C   UNL     1       1.293   6.024   3.149  1.00  0.00     0.118 C 
BRANCH  21  22
ATOM     22  N   UNL     1       0.255   6.713   3.908  1.00  0.00    -0.352 N 
ATOM     23  C   UNL     1       0.338   7.844   4.709  1.00  0.00     0.251 C 
ATOM     24  H   UNL     1      -0.643   6.315   3.841  1.00  0.00     0.163 HD
ATOM     25  O   UNL     1      -0.649   8.233   5.309  1.00  0.00    -0.269 OA
BRANCH  23  26
ATOM     26  C   UNL     1       1.579   8.665   4.705  1.00  0.00     0.039 A 
ATOM     27  C   UNL     1       1.445  10.060   4.725  1.00  0.00     0.014 A 
ATOM     28  C   UNL     1       2.804   8.098   4.396  1.00  0.00     0.014 A 
ATOM     29  C   UNL     1       2.439  10.847   4.151  1.00  0.00     0.010 A 
ATOM     30  C   UNL     1       3.689   8.837   3.656  1.00  0.00     0.010 A 
ATOM     31  C   UNL     1       3.486  10.209   3.499  1.00  0.00    -0.014 A 
BRANCH  31  32
ATOM     32  C   UNL     1       4.423  10.847   2.594  1.00  0.00     0.031 A 
ATOM     33  C   UNL     1       5.831  10.982   3.007  1.00  0.00     0.074 A 
ATOM     34  C   UNL     1       4.036  11.119   1.329  1.00  0.00     0.049 A 
ATOM     35  N   UNL     1       6.674  11.765   2.433  1.00  0.00    -0.248 NA
ATOM     36  C   UNL     1       6.402  10.258   4.141  1.00  0.00     0.031 C 
ATOM     37  C   UNL     1       4.884  11.393   0.173  1.00  0.00     0.029 A 
ATOM     38  N   UNL     1       2.745  11.400   0.883  1.00  0.00    -0.354 N 
ATOM     39  C   UNL     1       7.923  11.438   2.902  1.00  0.00     0.074 A 
ATOM     40  C   UNL     1       7.700  10.543   4.009  1.00  0.00     0.031 C 
ATOM     41  C   UNL     1       4.159  12.038  -0.755  1.00  0.00     0.029 A 
ATOM     42  C   UNL     1       2.869  12.341  -0.158  1.00  0.00     0.049 A 
ATOM     43  H   UNL     1       1.908  11.015   1.229  1.00  0.00     0.167 HD
ATOM     44  C   UNL     1       9.015  11.861   2.211  1.00  0.00     0.031 A 
ATOM     45  C   UNL     1       2.362  13.602  -0.011  1.00  0.00     0.031 A 
ATOM     46  C   UNL     1       8.635  12.704   1.082  1.00  0.00     0.049 A 
ATOM     47  C   UNL     1       3.420  14.688  -0.031  1.00  0.00     0.074 A 
ATOM     48  C   UNL     1       8.491  12.467  -0.275  1.00  0.00     0.029 A 
ATOM     49  N   UNL     1       8.002  13.912   1.341  1.00  0.00    -0.354 N 
ATOM     50  N   UNL     1       4.696  14.471   0.133  1.00  0.00    -0.248 NA
ATOM     51  C   UNL     1       3.124  16.105  -0.222  1.00  0.00     0.031 C 
ATOM     52  C   UNL     1       7.719  13.526  -0.824  1.00  0.00     0.029 A 
ATOM     53  C   UNL     1       7.424  14.416   0.194  1.00  0.00     0.049 A 
ATOM     54  H   UNL     1       7.969  14.349   2.222  1.00  0.00     0.167 HD
ATOM     55  C   UNL     1       5.385  15.656   0.075  1.00  0.00     0.074 A 
ATOM     56  C   UNL     1       4.353  16.650  -0.158  1.00  0.00     0.031 C 
ATOM     57  C   UNL     1       6.742  15.704   0.237  1.00  0.00     0.031 A 
BRANCH  44  58
ATOM     58  C   UNL     1      10.396  11.299   2.412  1.00  0.00    -0.014 A 
ATOM     59  C   UNL     1      11.298  11.289   1.333  1.00  0.00     0.009 A 
ATOM     60  C   UNL     1      10.860  10.737   3.613  1.00  0.00     0.009 A 
ATOM     61  C   UNL     1      12.557  10.682   1.424  1.00  0.00     0.001 A 
ATOM     62  C   UNL     1      12.101  10.094   3.702  1.00  0.00     0.001 A 
ATOM     63  C   UNL     1      12.949  10.061   2.603  1.00  0.00     0.000 A 
ENDBRANCH  44  58
BRANCH  45  64
ATOM     64  C   UNL     1       1.105  13.623   0.794  1.00  0.00    -0.014 A 
ATOM     65  C   UNL     1      -0.036  13.006   0.240  1.00  0.00     0.009 A 
ATOM     66  C   UNL     1       1.146  13.825   2.181  1.00  0.00     0.009 A 
ATOM     67  C   UNL     1      -1.035  12.475   1.061  1.00  0.00     0.001 A 
ATOM     68  C   UNL     1       0.132  13.306   2.999  1.00  0.00     0.001 A 
ATOM     69  C   UNL     1      -0.932  12.594   2.444  1.00  0.00     0.000 A 
ENDBRANCH  45  64
BRANCH  57  70
ATOM     70  C   UNL     1       7.611  16.933   0.431  1.00  0.00    -0.014 A 
ATOM     71  C   UNL     1       7.142  18.221   0.702  1.00  0.00     0.009 A 
ATOM     72  C   UNL     1       9.020  16.767   0.464  1.00  0.00     0.009 A 
ATOM     73  C   UNL     1       8.023  19.280   0.975  1.00  0.00     0.001 A 
ATOM     74  C   UNL     1       9.899  17.803   0.786  1.00  0.00     0.001 A 
ATOM     75  C   UNL     1       9.397  19.068   1.034  1.00  0.00     0.000 A 
ENDBRANCH  57  70
ENDBRANCH  31  32
ENDBRANCH  23  26
ENDBRANCH  21  22
ENDBRANCH   1  21
TORSDOF 14
