REMARK SMILES C[C@H](C(=O)NCCCNC(=O)c1ccc(-c2c3nc(c(-c4ccccc4)c4ccc([nH]4)c(-c4ccccc4)c4nc(c(-c5ccccc5)c5ccc2[nH]5)C=C4)C=C3)cc1)c1ccc2c3cc(Cl)ccc3n(C(=O)c3cocn3)c2c1
REMARK SMILES IDX 6 1 5 2 3 3 4 4 2 6 1 7 60 8 61 9 80 10 62 11 79 12 63 13
REMARK SMILES IDX 71 14 64 15 70 16 65 17 69 18 66 19 68 20 67 21 72 22 73 23
REMARK SMILES IDX 74 24 75 25 78 26 76 27 77 28 7 29 8 30 9 31 10 32 11 34
REMARK SMILES IDX 12 35 13 36 59 37 14 38 58 39 15 40 16 41 17 42 52 43 18 44
REMARK SMILES IDX 57 45 51 46 53 47 19 48 56 49 50 50 49 51 20 53 42 54 27 55
REMARK SMILES IDX 41 56 28 57 31 58 40 59 54 60 29 61 30 62 39 64 55 65 32 66
REMARK SMILES IDX 21 67 22 68 26 69 23 70 25 71 24 72 43 73 44 74 48 75 45 76
REMARK SMILES IDX 47 77 46 78 33 79 34 80 38 81 35 82 37 83 36 84
REMARK H PARENT 5 5 9 33 53 52 31 63
REMARK Flexibility Score: inf
ROOT
ATOM      1  C   UNL     1      -0.204  -1.643  -1.173  1.00  0.00     0.117 C 
ENDROOT
BRANCH   1   2
ATOM      2  N   UNL     1       0.765  -0.571  -1.007  1.00  0.00    -0.356 N 
ATOM      3  C   UNL     1       1.205   0.071   0.119  1.00  0.00     0.227 C 
ATOM      4  O   UNL     1       2.038   0.966  -0.044  1.00  0.00    -0.274 OA
ATOM      5  H   UNL     1       1.173  -0.253  -1.845  1.00  0.00     0.163 HD
BRANCH   3   6
ATOM      6  C   UNL     1       0.713  -0.350   1.517  1.00  0.00     0.105 C 
ATOM      7  C   UNL     1       1.418   0.416   2.641  1.00  0.00     0.023 C 
BRANCH   6   8
ATOM      8  C   UNL     1      -0.796  -0.236   1.663  1.00  0.00    -0.034 A 
ATOM      9  C   UNL     1      -1.487   0.937   1.373  1.00  0.00     0.005 A 
ATOM     10  C   UNL     1      -1.508  -1.395   2.014  1.00  0.00     0.032 A 
ATOM     11  C   UNL     1      -2.884   0.927   1.296  1.00  0.00     0.011 A 
ATOM     12  C   UNL     1      -2.909  -1.423   1.886  1.00  0.00     0.058 A 
ATOM     13  C   UNL     1      -3.598  -0.277   1.504  1.00  0.00     0.008 A 
ATOM     14  N   UNL     1      -3.827  -2.486   2.005  1.00  0.00    -0.274 N 
ATOM     15  C   UNL     1      -4.970  -0.623   1.414  1.00  0.00     0.009 A 
ATOM     16  C   UNL     1      -5.116  -1.944   1.863  1.00  0.00     0.057 A 
ATOM     17  C   UNL     1      -6.106   0.118   1.024  1.00  0.00     0.031 A 
ATOM     18  C   UNL     1      -6.403  -2.471   2.089  1.00  0.00     0.029 A 
ATOM     19  C   UNL     1      -7.369  -0.443   1.171  1.00  0.00     0.041 A 
ATOM     20  C   UNL     1      -7.521  -1.703   1.730  1.00  0.00     0.023 A 
ATOM     21  Cl  UNL     1      -8.752   0.455   0.686  1.00  0.00    -0.084 Cl
BRANCH  14  22
ATOM     22  C   UNL     1      -3.438  -3.849   2.206  1.00  0.00     0.284 C 
ATOM     23  O   UNL     1      -2.243  -4.046   2.415  1.00  0.00    -0.266 OA
BRANCH  22  24
ATOM     24  C   UNL     1      -4.296  -5.027   2.141  1.00  0.00     0.167 A 
ATOM     25  C   UNL     1      -5.267  -5.362   1.223  1.00  0.00     0.231 A 
ATOM     26  N   UNL     1      -4.064  -6.129   2.955  1.00  0.00    -0.211 NA
ATOM     27  O   UNL     1      -5.655  -6.651   1.457  1.00  0.00    -0.451 OA
ATOM     28  C   UNL     1      -4.873  -7.051   2.495  1.00  0.00     0.308 A 
ENDBRANCH  22  24
ENDBRANCH  14  22
ENDBRANCH   6   8
ENDBRANCH   3   6
ENDBRANCH   1   2
BRANCH   1  29
ATOM     29  C   UNL     1      -1.564  -1.133  -1.651  1.00  0.00     0.042 C 
BRANCH  29  30
ATOM     30  C   UNL     1      -1.571  -0.602  -3.079  1.00  0.00     0.118 C 
BRANCH  30  31
ATOM     31  N   UNL     1      -1.444  -1.661  -4.070  1.00  0.00    -0.352 N 
ATOM     32  C   UNL     1      -2.262  -1.970  -5.130  1.00  0.00     0.251 C 
ATOM     33  H   UNL     1      -0.655  -2.241  -3.965  1.00  0.00     0.163 HD
ATOM     34  O   UNL     1      -2.087  -3.011  -5.755  1.00  0.00    -0.269 OA
BRANCH  32  35
ATOM     35  C   UNL     1      -3.370  -1.065  -5.506  1.00  0.00     0.039 A 
ATOM     36  C   UNL     1      -4.619  -1.612  -5.817  1.00  0.00     0.014 A 
ATOM     37  C   UNL     1      -3.177   0.317  -5.569  1.00  0.00     0.014 A 
ATOM     38  C   UNL     1      -5.692  -0.771  -6.126  1.00  0.00     0.010 A 
ATOM     39  C   UNL     1      -4.261   1.156  -5.806  1.00  0.00     0.010 A 
ATOM     40  C   UNL     1      -5.529   0.622  -6.090  1.00  0.00    -0.014 A 
BRANCH  40  41
ATOM     41  C   UNL     1      -6.648   1.557  -6.365  1.00  0.00     0.031 A 
ATOM     42  C   UNL     1      -6.561   2.491  -7.541  1.00  0.00     0.074 A 
ATOM     43  C   UNL     1      -7.679   1.651  -5.505  1.00  0.00     0.049 A 
ATOM     44  N   UNL     1      -7.327   3.506  -7.853  1.00  0.00    -0.248 NA
ATOM     45  C   UNL     1      -5.440   2.274  -8.468  1.00  0.00     0.031 C 
ATOM     46  C   UNL     1      -7.874   0.823  -4.313  1.00  0.00     0.029 A 
ATOM     47  N   UNL     1      -8.746   2.515  -5.488  1.00  0.00    -0.354 N 
ATOM     48  C   UNL     1      -6.757   4.070  -8.988  1.00  0.00     0.074 A 
ATOM     49  C   UNL     1      -5.562   3.310  -9.284  1.00  0.00     0.031 C 
ATOM     50  C   UNL     1      -8.992   1.217  -3.683  1.00  0.00     0.029 A 
ATOM     51  C   UNL     1      -9.566   2.353  -4.398  1.00  0.00     0.049 A 
ATOM     52  H   UNL     1      -8.908   3.186  -6.190  1.00  0.00     0.167 HD
ATOM     53  C   UNL     1      -7.192   5.122  -9.723  1.00  0.00     0.031 A 
ATOM     54  C   UNL     1     -10.644   3.057  -4.004  1.00  0.00     0.031 A 
ATOM     55  C   UNL     1      -8.384   5.872  -9.429  1.00  0.00     0.049 A 
ATOM     56  C   UNL     1     -11.101   4.232  -4.820  1.00  0.00     0.074 A 
ATOM     57  C   UNL     1      -8.942   6.919 -10.141  1.00  0.00     0.029 A 
ATOM     58  N   UNL     1      -9.199   5.656  -8.329  1.00  0.00    -0.354 N 
ATOM     59  N   UNL     1     -10.577   4.732  -5.913  1.00  0.00    -0.248 NA
ATOM     60  C   UNL     1     -12.300   4.939  -4.348  1.00  0.00     0.031 C 
ATOM     61  C   UNL     1     -10.064   7.373  -9.441  1.00  0.00     0.029 A 
ATOM     62  C   UNL     1     -10.243   6.565  -8.329  1.00  0.00     0.049 A 
ATOM     63  H   UNL     1      -9.057   4.959  -7.648  1.00  0.00     0.167 HD
ATOM     64  C   UNL     1     -11.399   5.790  -6.277  1.00  0.00     0.074 A 
ATOM     65  C   UNL     1     -12.456   5.860  -5.290  1.00  0.00     0.031 C 
ATOM     66  C   UNL     1     -11.290   6.622  -7.342  1.00  0.00     0.031 A 
BRANCH  53  67
ATOM     67  C   UNL     1      -6.348   5.536 -10.898  1.00  0.00    -0.014 A 
ATOM     68  C   UNL     1      -6.211   4.714 -12.029  1.00  0.00     0.009 A 
ATOM     69  C   UNL     1      -5.680   6.770 -10.874  1.00  0.00     0.009 A 
ATOM     70  C   UNL     1      -5.376   5.092 -13.083  1.00  0.00     0.001 A 
ATOM     71  C   UNL     1      -4.875   7.162 -11.945  1.00  0.00     0.001 A 
ATOM     72  C   UNL     1      -4.711   6.316 -13.041  1.00  0.00     0.000 A 
ENDBRANCH  53  67
BRANCH  54  73
ATOM     73  C   UNL     1     -11.367   2.667  -2.768  1.00  0.00    -0.014 A 
ATOM     74  C   UNL     1     -12.604   2.010  -2.846  1.00  0.00     0.009 A 
ATOM     75  C   UNL     1     -10.821   2.941  -1.505  1.00  0.00     0.009 A 
ATOM     76  C   UNL     1     -13.286   1.644  -1.684  1.00  0.00     0.001 A 
ATOM     77  C   UNL     1     -11.499   2.560  -0.345  1.00  0.00     0.001 A 
ATOM     78  C   UNL     1     -12.730   1.914  -0.434  1.00  0.00     0.000 A 
ENDBRANCH  54  73
BRANCH  66  79
ATOM     79  C   UNL     1     -12.368   7.651  -7.533  1.00  0.00    -0.014 A 
ATOM     80  C   UNL     1     -12.445   8.793  -6.722  1.00  0.00     0.009 A 
ATOM     81  C   UNL     1     -13.276   7.506  -8.595  1.00  0.00     0.009 A 
ATOM     82  C   UNL     1     -13.423   9.762  -6.962  1.00  0.00     0.001 A 
ATOM     83  C   UNL     1     -14.233   8.488  -8.849  1.00  0.00     0.001 A 
ATOM     84  C   UNL     1     -14.310   9.612  -8.029  1.00  0.00     0.000 A 
ENDBRANCH  66  79
ENDBRANCH  40  41
ENDBRANCH  32  35
ENDBRANCH  30  31
ENDBRANCH  29  30
ENDBRANCH   1  29
TORSDOF 13
