REMARK SMILES O=C(NCCCNC(=O)[C@@H]1CN(c2nc(-c3ccccc3)no2)CC[NH2+]1)c1ccc(-c2c3nc(c(-c4ccccc4)c4ccc([nH]4)c(-c4ccccc4)c4nc(c(-c5ccccc5)c5ccc2[nH]5)C=C4)C=C3)cc1
REMARK SMILES IDX 5 1 4 2 3 3 1 4 2 5 27 7 28 8 74 9 29 10 73 11 30 12 31 13
REMARK SMILES IDX 32 14 67 15 33 16 72 17 66 18 68 19 34 20 71 21 65 22 64 23
REMARK SMILES IDX 35 25 57 26 42 27 56 28 43 29 46 30 55 31 69 32 44 33 45 34
REMARK SMILES IDX 54 36 70 37 47 38 36 39 37 40 41 41 38 42 40 43 39 44 58 45
REMARK SMILES IDX 59 46 63 47 60 48 62 49 61 50 48 51 49 52 53 53 50 54 52 55
REMARK SMILES IDX 51 56 6 57 7 58 8 59 9 61 10 62 11 63 26 64 12 65 25 66
REMARK SMILES IDX 24 69 13 70 14 71 23 72 15 73 22 74 16 75 17 76 21 77 18 78
REMARK SMILES IDX 20 79 19 80
REMARK H PARENT 3 6 68 24 46 35 7 60 26 67 26 68
REMARK Flexibility Score: inf
ROOT
ATOM      1  C   UNL     1       4.941   2.109   0.825  1.00  0.00     0.042 C 
ENDROOT
BRANCH   1   2
ATOM      2  C   UNL     1       4.554   0.687   1.180  1.00  0.00     0.118 C 
BRANCH   2   3
ATOM      3  N   UNL     1       3.116   0.464   1.058  1.00  0.00    -0.352 N 
ATOM      4  O   UNL     1       1.192  -0.046  -0.003  1.00  0.00    -0.269 OA
ATOM      5  C   UNL     1       2.412  -0.180   0.074  1.00  0.00     0.251 C 
ATOM      6  H   UNL     1       2.571   0.832   1.791  1.00  0.00     0.163 HD
BRANCH   5   7
ATOM      7  C   UNL     1       3.125  -1.037  -0.891  1.00  0.00     0.039 A 
ATOM      8  C   UNL     1       4.160  -1.864  -0.451  1.00  0.00     0.014 A 
ATOM      9  C   UNL     1       2.737  -1.049  -2.233  1.00  0.00     0.014 A 
ATOM     10  C   UNL     1       4.909  -2.583  -1.366  1.00  0.00     0.010 A 
ATOM     11  C   UNL     1       3.410  -1.875  -3.136  1.00  0.00     0.010 A 
ATOM     12  C   UNL     1       4.504  -2.642  -2.707  1.00  0.00    -0.014 A 
BRANCH  12  13
ATOM     13  C   UNL     1       5.143  -3.644  -3.589  1.00  0.00     0.031 A 
ATOM     14  C   UNL     1       5.930  -3.240  -4.797  1.00  0.00     0.074 A 
ATOM     15  C   UNL     1       4.993  -4.944  -3.263  1.00  0.00     0.049 A 
ATOM     16  N   UNL     1       6.526  -4.006  -5.674  1.00  0.00    -0.248 NA
ATOM     17  C   UNL     1       6.065  -1.799  -5.066  1.00  0.00     0.031 C 
ATOM     18  C   UNL     1       4.237  -5.443  -2.106  1.00  0.00     0.029 A 
ATOM     19  N   UNL     1       5.471  -6.082  -3.856  1.00  0.00    -0.354 N 
ATOM     20  C   UNL     1       7.082  -3.148  -6.613  1.00  0.00     0.074 A 
ATOM     21  C   UNL     1       6.748  -1.800  -6.205  1.00  0.00     0.031 C 
ATOM     22  C   UNL     1       4.336  -6.777  -2.054  1.00  0.00     0.029 A 
ATOM     23  C   UNL     1       5.081  -7.235  -3.217  1.00  0.00     0.049 A 
ATOM     24  H   UNL     1       6.037  -6.075  -4.661  1.00  0.00     0.167 HD
ATOM     25  C   UNL     1       7.799  -3.468  -7.715  1.00  0.00     0.031 A 
ATOM     26  C   UNL     1       5.261  -8.524  -3.553  1.00  0.00     0.031 A 
ATOM     27  C   UNL     1       8.126  -4.816  -8.102  1.00  0.00     0.049 A 
ATOM     28  C   UNL     1       6.014  -8.836  -4.811  1.00  0.00     0.074 A 
ATOM     29  C   UNL     1       8.902  -5.239  -9.168  1.00  0.00     0.029 A 
ATOM     30  N   UNL     1       7.683  -5.957  -7.451  1.00  0.00    -0.354 N 
ATOM     31  N   UNL     1       6.596  -8.012  -5.648  1.00  0.00    -0.248 NA
ATOM     32  C   UNL     1       6.128 -10.253  -5.176  1.00  0.00     0.031 C 
ATOM     33  C   UNL     1       8.867  -6.635  -9.205  1.00  0.00     0.029 A 
ATOM     34  C   UNL     1       8.124  -7.084  -8.125  1.00  0.00     0.049 A 
ATOM     35  H   UNL     1       7.137  -5.965  -6.633  1.00  0.00     0.167 HD
ATOM     36  C   UNL     1       7.151  -8.811  -6.635  1.00  0.00     0.074 A 
ATOM     37  C   UNL     1       6.868 -10.184  -6.273  1.00  0.00     0.031 C 
ATOM     38  C   UNL     1       7.825  -8.441  -7.750  1.00  0.00     0.031 A 
BRANCH  25  39
ATOM     39  C   UNL     1       8.255  -2.355  -8.617  1.00  0.00    -0.014 A 
ATOM     40  C   UNL     1       9.308  -1.502  -8.258  1.00  0.00     0.009 A 
ATOM     41  C   UNL     1       7.685  -2.231  -9.896  1.00  0.00     0.009 A 
ATOM     42  C   UNL     1       9.774  -0.539  -9.158  1.00  0.00     0.001 A 
ATOM     43  C   UNL     1       8.168  -1.285 -10.801  1.00  0.00     0.001 A 
ATOM     44  C   UNL     1       9.210  -0.438 -10.431  1.00  0.00     0.000 A 
ENDBRANCH  25  39
BRANCH  26  45
ATOM     45  C   UNL     1       4.652  -9.602  -2.732  1.00  0.00    -0.014 A 
ATOM     46  C   UNL     1       5.454 -10.524  -2.044  1.00  0.00     0.009 A 
ATOM     47  C   UNL     1       3.255  -9.725  -2.649  1.00  0.00     0.009 A 
ATOM     48  C   UNL     1       4.868 -11.568  -1.323  1.00  0.00     0.001 A 
ATOM     49  C   UNL     1       2.672 -10.744  -1.896  1.00  0.00     0.001 A 
ATOM     50  C   UNL     1       3.480 -11.675  -1.247  1.00  0.00     0.000 A 
ENDBRANCH  26  45
BRANCH  38  51
ATOM     51  C   UNL     1       8.310  -9.542  -8.647  1.00  0.00    -0.014 A 
ATOM     52  C   UNL     1       7.412 -10.280  -9.434  1.00  0.00     0.009 A 
ATOM     53  C   UNL     1       9.682  -9.818  -8.735  1.00  0.00     0.009 A 
ATOM     54  C   UNL     1       7.879 -11.294 -10.271  1.00  0.00     0.001 A 
ATOM     55  C   UNL     1      10.149 -10.810  -9.597  1.00  0.00     0.001 A 
ATOM     56  C   UNL     1       9.246 -11.553 -10.357  1.00  0.00     0.000 A 
ENDBRANCH  38  51
ENDBRANCH  12  13
ENDBRANCH   5   7
ENDBRANCH   2   3
ENDBRANCH   1   2
BRANCH   1  57
ATOM     57  C   UNL     1       4.360   3.123   1.790  1.00  0.00     0.118 C 
BRANCH  57  58
ATOM     58  N   UNL     1       4.936   2.994   3.120  1.00  0.00    -0.351 N 
ATOM     59  C   UNL     1       5.716   3.815   3.873  1.00  0.00     0.280 C 
ATOM     60  H   UNL     1       4.717   2.143   3.563  1.00  0.00     0.163 HD
ATOM     61  O   UNL     1       6.075   3.356   4.964  1.00  0.00    -0.268 OA
BRANCH  59  62
ATOM     62  C   UNL     1       6.179   5.215   3.414  1.00  0.00     0.292 C 
ATOM     63  C   UNL     1       6.302   6.097   4.688  1.00  0.00     0.197 C 
ATOM     64  N   UNL     1       5.255   5.814   2.412  1.00  0.00    -0.333 N 
ATOM     65  N   UNL     1       6.443   7.520   4.371  1.00  0.00    -0.312 N 
ATOM     66  C   UNL     1       5.689   7.176   2.081  1.00  0.00     0.283 C 
ATOM     67  H   UNL     1       4.312   5.844   2.797  1.00  0.00     0.347 HD
ATOM     68  H   UNL     1       5.265   5.245   1.565  1.00  0.00     0.347 HD
ATOM     69  C   UNL     1       5.611   8.085   3.317  1.00  0.00     0.183 C 
BRANCH  65  70
ATOM     70  C   UNL     1       7.463   8.237   4.871  1.00  0.00     0.324 A 
ATOM     71  N   UNL     1       8.670   7.851   5.199  1.00  0.00    -0.171 NA
ATOM     72  O   UNL     1       7.260   9.577   5.054  1.00  0.00    -0.315 OA
ATOM     73  C   UNL     1       9.262   9.034   5.567  1.00  0.00     0.204 A 
ATOM     74  N   UNL     1       8.453  10.102   5.538  1.00  0.00    -0.055 NA
BRANCH  73  75
ATOM     75  C   UNL     1      10.672   9.141   5.858  1.00  0.00     0.023 A 
ATOM     76  C   UNL     1      11.107   9.383   7.164  1.00  0.00     0.012 A 
ATOM     77  C   UNL     1      11.601   9.066   4.812  1.00  0.00     0.012 A 
ATOM     78  C   UNL     1      12.467   9.562   7.421  1.00  0.00     0.001 A 
ATOM     79  C   UNL     1      12.958   9.258   5.071  1.00  0.00     0.001 A 
ATOM     80  C   UNL     1      13.388   9.508   6.374  1.00  0.00     0.000 A 
ENDBRANCH  73  75
ENDBRANCH  65  70
ENDBRANCH  59  62
ENDBRANCH  57  58
ENDBRANCH   1  57
TORSDOF 12
