REMARK SMILES C[C@@H](C(=O)NCCCNC(=O)c1ccc(-c2c3nc(c(-c4ccccc4)c4ccc([nH]4)c(-c4ccccc4)c4nc(c(-c5ccccc5)c5ccc2[nH]5)C=C4)C=C3)cc1)[C@@H](C)C(=O)c1ccc(Br)cc1
REMARK SMILES IDX 6 1 5 2 3 3 4 4 2 6 1 7 60 8 61 9 62 10 63 11 64 12 65 13
REMARK SMILES IDX 70 14 66 15 69 16 67 17 68 18 7 19 8 20 9 21 10 22 11 24
REMARK SMILES IDX 12 25 13 26 59 27 14 28 58 29 15 30 16 31 17 32 52 33 18 34
REMARK SMILES IDX 57 35 51 36 53 37 19 38 56 39 50 40 49 41 20 43 42 44 27 45
REMARK SMILES IDX 41 46 28 47 31 48 40 49 54 50 29 51 30 52 39 54 55 55 32 56
REMARK SMILES IDX 21 57 22 58 26 59 23 60 25 61 24 62 43 63 44 64 48 65 45 66
REMARK SMILES IDX 47 67 46 68 33 69 34 70 38 71 35 72 37 73 36 74
REMARK H PARENT 5 5 9 23 53 42 31 53
REMARK Flexibility Score: inf
ROOT
ATOM      1  C   UNL     1       3.442  -0.111  -1.862  1.00  0.00     0.117 C 
ENDROOT
BRANCH   1   2
ATOM      2  N   UNL     1       2.379  -1.018  -2.255  1.00  0.00    -0.356 N 
ATOM      3  C   UNL     1       1.055  -1.034  -1.935  1.00  0.00     0.223 C 
ATOM      4  O   UNL     1       0.388  -1.988  -2.327  1.00  0.00    -0.275 OA
ATOM      5  H   UNL     1       2.663  -1.745  -2.856  1.00  0.00     0.163 HD
BRANCH   3   6
ATOM      6  C   UNL     1       0.456   0.096  -1.101  1.00  0.00     0.086 C 
ATOM      7  C   UNL     1       0.707  -0.220   0.378  1.00  0.00     0.019 C 
BRANCH   6   8
ATOM      8  C   UNL     1      -1.051   0.270  -1.401  1.00  0.00     0.070 C 
ATOM      9  C   UNL     1      -1.669   1.455  -0.652  1.00  0.00     0.017 C 
BRANCH   8  10
ATOM     10  C   UNL     1      -1.439   0.375  -2.885  1.00  0.00     0.166 C 
ATOM     11  O   UNL     1      -2.259  -0.393  -3.388  1.00  0.00    -0.294 OA
BRANCH  10  12
ATOM     12  C   UNL     1      -1.005   1.535  -3.708  1.00  0.00     0.018 A 
ATOM     13  C   UNL     1      -2.007   2.287  -4.338  1.00  0.00     0.013 A 
ATOM     14  C   UNL     1       0.336   1.865  -3.914  1.00  0.00     0.013 A 
ATOM     15  C   UNL     1      -1.672   3.386  -5.133  1.00  0.00     0.016 A 
ATOM     16  C   UNL     1       0.672   2.969  -4.704  1.00  0.00     0.016 A 
ATOM     17  C   UNL     1      -0.332   3.727  -5.304  1.00  0.00     0.018 A 
ATOM     18  Br  UNL     1       0.130   5.214  -6.375  1.00  0.00    -0.051 Br
ENDBRANCH  10  12
ENDBRANCH   8  10
ENDBRANCH   6   8
ENDBRANCH   3   6
ENDBRANCH   1   2
BRANCH   1  19
ATOM     19  C   UNL     1       4.403  -0.748  -0.861  1.00  0.00     0.042 C 
BRANCH  19  20
ATOM     20  C   UNL     1       5.133  -1.989  -1.372  1.00  0.00     0.118 C 
BRANCH  20  21
ATOM     21  N   UNL     1       6.031  -1.704  -2.478  1.00  0.00    -0.352 N 
ATOM     22  C   UNL     1       7.366  -1.976  -2.633  1.00  0.00     0.251 C 
ATOM     23  H   UNL     1       5.613  -1.240  -3.239  1.00  0.00     0.163 HD
ATOM     24  O   UNL     1       7.962  -1.497  -3.602  1.00  0.00    -0.269 OA
BRANCH  22  25
ATOM     25  C   UNL     1       8.112  -2.806  -1.659  1.00  0.00     0.039 A 
ATOM     26  C   UNL     1       9.426  -2.442  -1.350  1.00  0.00     0.014 A 
ATOM     27  C   UNL     1       7.565  -3.960  -1.090  1.00  0.00     0.014 A 
ATOM     28  C   UNL     1      10.168  -3.196  -0.439  1.00  0.00     0.010 A 
ATOM     29  C   UNL     1       8.282  -4.676  -0.128  1.00  0.00     0.010 A 
ATOM     30  C   UNL     1       9.593  -4.305   0.203  1.00  0.00    -0.014 A 
BRANCH  30  31
ATOM     31  C   UNL     1      10.359  -5.063   1.225  1.00  0.00     0.031 A 
ATOM     32  C   UNL     1      10.779  -6.487   0.980  1.00  0.00     0.074 A 
ATOM     33  C   UNL     1      10.664  -4.471   2.397  1.00  0.00     0.049 A 
ATOM     34  N   UNL     1      11.485  -7.281   1.746  1.00  0.00    -0.248 NA
ATOM     35  C   UNL     1      10.333  -7.106  -0.278  1.00  0.00     0.031 C 
ATOM     36  C   UNL     1      10.275  -3.113   2.786  1.00  0.00     0.029 A 
ATOM     37  N   UNL     1      11.377  -4.934   3.474  1.00  0.00    -0.354 N 
ATOM     38  C   UNL     1      11.560  -8.492   1.070  1.00  0.00     0.074 A 
ATOM     39  C   UNL     1      10.790  -8.343  -0.147  1.00  0.00     0.031 C 
ATOM     40  C   UNL     1      10.788  -2.841   3.997  1.00  0.00     0.029 A 
ATOM     41  C   UNL     1      11.517  -4.009   4.479  1.00  0.00     0.049 A 
ATOM     42  H   UNL     1      11.753  -5.843   3.521  1.00  0.00     0.167 HD
ATOM     43  C   UNL     1      12.223  -9.621   1.417  1.00  0.00     0.031 A 
ATOM     44  C   UNL     1      12.169  -4.085   5.654  1.00  0.00     0.031 A 
ATOM     45  C   UNL     1      12.999  -9.774   2.619  1.00  0.00     0.049 A 
ATOM     46  C   UNL     1      12.911  -5.342   6.009  1.00  0.00     0.074 A 
ATOM     47  C   UNL     1      13.754 -10.861   3.027  1.00  0.00     0.029 A 
ATOM     48  N   UNL     1      13.119  -8.812   3.609  1.00  0.00    -0.354 N 
ATOM     49  N   UNL     1      13.032  -6.451   5.322  1.00  0.00    -0.248 NA
ATOM     50  C   UNL     1      13.618  -5.347   7.297  1.00  0.00     0.031 C 
ATOM     51  C   UNL     1      14.298 -10.571   4.284  1.00  0.00     0.029 A 
ATOM     52  C   UNL     1      13.918  -9.286   4.636  1.00  0.00     0.049 A 
ATOM     53  H   UNL     1      12.698  -7.922   3.585  1.00  0.00     0.167 HD
ATOM     54  C   UNL     1      13.845  -7.279   6.084  1.00  0.00     0.074 A 
ATOM     55  C   UNL     1      14.203  -6.537   7.276  1.00  0.00     0.031 C 
ATOM     56  C   UNL     1      14.257  -8.543   5.821  1.00  0.00     0.031 A 
BRANCH  43  57
ATOM     57  C   UNL     1      12.135 -10.789   0.475  1.00  0.00    -0.014 A 
ATOM     58  C   UNL     1      12.810 -10.779  -0.756  1.00  0.00     0.009 A 
ATOM     59  C   UNL     1      11.398 -11.927   0.837  1.00  0.00     0.009 A 
ATOM     60  C   UNL     1      12.720 -11.871  -1.621  1.00  0.00     0.001 A 
ATOM     61  C   UNL     1      11.330 -13.028  -0.019  1.00  0.00     0.001 A 
ATOM     62  C   UNL     1      11.983 -12.995  -1.250  1.00  0.00     0.000 A 
ENDBRANCH  43  57
BRANCH  44  63
ATOM     63  C   UNL     1      12.180  -2.918   6.571  1.00  0.00    -0.014 A 
ATOM     64  C   UNL     1      13.342  -2.145   6.721  1.00  0.00     0.009 A 
ATOM     65  C   UNL     1      11.032  -2.571   7.299  1.00  0.00     0.009 A 
ATOM     66  C   UNL     1      13.360  -1.061   7.601  1.00  0.00     0.001 A 
ATOM     67  C   UNL     1      11.047  -1.472   8.160  1.00  0.00     0.001 A 
ATOM     68  C   UNL     1      12.213  -0.723   8.316  1.00  0.00     0.000 A 
ENDBRANCH  44  63
BRANCH  56  69
ATOM     69  C   UNL     1      15.155  -9.191   6.835  1.00  0.00    -0.014 A 
ATOM     70  C   UNL     1      14.652  -9.637   8.067  1.00  0.00     0.009 A 
ATOM     71  C   UNL     1      16.516  -9.370   6.548  1.00  0.00     0.009 A 
ATOM     72  C   UNL     1      15.506 -10.217   9.008  1.00  0.00     0.001 A 
ATOM     73  C   UNL     1      17.362  -9.972   7.481  1.00  0.00     0.001 A 
ATOM     74  C   UNL     1      16.858 -10.386   8.713  1.00  0.00     0.000 A 
ENDBRANCH  56  69
ENDBRANCH  30  31
ENDBRANCH  22  25
ENDBRANCH  20  21
ENDBRANCH  19  20
ENDBRANCH   1  19
TORSDOF 13
