REMARK SMILES Cc1c(NC(=O)[C@@H]2CC=CC[C@@H]2C(=O)NCCCNC(=O)c2ccc(-c3c4nc(c(-c5ccccc5)c5ccc([nH]5)c(-c5ccccc5)c5nc(c(-c6ccccc6)c6ccc3[nH]6)C=C5)C=C4)cc2)cccc1C(=O)N1CCOCC1
REMARK SMILES IDX 16 1 15 2 13 3 14 4 12 6 7 7 8 8 9 9 11 10 10 11 5 12 4 13
REMARK SMILES IDX 6 15 3 16 1 17 2 18 73 19 70 20 72 21 71 22 74 23 75 24
REMARK SMILES IDX 76 25 77 26 81 27 78 28 80 29 79 30 17 31 18 32 19 33 20 34
REMARK SMILES IDX 21 36 22 37 23 38 69 39 24 40 68 41 25 42 26 43 27 44 62 45
REMARK SMILES IDX 28 46 67 47 61 48 63 49 29 50 66 51 60 52 59 53 30 55 52 56
REMARK SMILES IDX 37 57 51 58 38 59 41 60 50 61 64 62 39 63 40 64 49 66 65 67
REMARK SMILES IDX 42 68 31 69 32 70 36 71 33 72 35 73 34 74 53 75 54 76 58 77
REMARK SMILES IDX 55 78 57 79 56 80 43 81 44 82 48 83 45 84 47 85 46 86
REMARK H PARENT 15 5 4 14 19 35 63 54 41 65
REMARK Flexibility Score: inf
ROOT
ATOM      1  C   UNL     1      -3.806  -4.996  -0.040  1.00  0.00     0.117 C 
ENDROOT
BRANCH   1   2
ATOM      2  N   UNL     1      -4.084  -3.621  -0.432  1.00  0.00    -0.356 N 
ATOM      3  C   UNL     1      -3.401  -2.539  -0.870  1.00  0.00     0.224 C 
ATOM      4  O   UNL     1      -4.152  -1.574  -1.089  1.00  0.00    -0.275 OA
ATOM      5  H   UNL     1      -5.045  -3.422  -0.356  1.00  0.00     0.163 HD
BRANCH   3   6
ATOM      6  C   UNL     1      -1.893  -2.414  -1.227  1.00  0.00     0.095 C 
ATOM      7  C   UNL     1      -0.799  -3.199  -0.451  1.00  0.00     0.095 C 
ATOM      8  C   UNL     1      -0.924  -2.886   1.042  1.00  0.00     0.041 C 
ATOM      9  C   UNL     1      -0.972  -1.403   1.296  1.00  0.00    -0.030 C 
ATOM     10  C   UNL     1      -1.499  -0.909  -1.101  1.00  0.00     0.041 C 
ATOM     11  C   UNL     1      -1.198  -0.508   0.322  1.00  0.00    -0.030 C 
BRANCH   7  12
ATOM     12  C   UNL     1      -0.719  -4.633  -0.949  1.00  0.00     0.228 C 
ATOM     13  N   UNL     1      -0.120  -5.654  -0.295  1.00  0.00    -0.326 N 
ATOM     14  H   UNL     1      -0.471  -6.529  -0.578  1.00  0.00     0.169 HD
ATOM     15  O   UNL     1      -1.233  -4.946  -2.032  1.00  0.00    -0.274 OA
BRANCH  13  16
ATOM     16  C   UNL     1       0.877  -5.780   0.684  1.00  0.00     0.044 A 
ATOM     17  C   UNL     1      -0.146  -8.024   1.226  1.00  0.00     0.047 C 
ATOM     18  C   UNL     1       0.979  -7.028   1.358  1.00  0.00    -0.015 A 
ATOM     19  C   UNL     1       2.094  -7.272   2.188  1.00  0.00     0.045 A 
ATOM     20  C   UNL     1       1.815  -4.776   0.926  1.00  0.00     0.026 A 
ATOM     21  C   UNL     1       3.003  -6.231   2.441  1.00  0.00     0.014 A 
ATOM     22  C   UNL     1       2.854  -4.988   1.830  1.00  0.00     0.003 A 
BRANCH  19  23
ATOM     23  C   UNL     1       2.288  -8.514   2.991  1.00  0.00     0.254 C 
ATOM     24  O   UNL     1       2.563  -8.359   4.182  1.00  0.00    -0.269 OA
ATOM     25  N   UNL     1       2.126  -9.779   2.436  1.00  0.00    -0.334 N 
ATOM     26  C   UNL     1       2.268 -10.164   1.026  1.00  0.00     0.148 C 
ATOM     27  C   UNL     1       2.015 -10.921   3.346  1.00  0.00     0.148 C 
ATOM     28  C   UNL     1       1.216 -11.214   0.620  1.00  0.00     0.181 C 
ATOM     29  C   UNL     1       0.906 -11.862   2.873  1.00  0.00     0.181 C 
ATOM     30  O   UNL     1       1.175 -12.319   1.537  1.00  0.00    -0.378 OA
ENDBRANCH  19  23
ENDBRANCH  13  16
ENDBRANCH   7  12
ENDBRANCH   3   6
ENDBRANCH   1   2
BRANCH   1  31
ATOM     31  C   UNL     1      -3.661  -5.143   1.472  1.00  0.00     0.042 C 
BRANCH  31  32
ATOM     32  C   UNL     1      -4.912  -5.636   2.176  1.00  0.00     0.118 C 
BRANCH  32  33
ATOM     33  N   UNL     1      -4.896  -7.045   2.561  1.00  0.00    -0.352 N 
ATOM     34  C   UNL     1      -5.864  -7.738   3.277  1.00  0.00     0.251 C 
ATOM     35  H   UNL     1      -4.108  -7.564   2.280  1.00  0.00     0.163 HD
ATOM     36  O   UNL     1      -5.753  -8.933   3.495  1.00  0.00    -0.269 OA
BRANCH  34  37
ATOM     37  C   UNL     1      -7.105  -7.012   3.648  1.00  0.00     0.039 A 
ATOM     38  C   UNL     1      -8.307  -7.482   3.117  1.00  0.00     0.014 A 
ATOM     39  C   UNL     1      -7.017  -5.733   4.187  1.00  0.00     0.014 A 
ATOM     40  C   UNL     1      -9.329  -6.573   2.867  1.00  0.00     0.010 A 
ATOM     41  C   UNL     1      -7.970  -4.807   3.811  1.00  0.00     0.010 A 
ATOM     42  C   UNL     1      -9.097  -5.215   3.089  1.00  0.00    -0.014 A 
BRANCH  42  43
ATOM     43  C   UNL     1      -9.924  -4.163   2.500  1.00  0.00     0.031 A 
ATOM     44  C   UNL     1     -10.757  -3.305   3.366  1.00  0.00     0.074 A 
ATOM     45  C   UNL     1      -9.932  -3.955   1.163  1.00  0.00     0.049 A 
ATOM     46  N   UNL     1     -11.804  -2.670   2.958  1.00  0.00    -0.248 NA
ATOM     47  C   UNL     1     -10.509  -3.144   4.795  1.00  0.00     0.031 C 
ATOM     48  C   UNL     1     -10.509  -2.823   0.441  1.00  0.00     0.029 A 
ATOM     49  N   UNL     1      -9.615  -4.876   0.162  1.00  0.00    -0.354 N 
ATOM     50  C   UNL     1     -12.211  -1.838   3.971  1.00  0.00     0.074 A 
ATOM     51  C   UNL     1     -11.405  -2.207   5.112  1.00  0.00     0.031 C 
ATOM     52  C   UNL     1     -10.764  -3.200  -0.822  1.00  0.00     0.029 A 
ATOM     53  C   UNL     1     -10.486  -4.621  -0.918  1.00  0.00     0.049 A 
ATOM     54  H   UNL     1      -8.918  -5.570   0.202  1.00  0.00     0.167 HD
ATOM     55  C   UNL     1     -13.120  -0.859   3.715  1.00  0.00     0.031 A 
ATOM     56  C   UNL     1     -11.364  -5.571  -1.352  1.00  0.00     0.031 A 
ATOM     57  C   UNL     1     -13.635  -0.918   2.349  1.00  0.00     0.049 A 
ATOM     58  C   UNL     1     -12.826  -5.182  -1.231  1.00  0.00     0.074 A 
ATOM     59  C   UNL     1     -13.409  -0.200   1.187  1.00  0.00     0.029 A 
ATOM     60  N   UNL     1     -14.349  -2.042   1.970  1.00  0.00    -0.354 N 
ATOM     61  N   UNL     1     -13.255  -4.068  -0.705  1.00  0.00    -0.248 NA
ATOM     62  C   UNL     1     -13.924  -6.085  -1.589  1.00  0.00     0.031 C 
ATOM     63  C   UNL     1     -14.010  -0.907   0.105  1.00  0.00     0.029 A 
ATOM     64  C   UNL     1     -14.607  -2.043   0.616  1.00  0.00     0.049 A 
ATOM     65  H   UNL     1     -14.636  -2.751   2.590  1.00  0.00     0.167 HD
ATOM     66  C   UNL     1     -14.617  -4.125  -0.578  1.00  0.00     0.074 A 
ATOM     67  C   UNL     1     -14.995  -5.399  -1.159  1.00  0.00     0.031 C 
ATOM     68  C   UNL     1     -15.342  -3.158   0.051  1.00  0.00     0.031 A 
BRANCH  55  69
ATOM     69  C   UNL     1     -13.402   0.278   4.661  1.00  0.00    -0.014 A 
ATOM     70  C   UNL     1     -13.829   1.516   4.150  1.00  0.00     0.009 A 
ATOM     71  C   UNL     1     -13.237   0.208   6.055  1.00  0.00     0.009 A 
ATOM     72  C   UNL     1     -13.986   2.641   4.969  1.00  0.00     0.001 A 
ATOM     73  C   UNL     1     -13.347   1.339   6.875  1.00  0.00     0.001 A 
ATOM     74  C   UNL     1     -13.714   2.560   6.329  1.00  0.00     0.000 A 
ENDBRANCH  55  69
BRANCH  56  75
ATOM     75  C   UNL     1     -10.848  -6.961  -1.202  1.00  0.00    -0.014 A 
ATOM     76  C   UNL     1      -9.703  -7.332  -1.937  1.00  0.00     0.009 A 
ATOM     77  C   UNL     1     -11.241  -7.762  -0.123  1.00  0.00     0.009 A 
ATOM     78  C   UNL     1      -8.904  -8.401  -1.523  1.00  0.00     0.001 A 
ATOM     79  C   UNL     1     -10.447  -8.844   0.277  1.00  0.00     0.001 A 
ATOM     80  C   UNL     1      -9.262  -9.137  -0.397  1.00  0.00     0.000 A 
ENDBRANCH  56  75
BRANCH  68  81
ATOM     81  C   UNL     1     -16.831  -3.218   0.217  1.00  0.00    -0.014 A 
ATOM     82  C   UNL     1     -17.687  -3.526  -0.849  1.00  0.00     0.009 A 
ATOM     83  C   UNL     1     -17.423  -2.835   1.437  1.00  0.00     0.009 A 
ATOM     84  C   UNL     1     -19.078  -3.488  -0.687  1.00  0.00     0.001 A 
ATOM     85  C   UNL     1     -18.809  -2.777   1.594  1.00  0.00     0.001 A 
ATOM     86  C   UNL     1     -19.638  -3.111   0.532  1.00  0.00     0.000 A 
ENDBRANCH  68  81
ENDBRANCH  42  43
ENDBRANCH  34  37
ENDBRANCH  32  33
ENDBRANCH  31  32
ENDBRANCH   1  31
TORSDOF 13
