REMARK SMILES [NH3+][C@@H](Cc1c[nH]c2ccccc12)C(=O)N[C@@H](CS)C(=O)N[C@@H](CO)C(=O)NCCCNC(=O)c1ccc(-c2c3nc(c(-c4ccccc4)c4ccc([nH]4)c(-c4ccccc4)c4nc(c(-c5ccccc5)c5ccc2[nH]5)C=C4)C=C3)cc1
REMARK SMILES IDX 25 1 26 2 27 3 22 5 21 6 19 7 20 8 16 10 15 11 13 12 14 13
REMARK SMILES IDX 2 15 1 16 3 20 4 21 5 22 12 23 6 24 7 25 11 26 8 28 10 29
REMARK SMILES IDX 9 30 17 31 18 32 23 34 24 35 28 37 29 38 30 39 31 40 32 41
REMARK SMILES IDX 33 43 34 44 35 45 81 46 36 47 80 48 37 49 38 50 39 51 74 52
REMARK SMILES IDX 40 53 79 54 73 55 75 56 41 57 78 58 72 59 71 60 42 62 64 63
REMARK SMILES IDX 49 64 63 65 50 66 53 67 62 68 76 69 51 70 52 71 61 73 77 74
REMARK SMILES IDX 54 75 43 76 44 77 48 78 45 79 47 80 46 81 65 82 66 83 70 84
REMARK SMILES IDX 67 85 69 86 68 87 55 88 56 89 60 90 57 91 59 92 58 93
REMARK H PARENT 27 4 21 9 15 14 1 17 1 18 1 19 6 27 18 33 24 36 31 42 75 61
REMARK H PARENT 53 72
REMARK Flexibility Score: inf
ROOT
ATOM      1  C   UNL     1      -5.623   4.192   0.567  1.00  0.00     0.244 C 
ATOM      2  O   UNL     1      -6.117   4.411  -0.543  1.00  0.00    -0.273 OA
ATOM      3  N   UNL     1      -5.725   5.183   1.491  1.00  0.00    -0.354 N 
ATOM      4  H   UNL     1      -6.051   6.041   1.135  1.00  0.00     0.163 HD
ENDROOT
BRANCH   1   5
ATOM      5  C   UNL     1      -4.919   2.867   0.862  1.00  0.00     0.197 C 
BRANCH   5   6
ATOM      6  N   UNL     1      -3.497   3.078   1.169  1.00  0.00    -0.340 N 
ATOM      7  C   UNL     1      -2.741   1.976   1.443  1.00  0.00     0.244 C 
ATOM      8  O   UNL     1      -2.953   1.394   2.511  1.00  0.00    -0.273 OA
ATOM      9  H   UNL     1      -3.105   3.981   1.177  1.00  0.00     0.164 HD
BRANCH   7  10
ATOM     10  C   UNL     1      -1.589   1.581   0.479  1.00  0.00     0.181 C 
BRANCH  10  11
ATOM     11  N   UNL     1      -1.452   0.131   0.649  1.00  0.00    -0.338 N 
ATOM     12  C   UNL     1      -0.496  -0.510   1.392  1.00  0.00     0.279 C 
ATOM     13  O   UNL     1      -0.869  -1.478   2.065  1.00  0.00    -0.268 OA
ATOM     14  H   UNL     1      -2.110  -0.435   0.185  1.00  0.00     0.164 HD
BRANCH  12  15
ATOM     15  C   UNL     1       1.007  -0.134   1.334  1.00  0.00     0.275 C 
BRANCH  15  16
ATOM     16  N   UNL     1       1.373   0.528   0.059  1.00  0.00    -0.347 N 
ATOM     17  H   UNL     1       2.368   0.756   0.068  1.00  0.00     0.345 HD
ATOM     18  H   UNL     1       0.829   1.385  -0.047  1.00  0.00     0.345 HD
ATOM     19  H   UNL     1       1.175  -0.099  -0.720  1.00  0.00     0.345 HD
ENDBRANCH  15  16
BRANCH  15  20
ATOM     20  C   UNL     1       1.598   0.501   2.624  1.00  0.00     0.113 C 
BRANCH  20  21
ATOM     21  C   UNL     1       1.303   1.961   2.836  1.00  0.00    -0.016 A 
ATOM     22  C   UNL     1       0.065   2.484   3.146  1.00  0.00     0.087 A 
ATOM     23  C   UNL     1       2.205   3.077   2.921  1.00  0.00     0.003 A 
ATOM     24  N   UNL     1       0.116   3.837   2.979  1.00  0.00    -0.361 N 
ATOM     25  C   UNL     1       1.425   4.237   2.908  1.00  0.00     0.046 A 
ATOM     26  C   UNL     1       3.602   3.229   3.030  1.00  0.00     0.010 A 
ATOM     27  H   UNL     1      -0.665   4.433   2.918  1.00  0.00     0.166 HD
ATOM     28  C   UNL     1       1.959   5.529   2.887  1.00  0.00     0.026 A 
ATOM     29  C   UNL     1       4.148   4.519   3.134  1.00  0.00     0.001 A 
ATOM     30  C   UNL     1       3.341   5.650   3.032  1.00  0.00     0.002 A 
ENDBRANCH  20  21
ENDBRANCH  15  20
ENDBRANCH  12  15
ENDBRANCH  10  11
BRANCH  10  31
ATOM     31  C   UNL     1      -1.682   2.060  -0.972  1.00  0.00     0.101 C 
BRANCH  31  32
ATOM     32  S   UNL     1      -3.084   1.465  -1.964  1.00  0.00    -0.177 SA
ATOM     33  H   UNL     1      -2.993   0.116  -2.115  1.00  0.00     0.102 HD
ENDBRANCH  31  32
ENDBRANCH  10  31
ENDBRANCH   7  10
ENDBRANCH   5   6
BRANCH   5  34
ATOM     34  C   UNL     1      -5.711   1.955   1.823  1.00  0.00     0.191 C 
BRANCH  34  35
ATOM     35  O   UNL     1      -5.460   2.203   3.204  1.00  0.00    -0.394 OA
ATOM     36  H   UNL     1      -4.526   2.028   3.398  1.00  0.00     0.210 HD
ENDBRANCH  34  35
ENDBRANCH   5  34
ENDBRANCH   1   5
BRANCH   3  37
ATOM     37  C   UNL     1      -5.435   5.192   2.912  1.00  0.00     0.117 C 
BRANCH  37  38
ATOM     38  C   UNL     1      -4.656   6.423   3.342  1.00  0.00     0.042 C 
BRANCH  38  39
ATOM     39  C   UNL     1      -5.257   7.742   2.887  1.00  0.00     0.118 C 
BRANCH  39  40
ATOM     40  N   UNL     1      -6.642   7.911   3.299  1.00  0.00    -0.352 N 
ATOM     41  C   UNL     1      -7.215   8.891   4.074  1.00  0.00     0.251 C 
ATOM     42  H   UNL     1      -7.262   7.219   2.974  1.00  0.00     0.163 HD
ATOM     43  O   UNL     1      -8.372   8.778   4.452  1.00  0.00    -0.269 OA
BRANCH  41  44
ATOM     44  C   UNL     1      -6.416  10.068   4.471  1.00  0.00     0.039 A 
ATOM     45  C   UNL     1      -6.501  10.532   5.785  1.00  0.00     0.014 A 
ATOM     46  C   UNL     1      -5.581  10.705   3.550  1.00  0.00     0.014 A 
ATOM     47  C   UNL     1      -5.700  11.601   6.190  1.00  0.00     0.010 A 
ATOM     48  C   UNL     1      -4.708  11.694   3.982  1.00  0.00     0.010 A 
ATOM     49  C   UNL     1      -4.773  12.168   5.300  1.00  0.00    -0.014 A 
BRANCH  49  50
ATOM     50  C   UNL     1      -3.897  13.294   5.702  1.00  0.00     0.031 A 
ATOM     51  C   UNL     1      -4.016  14.615   4.988  1.00  0.00     0.074 A 
ATOM     52  C   UNL     1      -2.965  13.118   6.659  1.00  0.00     0.049 A 
ATOM     53  N   UNL     1      -3.285  15.692   5.115  1.00  0.00    -0.248 NA
ATOM     54  C   UNL     1      -5.078  14.729   3.973  1.00  0.00     0.031 C 
ATOM     55  C   UNL     1      -2.731  11.878   7.403  1.00  0.00     0.029 A 
ATOM     56  N   UNL     1      -2.035  13.989   7.167  1.00  0.00    -0.354 N 
ATOM     57  C   UNL     1      -3.787  16.598   4.189  1.00  0.00     0.074 A 
ATOM     58  C   UNL     1      -4.838  15.926   3.460  1.00  0.00     0.031 C 
ATOM     59  C   UNL     1      -1.746  12.080   8.295  1.00  0.00     0.029 A 
ATOM     60  C   UNL     1      -1.250  13.444   8.155  1.00  0.00     0.049 A 
ATOM     61  H   UNL     1      -1.939  14.917   6.853  1.00  0.00     0.167 HD
ATOM     62  C   UNL     1      -3.430  17.887   3.984  1.00  0.00     0.031 A 
ATOM     63  C   UNL     1      -0.241  13.987   8.862  1.00  0.00     0.031 A 
ATOM     64  C   UNL     1      -2.403  18.564   4.725  1.00  0.00     0.049 A 
ATOM     65  C   UNL     1       0.149  15.416   8.597  1.00  0.00     0.074 A 
ATOM     66  C   UNL     1      -1.983  19.878   4.616  1.00  0.00     0.029 A 
ATOM     67  N   UNL     1      -1.643  17.980   5.726  1.00  0.00    -0.354 N 
ATOM     68  N   UNL     1      -0.366  16.271   7.747  1.00  0.00    -0.248 NA
ATOM     69  C   UNL     1       1.253  15.958   9.402  1.00  0.00     0.031 C 
ATOM     70  C   UNL     1      -0.942  20.078   5.527  1.00  0.00     0.029 A 
ATOM     71  C   UNL     1      -0.752  18.905   6.239  1.00  0.00     0.049 A 
ATOM     72  H   UNL     1      -1.725  17.046   6.026  1.00  0.00     0.167 HD
ATOM     73  C   UNL     1       0.322  17.461   7.945  1.00  0.00     0.074 A 
ATOM     74  C   UNL     1       1.280  17.221   9.004  1.00  0.00     0.031 C 
ATOM     75  C   UNL     1       0.176  18.648   7.308  1.00  0.00     0.031 A 
BRANCH  62  76
ATOM     76  C   UNL     1      -4.173  18.653   2.925  1.00  0.00    -0.014 A 
ATOM     77  C   UNL     1      -5.515  19.022   3.109  1.00  0.00     0.009 A 
ATOM     78  C   UNL     1      -3.516  19.047   1.749  1.00  0.00     0.009 A 
ATOM     79  C   UNL     1      -6.193  19.744   2.125  1.00  0.00     0.001 A 
ATOM     80  C   UNL     1      -4.188  19.794   0.780  1.00  0.00     0.001 A 
ATOM     81  C   UNL     1      -5.527  20.135   0.965  1.00  0.00     0.000 A 
ENDBRANCH  62  76
BRANCH  63  82
ATOM     82  C   UNL     1       0.470  13.194   9.901  1.00  0.00    -0.014 A 
ATOM     83  C   UNL     1       0.351  13.531  11.258  1.00  0.00     0.009 A 
ATOM     84  C   UNL     1       1.307  12.127   9.540  1.00  0.00     0.009 A 
ATOM     85  C   UNL     1       1.090  12.848  12.227  1.00  0.00     0.001 A 
ATOM     86  C   UNL     1       2.019  11.424  10.515  1.00  0.00     0.001 A 
ATOM     87  C   UNL     1       1.922  11.795  11.855  1.00  0.00     0.000 A 
ENDBRANCH  63  82
BRANCH  75  88
ATOM     88  C   UNL     1       1.026  19.792   7.783  1.00  0.00    -0.014 A 
ATOM     89  C   UNL     1       2.404  19.838   7.524  1.00  0.00     0.009 A 
ATOM     90  C   UNL     1       0.424  20.860   8.467  1.00  0.00     0.009 A 
ATOM     91  C   UNL     1       3.169  20.915   7.974  1.00  0.00     0.001 A 
ATOM     92  C   UNL     1       1.186  21.950   8.887  1.00  0.00     0.001 A 
ATOM     93  C   UNL     1       2.559  21.972   8.650  1.00  0.00     0.000 A 
ENDBRANCH  75  88
ENDBRANCH  49  50
ENDBRANCH  41  44
ENDBRANCH  39  40
ENDBRANCH  38  39
ENDBRANCH  37  38
ENDBRANCH   3  37
TORSDOF 21
