REMARK SMILES O=C(NCCCNC(=O)c1ccccc1Nc1cccc(S(F)(F)(F)(F)F)c1)c1ccc(-c2c3nc(c(-c4ccccc4)c4ccc([nH]4)c(-c4ccccc4)c4nc(c(-c5ccccc5)c5ccc2[nH]5)C=C4)C=C3)cc1
REMARK SMILES IDX 5 1 4 2 3 3 1 4 2 5 29 7 30 8 76 9 31 10 75 11 32 12 33 13
REMARK SMILES IDX 34 14 69 15 35 16 74 17 68 18 70 19 36 20 73 21 67 22 66 23
REMARK SMILES IDX 37 25 59 26 44 27 58 28 45 29 48 30 57 31 71 32 46 33 47 34
REMARK SMILES IDX 56 36 72 37 49 38 38 39 39 40 43 41 40 42 42 43 41 44 60 45
REMARK SMILES IDX 61 46 65 47 62 48 64 49 63 50 50 51 51 52 55 53 52 54 54 55
REMARK SMILES IDX 53 56 6 57 7 58 8 59 9 61 10 62 11 63 15 64 12 65 14 66
REMARK SMILES IDX 13 67 16 68 17 70 18 71 28 72 19 73 21 74 20 75 22 76 23 77
REMARK SMILES IDX 24 78 25 79 26 80 27 81
REMARK H PARENT 3 6 70 24 48 35 7 60 16 69
REMARK Flexibility Score: inf
ROOT
ATOM      1  C   UNL     1       5.023  -1.236  -1.887  1.00  0.00     0.042 C 
ENDROOT
BRANCH   1   2
ATOM      2  C   UNL     1       4.516   0.015  -1.187  1.00  0.00     0.118 C 
BRANCH   2   3
ATOM      3  N   UNL     1       3.046   0.015  -1.187  1.00  0.00    -0.352 N 
ATOM      4  O   UNL     1       1.040   0.032   0.086  1.00  0.00    -0.269 OA
ATOM      5  C   UNL     1       2.311   0.032   0.086  1.00  0.00     0.251 C 
ATOM      6  H   UNL     1       2.554   0.003  -2.040  1.00  0.00     0.163 HD
BRANCH   5   7
ATOM      7  C   UNL     1       3.071   0.049   1.402  1.00  0.00     0.039 A 
ATOM      8  C   UNL     1       4.150   0.905   1.552  1.00  0.00     0.014 A 
ATOM      9  C   UNL     1       2.688  -0.756   2.386  1.00  0.00     0.014 A 
ATOM     10  C   UNL     1       4.947   0.628   2.688  1.00  0.00     0.010 A 
ATOM     11  C   UNL     1       3.445  -0.875   3.527  1.00  0.00     0.010 A 
ATOM     12  C   UNL     1       4.558  -0.103   3.716  1.00  0.00    -0.014 A 
BRANCH  12  13
ATOM     13  C   UNL     1       5.306  -0.088   5.040  1.00  0.00     0.031 A 
ATOM     14  C   UNL     1       5.842  -1.290   5.503  1.00  0.00     0.074 A 
ATOM     15  C   UNL     1       5.414   1.118   5.711  1.00  0.00     0.049 A 
ATOM     16  N   UNL     1       6.556  -1.489   6.612  1.00  0.00    -0.248 NA
ATOM     17  C   UNL     1       5.698  -2.579   4.809  1.00  0.00     0.031 C 
ATOM     18  C   UNL     1       4.883   2.337   5.245  1.00  0.00     0.029 A 
ATOM     19  N   UNL     1       6.034   1.361   6.917  1.00  0.00    -0.354 N 
ATOM     20  C   UNL     1       6.910  -2.772   6.709  1.00  0.00     0.074 A 
ATOM     21  C   UNL     1       6.359  -3.492   5.554  1.00  0.00     0.031 C 
ATOM     22  C   UNL     1       5.169   3.298   6.162  1.00  0.00     0.029 A 
ATOM     23  C   UNL     1       5.883   2.697   7.216  1.00  0.00     0.049 A 
ATOM     24  H   UNL     1       6.503   0.695   7.469  1.00  0.00     0.167 HD
ATOM     25  C   UNL     1       7.673  -3.368   7.714  1.00  0.00     0.031 A 
ATOM     26  C   UNL     1       6.334   3.371   8.340  1.00  0.00     0.031 A 
ATOM     27  C   UNL     1       8.161  -2.685   8.817  1.00  0.00     0.049 A 
ATOM     28  C   UNL     1       7.048   2.762   9.375  1.00  0.00     0.074 A 
ATOM     29  C   UNL     1       8.938  -3.270   9.835  1.00  0.00     0.029 A 
ATOM     30  N   UNL     1       7.990  -1.354   9.128  1.00  0.00    -0.354 N 
ATOM     31  N   UNL     1       7.435   1.488   9.452  1.00  0.00    -0.248 NA
ATOM     32  C   UNL     1       7.502   3.459  10.585  1.00  0.00     0.031 C 
ATOM     33  C   UNL     1       9.224  -2.308  10.753  1.00  0.00     0.029 A 
ATOM     34  C   UNL     1       8.629  -1.106  10.323  1.00  0.00     0.049 A 
ATOM     35  H   UNL     1       7.495  -0.695   8.590  1.00  0.00     0.167 HD
ATOM     36  C   UNL     1       8.114   1.282  10.582  1.00  0.00     0.074 A 
ATOM     37  C   UNL     1       8.161   2.545  11.331  1.00  0.00     0.031 C 
ATOM     38  C   UNL     1       8.700   0.092  11.017  1.00  0.00     0.031 A 
BRANCH  25  39
ATOM     39  C   UNL     1       7.987  -4.851   7.593  1.00  0.00    -0.014 A 
ATOM     40  C   UNL     1       8.693  -5.322   6.498  1.00  0.00     0.009 A 
ATOM     41  C   UNL     1       7.573  -5.672   8.551  1.00  0.00     0.009 A 
ATOM     42  C   UNL     1       8.664  -6.730   6.360  1.00  0.00     0.001 A 
ATOM     43  C   UNL     1       7.699  -7.032   8.409  1.00  0.00     0.001 A 
ATOM     44  C   UNL     1       8.334  -7.570   7.324  1.00  0.00     0.000 A 
ENDBRANCH  25  39
BRANCH  26  45
ATOM     45  C   UNL     1       6.035   4.857   8.453  1.00  0.00    -0.014 A 
ATOM     46  C   UNL     1       7.077   5.766   8.531  1.00  0.00     0.009 A 
ATOM     47  C   UNL     1       4.769   5.258   8.461  1.00  0.00     0.009 A 
ATOM     48  C   UNL     1       6.674   7.069   8.908  1.00  0.00     0.001 A 
ATOM     49  C   UNL     1       4.453   6.574   8.703  1.00  0.00     0.001 A 
ATOM     50  C   UNL     1       5.433   7.516   8.848  1.00  0.00     0.000 A 
ENDBRANCH  26  45
BRANCH  38  51
ATOM     51  C   UNL     1       9.463   0.111  12.332  1.00  0.00    -0.014 A 
ATOM     52  C   UNL     1       8.800   0.461  13.496  1.00  0.00     0.009 A 
ATOM     53  C   UNL     1      10.752  -0.209  12.342  1.00  0.00     0.009 A 
ATOM     54  C   UNL     1       9.661   0.726  14.588  1.00  0.00     0.001 A 
ATOM     55  C   UNL     1      11.502  -0.053  13.482  1.00  0.00     0.001 A 
ATOM     56  C   UNL     1      10.924   0.347  14.655  1.00  0.00     0.000 A 
ENDBRANCH  38  51
ENDBRANCH  12  13
ENDBRANCH   5   7
ENDBRANCH   2   3
ENDBRANCH   1   2
BRANCH   1  57
ATOM     57  C   UNL     1       4.516  -1.255  -3.320  1.00  0.00     0.118 C 
BRANCH  57  58
ATOM     58  N   UNL     1       5.006  -0.064  -4.029  1.00  0.00    -0.352 N 
ATOM     59  C   UNL     1       5.851  -0.215  -5.222  1.00  0.00     0.253 C 
ATOM     60  H   UNL     1       4.769   0.834  -3.704  1.00  0.00     0.163 HD
ATOM     61  O   UNL     1       6.275   0.815  -5.835  1.00  0.00    -0.269 OA
BRANCH  59  62
ATOM     62  C   UNL     1       6.219  -1.602  -5.723  1.00  0.00     0.063 A 
ATOM     63  C   UNL     1       7.559  -1.794  -6.015  1.00  0.00     0.016 A 
ATOM     64  C   UNL     1       5.342  -2.594  -5.830  1.00  0.00     0.051 A 
ATOM     65  C   UNL     1       7.830  -3.005  -6.694  1.00  0.00     0.001 A 
ATOM     66  C   UNL     1       5.711  -3.798  -6.380  1.00  0.00     0.027 A 
ATOM     67  C   UNL     1       7.007  -4.036  -6.746  1.00  0.00     0.002 A 
BRANCH  64  68
ATOM     68  N   UNL     1       3.964  -2.402  -5.355  1.00  0.00    -0.355 N 
ATOM     69  H   UNL     1       3.695  -1.541  -4.960  1.00  0.00     0.167 HD
BRANCH  68  70
ATOM     70  C   UNL     1       2.988  -3.495  -5.470  1.00  0.00     0.040 A 
ATOM     71  C   UNL     1       1.839  -3.299  -6.218  1.00  0.00     0.026 A 
ATOM     72  C   UNL     1       3.222  -4.649  -4.857  1.00  0.00     0.050 A 
ATOM     73  C   UNL     1       0.850  -4.292  -6.021  1.00  0.00     0.004 A 
ATOM     74  C   UNL     1       2.260  -5.630  -4.820  1.00  0.00     0.109 A 
ATOM     75  C   UNL     1       1.076  -5.479  -5.487  1.00  0.00     0.024 A 
BRANCH  74  76
ATOM     76  S   UNL     1       2.564  -7.142  -3.873  1.00  0.00     0.310 S 
ATOM     77  F   UNL     1       1.146  -6.900  -3.205  1.00  0.00    -0.094 F 
ATOM     78  F   UNL     1       3.188  -6.320  -2.684  1.00  0.00    -0.094 F 
ATOM     79  F   UNL     1       2.658  -8.458  -3.050  1.00  0.00    -0.094 F 
ATOM     80  F   UNL     1       1.809  -7.923  -5.020  1.00  0.00    -0.094 F 
ATOM     81  F   UNL     1       2.358  -5.796  -4.675  1.00  0.00    -0.094 F 
ENDBRANCH  74  76
ENDBRANCH  68  70
ENDBRANCH  64  68
ENDBRANCH  59  62
ENDBRANCH  57  58
ENDBRANCH   1  57
TORSDOF 13
