REMARK SMILES C[N@@H+]1CC2(CCN(C(=O)c3cc(-c4ccncc4)n[nH]3)CC2)C[C@H]1C(=O)NCCCNC(=O)c1ccc(-c2c3nc(c(-c4ccccc4)c4ccc([nH]4)c(-c4ccccc4)c4nc(c(-c5ccccc5)c5ccc2[nH]5)C=C4)C=C3)cc1
REMARK SMILES IDX 29 1 28 2 27 3 25 4 26 5 24 7 1 8 2 9 3 10 4 12 23 13 5 14
REMARK SMILES IDX 22 15 6 16 21 17 7 18 8 19 9 20 10 21 11 22 20 23 12 24
REMARK SMILES IDX 19 25 13 27 14 28 18 29 15 30 17 31 16 32 30 33 31 34 32 35
REMARK SMILES IDX 33 37 34 38 35 39 81 40 36 41 80 42 37 43 38 44 39 45 74 46
REMARK SMILES IDX 40 47 79 48 73 49 75 50 41 51 78 52 72 53 71 54 42 56 64 57
REMARK SMILES IDX 49 58 63 59 50 60 53 61 62 62 76 63 51 64 52 65 61 67 77 68
REMARK SMILES IDX 54 69 43 70 44 71 48 72 45 73 47 74 46 75 65 76 66 77 70 78
REMARK SMILES IDX 67 79 69 80 68 81 55 82 56 83 60 84 57 85 59 86 58 87
REMARK H PARENT 27 6 2 11 20 26 31 36 75 55 53 66
REMARK Flexibility Score: inf
ROOT
ATOM      1  C   UNL     1      -1.552   0.889   4.410  1.00  0.00     0.042 C 
ENDROOT
BRANCH   1   2
ATOM      2  C   UNL     1      -0.116   0.511   4.737  1.00  0.00     0.118 C 
BRANCH   2   3
ATOM      3  N   UNL     1       0.286  -0.811   4.346  1.00  0.00    -0.351 N 
ATOM      4  C   UNL     1       1.149  -1.198   3.361  1.00  0.00     0.278 C 
ATOM      5  O   UNL     1       1.478  -2.393   3.377  1.00  0.00    -0.268 OA
ATOM      6  H   UNL     1      -0.120  -1.545   4.862  1.00  0.00     0.163 HD
BRANCH   4   7
ATOM      7  C   UNL     1       1.718  -0.258   2.250  1.00  0.00     0.274 C 
ATOM      8  C   UNL     1       0.780  -0.024   0.039  1.00  0.00     0.333 C 
ATOM      9  N   UNL     1       0.628   0.339   1.451  1.00  0.00    -0.327 N 
ATOM     10  C   UNL     1       0.647   1.791   1.653  1.00  0.00     0.269 C 
ATOM     11  H   UNL     1      -0.278  -0.021   1.752  1.00  0.00     0.348 HD
ATOM     12  C   UNL     1       2.008   2.210   2.255  1.00  0.00     0.029 C 
ATOM     13  C   UNL     1       2.678   0.870   2.633  1.00  0.00     0.088 C 
ATOM     14  C   UNL     1       1.946   3.116   3.512  1.00  0.00     0.034 C 
ATOM     15  C   UNL     1       2.791   3.055   1.206  1.00  0.00     0.034 C 
ATOM     16  C   UNL     1       1.148   4.366   3.231  1.00  0.00     0.120 C 
ATOM     17  C   UNL     1       2.172   4.466   0.986  1.00  0.00     0.120 C 
ATOM     18  N   UNL     1       1.867   5.155   2.244  1.00  0.00    -0.337 N 
ATOM     19  C   UNL     1       2.017   6.537   2.360  1.00  0.00     0.271 C 
ATOM     20  O   UNL     1       2.194   7.257   1.378  1.00  0.00    -0.267 OA
BRANCH  19  21
ATOM     21  C   UNL     1       1.925   7.090   3.689  1.00  0.00     0.123 A 
ATOM     22  C   UNL     1       2.512   6.713   4.883  1.00  0.00     0.064 A 
ATOM     23  N   UNL     1       1.177   8.188   4.005  1.00  0.00    -0.272 N 
ATOM     24  C   UNL     1       1.930   7.537   5.880  1.00  0.00     0.093 A 
ATOM     25  N   UNL     1       1.085   8.420   5.328  1.00  0.00    -0.175 NA
ATOM     26  H   UNL     1       0.744   8.757   3.328  1.00  0.00     0.190 HD
BRANCH  24  27
ATOM     27  C   UNL     1       2.142   7.457   7.319  1.00  0.00     0.005 A 
ATOM     28  C   UNL     1       3.435   7.476   7.844  1.00  0.00     0.030 A 
ATOM     29  C   UNL     1       1.058   7.329   8.187  1.00  0.00     0.030 A 
ATOM     30  C   UNL     1       3.586   7.369   9.216  1.00  0.00     0.111 A 
ATOM     31  C   UNL     1       1.314   7.215   9.543  1.00  0.00     0.111 A 
ATOM     32  N   UNL     1       2.555   7.230  10.077  1.00  0.00    -0.265 NA
ENDBRANCH  24  27
ENDBRANCH  19  21
ENDBRANCH   4   7
ENDBRANCH   2   3
ENDBRANCH   1   2
BRANCH   1  33
ATOM     33  C   UNL     1      -2.480   0.835   5.612  1.00  0.00     0.118 C 
BRANCH  33  34
ATOM     34  N   UNL     1      -2.163   1.849   6.619  1.00  0.00    -0.352 N 
ATOM     35  C   UNL     1      -2.937   2.835   7.184  1.00  0.00     0.251 C 
ATOM     36  H   UNL     1      -1.236   1.819   6.948  1.00  0.00     0.163 HD
ATOM     37  O   UNL     1      -2.404   3.673   7.908  1.00  0.00    -0.269 OA
BRANCH  35  38
ATOM     38  C   UNL     1      -4.391   2.920   6.914  1.00  0.00     0.039 A 
ATOM     39  C   UNL     1      -4.991   4.181   6.821  1.00  0.00     0.014 A 
ATOM     40  C   UNL     1      -5.172   1.773   6.772  1.00  0.00     0.014 A 
ATOM     41  C   UNL     1      -6.350   4.287   6.508  1.00  0.00     0.010 A 
ATOM     42  C   UNL     1      -6.495   1.879   6.359  1.00  0.00     0.010 A 
ATOM     43  C   UNL     1      -7.102   3.136   6.231  1.00  0.00    -0.014 A 
BRANCH  43  44
ATOM     44  C   UNL     1      -8.527   3.206   5.824  1.00  0.00     0.031 A 
ATOM     45  C   UNL     1      -9.583   2.543   6.665  1.00  0.00     0.074 A 
ATOM     46  C   UNL     1      -8.860   3.768   4.646  1.00  0.00     0.049 A 
ATOM     47  N   UNL     1     -10.857   2.377   6.416  1.00  0.00    -0.248 NA
ATOM     48  C   UNL     1      -9.137   1.947   7.936  1.00  0.00     0.031 C 
ATOM     49  C   UNL     1      -7.926   4.390   3.705  1.00  0.00     0.029 A 
ATOM     50  N   UNL     1     -10.081   3.889   4.032  1.00  0.00    -0.354 N 
ATOM     51  C   UNL     1     -11.351   1.623   7.473  1.00  0.00     0.074 A 
ATOM     52  C   UNL     1     -10.233   1.325   8.340  1.00  0.00     0.031 C 
ATOM     53  C   UNL     1      -8.610   4.845   2.644  1.00  0.00     0.029 A 
ATOM     54  C   UNL     1     -10.021   4.516   2.811  1.00  0.00     0.049 A 
ATOM     55  H   UNL     1     -10.919   3.558   4.428  1.00  0.00     0.167 HD
ATOM     56  C   UNL     1     -12.624   1.227   7.711  1.00  0.00     0.031 A 
ATOM     57  C   UNL     1     -10.993   4.791   1.922  1.00  0.00     0.031 A 
ATOM     58  C   UNL     1     -13.743   1.556   6.871  1.00  0.00     0.049 A 
ATOM     59  C   UNL     1     -12.407   4.392   2.231  1.00  0.00     0.074 A 
ATOM     60  C   UNL     1     -15.084   1.280   7.069  1.00  0.00     0.029 A 
ATOM     61  N   UNL     1     -13.647   2.244   5.671  1.00  0.00    -0.354 N 
ATOM     62  N   UNL     1     -12.871   3.739   3.269  1.00  0.00    -0.248 NA
ATOM     63  C   UNL     1     -13.432   4.779   1.252  1.00  0.00     0.031 C 
ATOM     64  C   UNL     1     -15.797   1.772   5.970  1.00  0.00     0.029 A 
ATOM     65  C   UNL     1     -14.903   2.389   5.108  1.00  0.00     0.049 A 
ATOM     66  H   UNL     1     -12.809   2.579   5.277  1.00  0.00     0.167 HD
ATOM     67  C   UNL     1     -14.243   3.651   3.078  1.00  0.00     0.074 A 
ATOM     68  C   UNL     1     -14.537   4.330   1.832  1.00  0.00     0.031 C 
ATOM     69  C   UNL     1     -15.175   3.060   3.864  1.00  0.00     0.031 A 
BRANCH  56  70
ATOM     70  C   UNL     1     -12.860   0.385   8.934  1.00  0.00    -0.014 A 
ATOM     71  C   UNL     1     -12.747   0.926  10.226  1.00  0.00     0.009 A 
ATOM     72  C   UNL     1     -13.192  -0.971   8.794  1.00  0.00     0.009 A 
ATOM     73  C   UNL     1     -12.909   0.114  11.350  1.00  0.00     0.001 A 
ATOM     74  C   UNL     1     -13.382  -1.774   9.920  1.00  0.00     0.001 A 
ATOM     75  C   UNL     1     -13.227  -1.235  11.196  1.00  0.00     0.000 A 
ENDBRANCH  56  70
BRANCH  57  76
ATOM     76  C   UNL     1     -10.656   5.511   0.669  1.00  0.00    -0.014 A 
ATOM     77  C   UNL     1     -10.964   6.873   0.532  1.00  0.00     0.009 A 
ATOM     78  C   UNL     1      -9.991   4.854  -0.377  1.00  0.00     0.009 A 
ATOM     79  C   UNL     1     -10.623   7.560  -0.635  1.00  0.00     0.001 A 
ATOM     80  C   UNL     1      -9.633   5.550  -1.534  1.00  0.00     0.001 A 
ATOM     81  C   UNL     1      -9.953   6.900  -1.663  1.00  0.00     0.000 A 
ENDBRANCH  57  76
BRANCH  69  82
ATOM     82  C   UNL     1     -16.602   3.140   3.408  1.00  0.00    -0.014 A 
ATOM     83  C   UNL     1     -17.072   2.339   2.356  1.00  0.00     0.009 A 
ATOM     84  C   UNL     1     -17.497   3.995   4.069  1.00  0.00     0.009 A 
ATOM     85  C   UNL     1     -18.407   2.414   1.957  1.00  0.00     0.001 A 
ATOM     86  C   UNL     1     -18.837   4.051   3.682  1.00  0.00     0.001 A 
ATOM     87  C   UNL     1     -19.289   3.266   2.622  1.00  0.00     0.000 A 
ENDBRANCH  69  82
ENDBRANCH  43  44
ENDBRANCH  35  38
ENDBRANCH  33  34
ENDBRANCH   1  33
TORSDOF 12
