REMARK SMILES C[C@H](CC(=O)NCCCNC(=O)c1ccc(-c2c3nc(c(-c4ccccc4)c4ccc([nH]4)c(-c4ccccc4)c4nc(c(-c5ccccc5)c5ccc2[nH]5)C=C4)C=C3)cc1)N1C(=O)S/C(=C\c2ccc(Cl)cc2)C1=O
REMARK SMILES IDX 7 1 6 2 4 3 5 4 3 6 2 7 1 8 61 9 62 10 74 11 63 12 64 13
REMARK SMILES IDX 65 14 75 15 66 16 67 17 68 18 73 19 69 20 72 21 70 22 71 23
REMARK SMILES IDX 8 24 9 25 10 26 11 27 12 29 13 30 14 31 60 32 15 33 59 34
REMARK SMILES IDX 16 35 17 36 18 37 53 38 19 39 58 40 52 41 54 42 20 43 57 44
REMARK SMILES IDX 51 45 50 46 21 48 43 49 28 50 42 51 29 52 32 53 41 54 55 55
REMARK SMILES IDX 30 56 31 57 40 59 56 60 33 61 22 62 23 63 27 64 24 65 26 66
REMARK SMILES IDX 25 67 44 68 45 69 49 70 46 71 48 72 47 73 34 74 35 75 39 76
REMARK SMILES IDX 36 77 38 78 37 79
REMARK H PARENT 6 5 10 28 54 47 32 58
REMARK Flexibility Score: inf
ROOT
ATOM      1  C   UNL     1      -1.027   2.443   0.143  1.00  0.00     0.117 C 
ENDROOT
BRANCH   1   2
ATOM      2  N   UNL     1       0.417   2.379   0.006  1.00  0.00    -0.356 N 
ATOM      3  C   UNL     1       1.258   1.309   0.033  1.00  0.00     0.222 C 
ATOM      4  O   UNL     1       2.470   1.526   0.093  1.00  0.00    -0.275 OA
ATOM      5  H   UNL     1       0.859   3.249  -0.128  1.00  0.00     0.163 HD
BRANCH   3   6
ATOM      6  C   UNL     1       0.731  -0.110  -0.059  1.00  0.00     0.125 C 
BRANCH   6   7
ATOM      7  C   UNL     1       0.487  -0.872   1.264  1.00  0.00     0.101 C 
ATOM      8  C   UNL     1       1.212  -0.290   2.479  1.00  0.00     0.032 C 
BRANCH   7   9
ATOM      9  N   UNL     1      -0.955  -1.123   1.459  1.00  0.00    -0.265 N 
ATOM     10  C   UNL     1      -1.573  -2.180   0.830  1.00  0.00     0.293 C 
ATOM     11  C   UNL     1      -1.785  -0.302   2.175  1.00  0.00     0.268 C 
ATOM     12  O   UNL     1      -1.034  -3.065   0.184  1.00  0.00    -0.261 OA
ATOM     13  S   UNL     1      -3.322  -2.079   1.023  1.00  0.00    -0.022 SA
ATOM     14  C   UNL     1      -3.205  -0.587   1.845  1.00  0.00     0.083 C 
ATOM     15  O   UNL     1      -1.451   0.561   2.972  1.00  0.00    -0.268 OA
ATOM     16  C   UNL     1      -4.147   0.322   2.119  1.00  0.00     0.029 C 
BRANCH  16  17
ATOM     17  C   UNL     1      -5.590   0.268   1.897  1.00  0.00    -0.024 A 
ATOM     18  C   UNL     1      -6.193   1.043   0.898  1.00  0.00     0.009 A 
ATOM     19  C   UNL     1      -6.385  -0.408   2.827  1.00  0.00     0.009 A 
ATOM     20  C   UNL     1      -7.586   1.169   0.858  1.00  0.00     0.021 A 
ATOM     21  C   UNL     1      -7.773  -0.273   2.792  1.00  0.00     0.021 A 
ATOM     22  C   UNL     1      -8.367   0.526   1.817  1.00  0.00     0.041 A 
ATOM     23  Cl  UNL     1     -10.072   0.752   1.828  1.00  0.00    -0.084 Cl
ENDBRANCH  16  17
ENDBRANCH   7   9
ENDBRANCH   6   7
ENDBRANCH   3   6
ENDBRANCH   1   2
BRANCH   1  24
ATOM     24  C   UNL     1      -1.409   3.054   1.492  1.00  0.00     0.042 C 
BRANCH  24  25
ATOM     25  C   UNL     1      -1.667   4.552   1.451  1.00  0.00     0.118 C 
BRANCH  25  26
ATOM     26  N   UNL     1      -2.987   4.853   0.912  1.00  0.00    -0.352 N 
ATOM     27  C   UNL     1      -4.246   4.911   1.462  1.00  0.00     0.251 C 
ATOM     28  H   UNL     1      -2.975   5.057  -0.051  1.00  0.00     0.163 HD
ATOM     29  O   UNL     1      -5.195   4.906   0.675  1.00  0.00    -0.269 OA
BRANCH  27  30
ATOM     30  C   UNL     1      -4.532   4.965   2.925  1.00  0.00     0.039 A 
ATOM     31  C   UNL     1      -5.814   4.582   3.357  1.00  0.00     0.014 A 
ATOM     32  C   UNL     1      -3.651   5.479   3.875  1.00  0.00     0.014 A 
ATOM     33  C   UNL     1      -6.191   4.696   4.705  1.00  0.00     0.010 A 
ATOM     34  C   UNL     1      -3.990   5.499   5.234  1.00  0.00     0.010 A 
ATOM     35  C   UNL     1      -5.272   5.133   5.668  1.00  0.00    -0.014 A 
BRANCH  35  36
ATOM     36  C   UNL     1      -5.628   5.255   7.112  1.00  0.00     0.031 A 
ATOM     37  C   UNL     1      -5.517   6.586   7.820  1.00  0.00     0.074 A 
ATOM     38  C   UNL     1      -5.983   4.164   7.820  1.00  0.00     0.049 A 
ATOM     39  N   UNL     1      -5.645   6.863   9.095  1.00  0.00    -0.248 NA
ATOM     40  C   UNL     1      -5.189   7.755   6.988  1.00  0.00     0.031 C 
ATOM     41  C   UNL     1      -6.112   2.808   7.286  1.00  0.00     0.029 A 
ATOM     42  N   UNL     1      -6.288   4.025   9.154  1.00  0.00    -0.354 N 
ATOM     43  C   UNL     1      -5.369   8.221   9.221  1.00  0.00     0.074 A 
ATOM     44  C   UNL     1      -5.032   8.704   7.899  1.00  0.00     0.031 C 
ATOM     45  C   UNL     1      -6.491   1.980   8.273  1.00  0.00     0.029 A 
ATOM     46  C   UNL     1      -6.584   2.733   9.519  1.00  0.00     0.049 A 
ATOM     47  H   UNL     1      -6.294   4.779   9.787  1.00  0.00     0.167 HD
ATOM     48  C   UNL     1      -5.407   9.003  10.328  1.00  0.00     0.031 A 
ATOM     49  C   UNL     1      -6.882   2.206  10.722  1.00  0.00     0.031 A 
ATOM     50  C   UNL     1      -5.783   8.543  11.638  1.00  0.00     0.049 A 
ATOM     51  C   UNL     1      -6.925   3.093  11.935  1.00  0.00     0.074 A 
ATOM     52  C   UNL     1      -5.915   9.277  12.805  1.00  0.00     0.029 A 
ATOM     53  N   UNL     1      -6.096   7.231  11.954  1.00  0.00    -0.354 N 
ATOM     54  N   UNL     1      -6.700   4.381  12.025  1.00  0.00    -0.248 NA
ATOM     55  C   UNL     1      -7.271   2.451  13.212  1.00  0.00     0.031 C 
ATOM     56  C   UNL     1      -6.269   8.401  13.837  1.00  0.00     0.029 A 
ATOM     57  C   UNL     1      -6.405   7.131  13.301  1.00  0.00     0.049 A 
ATOM     58  H   UNL     1      -6.098   6.481  11.316  1.00  0.00     0.167 HD
ATOM     59  C   UNL     1      -6.903   4.707  13.360  1.00  0.00     0.074 A 
ATOM     60  C   UNL     1      -7.282   3.487  14.040  1.00  0.00     0.031 C 
ATOM     61  C   UNL     1      -6.785   5.913  13.966  1.00  0.00     0.031 A 
BRANCH  48  62
ATOM     62  C   UNL     1      -5.024  10.450  10.170  1.00  0.00    -0.014 A 
ATOM     63  C   UNL     1      -5.853  11.355   9.488  1.00  0.00     0.009 A 
ATOM     64  C   UNL     1      -3.834  10.924  10.746  1.00  0.00     0.009 A 
ATOM     65  C   UNL     1      -5.478  12.693   9.350  1.00  0.00     0.001 A 
ATOM     66  C   UNL     1      -3.476  12.269  10.633  1.00  0.00     0.001 A 
ATOM     67  C   UNL     1      -4.292  13.150   9.925  1.00  0.00     0.000 A 
ENDBRANCH  48  62
BRANCH  49  68
ATOM     68  C   UNL     1      -7.177   0.754  10.842  1.00  0.00    -0.014 A 
ATOM     69  C   UNL     1      -8.488   0.316  11.087  1.00  0.00     0.009 A 
ATOM     70  C   UNL     1      -6.154  -0.199  10.718  1.00  0.00     0.009 A 
ATOM     71  C   UNL     1      -8.764  -1.046  11.227  1.00  0.00     0.001 A 
ATOM     72  C   UNL     1      -6.439  -1.561  10.832  1.00  0.00     0.001 A 
ATOM     73  C   UNL     1      -7.741  -1.983  11.094  1.00  0.00     0.000 A 
ENDBRANCH  49  68
BRANCH  61  74
ATOM     74  C   UNL     1      -7.107   5.982  15.432  1.00  0.00    -0.014 A 
ATOM     75  C   UNL     1      -6.233   5.457  16.396  1.00  0.00     0.009 A 
ATOM     76  C   UNL     1      -8.285   6.618  15.854  1.00  0.00     0.009 A 
ATOM     77  C   UNL     1      -6.548   5.543  17.754  1.00  0.00     0.001 A 
ATOM     78  C   UNL     1      -8.584   6.725  17.213  1.00  0.00     0.001 A 
ATOM     79  C   UNL     1      -7.720   6.180  18.161  1.00  0.00     0.000 A 
ENDBRANCH  61  74
ENDBRANCH  35  36
ENDBRANCH  27  30
ENDBRANCH  25  26
ENDBRANCH  24  25
ENDBRANCH   1  24
TORSDOF 13
