REMARK SMILES O=C(NCCCNC(=O)c1c(S(=O)(=O)N2CCCCC2)sc2c1CC[NH2+]C2)c1ccc(-c2c3nc(c(-c4ccccc4)c4ccc([nH]4)c(-c4ccccc4)c4nc(c(-c5ccccc5)c5ccc2[nH]5)C=C4)C=C3)cc1
REMARK SMILES IDX 5 1 4 2 3 3 1 4 2 5 28 7 29 8 75 9 30 10 74 11 31 12 32 13
REMARK SMILES IDX 33 14 68 15 34 16 73 17 67 18 69 19 35 20 72 21 66 22 65 23
REMARK SMILES IDX 36 25 58 26 43 27 57 28 44 29 47 30 56 31 70 32 45 33 46 34
REMARK SMILES IDX 55 36 71 37 48 38 37 39 38 40 42 41 39 42 41 43 40 44 59 45
REMARK SMILES IDX 60 46 64 47 61 48 63 49 62 50 49 51 50 52 54 53 51 54 53 55
REMARK SMILES IDX 52 56 6 57 7 58 8 59 9 61 10 62 11 63 23 64 21 65 22 66
REMARK SMILES IDX 24 67 27 68 25 69 26 70 12 73 13 74 14 75 15 76 16 77 20 78
REMARK SMILES IDX 17 79 19 80 18 81
REMARK H PARENT 3 6 69 24 47 35 7 60 26 71 26 72
REMARK Flexibility Score: inf
ROOT
ATOM      1  C   UNL     1       5.202   1.866   0.735  1.00  0.00     0.042 C 
ENDROOT
BRANCH   1   2
ATOM      2  C   UNL     1       4.734   0.427   0.948  1.00  0.00     0.118 C 
BRANCH   2   3
ATOM      3  N   UNL     1       3.299   0.220   1.019  1.00  0.00    -0.352 N 
ATOM      4  O   UNL     1       1.197  -0.279   0.562  1.00  0.00    -0.269 OA
ATOM      5  C   UNL     1       2.279   0.109   0.114  1.00  0.00     0.251 C 
ATOM      6  H   UNL     1       2.982   0.139   1.947  1.00  0.00     0.163 HD
BRANCH   5   7
ATOM      7  C   UNL     1       2.356   0.463  -1.330  1.00  0.00     0.039 A 
ATOM      8  C   UNL     1       3.525   0.662  -2.062  1.00  0.00     0.014 A 
ATOM      9  C   UNL     1       1.121   0.603  -1.995  1.00  0.00     0.014 A 
ATOM     10  C   UNL     1       3.464   1.058  -3.401  1.00  0.00     0.010 A 
ATOM     11  C   UNL     1       1.054   0.974  -3.336  1.00  0.00     0.010 A 
ATOM     12  C   UNL     1       2.230   1.228  -4.037  1.00  0.00    -0.014 A 
BRANCH  12  13
ATOM     13  C   UNL     1       2.217   1.531  -5.471  1.00  0.00     0.031 A 
ATOM     14  C   UNL     1       2.740   0.463  -6.377  1.00  0.00     0.074 A 
ATOM     15  C   UNL     1       1.598   2.597  -6.018  1.00  0.00     0.049 A 
ATOM     16  N   UNL     1       3.659   0.550  -7.287  1.00  0.00    -0.248 NA
ATOM     17  C   UNL     1       2.168  -0.886  -6.230  1.00  0.00     0.031 C 
ATOM     18  C   UNL     1       0.726   3.568  -5.354  1.00  0.00     0.029 A 
ATOM     19  N   UNL     1       1.526   2.960  -7.335  1.00  0.00    -0.354 N 
ATOM     20  C   UNL     1       3.692  -0.691  -7.925  1.00  0.00     0.074 A 
ATOM     21  C   UNL     1       2.814  -1.559  -7.181  1.00  0.00     0.031 C 
ATOM     22  C   UNL     1       0.043   4.263  -6.292  1.00  0.00     0.029 A 
ATOM     23  C   UNL     1       0.522   3.876  -7.610  1.00  0.00     0.049 A 
ATOM     24  H   UNL     1       2.131   2.603  -8.024  1.00  0.00     0.167 HD
ATOM     25  C   UNL     1       4.311  -0.896  -9.120  1.00  0.00     0.031 A 
ATOM     26  C   UNL     1       0.066   4.247  -8.830  1.00  0.00     0.031 A 
ATOM     27  C   UNL     1       5.246   0.141  -9.450  1.00  0.00     0.049 A 
ATOM     28  C   UNL     1       1.071   3.864  -9.844  1.00  0.00     0.074 A 
ATOM     29  C   UNL     1       6.395   0.644  -8.873  1.00  0.00     0.029 A 
ATOM     30  N   UNL     1       4.885   1.051 -10.411  1.00  0.00    -0.354 N 
ATOM     31  N   UNL     1       2.225   4.445  -9.985  1.00  0.00    -0.248 NA
ATOM     32  C   UNL     1       0.932   2.581 -10.513  1.00  0.00     0.031 C 
ATOM     33  C   UNL     1       6.377   2.038  -9.171  1.00  0.00     0.029 A 
ATOM     34  C   UNL     1       5.231   2.286  -9.928  1.00  0.00     0.049 A 
ATOM     35  H   UNL     1       4.461   0.856 -11.277  1.00  0.00     0.167 HD
ATOM     36  C   UNL     1       3.083   3.435 -10.389  1.00  0.00     0.074 A 
ATOM     37  C   UNL     1       2.210   2.350 -10.824  1.00  0.00     0.031 C 
ATOM     38  C   UNL     1       4.411   3.468 -10.071  1.00  0.00     0.031 A 
BRANCH  25  39
ATOM     39  C   UNL     1       3.835  -1.891 -10.148  1.00  0.00    -0.014 A 
ATOM     40  C   UNL     1       4.630  -2.150 -11.280  1.00  0.00     0.009 A 
ATOM     41  C   UNL     1       2.513  -2.376 -10.178  1.00  0.00     0.009 A 
ATOM     42  C   UNL     1       4.113  -2.817 -12.398  1.00  0.00     0.001 A 
ATOM     43  C   UNL     1       2.008  -3.080 -11.274  1.00  0.00     0.001 A 
ATOM     44  C   UNL     1       2.801  -3.280 -12.395  1.00  0.00     0.000 A 
ENDBRANCH  25  39
BRANCH  26  45
ATOM     45  C   UNL     1      -1.281   4.718  -9.213  1.00  0.00    -0.014 A 
ATOM     46  C   UNL     1      -1.486   5.420 -10.411  1.00  0.00     0.009 A 
ATOM     47  C   UNL     1      -2.415   4.255  -8.522  1.00  0.00     0.009 A 
ATOM     48  C   UNL     1      -2.778   5.625 -10.913  1.00  0.00     0.001 A 
ATOM     49  C   UNL     1      -3.705   4.465  -9.018  1.00  0.00     0.001 A 
ATOM     50  C   UNL     1      -3.885   5.138 -10.222  1.00  0.00     0.000 A 
ENDBRANCH  26  45
BRANCH  38  51
ATOM     51  C   UNL     1       4.975   4.753  -9.517  1.00  0.00    -0.014 A 
ATOM     52  C   UNL     1       4.485   5.353  -8.344  1.00  0.00     0.009 A 
ATOM     53  C   UNL     1       6.125   5.295 -10.110  1.00  0.00     0.009 A 
ATOM     54  C   UNL     1       5.101   6.487  -7.806  1.00  0.00     0.001 A 
ATOM     55  C   UNL     1       6.756   6.413  -9.558  1.00  0.00     0.001 A 
ATOM     56  C   UNL     1       6.239   7.013  -8.411  1.00  0.00     0.000 A 
ENDBRANCH  38  51
ENDBRANCH  12  13
ENDBRANCH   5   7
ENDBRANCH   2   3
ENDBRANCH   1   2
BRANCH   1  57
ATOM     57  C   UNL     1       4.691   2.887   1.745  1.00  0.00     0.118 C 
BRANCH  57  58
ATOM     58  N   UNL     1       5.177   2.712   3.099  1.00  0.00    -0.352 N 
ATOM     59  C   UNL     1       5.750   3.602   3.973  1.00  0.00     0.253 C 
ATOM     60  H   UNL     1       5.079   1.799   3.453  1.00  0.00     0.163 HD
ATOM     61  O   UNL     1       6.048   3.188   5.092  1.00  0.00    -0.269 OA
BRANCH  59  62
ATOM     62  C   UNL     1       6.121   4.954   3.554  1.00  0.00     0.074 A 
ATOM     63  C   UNL     1       5.236   5.974   3.193  1.00  0.00     0.148 A 
ATOM     64  C   UNL     1       7.479   5.468   3.654  1.00  0.00    -0.009 A 
ATOM     65  S   UNL     1       6.081   7.424   2.829  1.00  0.00    -0.120 S 
ATOM     66  C   UNL     1       7.574   6.783   3.251  1.00  0.00     0.064 A 
ATOM     67  C   UNL     1       8.714   4.751   4.132  1.00  0.00     0.099 C 
ATOM     68  C   UNL     1       8.824   7.611   3.253  1.00  0.00     0.308 C 
ATOM     69  C   UNL     1       9.874   5.748   4.386  1.00  0.00     0.265 C 
ATOM     70  N   UNL     1      10.021   6.755   3.316  1.00  0.00    -0.342 N 
ATOM     71  H   UNL     1      10.143   6.281   2.421  1.00  0.00     0.346 HD
ATOM     72  H   UNL     1      10.835   7.337   3.515  1.00  0.00     0.346 HD
BRANCH  63  73
ATOM     73  S   UNL     1       3.435   6.084   3.128  1.00  0.00     0.253 S 
ATOM     74  O   UNL     1       3.031   5.088   2.174  1.00  0.00    -0.206 OA
ATOM     75  O   UNL     1       3.034   6.000   4.523  1.00  0.00    -0.206 OA
BRANCH  73  76
ATOM     76  N   UNL     1       2.890   7.586   2.501  1.00  0.00    -0.197 NA
ATOM     77  C   UNL     1       2.959   8.733   3.434  1.00  0.00     0.102 C 
ATOM     78  C   UNL     1       3.192   7.802   1.059  1.00  0.00     0.102 C 
ATOM     79  C   UNL     1       2.452  10.027   2.816  1.00  0.00     0.017 C 
ATOM     80  C   UNL     1       2.726   9.149   0.530  1.00  0.00     0.017 C 
ATOM     81  C   UNL     1       3.103  10.281   1.468  1.00  0.00     0.003 C 
ENDBRANCH  73  76
ENDBRANCH  63  73
ENDBRANCH  59  62
ENDBRANCH  57  58
ENDBRANCH   1  57
TORSDOF 12
