REMARK SMILES CC[C@H](C(=O)NCCCNC(=O)c1ccc(-c2c3nc(c(-c4ccccc4)c4ccc([nH]4)c(-c4ccccc4)c4nc(c(-c5ccccc5)c5ccc2[nH]5)C=C4)C=C3)cc1)[C@@H]1CCOC2(CCOCC2)C1
REMARK SMILES IDX 8 1 7 2 6 3 4 4 5 5 3 7 2 8 1 9 61 10 62 11 71 12 63 13
REMARK SMILES IDX 65 14 64 15 66 16 70 17 67 18 69 19 68 20 9 21 10 22 11 23
REMARK SMILES IDX 12 25 13 26 14 27 60 28 15 29 59 30 16 31 17 32 18 33 53 34
REMARK SMILES IDX 19 35 58 36 52 37 54 38 20 39 57 40 51 41 50 42 21 44 43 45
REMARK SMILES IDX 28 46 42 47 29 48 32 49 41 50 55 51 30 52 31 53 40 55 56 56
REMARK SMILES IDX 33 57 22 58 23 59 27 60 24 61 26 62 25 63 44 64 45 65 49 66
REMARK SMILES IDX 46 67 48 68 47 69 34 70 35 71 39 72 36 73 38 74 37 75
REMARK H PARENT 6 6 10 24 54 43 32 54
REMARK Flexibility Score: inf
ROOT
ATOM      1  C   UNL     1       2.997  -1.782   0.376  1.00  0.00     0.042 C 
ENDROOT
BRANCH   1   2
ATOM      2  C   UNL     1       2.181  -0.785  -0.410  1.00  0.00     0.117 C 
BRANCH   2   3
ATOM      3  N   UNL     1       1.608   0.278   0.391  1.00  0.00    -0.356 N 
ATOM      4  C   UNL     1       0.827   1.319  -0.036  1.00  0.00     0.223 C 
ATOM      5  O   UNL     1       0.359   2.074   0.816  1.00  0.00    -0.275 OA
ATOM      6  H   UNL     1       1.803   0.249   1.355  1.00  0.00     0.163 HD
BRANCH   4   7
ATOM      7  C   UNL     1       0.580   1.496  -1.545  1.00  0.00     0.081 C 
BRANCH   7   8
ATOM      8  C   UNL     1      -0.147   0.250  -2.129  1.00  0.00     0.010 C 
ATOM      9  C   UNL     1      -1.261  -0.386  -1.311  1.00  0.00     0.005 C 
ENDBRANCH   7   8
BRANCH   7  10
ATOM     10  C   UNL     1      -0.002   2.929  -1.847  1.00  0.00     0.006 C 
ATOM     11  C   UNL     1      -1.518   3.037  -1.702  1.00  0.00     0.033 C 
ATOM     12  C   UNL     1       0.362   3.539  -3.228  1.00  0.00     0.040 C 
ATOM     13  C   UNL     1      -2.252   2.750  -3.012  1.00  0.00     0.161 C 
ATOM     14  C   UNL     1      -0.249   2.751  -4.401  1.00  0.00     0.073 C 
ATOM     15  O   UNL     1      -1.436   2.062  -3.962  1.00  0.00    -0.375 OA
ATOM     16  C   UNL     1       0.830   1.764  -4.918  1.00  0.00     0.064 C 
ATOM     17  C   UNL     1      -0.673   3.577  -5.625  1.00  0.00     0.064 C 
ATOM     18  C   UNL     1       0.299   0.891  -6.036  1.00  0.00     0.163 C 
ATOM     19  C   UNL     1      -1.157   2.622  -6.729  1.00  0.00     0.163 C 
ATOM     20  O   UNL     1      -0.125   1.713  -7.121  1.00  0.00    -0.381 OA
ENDBRANCH   7  10
ENDBRANCH   4   7
ENDBRANCH   2   3
ENDBRANCH   1   2
BRANCH   1  21
ATOM     21  C   UNL     1       2.159  -2.535   1.402  1.00  0.00     0.118 C 
BRANCH  21  22
ATOM     22  N   UNL     1       1.101  -3.370   0.839  1.00  0.00    -0.352 N 
ATOM     23  C   UNL     1       0.927  -4.744   0.857  1.00  0.00     0.251 C 
ATOM     24  H   UNL     1       0.395  -2.873   0.367  1.00  0.00     0.163 HD
ATOM     25  O   UNL     1      -0.005  -5.260   0.259  1.00  0.00    -0.269 OA
BRANCH  23  26
ATOM     26  C   UNL     1       1.914  -5.582   1.564  1.00  0.00     0.039 A 
ATOM     27  C   UNL     1       2.427  -6.719   0.938  1.00  0.00     0.014 A 
ATOM     28  C   UNL     1       2.400  -5.188   2.805  1.00  0.00     0.014 A 
ATOM     29  C   UNL     1       3.522  -7.379   1.504  1.00  0.00     0.010 A 
ATOM     30  C   UNL     1       3.582  -5.736   3.275  1.00  0.00     0.010 A 
ATOM     31  C   UNL     1       4.154  -6.847   2.640  1.00  0.00    -0.014 A 
BRANCH  31  32
ATOM     32  C   UNL     1       5.391  -7.435   3.217  1.00  0.00     0.031 A 
ATOM     33  C   UNL     1       5.414  -7.820   4.676  1.00  0.00     0.074 A 
ATOM     34  C   UNL     1       6.518  -7.518   2.481  1.00  0.00     0.049 A 
ATOM     35  N   UNL     1       6.428  -8.174   5.423  1.00  0.00    -0.248 NA
ATOM     36  C   UNL     1       4.137  -7.732   5.407  1.00  0.00     0.031 C 
ATOM     37  C   UNL     1       6.661  -7.113   1.079  1.00  0.00     0.029 A 
ATOM     38  N   UNL     1       7.770  -7.967   2.820  1.00  0.00    -0.354 N 
ATOM     39  C   UNL     1       5.921  -8.283   6.713  1.00  0.00     0.074 A 
ATOM     40  C   UNL     1       4.530  -7.899   6.659  1.00  0.00     0.031 C 
ATOM     41  C   UNL     1       7.913  -7.375   0.669  1.00  0.00     0.029 A 
ATOM     42  C   UNL     1       8.674  -7.922   1.786  1.00  0.00     0.049 A 
ATOM     43  H   UNL     1       8.000  -8.291   3.721  1.00  0.00     0.167 HD
ATOM     44  C   UNL     1       6.545  -8.699   7.839  1.00  0.00     0.031 A 
ATOM     45  C   UNL     1       9.970  -8.284   1.744  1.00  0.00     0.031 A 
ATOM     46  C   UNL     1       7.901  -9.169   7.875  1.00  0.00     0.049 A 
ATOM     47  C   UNL     1      10.615  -8.835   2.986  1.00  0.00     0.074 A 
ATOM     48  C   UNL     1       8.601  -9.703   8.942  1.00  0.00     0.029 A 
ATOM     49  N   UNL     1       8.752  -9.188   6.782  1.00  0.00    -0.354 N 
ATOM     50  N   UNL     1      10.105  -8.987   4.184  1.00  0.00    -0.248 NA
ATOM     51  C   UNL     1      12.011  -9.281   2.864  1.00  0.00     0.031 C 
ATOM     52  C   UNL     1       9.886 -10.029   8.498  1.00  0.00     0.029 A 
ATOM     53  C   UNL     1       9.970  -9.732   7.147  1.00  0.00     0.049 A 
ATOM     54  H   UNL     1       8.524  -8.864   5.881  1.00  0.00     0.167 HD
ATOM     55  C   UNL     1      11.103  -9.579   4.947  1.00  0.00     0.074 A 
ATOM     56  C   UNL     1      12.243  -9.768   4.075  1.00  0.00     0.031 C 
ATOM     57  C   UNL     1      11.079  -9.933   6.254  1.00  0.00     0.031 A 
BRANCH  44  58
ATOM     58  C   UNL     1       5.750  -8.691   9.114  1.00  0.00    -0.014 A 
ATOM     59  C   UNL     1       4.694  -9.593   9.320  1.00  0.00     0.009 A 
ATOM     60  C   UNL     1       6.074  -7.780  10.131  1.00  0.00     0.009 A 
ATOM     61  C   UNL     1       3.950  -9.553  10.500  1.00  0.00     0.001 A 
ATOM     62  C   UNL     1       5.348  -7.764  11.324  1.00  0.00     0.001 A 
ATOM     63  C   UNL     1       4.280  -8.642  11.502  1.00  0.00     0.000 A 
ENDBRANCH  44  58
BRANCH  45  64
ATOM     64  C   UNL     1      10.740  -8.185   0.476  1.00  0.00    -0.014 A 
ATOM     65  C   UNL     1      11.092  -9.348  -0.229  1.00  0.00     0.009 A 
ATOM     66  C   UNL     1      11.146  -6.940  -0.025  1.00  0.00     0.009 A 
ATOM     67  C   UNL     1      11.866  -9.267  -1.388  1.00  0.00     0.001 A 
ATOM     68  C   UNL     1      11.898  -6.861  -1.200  1.00  0.00     0.001 A 
ATOM     69  C   UNL     1      12.267  -8.024  -1.874  1.00  0.00     0.000 A 
ENDBRANCH  45  64
BRANCH  57  70
ATOM     70  C   UNL     1      12.297 -10.615   6.803  1.00  0.00    -0.014 A 
ATOM     71  C   UNL     1      13.473  -9.900   7.074  1.00  0.00     0.009 A 
ATOM     72  C   UNL     1      12.245 -11.986   7.099  1.00  0.00     0.009 A 
ATOM     73  C   UNL     1      14.586 -10.554   7.605  1.00  0.00     0.001 A 
ATOM     74  C   UNL     1      13.350 -12.631   7.654  1.00  0.00     0.001 A 
ATOM     75  C   UNL     1      14.521 -11.917   7.899  1.00  0.00     0.000 A 
ENDBRANCH  57  70
ENDBRANCH  31  32
ENDBRANCH  23  26
ENDBRANCH  21  22
ENDBRANCH   1  21
TORSDOF 12
