REMARK SMILES CC[NH2+][C@@]1(C(=O)NCCCNC(=O)c2ccc(-c3c4nc(c(-c5ccccc5)c5ccc([nH]5)c(-c5ccccc5)c5nc(c(-c6ccccc6)c6ccc3[nH]6)C=C5)C=C4)cc2)CCC[C@@H](Sc2ncc(C)cn2)C1
REMARK SMILES IDX 9 1 8 2 7 3 5 4 6 5 4 7 62 8 74 9 63 10 65 11 64 12 3 13
REMARK SMILES IDX 2 16 1 17 66 18 67 19 68 20 73 21 69 22 72 23 70 24 71 25
REMARK SMILES IDX 10 26 11 27 12 28 13 30 14 31 15 32 61 33 16 34 60 35 17 36
REMARK SMILES IDX 18 37 19 38 54 39 20 40 59 41 53 42 55 43 21 44 58 45 52 46
REMARK SMILES IDX 51 47 22 49 44 50 29 51 43 52 30 53 33 54 42 55 56 56 31 57
REMARK SMILES IDX 32 58 41 60 57 61 34 62 23 63 24 64 28 65 25 66 27 67 26 68
REMARK SMILES IDX 45 69 46 70 50 71 47 72 49 73 48 74 35 75 36 76 40 77 37 78
REMARK SMILES IDX 39 79 38 80
REMARK H PARENT 7 6 3 14 3 15 11 29 55 48 33 59
REMARK Flexibility Score: inf
ROOT
ATOM      1  C   UNL     1       0.514  -0.225  -7.696  1.00  0.00     0.042 C 
ENDROOT
BRANCH   1   2
ATOM      2  C   UNL     1       0.842  -1.443  -6.836  1.00  0.00     0.118 C 
BRANCH   2   3
ATOM      3  N   UNL     1       1.726  -1.124  -5.736  1.00  0.00    -0.351 N 
ATOM      4  C   UNL     1       1.598  -0.993  -4.396  1.00  0.00     0.281 C 
ATOM      5  O   UNL     1       2.684  -0.778  -3.826  1.00  0.00    -0.268 OA
ATOM      6  H   UNL     1       2.649  -0.961  -6.038  1.00  0.00     0.163 HD
BRANCH   4   7
ATOM      7  C   UNL     1       0.269  -1.078  -3.510  1.00  0.00     0.176 C 
ATOM      8  C   UNL     1      -0.493  -2.421  -3.603  1.00  0.00     0.079 C 
ATOM      9  C   UNL     1      -0.662   0.129  -3.738  1.00  0.00     0.094 C 
ATOM     10  C   UNL     1      -1.649  -2.549  -4.598  1.00  0.00     0.008 C 
ATOM     11  C   UNL     1      -1.593  -0.013  -4.932  1.00  0.00     0.061 C 
ATOM     12  C   UNL     1      -2.451  -1.274  -4.861  1.00  0.00     0.015 C 
BRANCH   7  13
ATOM     13  N   UNL     1       0.804  -1.131  -2.083  1.00  0.00    -0.334 N 
ATOM     14  H   UNL     1       0.331  -1.901  -1.609  1.00  0.00     0.347 HD
ATOM     15  H   UNL     1       1.813  -1.235  -2.189  1.00  0.00     0.347 HD
BRANCH  13  16
ATOM     16  C   UNL     1       0.641   0.059  -1.250  1.00  0.00     0.257 C 
ATOM     17  C   UNL     1       1.348  -0.136   0.085  1.00  0.00     0.071 C 
ENDBRANCH  13  16
ENDBRANCH   7  13
BRANCH  11  18
ATOM     18  S   UNL     1      -2.529   1.525  -5.301  1.00  0.00    -0.083 SA
BRANCH  18  19
ATOM     19  C   UNL     1      -3.748   1.484  -4.024  1.00  0.00     0.187 A 
ATOM     20  N   UNL     1      -3.331   1.573  -2.753  1.00  0.00    -0.231 NA
ATOM     21  N   UNL     1      -5.021   1.313  -4.410  1.00  0.00    -0.231 NA
ATOM     22  C   UNL     1      -4.274   1.441  -1.805  1.00  0.00     0.119 A 
ATOM     23  C   UNL     1      -5.927   1.202  -3.422  1.00  0.00     0.119 A 
ATOM     24  C   UNL     1      -5.608   1.239  -2.081  1.00  0.00    -0.014 A 
ATOM     25  C   UNL     1      -6.638   1.082  -1.019  1.00  0.00     0.048 C 
ENDBRANCH  18  19
ENDBRANCH  11  18
ENDBRANCH   4   7
ENDBRANCH   2   3
ENDBRANCH   1   2
BRANCH   1  26
ATOM     26  C   UNL     1       1.416  -0.075  -8.907  1.00  0.00     0.118 C 
BRANCH  26  27
ATOM     27  N   UNL     1       1.160  -1.103  -9.911  1.00  0.00    -0.352 N 
ATOM     28  C   UNL     1       0.561  -1.024 -11.143  1.00  0.00     0.251 C 
ATOM     29  H   UNL     1       1.469  -2.004  -9.662  1.00  0.00     0.163 HD
ATOM     30  O   UNL     1       0.239  -2.064 -11.722  1.00  0.00    -0.269 OA
BRANCH  28  31
ATOM     31  C   UNL     1       0.279   0.282 -11.776  1.00  0.00     0.039 A 
ATOM     32  C   UNL     1      -0.887   0.435 -12.534  1.00  0.00     0.014 A 
ATOM     33  C   UNL     1       1.165   1.352 -11.651  1.00  0.00     0.014 A 
ATOM     34  C   UNL     1      -1.199   1.679 -13.089  1.00  0.00     0.010 A 
ATOM     35  C   UNL     1       0.801   2.614 -12.104  1.00  0.00     0.010 A 
ATOM     36  C   UNL     1      -0.383   2.792 -12.834  1.00  0.00    -0.014 A 
BRANCH  36  37
ATOM     37  C   UNL     1      -0.739   4.151 -13.313  1.00  0.00     0.031 A 
ATOM     38  C   UNL     1       0.187   4.893 -14.239  1.00  0.00     0.074 A 
ATOM     39  C   UNL     1      -1.851   4.750 -12.845  1.00  0.00     0.049 A 
ATOM     40  N   UNL     1       0.104   6.122 -14.681  1.00  0.00    -0.248 NA
ATOM     41  C   UNL     1       1.383   4.169 -14.704  1.00  0.00     0.031 C 
ATOM     42  C   UNL     1      -2.808   4.154 -11.909  1.00  0.00     0.029 A 
ATOM     43  N   UNL     1      -2.360   6.002 -13.084  1.00  0.00    -0.354 N 
ATOM     44  C   UNL     1       1.241   6.323 -15.453  1.00  0.00     0.074 A 
ATOM     45  C   UNL     1       2.026   5.111 -15.376  1.00  0.00     0.031 C 
ATOM     46  C   UNL     1      -3.801   5.027 -11.678  1.00  0.00     0.029 A 
ATOM     47  C   UNL     1      -3.525   6.261 -12.403  1.00  0.00     0.049 A 
ATOM     48  H   UNL     1      -1.931   6.652 -13.686  1.00  0.00     0.167 HD
ATOM     49  C   UNL     1       1.592   7.411 -16.179  1.00  0.00     0.031 A 
ATOM     50  C   UNL     1      -4.280   7.375 -12.354  1.00  0.00     0.031 A 
ATOM     51  C   UNL     1       0.803   8.611 -16.262  1.00  0.00     0.049 A 
ATOM     52  C   UNL     1      -3.853   8.580 -13.146  1.00  0.00     0.074 A 
ATOM     53  C   UNL     1       1.037   9.745 -17.018  1.00  0.00     0.029 A 
ATOM     54  N   UNL     1      -0.370   8.832 -15.558  1.00  0.00    -0.354 N 
ATOM     55  N   UNL     1      -2.813   8.727 -13.931  1.00  0.00    -0.248 NA
ATOM     56  C   UNL     1      -4.708   9.771 -13.047  1.00  0.00     0.031 C 
ATOM     57  C   UNL     1       0.038  10.678 -16.724  1.00  0.00     0.029 A 
ATOM     58  C   UNL     1      -0.853  10.101 -15.834  1.00  0.00     0.049 A 
ATOM     59  H   UNL     1      -0.797   8.184 -14.952  1.00  0.00     0.167 HD
ATOM     60  C   UNL     1      -2.898  10.019 -14.433  1.00  0.00     0.074 A 
ATOM     61  C   UNL     1      -4.106  10.602 -13.885  1.00  0.00     0.031 C 
ATOM     62  C   UNL     1      -2.051  10.667 -15.270  1.00  0.00     0.031 A 
BRANCH  49  63
ATOM     63  C   UNL     1       2.893   7.354 -16.933  1.00  0.00    -0.014 A 
ATOM     64  C   UNL     1       3.060   6.504 -18.038  1.00  0.00     0.009 A 
ATOM     65  C   UNL     1       3.957   8.187 -16.553  1.00  0.00     0.009 A 
ATOM     66  C   UNL     1       4.278   6.460 -18.722  1.00  0.00     0.001 A 
ATOM     67  C   UNL     1       5.162   8.165 -17.258  1.00  0.00     0.001 A 
ATOM     68  C   UNL     1       5.325   7.295 -18.335  1.00  0.00     0.000 A 
ENDBRANCH  49  63
BRANCH  50  69
ATOM     69  C   UNL     1      -5.514   7.406 -11.526  1.00  0.00    -0.014 A 
ATOM     70  C   UNL     1      -6.778   7.469 -12.133  1.00  0.00     0.009 A 
ATOM     71  C   UNL     1      -5.438   7.376 -10.124  1.00  0.00     0.009 A 
ATOM     72  C   UNL     1      -7.936   7.529 -11.354  1.00  0.00     0.001 A 
ATOM     73  C   UNL     1      -6.599   7.403  -9.349  1.00  0.00     0.001 A 
ATOM     74  C   UNL     1      -7.846   7.490  -9.964  1.00  0.00     0.000 A 
ENDBRANCH  50  69
BRANCH  62  75
ATOM     75  C   UNL     1      -2.413  12.074 -15.655  1.00  0.00    -0.014 A 
ATOM     76  C   UNL     1      -2.318  13.127 -14.733  1.00  0.00     0.009 A 
ATOM     77  C   UNL     1      -2.815  12.354 -16.971  1.00  0.00     0.009 A 
ATOM     78  C   UNL     1      -2.651  14.429 -15.111  1.00  0.00     0.001 A 
ATOM     79  C   UNL     1      -3.116  13.661 -17.355  1.00  0.00     0.001 A 
ATOM     80  C   UNL     1      -3.044  14.695 -16.423  1.00  0.00     0.000 A 
ENDBRANCH  62  75
ENDBRANCH  36  37
ENDBRANCH  28  31
ENDBRANCH  26  27
ENDBRANCH   1  26
TORSDOF 14
