REMARK SMILES Cc1ccc2[nH]cc([C@@H](C(=O)NCCCNC(=O)c3ccc(-c4c5nc(c(-c6ccccc6)c6ccc([nH]6)c(-c6ccccc6)c6nc(c(-c7ccccc7)c7ccc4[nH]7)C=C6)C=C5)cc3)[NH+]3CCN(c4ccc(F)cc4)CC3)c2c1
REMARK SMILES IDX 14 1 13 2 12 3 10 4 11 5 9 7 8 8 1 9 2 10 3 11 81 12 4 13
REMARK SMILES IDX 80 14 5 15 6 16 7 17 67 19 68 20 79 21 69 23 78 24 70 25
REMARK SMILES IDX 71 26 72 27 77 28 73 29 76 30 74 31 75 32 15 33 16 34 17 35
REMARK SMILES IDX 18 37 19 38 20 39 66 40 21 41 65 42 22 43 23 44 24 45 59 46
REMARK SMILES IDX 25 47 64 48 58 49 60 50 26 51 63 52 57 53 56 54 27 56 49 57
REMARK SMILES IDX 34 58 48 59 35 60 38 61 47 62 61 63 36 64 37 65 46 67 62 68
REMARK SMILES IDX 39 69 28 70 29 71 33 72 30 73 32 74 31 75 50 76 51 77 55 78
REMARK SMILES IDX 52 79 54 80 53 81 40 82 41 83 45 84 42 85 44 86 43 87
REMARK H PARENT 12 6 6 18 67 22 16 36 60 55 38 66
REMARK Flexibility Score: inf
ROOT
ATOM      1  C   UNL     1      -0.603  -1.486   3.578  1.00  0.00     0.042 C 
ENDROOT
BRANCH   1   2
ATOM      2  C   UNL     1      -0.608  -2.853   2.899  1.00  0.00     0.118 C 
BRANCH   2   3
ATOM      3  N   UNL     1      -1.947  -3.312   2.580  1.00  0.00    -0.351 N 
ATOM      4  C   UNL     1      -2.656  -3.220   1.408  1.00  0.00     0.283 C 
ATOM      5  O   UNL     1      -3.809  -3.659   1.453  1.00  0.00    -0.268 OA
ATOM      6  H   UNL     1      -2.420  -3.758   3.319  1.00  0.00     0.163 HD
BRANCH   4   7
ATOM      7  C   UNL     1      -1.977  -2.630   0.127  1.00  0.00     0.307 C 
BRANCH   7   8
ATOM      8  C   UNL     1      -1.702  -1.152   0.253  1.00  0.00     0.044 A 
ATOM      9  C   UNL     1       3.379  -0.632  -0.258  1.00  0.00     0.044 C 
ATOM     10  C   UNL     1       1.981  -0.100  -0.127  1.00  0.00    -0.050 A 
ATOM     11  C   UNL     1       1.748   1.269   0.023  1.00  0.00     0.005 A 
ATOM     12  C   UNL     1       0.898  -0.995  -0.112  1.00  0.00     0.014 A 
ATOM     13  C   UNL     1       0.458   1.770   0.224  1.00  0.00     0.027 A 
ATOM     14  C   UNL     1      -0.413  -0.520   0.118  1.00  0.00     0.009 A 
ATOM     15  C   UNL     1      -0.594   0.851   0.296  1.00  0.00     0.046 A 
ATOM     16  N   UNL     1      -1.928   1.054   0.551  1.00  0.00    -0.361 N 
ATOM     17  C   UNL     1      -2.584  -0.145   0.608  1.00  0.00     0.094 A 
ATOM     18  H   UNL     1      -2.351   1.934   0.675  1.00  0.00     0.166 HD
ENDBRANCH   7   8
BRANCH   7  19
ATOM     19  N   UNL     1      -2.671  -3.009  -1.127  1.00  0.00    -0.318 N 
ATOM     20  C   UNL     1      -4.069  -2.597  -1.324  1.00  0.00     0.284 C 
ATOM     21  C   UNL     1      -1.897  -2.788  -2.362  1.00  0.00     0.284 C 
ATOM     22  H   UNL     1      -2.732  -4.011  -0.944  1.00  0.00     0.349 HD
ATOM     23  C   UNL     1      -4.332  -1.249  -2.028  1.00  0.00     0.178 C 
ATOM     24  C   UNL     1      -2.055  -1.407  -3.043  1.00  0.00     0.178 C 
ATOM     25  N   UNL     1      -3.471  -1.043  -3.199  1.00  0.00    -0.360 N 
BRANCH  25  26
ATOM     26  C   UNL     1      -3.701   0.111  -3.948  1.00  0.00     0.037 A 
ATOM     27  C   UNL     1      -3.851   1.378  -3.360  1.00  0.00     0.029 A 
ATOM     28  C   UNL     1      -3.784   0.014  -5.343  1.00  0.00     0.029 A 
ATOM     29  C   UNL     1      -4.113   2.506  -4.139  1.00  0.00     0.041 A 
ATOM     30  C   UNL     1      -4.050   1.139  -6.127  1.00  0.00     0.041 A 
ATOM     31  C   UNL     1      -4.218   2.374  -5.516  1.00  0.00     0.123 A 
ATOM     32  F   UNL     1      -4.483   3.453  -6.264  1.00  0.00    -0.207 F 
ENDBRANCH  25  26
ENDBRANCH   7  19
ENDBRANCH   4   7
ENDBRANCH   2   3
ENDBRANCH   1   2
BRANCH   1  33
ATOM     33  C   UNL     1      -1.322  -1.447   4.920  1.00  0.00     0.118 C 
BRANCH  33  34
ATOM     34  N   UNL     1      -0.653  -2.247   5.931  1.00  0.00    -0.352 N 
ATOM     35  C   UNL     1      -0.146  -1.887   7.154  1.00  0.00     0.251 C 
ATOM     36  H   UNL     1      -0.547  -3.198   5.703  1.00  0.00     0.163 HD
ATOM     37  O   UNL     1       0.567  -2.680   7.763  1.00  0.00    -0.269 OA
BRANCH  35  38
ATOM     38  C   UNL     1      -0.434  -0.560   7.745  1.00  0.00     0.039 A 
ATOM     39  C   UNL     1       0.581   0.077   8.466  1.00  0.00     0.014 A 
ATOM     40  C   UNL     1      -1.698   0.031   7.659  1.00  0.00     0.014 A 
ATOM     41  C   UNL     1       0.342   1.315   9.064  1.00  0.00     0.010 A 
ATOM     42  C   UNL     1      -1.915   1.302   8.193  1.00  0.00     0.010 A 
ATOM     43  C   UNL     1      -0.902   1.950   8.914  1.00  0.00    -0.014 A 
BRANCH  43  44
ATOM     44  C   UNL     1      -1.143   3.285   9.516  1.00  0.00     0.031 A 
ATOM     45  C   UNL     1      -2.144   3.460  10.625  1.00  0.00     0.074 A 
ATOM     46  C   UNL     1      -0.472   4.353   9.044  1.00  0.00     0.049 A 
ATOM     47  N   UNL     1      -2.448   4.543  11.297  1.00  0.00    -0.248 NA
ATOM     48  C   UNL     1      -2.921   2.274  11.016  1.00  0.00     0.031 C 
ATOM     49  C   UNL     1       0.483   4.330   7.934  1.00  0.00     0.029 A 
ATOM     50  N   UNL     1      -0.487   5.666   9.443  1.00  0.00    -0.354 N 
ATOM     51  C   UNL     1      -3.459   4.172  12.175  1.00  0.00     0.074 A 
ATOM     52  C   UNL     1      -3.750   2.778  11.918  1.00  0.00     0.031 C 
ATOM     53  C   UNL     1       0.991   5.561   7.766  1.00  0.00     0.029 A 
ATOM     54  C   UNL     1       0.381   6.463   8.737  1.00  0.00     0.049 A 
ATOM     55  H   UNL     1      -1.064   6.004  10.165  1.00  0.00     0.167 HD
ATOM     56  C   UNL     1      -4.077   4.917  13.123  1.00  0.00     0.031 A 
ATOM     57  C   UNL     1       0.665   7.773   8.865  1.00  0.00     0.031 A 
ATOM     58  C   UNL     1      -3.780   6.299  13.390  1.00  0.00     0.049 A 
ATOM     59  C   UNL     1      -0.007   8.570   9.945  1.00  0.00     0.074 A 
ATOM     60  C   UNL     1      -4.304   7.121  14.373  1.00  0.00     0.029 A 
ATOM     61  N   UNL     1      -2.879   7.065  12.666  1.00  0.00    -0.354 N 
ATOM     62  N   UNL     1      -0.898   8.182  10.824  1.00  0.00    -0.248 NA
ATOM     63  C   UNL     1       0.384   9.982  10.064  1.00  0.00     0.031 C 
ATOM     64  C   UNL     1      -3.752   8.397  14.216  1.00  0.00     0.029 A 
ATOM     65  C   UNL     1      -2.846   8.355  13.168  1.00  0.00     0.049 A 
ATOM     66  H   UNL     1      -2.342   6.739  11.908  1.00  0.00     0.167 HD
ATOM     67  C   UNL     1      -1.155   9.293  11.617  1.00  0.00     0.074 A 
ATOM     68  C   UNL     1      -0.315  10.364  11.123  1.00  0.00     0.031 C 
ATOM     69  C   UNL     1      -2.010   9.412  12.663  1.00  0.00     0.031 A 
BRANCH  56  70
ATOM     70  C   UNL     1      -5.147   4.245  13.940  1.00  0.00    -0.014 A 
ATOM     71  C   UNL     1      -4.828   3.259  14.889  1.00  0.00     0.009 A 
ATOM     72  C   UNL     1      -6.489   4.620  13.777  1.00  0.00     0.009 A 
ATOM     73  C   UNL     1      -5.836   2.636  15.627  1.00  0.00     0.001 A 
ATOM     74  C   UNL     1      -7.492   4.015  14.538  1.00  0.00     0.001 A 
ATOM     75  C   UNL     1      -7.166   3.016  15.454  1.00  0.00     0.000 A 
ENDBRANCH  56  70
BRANCH  57  76
ATOM     76  C   UNL     1       1.672   8.397   7.970  1.00  0.00    -0.014 A 
ATOM     77  C   UNL     1       2.942   8.740   8.457  1.00  0.00     0.009 A 
ATOM     78  C   UNL     1       1.375   8.636   6.619  1.00  0.00     0.009 A 
ATOM     79  C   UNL     1       3.888   9.328   7.614  1.00  0.00     0.001 A 
ATOM     80  C   UNL     1       2.331   9.200   5.773  1.00  0.00     0.001 A 
ATOM     81  C   UNL     1       3.584   9.552   6.273  1.00  0.00     0.000 A 
ENDBRANCH  57  76
BRANCH  69  82
ATOM     82  C   UNL     1      -2.054  10.742  13.360  1.00  0.00    -0.014 A 
ATOM     83  C   UNL     1      -2.657  11.859  12.763  1.00  0.00     0.009 A 
ATOM     84  C   UNL     1      -1.508  10.869  14.647  1.00  0.00     0.009 A 
ATOM     85  C   UNL     1      -2.679  13.088  13.427  1.00  0.00     0.001 A 
ATOM     86  C   UNL     1      -1.556  12.091  15.319  1.00  0.00     0.001 A 
ATOM     87  C   UNL     1      -2.132  13.201  14.704  1.00  0.00     0.000 A 
ENDBRANCH  69  82
ENDBRANCH  43  44
ENDBRANCH  35  38
ENDBRANCH  33  34
ENDBRANCH   1  33
TORSDOF 13
