REMARK SMILES CCc1cc(C(=O)N[C@@H]2C=C[C@H](C(=O)NCCCNC(=O)c3ccc(-c4c5nc(c(-c6ccccc6)c6ccc([nH]6)c(-c6ccccc6)c6nc(c(-c7ccccc7)c7ccc4[nH]7)C=C6)C=C5)cc3)C2)n(C)n1
REMARK SMILES IDX 16 1 15 2 13 3 14 4 12 6 9 7 10 8 70 9 11 10 8 11 6 12 7 13
REMARK SMILES IDX 5 15 3 16 4 17 73 18 71 19 72 20 2 21 1 22 17 23 18 24 19 25
REMARK SMILES IDX 20 26 21 28 22 29 23 30 69 31 24 32 68 33 25 34 26 35 27 36
REMARK SMILES IDX 62 37 28 38 67 39 61 40 63 41 29 42 66 43 60 44 59 45 30 47
REMARK SMILES IDX 52 48 37 49 51 50 38 51 41 52 50 53 64 54 39 55 40 56 49 58
REMARK SMILES IDX 65 59 42 60 31 61 32 62 36 63 33 64 35 65 34 66 53 67 54 68
REMARK SMILES IDX 58 69 55 70 57 71 56 72 43 73 44 74 48 75 45 76 47 77 46 78
REMARK H PARENT 15 5 8 14 19 27 63 46 41 57
REMARK Flexibility Score: inf
ROOT
ATOM      1  C   UNL     1       8.336   6.129   0.454  1.00  0.00     0.117 C 
ENDROOT
BRANCH   1   2
ATOM      2  N   UNL     1       7.525   5.560  -0.605  1.00  0.00    -0.356 N 
ATOM      3  C   UNL     1       6.165   5.503  -0.685  1.00  0.00     0.227 C 
ATOM      4  O   UNL     1       5.654   4.920  -1.638  1.00  0.00    -0.274 OA
ATOM      5  H   UNL     1       8.018   5.166  -1.360  1.00  0.00     0.163 HD
BRANCH   3   6
ATOM      6  C   UNL     1       5.372   6.211   0.405  1.00  0.00     0.103 C 
ATOM      7  C   UNL     1       3.050   6.730  -0.201  1.00  0.00     0.106 C 
ATOM      8  C   UNL     1       3.945   7.929  -0.309  1.00  0.00    -0.006 C 
ATOM      9  C   UNL     1       3.940   5.708   0.504  1.00  0.00     0.047 C 
ATOM     10  C   UNL     1       5.206   7.652   0.036  1.00  0.00    -0.016 C 
BRANCH   7  11
ATOM     11  N   UNL     1       2.578   6.404  -1.521  1.00  0.00    -0.344 N 
ATOM     12  C   UNL     1       1.935   5.334  -2.079  1.00  0.00     0.270 C 
ATOM     13  O   UNL     1       1.526   5.520  -3.229  1.00  0.00    -0.268 OA
ATOM     14  H   UNL     1       2.762   7.116  -2.175  1.00  0.00     0.164 HD
BRANCH  12  15
ATOM     15  C   UNL     1       1.825   4.035  -1.458  1.00  0.00     0.126 A 
ATOM     16  C   UNL     1       1.814   1.804  -1.223  1.00  0.00     0.063 A 
ATOM     17  C   UNL     1       1.969   2.842  -2.157  1.00  0.00     0.059 A 
ATOM     18  N   UNL     1       1.539   2.292  -0.012  1.00  0.00    -0.178 NA
ATOM     19  N   UNL     1       1.489   3.631  -0.190  1.00  0.00    -0.263 N 
ATOM     20  C   UNL     1       1.046   4.394   0.949  1.00  0.00     0.174 C 
BRANCH  16  21
ATOM     21  C   UNL     1       1.885   0.334  -1.465  1.00  0.00     0.055 C 
ATOM     22  C   UNL     1       2.809  -0.394  -0.500  1.00  0.00     0.011 C 
ENDBRANCH  16  21
ENDBRANCH  12  15
ENDBRANCH   7  11
ENDBRANCH   3   6
ENDBRANCH   1   2
BRANCH   1  23
ATOM     23  C   UNL     1       9.095   5.042   1.196  1.00  0.00     0.042 C 
BRANCH  23  24
ATOM     24  C   UNL     1      10.060   4.288   0.292  1.00  0.00     0.118 C 
BRANCH  24  25
ATOM     25  N   UNL     1      10.962   5.192  -0.415  1.00  0.00    -0.352 N 
ATOM     26  C   UNL     1      12.306   5.398  -0.245  1.00  0.00     0.251 C 
ATOM     27  H   UNL     1      10.541   5.737  -1.119  1.00  0.00     0.163 HD
ATOM     28  O   UNL     1      12.842   6.402  -0.695  1.00  0.00    -0.269 OA
BRANCH  26  29
ATOM     29  C   UNL     1      13.095   4.392   0.485  1.00  0.00     0.039 A 
ATOM     30  C   UNL     1      14.081   4.806   1.381  1.00  0.00     0.014 A 
ATOM     31  C   UNL     1      12.848   3.033   0.276  1.00  0.00     0.014 A 
ATOM     32  C   UNL     1      14.781   3.849   2.113  1.00  0.00     0.010 A 
ATOM     33  C   UNL     1      13.461   2.092   1.085  1.00  0.00     0.010 A 
ATOM     34  C   UNL     1      14.450   2.489   1.995  1.00  0.00    -0.014 A 
BRANCH  34  35
ATOM     35  C   UNL     1      15.144   1.450   2.789  1.00  0.00     0.031 A 
ATOM     36  C   UNL     1      15.930   0.377   2.090  1.00  0.00     0.074 A 
ATOM     37  C   UNL     1      15.006   1.435   4.128  1.00  0.00     0.049 A 
ATOM     38  N   UNL     1      16.562  -0.648   2.601  1.00  0.00    -0.248 NA
ATOM     39  C   UNL     1      15.986   0.446   0.620  1.00  0.00     0.031 C 
ATOM     40  C   UNL     1      14.235   2.401   4.914  1.00  0.00     0.029 A 
ATOM     41  N   UNL     1      15.515   0.574   5.064  1.00  0.00    -0.354 N 
ATOM     42  C   UNL     1      17.072  -1.350   1.516  1.00  0.00     0.074 A 
ATOM     43  C   UNL     1      16.614  -0.679   0.321  1.00  0.00     0.031 C 
ATOM     44  C   UNL     1      14.363   2.106   6.217  1.00  0.00     0.029 A 
ATOM     45  C   UNL     1      15.180   0.905   6.353  1.00  0.00     0.049 A 
ATOM     46  H   UNL     1      16.067  -0.208   4.834  1.00  0.00     0.167 HD
ATOM     47  C   UNL     1      17.874  -2.441   1.513  1.00  0.00     0.031 A 
ATOM     48  C   UNL     1      15.501   0.308   7.515  1.00  0.00     0.031 A 
ATOM     49  C   UNL     1      18.323  -3.107   2.705  1.00  0.00     0.049 A 
ATOM     50  C   UNL     1      16.360  -0.924   7.488  1.00  0.00     0.074 A 
ATOM     51  C   UNL     1      19.173  -4.192   2.821  1.00  0.00     0.029 A 
ATOM     52  N   UNL     1      17.948  -2.750   3.993  1.00  0.00    -0.354 N 
ATOM     53  N   UNL     1      16.892  -1.540   6.459  1.00  0.00    -0.248 NA
ATOM     54  C   UNL     1      16.671  -1.537   8.786  1.00  0.00     0.031 C 
ATOM     55  C   UNL     1      19.263  -4.530   4.176  1.00  0.00     0.029 A 
ATOM     56  C   UNL     1      18.527  -3.612   4.909  1.00  0.00     0.049 A 
ATOM     57  H   UNL     1      17.359  -1.996   4.221  1.00  0.00     0.167 HD
ATOM     58  C   UNL     1      17.628  -2.593   6.987  1.00  0.00     0.074 A 
ATOM     59  C   UNL     1      17.483  -2.522   8.427  1.00  0.00     0.031 C 
ATOM     60  C   UNL     1      18.364  -3.530   6.339  1.00  0.00     0.031 A 
BRANCH  47  61
ATOM     61  C   UNL     1      18.291  -2.980   0.171  1.00  0.00    -0.014 A 
ATOM     62  C   UNL     1      19.126  -2.241  -0.686  1.00  0.00     0.009 A 
ATOM     63  C   UNL     1      17.834  -4.237  -0.252  1.00  0.00     0.009 A 
ATOM     64  C   UNL     1      19.444  -2.724  -1.958  1.00  0.00     0.001 A 
ATOM     65  C   UNL     1      18.185  -4.734  -1.508  1.00  0.00     0.001 A 
ATOM     66  C   UNL     1      18.975  -3.971  -2.366  1.00  0.00     0.000 A 
ENDBRANCH  47  61
BRANCH  48  67
ATOM     67  C   UNL     1      15.041   0.894   8.800  1.00  0.00    -0.014 A 
ATOM     68  C   UNL     1      15.960   1.508   9.665  1.00  0.00     0.009 A 
ATOM     69  C   UNL     1      13.685   0.861   9.163  1.00  0.00     0.009 A 
ATOM     70  C   UNL     1      15.535   2.058  10.876  1.00  0.00     0.001 A 
ATOM     71  C   UNL     1      13.259   1.438  10.362  1.00  0.00     0.001 A 
ATOM     72  C   UNL     1      14.184   2.028  11.220  1.00  0.00     0.000 A 
ENDBRANCH  48  67
BRANCH  60  73
ATOM     73  C   UNL     1      19.101  -4.530   7.186  1.00  0.00    -0.014 A 
ATOM     74  C   UNL     1      18.423  -5.535   7.893  1.00  0.00     0.009 A 
ATOM     75  C   UNL     1      20.503  -4.487   7.243  1.00  0.00     0.009 A 
ATOM     76  C   UNL     1      19.133  -6.453   8.669  1.00  0.00     0.001 A 
ATOM     77  C   UNL     1      21.212  -5.426   7.991  1.00  0.00     0.001 A 
ATOM     78  C   UNL     1      20.526  -6.401   8.713  1.00  0.00     0.000 A 
ENDBRANCH  60  73
ENDBRANCH  34  35
ENDBRANCH  26  29
ENDBRANCH  24  25
ENDBRANCH  23  24
ENDBRANCH   1  23
TORSDOF 13
