REMARK SMILES CC(C)[N@H+](C)Cc1cc2c(cc1Cl)C=C(C(=O)NCCCNC(=O)c1ccc(-c3c4nc(c(-c5ccccc5)c5ccc([nH]5)c(-c5ccccc5)c5nc(c(-c6ccccc6)c6ccc3[nH]6)C=C5)C=C4)cc1)[C@@H](C(F)(F)F)O2
REMARK SMILES IDX 19 1 18 2 16 3 17 4 15 6 7 7 8 8 12 9 9 10 11 11 13 12 10 13
REMARK SMILES IDX 78 14 14 15 73 16 6 17 4 18 5 19 2 21 1 22 3 23 74 24 75 25
REMARK SMILES IDX 76 26 77 27 20 28 21 29 22 30 23 31 24 33 25 34 26 35 72 36
REMARK SMILES IDX 27 37 71 38 28 39 29 40 30 41 65 42 31 43 70 44 64 45 66 46
REMARK SMILES IDX 32 47 69 48 63 49 62 50 33 52 55 53 40 54 54 55 41 56 44 57
REMARK SMILES IDX 53 58 67 59 42 60 43 61 52 63 68 64 45 65 34 66 35 67 39 68
REMARK SMILES IDX 36 69 38 70 37 71 56 72 57 73 61 74 58 75 60 76 59 77 46 78
REMARK SMILES IDX 47 79 51 80 48 81 50 82 49 83
REMARK H PARENT 18 5 4 20 22 32 66 51 44 62
REMARK Flexibility Score: inf
ROOT
ATOM      1  C   UNL     1      -0.189   7.993   6.709  1.00  0.00     0.118 C 
ENDROOT
BRANCH   1   2
ATOM      2  N   UNL     1       0.255   6.894   7.549  1.00  0.00    -0.352 N 
ATOM      3  C   UNL     1       0.288   5.546   7.466  1.00  0.00     0.251 C 
ATOM      4  O   UNL     1       0.696   4.968   8.478  1.00  0.00    -0.270 OA
ATOM      5  H   UNL     1       0.629   7.216   8.401  1.00  0.00     0.163 HD
BRANCH   3   6
ATOM      6  C   UNL     1      -0.124   4.758   6.271  1.00  0.00     0.067 C 
ATOM      7  C   UNL     1      -1.157   0.927   3.144  1.00  0.00     0.029 A 
ATOM      8  C   UNL     1      -1.213   2.330   3.042  1.00  0.00     0.058 A 
ATOM      9  C   UNL     1      -0.891   0.370   4.410  1.00  0.00     0.050 A 
ATOM     10  C   UNL     1      -0.921   3.139   4.138  1.00  0.00     0.128 A 
ATOM     11  C   UNL     1      -0.554   1.190   5.492  1.00  0.00     0.033 A 
ATOM     12  Cl  UNL     1      -1.005  -1.321   4.758  1.00  0.00    -0.084 Cl
ATOM     13  C   UNL     1      -0.556   2.575   5.354  1.00  0.00     0.019 A 
ATOM     14  O   UNL     1      -1.062   4.483   3.960  1.00  0.00    -0.475 OA
ATOM     15  C   UNL     1      -0.217   3.433   6.476  1.00  0.00     0.025 C 
ATOM     16  C   UNL     1      -0.377   5.346   4.910  1.00  0.00     0.314 C 
BRANCH   7  17
ATOM     17  C   UNL     1      -1.460   0.123   1.896  1.00  0.00     0.300 C 
BRANCH  17  18
ATOM     18  N   UNL     1      -0.655  -1.089   1.749  1.00  0.00    -0.332 N 
ATOM     19  C   UNL     1      -1.445  -2.218   1.279  1.00  0.00     0.333 C 
ATOM     20  H   UNL     1      -0.370  -1.269   2.712  1.00  0.00     0.348 HD
BRANCH  18  21
ATOM     21  C   UNL     1       0.668  -0.987   1.117  1.00  0.00     0.177 C 
ATOM     22  C   UNL     1       0.688  -0.376  -0.287  1.00  0.00     0.075 C 
ATOM     23  C   UNL     1       1.673  -0.258   2.017  1.00  0.00     0.075 C 
ENDBRANCH  18  21
ENDBRANCH  17  18
ENDBRANCH   7  17
BRANCH  16  24
ATOM     24  C   UNL     1       0.894   5.884   4.226  1.00  0.00     0.429 C 
ATOM     25  F   UNL     1       0.557   6.757   3.242  1.00  0.00    -0.167 F 
ATOM     26  F   UNL     1       1.705   6.559   5.073  1.00  0.00    -0.167 F 
ATOM     27  F   UNL     1       1.636   4.905   3.664  1.00  0.00    -0.167 F 
ENDBRANCH  16  24
ENDBRANCH   3   6
ENDBRANCH   1   2
BRANCH   1  28
ATOM     28  C   UNL     1      -1.578   8.468   7.097  1.00  0.00     0.042 C 
BRANCH  28  29
ATOM     29  C   UNL     1      -1.573   9.223   8.419  1.00  0.00     0.118 C 
BRANCH  29  30
ATOM     30  N   UNL     1      -0.778  10.447   8.346  1.00  0.00    -0.352 N 
ATOM     31  C   UNL     1      -1.174  11.764   8.284  1.00  0.00     0.251 C 
ATOM     32  H   UNL     1       0.196  10.308   8.340  1.00  0.00     0.163 HD
ATOM     33  O   UNL     1      -0.383  12.630   7.950  1.00  0.00    -0.269 OA
BRANCH  31  34
ATOM     34  C   UNL     1      -2.569  12.113   8.616  1.00  0.00     0.039 A 
ATOM     35  C   UNL     1      -3.204  11.485   9.685  1.00  0.00     0.014 A 
ATOM     36  C   UNL     1      -3.249  13.066   7.853  1.00  0.00     0.014 A 
ATOM     37  C   UNL     1      -4.568  11.645   9.860  1.00  0.00     0.010 A 
ATOM     38  C   UNL     1      -4.598  13.321   8.113  1.00  0.00     0.010 A 
ATOM     39  C   UNL     1      -5.280  12.574   9.085  1.00  0.00    -0.014 A 
BRANCH  39  40
ATOM     40  C   UNL     1      -6.733  12.743   9.334  1.00  0.00     0.031 A 
ATOM     41  C   UNL     1      -7.741  12.429   8.264  1.00  0.00     0.074 A 
ATOM     42  C   UNL     1      -7.139  13.107  10.568  1.00  0.00     0.049 A 
ATOM     43  N   UNL     1      -9.047  12.498   8.324  1.00  0.00    -0.248 NA
ATOM     44  C   UNL     1      -7.227  11.982   6.958  1.00  0.00     0.031 C 
ATOM     45  C   UNL     1      -6.248  13.409  11.692  1.00  0.00     0.029 A 
ATOM     46  N   UNL     1      -8.396  13.241  11.098  1.00  0.00    -0.354 N 
ATOM     47  C   UNL     1      -9.506  12.131   7.066  1.00  0.00     0.074 A 
ATOM     48  C   UNL     1      -8.343  11.860   6.251  1.00  0.00     0.031 C 
ATOM     49  C   UNL     1      -6.983  13.614  12.793  1.00  0.00     0.029 A 
ATOM     50  C   UNL     1      -8.395  13.552  12.437  1.00  0.00     0.049 A 
ATOM     51  H   UNL     1      -9.220  13.126  10.571  1.00  0.00     0.167 HD
ATOM     52  C   UNL     1     -10.785  12.024   6.636  1.00  0.00     0.031 A 
ATOM     53  C   UNL     1      -9.413  13.782  13.286  1.00  0.00     0.031 A 
ATOM     54  C   UNL     1     -11.936  12.273   7.462  1.00  0.00     0.049 A 
ATOM     55  C   UNL     1     -10.818  13.697  12.769  1.00  0.00     0.074 A 
ATOM     56  C   UNL     1     -13.273  12.182   7.117  1.00  0.00     0.029 A 
ATOM     57  N   UNL     1     -11.889  12.653   8.794  1.00  0.00    -0.354 N 
ATOM     58  N   UNL     1     -11.233  13.360  11.572  1.00  0.00    -0.248 NA
ATOM     59  C   UNL     1     -11.895  14.030  13.711  1.00  0.00     0.031 C 
ATOM     60  C   UNL     1     -14.034  12.561   8.223  1.00  0.00     0.029 A 
ATOM     61  C   UNL     1     -13.174  12.823   9.278  1.00  0.00     0.049 A 
ATOM     62  H   UNL     1     -11.065  12.783   9.317  1.00  0.00     0.167 HD
ATOM     63  C   UNL     1     -12.617  13.432  11.617  1.00  0.00     0.074 A 
ATOM     64  C   UNL     1     -12.974  13.819  12.967  1.00  0.00     0.031 C 
ATOM     65  C   UNL     1     -13.511  13.207  10.625  1.00  0.00     0.031 A 
BRANCH  52  66
ATOM     66  C   UNL     1     -11.028  11.630   5.205  1.00  0.00    -0.014 A 
ATOM     67  C   UNL     1     -11.570  12.568   4.311  1.00  0.00     0.009 A 
ATOM     68  C   UNL     1     -10.836  10.310   4.771  1.00  0.00     0.009 A 
ATOM     69  C   UNL     1     -11.937  12.187   3.018  1.00  0.00     0.001 A 
ATOM     70  C   UNL     1     -11.179   9.938   3.468  1.00  0.00     0.001 A 
ATOM     71  C   UNL     1     -11.739  10.873   2.598  1.00  0.00     0.000 A 
ENDBRANCH  52  66
BRANCH  53  72
ATOM     72  C   UNL     1      -9.120  14.131  14.702  1.00  0.00    -0.014 A 
ATOM     73  C   UNL     1      -8.465  15.334  15.017  1.00  0.00     0.009 A 
ATOM     74  C   UNL     1      -9.439  13.244  15.740  1.00  0.00     0.009 A 
ATOM     75  C   UNL     1      -8.105  15.626  16.334  1.00  0.00     0.001 A 
ATOM     76  C   UNL     1      -9.110  13.556  17.062  1.00  0.00     0.001 A 
ATOM     77  C   UNL     1      -8.434  14.739  17.356  1.00  0.00     0.000 A 
ENDBRANCH  53  72
BRANCH  65  78
ATOM     78  C   UNL     1     -14.969  13.357  10.950  1.00  0.00    -0.014 A 
ATOM     79  C   UNL     1     -15.796  12.223  10.978  1.00  0.00     0.009 A 
ATOM     80  C   UNL     1     -15.543  14.626  11.120  1.00  0.00     0.009 A 
ATOM     81  C   UNL     1     -17.174  12.357  11.151  1.00  0.00     0.001 A 
ATOM     82  C   UNL     1     -16.918  14.754  11.323  1.00  0.00     0.001 A 
ATOM     83  C   UNL     1     -17.732  13.622  11.327  1.00  0.00     0.000 A 
ENDBRANCH  65  78
ENDBRANCH  39  40
ENDBRANCH  31  34
ENDBRANCH  29  30
ENDBRANCH  28  29
ENDBRANCH   1  28
TORSDOF 14
