REMARK SMILES CCc1ccc2c(c1)C=C(C(=O)NCCCNC(=O)c1ccc(-c3c4nc(c(-c5ccccc5)c5ccc([nH]5)c(-c5ccccc5)c5nc(c(-c6ccccc6)c6ccc3[nH]6)C=C5)C=C4)cc1)[C@H](C(F)(F)F)O2
REMARK SMILES IDX 15 1 14 2 13 3 11 4 12 5 10 7 3 8 4 9 8 10 5 11 7 12 6 13
REMARK SMILES IDX 9 14 73 15 68 16 2 17 1 18 69 19 70 20 71 21 72 22 16 23
REMARK SMILES IDX 17 24 18 25 19 27 20 28 21 29 67 30 22 31 66 32 23 33 24 34
REMARK SMILES IDX 25 35 60 36 26 37 65 38 59 39 61 40 27 41 64 42 58 43 57 44
REMARK SMILES IDX 28 46 50 47 35 48 49 49 36 50 39 51 48 52 62 53 37 54 38 55
REMARK SMILES IDX 47 57 63 58 40 59 29 60 30 61 34 62 31 63 33 64 32 65 51 66
REMARK SMILES IDX 52 67 56 68 53 69 55 70 54 71 41 72 42 73 46 74 43 75 45 76
REMARK SMILES IDX 44 77
REMARK H PARENT 13 6 17 26 61 45 39 56
REMARK Flexibility Score: inf
ROOT
ATOM      1  C   UNL     1      -2.893  -6.921  -2.760  1.00  0.00     0.042 C 
ENDROOT
BRANCH   1   2
ATOM      2  C   UNL     1      -2.613  -7.376  -1.324  1.00  0.00     0.118 C 
BRANCH   2   3
ATOM      3  N   UNL     1      -1.587  -8.408  -1.302  1.00  0.00    -0.352 N 
ATOM      4  C   UNL     1      -0.239  -8.369  -1.127  1.00  0.00     0.251 C 
ATOM      5  O   UNL     1       0.395  -9.409  -1.287  1.00  0.00    -0.270 OA
ATOM      6  H   UNL     1      -1.939  -9.317  -1.443  1.00  0.00     0.163 HD
BRANCH   4   7
ATOM      7  C   UNL     1       0.480  -7.147  -0.686  1.00  0.00     0.067 C 
ATOM      8  C   UNL     1       1.120  -2.348  -0.470  1.00  0.00    -0.047 A 
ATOM      9  C   UNL     1       2.118  -2.540   0.492  1.00  0.00     0.007 A 
ATOM     10  C   UNL     1       0.518  -3.482  -1.040  1.00  0.00     0.015 A 
ATOM     11  C   UNL     1       2.471  -3.829   0.904  1.00  0.00     0.047 A 
ATOM     12  C   UNL     1       0.869  -4.773  -0.625  1.00  0.00     0.017 A 
ATOM     13  C   UNL     1       1.842  -4.942   0.352  1.00  0.00     0.128 A 
ATOM     14  C   UNL     1       0.159  -5.929  -1.142  1.00  0.00     0.025 C 
ATOM     15  O   UNL     1       2.189  -6.157   0.861  1.00  0.00    -0.475 OA
ATOM     16  C   UNL     1       1.712  -7.360   0.189  1.00  0.00     0.314 C 
BRANCH   8  17
ATOM     17  C   UNL     1       0.663  -0.986  -0.942  1.00  0.00     0.032 C 
ATOM     18  C   UNL     1       1.005   0.194  -0.042  1.00  0.00     0.009 C 
ENDBRANCH   8  17
BRANCH  16  19
ATOM     19  C   UNL     1       1.597  -8.464   1.264  1.00  0.00     0.429 C 
ATOM     20  F   UNL     1       1.847  -9.700   0.776  1.00  0.00    -0.167 F 
ATOM     21  F   UNL     1       2.507  -8.276   2.257  1.00  0.00    -0.167 F 
ATOM     22  F   UNL     1       0.377  -8.484   1.850  1.00  0.00    -0.167 F 
ENDBRANCH  16  19
ENDBRANCH   4   7
ENDBRANCH   2   3
ENDBRANCH   1   2
BRANCH   1  23
ATOM     23  C   UNL     1      -3.682  -7.940  -3.580  1.00  0.00     0.118 C 
BRANCH  23  24
ATOM     24  N   UNL     1      -5.076  -8.002  -3.173  1.00  0.00    -0.352 N 
ATOM     25  C   UNL     1      -6.219  -7.830  -3.913  1.00  0.00     0.251 C 
ATOM     26  H   UNL     1      -5.223  -8.198  -2.219  1.00  0.00     0.163 HD
ATOM     27  O   UNL     1      -7.296  -7.706  -3.338  1.00  0.00    -0.269 OA
BRANCH  25  28
ATOM     28  C   UNL     1      -6.170  -7.782  -5.392  1.00  0.00     0.039 A 
ATOM     29  C   UNL     1      -6.991  -6.866  -6.059  1.00  0.00     0.014 A 
ATOM     30  C   UNL     1      -5.376  -8.666  -6.127  1.00  0.00     0.014 A 
ATOM     31  C   UNL     1      -6.983  -6.807  -7.455  1.00  0.00     0.010 A 
ATOM     32  C   UNL     1      -5.322  -8.566  -7.516  1.00  0.00     0.010 A 
ATOM     33  C   UNL     1      -6.130  -7.640  -8.195  1.00  0.00    -0.014 A 
BRANCH  33  34
ATOM     34  C   UNL     1      -6.074  -7.561  -9.676  1.00  0.00     0.031 A 
ATOM     35  C   UNL     1      -6.534  -8.719 -10.518  1.00  0.00     0.074 A 
ATOM     36  C   UNL     1      -5.555  -6.466 -10.265  1.00  0.00     0.049 A 
ATOM     37  N   UNL     1      -6.500  -8.859 -11.820  1.00  0.00    -0.248 NA
ATOM     38  C   UNL     1      -7.085  -9.881  -9.803  1.00  0.00     0.031 C 
ATOM     39  C   UNL     1      -5.049  -5.285  -9.563  1.00  0.00     0.029 A 
ATOM     40  N   UNL     1      -5.362  -6.173 -11.592  1.00  0.00    -0.354 N 
ATOM     41  C   UNL     1      -7.005 -10.127 -12.077  1.00  0.00     0.074 A 
ATOM     42  C   UNL     1      -7.301 -10.732 -10.796  1.00  0.00     0.031 C 
ATOM     43  C   UNL     1      -4.622  -4.387 -10.466  1.00  0.00     0.029 A 
ATOM     44  C   UNL     1      -4.789  -4.942 -11.805  1.00  0.00     0.049 A 
ATOM     45  H   UNL     1      -5.609  -6.786 -12.321  1.00  0.00     0.167 HD
ATOM     46  C   UNL     1      -7.219 -10.730 -13.271  1.00  0.00     0.031 A 
ATOM     47  C   UNL     1      -4.431  -4.332 -12.949  1.00  0.00     0.031 A 
ATOM     48  C   UNL     1      -6.936 -10.127 -14.547  1.00  0.00     0.049 A 
ATOM     49  C   UNL     1      -4.664  -5.027 -14.261  1.00  0.00     0.074 A 
ATOM     50  C   UNL     1      -7.165 -10.639 -15.813  1.00  0.00     0.029 A 
ATOM     51  N   UNL     1      -6.361  -8.878 -14.718  1.00  0.00    -0.354 N 
ATOM     52  N   UNL     1      -5.193  -6.204 -14.488  1.00  0.00    -0.248 NA
ATOM     53  C   UNL     1      -4.259  -4.303 -15.474  1.00  0.00     0.031 C 
ATOM     54  C   UNL     1      -6.688  -9.716 -16.750  1.00  0.00     0.029 A 
ATOM     55  C   UNL     1      -6.209  -8.610 -16.068  1.00  0.00     0.049 A 
ATOM     56  H   UNL     1      -6.100  -8.271 -13.988  1.00  0.00     0.167 HD
ATOM     57  C   UNL     1      -5.209  -6.352 -15.868  1.00  0.00     0.074 A 
ATOM     58  C   UNL     1      -4.649  -5.138 -16.427  1.00  0.00     0.031 C 
ATOM     59  C   UNL     1      -5.649  -7.398 -16.608  1.00  0.00     0.031 A 
BRANCH  46  60
ATOM     60  C   UNL     1      -7.781 -12.125 -13.251  1.00  0.00    -0.014 A 
ATOM     61  C   UNL     1      -9.113 -12.366 -12.880  1.00  0.00     0.009 A 
ATOM     62  C   UNL     1      -6.977 -13.208 -13.639  1.00  0.00     0.009 A 
ATOM     63  C   UNL     1      -9.618 -13.668 -12.863  1.00  0.00     0.001 A 
ATOM     64  C   UNL     1      -7.492 -14.506 -13.646  1.00  0.00     0.001 A 
ATOM     65  C   UNL     1      -8.809 -14.736 -13.249  1.00  0.00     0.000 A 
ENDBRANCH  46  60
BRANCH  47  66
ATOM     66  C   UNL     1      -3.825  -2.976 -12.909  1.00  0.00    -0.014 A 
ATOM     67  C   UNL     1      -4.556  -1.859 -13.342  1.00  0.00     0.009 A 
ATOM     68  C   UNL     1      -2.516  -2.791 -12.438  1.00  0.00     0.009 A 
ATOM     69  C   UNL     1      -3.979  -0.587 -13.327  1.00  0.00     0.001 A 
ATOM     70  C   UNL     1      -1.952  -1.514 -12.400  1.00  0.00     0.001 A 
ATOM     71  C   UNL     1      -2.680  -0.415 -12.852  1.00  0.00     0.000 A 
ENDBRANCH  47  66
BRANCH  59  72
ATOM     72  C   UNL     1      -5.574  -7.262 -18.101  1.00  0.00    -0.014 A 
ATOM     73  C   UNL     1      -4.348  -7.345 -18.779  1.00  0.00     0.009 A 
ATOM     74  C   UNL     1      -6.753  -7.086 -18.843  1.00  0.00     0.009 A 
ATOM     75  C   UNL     1      -4.302  -7.223 -20.170  1.00  0.00     0.001 A 
ATOM     76  C   UNL     1      -6.707  -6.991 -20.234  1.00  0.00     0.001 A 
ATOM     77  C   UNL     1      -5.481  -7.051 -20.895  1.00  0.00     0.000 A 
ENDBRANCH  59  72
ENDBRANCH  33  34
ENDBRANCH  25  28
ENDBRANCH  23  24
ENDBRANCH   1  23
TORSDOF 12
