REMARK SMILES COc1cc(C(=O)NCCCNC(=O)c2ccc(-c3c4nc(c(-c5ccccc5)c5ccc([nH]5)c(-c5ccccc5)c5nc(c(-c6ccccc6)c6ccc3[nH]6)C=C5)C=C4)cc2)c([N+](=O)[O-])cc1OCC[NH+](C)C
REMARK SMILES IDX 9 1 8 2 6 3 7 4 5 6 3 7 4 8 68 9 67 10 63 11 2 12 1 13 69 14
REMARK SMILES IDX 70 15 71 16 72 17 73 18 74 19 64 21 65 22 66 23 10 24 11 25
REMARK SMILES IDX 12 26 13 27 14 29 15 30 16 31 62 32 17 33 61 34 18 35 19 36
REMARK SMILES IDX 20 37 55 38 21 39 60 40 54 41 56 42 22 43 59 44 53 45 52 46
REMARK SMILES IDX 23 48 45 49 30 50 44 51 31 52 34 53 43 54 57 55 32 56 33 57
REMARK SMILES IDX 42 59 58 60 35 61 24 62 25 63 29 64 26 65 28 66 27 67 46 68
REMARK SMILES IDX 47 69 51 70 48 71 50 72 49 73 36 74 37 75 41 76 38 77 40 78
REMARK SMILES IDX 39 79
REMARK H PARENT 8 5 72 20 12 28 56 47 34 58
REMARK Flexibility Score: inf
ROOT
ATOM      1  C   UNL     1       1.396   7.330  -2.166  1.00  0.00     0.118 C 
ENDROOT
BRANCH   1   2
ATOM      2  N   UNL     1       0.059   6.753  -2.131  1.00  0.00    -0.352 N 
ATOM      3  C   UNL     1      -0.383   5.495  -1.796  1.00  0.00     0.258 C 
ATOM      4  O   UNL     1      -1.584   5.246  -1.860  1.00  0.00    -0.269 OA
ATOM      5  H   UNL     1      -0.657   7.376  -2.394  1.00  0.00     0.163 HD
BRANCH   3   6
ATOM      6  C   UNL     1       0.555   4.407  -1.437  1.00  0.00     0.121 A 
ATOM      7  C   UNL     1       1.220   2.080  -1.766  1.00  0.00     0.162 A 
ATOM      8  C   UNL     1       0.346   3.146  -2.031  1.00  0.00     0.071 A 
ATOM      9  C   UNL     1       2.335   2.285  -0.945  1.00  0.00     0.168 A 
ATOM     10  C   UNL     1       2.575   3.541  -0.394  1.00  0.00     0.136 A 
ATOM     11  C   UNL     1       1.631   4.555  -0.561  1.00  0.00     0.286 A 
BRANCH   7  12
ATOM     12  O   UNL     1       1.050   0.890  -2.422  1.00  0.00    -0.493 OA
ATOM     13  C   UNL     1       0.015   0.088  -1.853  1.00  0.00     0.278 C 
ENDBRANCH   7  12
BRANCH   9  14
ATOM     14  O   UNL     1       3.249   1.336  -0.592  1.00  0.00    -0.484 OA
BRANCH  14  15
ATOM     15  C   UNL     1       2.739   0.266   0.219  1.00  0.00     0.291 C 
BRANCH  15  16
ATOM     16  C   UNL     1       2.056   0.627   1.570  1.00  0.00     0.303 C 
BRANCH  16  17
ATOM     17  N   UNL     1       0.781   1.367   1.462  1.00  0.00    -0.337 N 
ATOM     18  C   UNL     1      -0.368   0.577   1.915  1.00  0.00     0.332 C 
ATOM     19  C   UNL     1       0.807   2.618   2.227  1.00  0.00     0.332 C 
ATOM     20  H   UNL     1       0.674   1.571   0.469  1.00  0.00     0.347 HD
ENDBRANCH  16  17
ENDBRANCH  15  16
ENDBRANCH  14  15
ENDBRANCH   9  14
BRANCH  11  21
ATOM     21  N   UNL     1       1.739   5.697   0.329  1.00  0.00     0.063 N 
ATOM     22  O   UNL     1       0.717   6.067   0.918  1.00  0.00    -0.258 OA
ATOM     23  O   UNL     1       2.862   6.205   0.460  1.00  0.00    -0.258 OA
ENDBRANCH  11  21
ENDBRANCH   3   6
ENDBRANCH   1   2
BRANCH   1  24
ATOM     24  C   UNL     1       1.729   8.079  -3.441  1.00  0.00     0.042 C 
BRANCH  24  25
ATOM     25  C   UNL     1       0.833   9.272  -3.723  1.00  0.00     0.118 C 
BRANCH  25  26
ATOM     26  N   UNL     1       0.985  10.364  -2.769  1.00  0.00    -0.352 N 
ATOM     27  C   UNL     1       1.649  11.570  -2.850  1.00  0.00     0.251 C 
ATOM     28  H   UNL     1       0.530  10.212  -1.909  1.00  0.00     0.163 HD
ATOM     29  O   UNL     1       1.728  12.284  -1.863  1.00  0.00    -0.269 OA
BRANCH  27  30
ATOM     30  C   UNL     1       2.308  11.987  -4.110  1.00  0.00     0.039 A 
ATOM     31  C   UNL     1       3.556  12.618  -4.046  1.00  0.00     0.014 A 
ATOM     32  C   UNL     1       1.716  11.765  -5.349  1.00  0.00     0.014 A 
ATOM     33  C   UNL     1       4.245  12.918  -5.225  1.00  0.00     0.010 A 
ATOM     34  C   UNL     1       2.455  11.935  -6.513  1.00  0.00     0.010 A 
ATOM     35  C   UNL     1       3.728  12.521  -6.468  1.00  0.00    -0.014 A 
BRANCH  35  36
ATOM     36  C   UNL     1       4.479  12.714  -7.737  1.00  0.00     0.031 A 
ATOM     37  C   UNL     1       3.867  13.510  -8.861  1.00  0.00     0.074 A 
ATOM     38  C   UNL     1       5.668  12.104  -7.916  1.00  0.00     0.049 A 
ATOM     39  N   UNL     1       4.305  13.690 -10.082  1.00  0.00    -0.248 NA
ATOM     40  C   UNL     1       2.572  14.157  -8.590  1.00  0.00     0.031 C 
ATOM     41  C   UNL     1       6.356  11.268  -6.928  1.00  0.00     0.029 A 
ATOM     42  N   UNL     1       6.509  12.086  -9.002  1.00  0.00    -0.354 N 
ATOM     43  C   UNL     1       3.329  14.442 -10.724  1.00  0.00     0.074 A 
ATOM     44  C   UNL     1       2.248  14.629  -9.783  1.00  0.00     0.031 C 
ATOM     45  C   UNL     1       7.527  10.854  -7.439  1.00  0.00     0.029 A 
ATOM     46  C   UNL     1       7.651  11.347  -8.806  1.00  0.00     0.049 A 
ATOM     47  H   UNL     1       6.311  12.559  -9.843  1.00  0.00     0.167 HD
ATOM     48  C   UNL     1       3.339  14.959 -11.976  1.00  0.00     0.031 A 
ATOM     49  C   UNL     1       8.679  11.088  -9.636  1.00  0.00     0.031 A 
ATOM     50  C   UNL     1       4.424  14.797 -12.905  1.00  0.00     0.049 A 
ATOM     51  C   UNL     1       8.660  11.660 -11.026  1.00  0.00     0.074 A 
ATOM     52  C   UNL     1       4.557  15.328 -14.176  1.00  0.00     0.029 A 
ATOM     53  N   UNL     1       5.566  14.052 -12.659  1.00  0.00    -0.354 N 
ATOM     54  N   UNL     1       7.757  12.420 -11.596  1.00  0.00    -0.248 NA
ATOM     55  C   UNL     1       9.811  11.344 -11.886  1.00  0.00     0.031 C 
ATOM     56  C   UNL     1       5.758  14.863 -14.719  1.00  0.00     0.029 A 
ATOM     57  C   UNL     1       6.400  14.092 -13.763  1.00  0.00     0.049 A 
ATOM     58  H   UNL     1       5.756  13.567 -11.824  1.00  0.00     0.167 HD
ATOM     59  C   UNL     1       8.244  12.700 -12.866  1.00  0.00     0.074 A 
ATOM     60  C   UNL     1       9.529  12.041 -12.977  1.00  0.00     0.031 C 
ATOM     61  C   UNL     1       7.679  13.437 -13.853  1.00  0.00     0.031 A 
BRANCH  48  62
ATOM     62  C   UNL     1       2.136  15.753 -12.408  1.00  0.00    -0.014 A 
ATOM     63  C   UNL     1       1.847  17.003 -11.836  1.00  0.00     0.009 A 
ATOM     64  C   UNL     1       1.297  15.259 -13.418  1.00  0.00     0.009 A 
ATOM     65  C   UNL     1       0.719  17.721 -12.237  1.00  0.00     0.001 A 
ATOM     66  C   UNL     1       0.189  15.996 -13.841  1.00  0.00     0.001 A 
ATOM     67  C   UNL     1      -0.106  17.220 -13.243  1.00  0.00     0.000 A 
ENDBRANCH  48  62
BRANCH  49  68
ATOM     68  C   UNL     1       9.827  10.261  -9.175  1.00  0.00    -0.014 A 
ATOM     69  C   UNL     1      11.089  10.845  -8.980  1.00  0.00     0.009 A 
ATOM     70  C   UNL     1       9.676   8.885  -8.945  1.00  0.00     0.009 A 
ATOM     71  C   UNL     1      12.181  10.062  -8.598  1.00  0.00     0.001 A 
ATOM     72  C   UNL     1      10.763   8.111  -8.533  1.00  0.00     0.001 A 
ATOM     73  C   UNL     1      12.017   8.697  -8.371  1.00  0.00     0.000 A 
ENDBRANCH  49  68
BRANCH  61  74
ATOM     74  C   UNL     1       8.466  13.611 -15.121  1.00  0.00    -0.014 A 
ATOM     75  C   UNL     1       8.638  12.553 -16.026  1.00  0.00     0.009 A 
ATOM     76  C   UNL     1       9.003  14.870 -15.435  1.00  0.00     0.009 A 
ATOM     77  C   UNL     1       9.360  12.745 -17.206  1.00  0.00     0.001 A 
ATOM     78  C   UNL     1       9.697  15.067 -16.629  1.00  0.00     0.001 A 
ATOM     79  C   UNL     1       9.883  14.002 -17.509  1.00  0.00     0.000 A 
ENDBRANCH  61  74
ENDBRANCH  35  36
ENDBRANCH  27  30
ENDBRANCH  25  26
ENDBRANCH  24  25
ENDBRANCH   1  24
TORSDOF 16
