REMARK SMILES O=C(NCCCNC(=O)c1ccc(-c2c3nc(c(-c4ccccc4)c4ccc([nH]4)c(-c4ccccc4)c4nc(c(-c5ccccc5)c5ccc2[nH]5)C=C4)C=C3)cc1)C1=Cc2cc(S(F)(F)(F)(F)F)ccc2O[C@@H]1C(F)(F)F
REMARK SMILES IDX 5 1 4 2 3 3 1 4 2 5 58 7 59 8 73 9 60 10 72 11 61 12 71 13
REMARK SMILES IDX 62 14 70 15 69 16 74 17 75 18 76 19 77 20 63 21 64 22 65 23
REMARK SMILES IDX 66 24 67 25 68 26 6 27 7 28 8 29 9 31 10 32 11 33 57 34
REMARK SMILES IDX 12 35 56 36 13 37 14 38 15 39 50 40 16 41 55 42 49 43 51 44
REMARK SMILES IDX 17 45 54 46 48 47 47 48 18 50 40 51 25 52 39 53 26 54 29 55
REMARK SMILES IDX 38 56 52 57 27 58 28 59 37 61 53 62 30 63 19 64 20 65 24 66
REMARK SMILES IDX 21 67 23 68 22 69 41 70 42 71 46 72 43 73 45 74 44 75 31 76
REMARK SMILES IDX 32 77 36 78 33 79 35 80 34 81
REMARK H PARENT 3 6 7 30 51 49 29 60
REMARK Flexibility Score: inf
ROOT
ATOM      1  C   UNL     1       4.930  -2.270  -0.176  1.00  0.00     0.042 C 
ENDROOT
BRANCH   1   2
ATOM      2  C   UNL     1       4.423  -0.970  -0.779  1.00  0.00     0.118 C 
BRANCH   2   3
ATOM      3  N   UNL     1       2.953  -0.970  -0.779  1.00  0.00    -0.352 N 
ATOM      4  O   UNL     1       0.947   0.071  -0.047  1.00  0.00    -0.270 OA
ATOM      5  C   UNL     1       2.218   0.071  -0.047  1.00  0.00     0.251 C 
ATOM      6  H   UNL     1       2.461  -1.668  -1.269  1.00  0.00     0.163 HD
BRANCH   5   7
ATOM      7  C   UNL     1       2.978   1.148   0.711  1.00  0.00     0.067 C 
ATOM      8  C   UNL     1       4.339   1.148   0.711  1.00  0.00     0.025 C 
ATOM      9  C   UNL     1       2.218   2.225   1.468  1.00  0.00     0.314 C 
ATOM     10  C   UNL     1       5.099   0.071  -0.047  1.00  0.00     0.019 A 
ATOM     11  O   UNL     1       3.651   0.234  -1.924  1.00  0.00    -0.475 OA
ATOM     12  C   UNL     1       6.103  -0.554   0.673  1.00  0.00     0.036 A 
ATOM     13  C   UNL     1       4.788  -0.319  -1.277  1.00  0.00     0.128 A 
ATOM     14  C   UNL     1       6.925  -1.402  -0.107  1.00  0.00     0.107 A 
ATOM     15  C   UNL     1       5.556  -1.252  -1.930  1.00  0.00     0.048 A 
ATOM     16  C   UNL     1       6.602  -1.868  -1.300  1.00  0.00     0.028 A 
BRANCH   9  17
ATOM     17  C   UNL     1       2.586   3.591   0.911  1.00  0.00     0.429 C 
ATOM     18  F   UNL     1       2.264   3.645  -0.378  1.00  0.00    -0.167 F 
ATOM     19  F   UNL     1       1.921   4.533   1.574  1.00  0.00    -0.167 F 
ATOM     20  F   UNL     1       3.893   3.789   1.051  1.00  0.00    -0.167 F 
ENDBRANCH   9  17
BRANCH  14  21
ATOM     21  S   UNL     1       8.531  -1.881   0.577  1.00  0.00     0.310 S 
ATOM     22  F   UNL     1       7.968  -1.826   2.059  1.00  0.00    -0.094 F 
ATOM     23  F   UNL     1       8.898  -0.356   0.734  1.00  0.00    -0.094 F 
ATOM     24  F   UNL     1       9.902  -2.301   1.178  1.00  0.00    -0.094 F 
ATOM     25  F   UNL     1       8.090  -3.397   0.542  1.00  0.00    -0.094 F 
ATOM     26  F   UNL     1       7.092  -1.466   0.071  1.00  0.00    -0.094 F 
ENDBRANCH  14  21
ENDBRANCH   5   7
ENDBRANCH   2   3
ENDBRANCH   1   2
BRANCH   1  27
ATOM     27  C   UNL     1       4.423  -3.442  -1.000  1.00  0.00     0.118 C 
BRANCH  27  28
ATOM     28  N   UNL     1       4.913  -3.319  -2.381  1.00  0.00    -0.352 N 
ATOM     29  C   UNL     1       5.758  -4.374  -2.958  1.00  0.00     0.251 C 
ATOM     30  H   UNL     1       4.676  -2.529  -2.918  1.00  0.00     0.163 HD
ATOM     31  O   UNL     1       6.182  -4.267  -4.151  1.00  0.00    -0.269 OA
BRANCH  29  32
ATOM     32  C   UNL     1       6.126  -5.593  -2.127  1.00  0.00     0.039 A 
ATOM     33  C   UNL     1       7.393  -6.137  -2.258  1.00  0.00     0.014 A 
ATOM     34  C   UNL     1       5.185  -6.202  -1.414  1.00  0.00     0.014 A 
ATOM     35  C   UNL     1       7.486  -7.483  -1.832  1.00  0.00     0.010 A 
ATOM     36  C   UNL     1       5.394  -7.463  -0.913  1.00  0.00     0.010 A 
ATOM     37  C   UNL     1       6.603  -8.086  -1.056  1.00  0.00    -0.014 A 
BRANCH  37  38
ATOM     38  C   UNL     1       6.915  -9.400  -0.359  1.00  0.00     0.031 A 
ATOM     39  C   UNL     1       6.143 -10.535  -0.614  1.00  0.00     0.074 A 
ATOM     40  C   UNL     1       8.067  -9.404   0.407  1.00  0.00     0.049 A 
ATOM     41  N   UNL     1       6.378 -11.786  -0.215  1.00  0.00    -0.248 NA
ATOM     42  C   UNL     1       4.900 -10.527  -1.400  1.00  0.00     0.031 C 
ATOM     43  C   UNL     1       8.856  -8.265   0.662  1.00  0.00     0.029 A 
ATOM     44  N   UNL     1       8.652 -10.474   1.050  1.00  0.00    -0.354 N 
ATOM     45  C   UNL     1       5.426 -12.602  -0.671  1.00  0.00     0.074 A 
ATOM     46  C   UNL     1       4.458 -11.803  -1.435  1.00  0.00     0.031 C 
ATOM     47  C   UNL     1       9.894  -8.640   1.456  1.00  0.00     0.029 A 
ATOM     48  C   UNL     1       9.772 -10.020   1.709  1.00  0.00     0.049 A 
ATOM     49  H   UNL     1       8.325 -11.402   1.039  1.00  0.00     0.167 HD
ATOM     50  C   UNL     1       5.328 -13.982  -0.481  1.00  0.00     0.031 A 
ATOM     51  C   UNL     1      10.649 -10.751   2.495  1.00  0.00     0.031 A 
ATOM     52  C   UNL     1       6.230 -14.720   0.268  1.00  0.00     0.049 A 
ATOM     53  C   UNL     1      10.519 -12.121   2.733  1.00  0.00     0.074 A 
ATOM     54  C   UNL     1       6.150 -16.113   0.463  1.00  0.00     0.029 A 
ATOM     55  N   UNL     1       7.336 -14.262   0.948  1.00  0.00    -0.354 N 
ATOM     56  N   UNL     1       9.589 -12.944   2.244  1.00  0.00    -0.248 NA
ATOM     57  C   UNL     1      11.423 -12.900   3.589  1.00  0.00     0.031 C 
ATOM     58  C   UNL     1       7.188 -16.488   1.257  1.00  0.00     0.029 A 
ATOM     59  C   UNL     1       7.933 -15.335   1.572  1.00  0.00     0.049 A 
ATOM     60  H   UNL     1       7.647 -13.328   0.983  1.00  0.00     0.167 HD
ATOM     61  C   UNL     1       9.802 -14.187   2.678  1.00  0.00     0.074 A 
ATOM     62  C   UNL     1      10.980 -14.176   3.556  1.00  0.00     0.031 C 
ATOM     63  C   UNL     1       9.063 -15.332   2.376  1.00  0.00     0.031 A 
BRANCH  50  64
ATOM     64  C   UNL     1       4.168 -14.715  -1.134  1.00  0.00    -0.014 A 
ATOM     65  C   UNL     1       4.021 -14.730  -2.512  1.00  0.00     0.009 A 
ATOM     66  C   UNL     1       3.323 -15.366  -0.344  1.00  0.00     0.009 A 
ATOM     67  C   UNL     1       2.771 -15.229  -2.949  1.00  0.00     0.001 A 
ATOM     68  C   UNL     1       2.189 -15.947  -0.859  1.00  0.00     0.001 A 
ATOM     69  C   UNL     1       1.950 -15.949  -2.205  1.00  0.00     0.000 A 
ENDBRANCH  50  64
BRANCH  51  70
ATOM     70  C   UNL     1      11.819 -10.020   3.134  1.00  0.00    -0.014 A 
ATOM     71  C   UNL     1      13.123 -10.411   2.878  1.00  0.00     0.009 A 
ATOM     72  C   UNL     1      11.550  -9.023   3.969  1.00  0.00     0.009 A 
ATOM     73  C   UNL     1      14.070  -9.873   3.780  1.00  0.00     0.001 A 
ATOM     74  C   UNL     1      12.548  -8.452   4.720  1.00  0.00     0.001 A 
ATOM     75  C   UNL     1      13.852  -8.831   4.562  1.00  0.00     0.000 A 
ENDBRANCH  51  70
BRANCH  63  76
ATOM     76  C   UNL     1       9.525 -16.656   2.963  1.00  0.00    -0.014 A 
ATOM     77  C   UNL     1       9.695 -16.725   4.335  1.00  0.00     0.009 A 
ATOM     78  C   UNL     1       9.863 -17.670   2.174  1.00  0.00     0.009 A 
ATOM     79  C   UNL     1      10.506 -17.805   4.759  1.00  0.00     0.001 A 
ATOM     80  C   UNL     1      10.535 -18.756   2.682  1.00  0.00     0.001 A 
ATOM     81  C   UNL     1      10.790 -18.863   4.021  1.00  0.00     0.000 A 
ENDBRANCH  63  76
ENDBRANCH  37  38
ENDBRANCH  29  32
ENDBRANCH  27  28
ENDBRANCH   1  27
TORSDOF 12
