REMARK SMILES Cc1cc(C(=O)N2CCC[C@@H]2C)sc1/C=C/C(=O)NCCCNC(=O)c1ccc(-c2c3nc(c(-c4ccccc4)c4ccc([nH]4)c(-c4ccccc4)c4nc(c(-c5ccccc5)c5ccc2[nH]5)C=C4)C=C3)cc1
REMARK SMILES IDX 20 1 19 2 17 3 18 4 16 6 15 7 14 8 1 9 2 10 3 11 4 12 13 13
REMARK SMILES IDX 5 14 6 15 7 16 8 17 11 18 9 19 10 20 12 21 21 22 22 23 23 24
REMARK SMILES IDX 24 25 25 27 26 28 27 29 73 30 28 31 72 32 29 33 30 34 31 35
REMARK SMILES IDX 66 36 32 37 71 38 65 39 67 40 33 41 70 42 64 43 63 44 34 46
REMARK SMILES IDX 56 47 41 48 55 49 42 50 45 51 54 52 68 53 43 54 44 55 53 57
REMARK SMILES IDX 69 58 46 59 35 60 36 61 40 62 37 63 39 64 38 65 57 66 58 67
REMARK SMILES IDX 62 68 59 69 61 70 60 71 47 72 48 73 52 74 49 75 51 76 50 77
REMARK H PARENT 19 5 23 26 67 45 45 56
REMARK Flexibility Score: inf
ROOT
ATOM      1  C   UNL     1       2.197  -4.683  -0.556  1.00  0.00     0.118 C 
ENDROOT
BRANCH   1   2
ATOM      2  N   UNL     1       0.927  -5.281  -0.182  1.00  0.00    -0.352 N 
ATOM      3  C   UNL     1      -0.298  -4.713  -0.023  1.00  0.00     0.244 C 
ATOM      4  O   UNL     1      -1.277  -5.421   0.194  1.00  0.00    -0.270 OA
ATOM      5  H   UNL     1       0.958  -6.251  -0.018  1.00  0.00     0.163 HD
BRANCH   3   6
ATOM      6  C   UNL     1      -0.474  -3.259  -0.202  1.00  0.00     0.072 C 
ATOM      7  C   UNL     1       0.253  -2.339   0.450  1.00  0.00     0.025 C 
BRANCH   7   8
ATOM      8  C   UNL     1       0.060  -0.935   0.270  1.00  0.00     0.031 A 
ATOM      9  C   UNL     1       2.498  -0.109   0.250  1.00  0.00     0.046 C 
ATOM     10  C   UNL     1       1.014   0.075   0.224  1.00  0.00    -0.032 A 
ATOM     11  C   UNL     1       0.398   1.369   0.097  1.00  0.00     0.029 A 
ATOM     12  C   UNL     1      -0.981   1.325   0.004  1.00  0.00     0.093 A 
ATOM     13  S   UNL     1      -1.516  -0.287   0.073  1.00  0.00    -0.130 S 
BRANCH  12  14
ATOM     14  C   UNL     1      -1.854   2.444  -0.341  1.00  0.00     0.264 C 
ATOM     15  O   UNL     1      -1.393   3.433  -0.920  1.00  0.00    -0.268 OA
BRANCH  14  16
ATOM     16  N   UNL     1      -3.223   2.386  -0.106  1.00  0.00    -0.335 N 
ATOM     17  C   UNL     1      -4.122   3.097  -0.989  1.00  0.00     0.120 C 
ATOM     18  C   UNL     1      -3.977   1.724   0.964  1.00  0.00     0.082 C 
ATOM     19  C   UNL     1      -5.373   2.240  -0.946  1.00  0.00     0.024 C 
ATOM     20  C   UNL     1      -5.448   1.826   0.519  1.00  0.00     0.026 C 
ATOM     21  C   UNL     1      -3.761   2.414   2.308  1.00  0.00     0.031 C 
ENDBRANCH  14  16
ENDBRANCH  12  14
ENDBRANCH   7   8
ENDBRANCH   3   6
ENDBRANCH   1   2
BRANCH   1  22
ATOM     22  C   UNL     1       3.157  -4.626   0.630  1.00  0.00     0.042 C 
BRANCH  22  23
ATOM     23  C   UNL     1       3.719  -5.990   1.022  1.00  0.00     0.118 C 
BRANCH  23  24
ATOM     24  N   UNL     1       4.640  -6.509   0.022  1.00  0.00    -0.352 N 
ATOM     25  C   UNL     1       5.955  -6.883   0.138  1.00  0.00     0.251 C 
ATOM     26  H   UNL     1       4.260  -6.607  -0.881  1.00  0.00     0.163 HD
ATOM     27  O   UNL     1       6.615  -7.090  -0.876  1.00  0.00    -0.269 OA
BRANCH  25  28
ATOM     28  C   UNL     1       6.590  -7.030   1.467  1.00  0.00     0.039 A 
ATOM     29  C   UNL     1       7.912  -6.601   1.627  1.00  0.00     0.014 A 
ATOM     30  C   UNL     1       5.922  -7.640   2.532  1.00  0.00     0.014 A 
ATOM     31  C   UNL     1       8.545  -6.741   2.864  1.00  0.00     0.010 A 
ATOM     32  C   UNL     1       6.531  -7.719   3.783  1.00  0.00     0.010 A 
ATOM     33  C   UNL     1       7.851  -7.279   3.959  1.00  0.00    -0.014 A 
BRANCH  33  34
ATOM     34  C   UNL     1       8.494  -7.395   5.292  1.00  0.00     0.031 A 
ATOM     35  C   UNL     1       8.763  -8.748   5.891  1.00  0.00     0.074 A 
ATOM     36  C   UNL     1       8.786  -6.280   5.989  1.00  0.00     0.049 A 
ATOM     37  N   UNL     1       9.259  -9.046   7.065  1.00  0.00    -0.248 NA
ATOM     38  C   UNL     1       8.407  -9.918   5.073  1.00  0.00     0.031 C 
ATOM     39  C   UNL     1       8.544  -4.909   5.536  1.00  0.00     0.029 A 
ATOM     40  N   UNL     1       9.343  -6.126   7.234  1.00  0.00    -0.354 N 
ATOM     41  C   UNL     1       9.257 -10.434   7.134  1.00  0.00     0.074 A 
ATOM     42  C   UNL     1       8.672 -10.917   5.902  1.00  0.00     0.031 C 
ATOM     43  C   UNL     1       8.971  -4.054   6.479  1.00  0.00     0.029 A 
ATOM     44  C   UNL     1       9.481  -4.814   7.615  1.00  0.00     0.049 A 
ATOM     45  H   UNL     1       9.617  -6.884   7.799  1.00  0.00     0.167 HD
ATOM     46  C   UNL     1       9.713 -11.236   8.126  1.00  0.00     0.031 A 
ATOM     47  C   UNL     1       9.960  -4.282   8.755  1.00  0.00     0.031 A 
ATOM     48  C   UNL     1      10.306 -10.759   9.347  1.00  0.00     0.049 A 
ATOM     49  C   UNL     1      10.459  -5.191   9.841  1.00  0.00     0.074 A 
ATOM     50  C   UNL     1      10.845 -11.493  10.389  1.00  0.00     0.029 A 
ATOM     51  N   UNL     1      10.440  -9.422   9.688  1.00  0.00    -0.354 N 
ATOM     52  N   UNL     1      10.499  -6.501   9.867  1.00  0.00    -0.248 NA
ATOM     53  C   UNL     1      10.991  -4.546  11.050  1.00  0.00     0.031 C 
ATOM     54  C   UNL     1      11.269 -10.601  11.380  1.00  0.00     0.029 A 
ATOM     55  C   UNL     1      11.037  -9.310  10.933  1.00  0.00     0.049 A 
ATOM     56  H   UNL     1      10.153  -8.665   9.129  1.00  0.00     0.167 HD
ATOM     57  C   UNL     1      11.081  -6.837  11.082  1.00  0.00     0.074 A 
ATOM     58  C   UNL     1      11.391  -5.594  11.758  1.00  0.00     0.031 C 
ATOM     59  C   UNL     1      11.336  -8.066  11.592  1.00  0.00     0.031 A 
BRANCH  46  60
ATOM     60  C   UNL     1       9.579 -12.720   7.930  1.00  0.00    -0.014 A 
ATOM     61  C   UNL     1      10.378 -13.405   7.001  1.00  0.00     0.009 A 
ATOM     62  C   UNL     1       8.663 -13.448   8.706  1.00  0.00     0.009 A 
ATOM     63  C   UNL     1      10.236 -14.783   6.826  1.00  0.00     0.001 A 
ATOM     64  C   UNL     1       8.543 -14.830   8.547  1.00  0.00     0.001 A 
ATOM     65  C   UNL     1       9.322 -15.495   7.601  1.00  0.00     0.000 A 
ENDBRANCH  46  60
BRANCH  47  66
ATOM     66  C   UNL     1      10.006  -2.807   8.920  1.00  0.00    -0.014 A 
ATOM     67  C   UNL     1      11.232  -2.126   8.871  1.00  0.00     0.009 A 
ATOM     68  C   UNL     1       8.828  -2.072   9.121  1.00  0.00     0.009 A 
ATOM     69  C   UNL     1      11.279  -0.741   9.043  1.00  0.00     0.001 A 
ATOM     70  C   UNL     1       8.875  -0.684   9.267  1.00  0.00     0.001 A 
ATOM     71  C   UNL     1      10.100  -0.021   9.236  1.00  0.00     0.000 A 
ENDBRANCH  47  66
BRANCH  59  72
ATOM     72  C   UNL     1      12.009  -8.124  12.933  1.00  0.00    -0.014 A 
ATOM     73  C   UNL     1      11.310  -7.822  14.112  1.00  0.00     0.009 A 
ATOM     74  C   UNL     1      13.353  -8.520  13.019  1.00  0.00     0.009 A 
ATOM     75  C   UNL     1      11.954  -7.886  15.349  1.00  0.00     0.001 A 
ATOM     76  C   UNL     1      13.987  -8.607  14.259  1.00  0.00     0.001 A 
ATOM     77  C   UNL     1      13.290  -8.282  15.421  1.00  0.00     0.000 A 
ENDBRANCH  59  72
ENDBRANCH  33  34
ENDBRANCH  25  28
ENDBRANCH  23  24
ENDBRANCH  22  23
ENDBRANCH   1  22
TORSDOF 13
