REMARK SMILES O=C(COc1ccc(NC(=O)c2ccc(Br)cc2)cc1-c1nc2ccccc2o1)NCCCNC(=O)c1ccc(-c2c3nc(c(-c4ccccc4)c4ccc([nH]4)c(-c4ccccc4)c4nc(c(-c5ccccc5)c5ccc2[nH]5)C=C4)C=C3)cc1
REMARK SMILES IDX 31 1 30 2 1 3 2 4 3 6 4 7 5 8 6 9 20 10 7 11 19 12 8 13
REMARK SMILES IDX 21 14 22 15 29 16 23 17 28 18 24 19 27 20 25 21 26 22 9 23
REMARK SMILES IDX 10 24 11 26 12 27 13 28 18 29 14 30 17 31 15 32 16 33 32 34
REMARK SMILES IDX 33 35 34 36 35 37 36 39 37 40 38 41 84 42 39 43 83 44 40 45
REMARK SMILES IDX 41 46 42 47 77 48 43 49 82 50 76 51 78 52 44 53 81 54 75 55
REMARK SMILES IDX 74 56 45 58 67 59 52 60 66 61 53 62 56 63 65 64 79 65 54 66
REMARK SMILES IDX 55 67 64 69 80 70 57 71 46 72 47 73 51 74 48 75 50 76 49 77
REMARK SMILES IDX 68 78 69 79 73 80 70 81 72 82 71 83 58 84 59 85 63 86 60 87
REMARK SMILES IDX 62 88 61 89
REMARK H PARENT 30 5 9 25 34 38 78 57 56 68
REMARK Flexibility Score: inf
ROOT
ATOM      1  C   UNL     1       3.642   2.160  -0.160  1.00  0.00     0.117 C 
ENDROOT
BRANCH   1   2
ATOM      2  N   UNL     1       4.646   1.185   0.244  1.00  0.00    -0.353 N 
ATOM      3  O   UNL     1       4.113  -0.180   2.017  1.00  0.00    -0.271 OA
ATOM      4  C   UNL     1       4.240  -0.026   0.807  1.00  0.00     0.257 C 
ATOM      5  H   UNL     1       5.603   1.379   0.122  1.00  0.00     0.163 HD
BRANCH   4   6
ATOM      6  C   UNL     1       4.062  -1.144  -0.231  1.00  0.00     0.329 C 
BRANCH   6   7
ATOM      7  O   UNL     1       3.874  -0.408  -1.437  1.00  0.00    -0.483 OA
BRANCH   7   8
ATOM      8  C   UNL     1       3.014  -0.859  -2.391  1.00  0.00     0.132 A 
ATOM      9  C   UNL     1       3.734  -1.254  -3.506  1.00  0.00     0.049 A 
ATOM     10  C   UNL     1       1.639  -0.502  -2.450  1.00  0.00     0.081 A 
ATOM     11  C   UNL     1       3.134  -1.217  -4.740  1.00  0.00     0.030 A 
ATOM     12  C   UNL     1       1.039  -0.512  -3.731  1.00  0.00     0.043 A 
ATOM     13  C   UNL     1       1.785  -0.892  -4.880  1.00  0.00     0.042 A 
BRANCH  10  14
ATOM     14  C   UNL     1       0.950  -0.141  -1.188  1.00  0.00     0.231 A 
ATOM     15  N   UNL     1       1.424  -0.388   0.018  1.00  0.00    -0.209 NA
ATOM     16  O   UNL     1      -0.215   0.609  -1.169  1.00  0.00    -0.436 OA
ATOM     17  C   UNL     1       0.675   0.355   0.868  1.00  0.00     0.110 A 
ATOM     18  C   UNL     1      -0.379   0.925   0.177  1.00  0.00     0.155 A 
ATOM     19  C   UNL     1       0.872   0.627   2.228  1.00  0.00     0.032 A 
ATOM     20  C   UNL     1      -1.350   1.702   0.809  1.00  0.00     0.049 A 
ATOM     21  C   UNL     1      -0.041   1.459   2.875  1.00  0.00     0.003 A 
ATOM     22  C   UNL     1      -1.149   1.959   2.184  1.00  0.00     0.004 A 
ENDBRANCH  10  14
BRANCH  13  23
ATOM     23  N   UNL     1       1.197  -0.881  -6.166  1.00  0.00    -0.322 N 
ATOM     24  C   UNL     1       1.657  -1.425  -7.363  1.00  0.00     0.255 C 
ATOM     25  H   UNL     1       0.330  -0.418  -6.223  1.00  0.00     0.170 HD
ATOM     26  O   UNL     1       1.210  -1.020  -8.435  1.00  0.00    -0.269 OA
BRANCH  24  27
ATOM     27  C   UNL     1       2.659  -2.532  -7.391  1.00  0.00     0.040 A 
ATOM     28  C   UNL     1       3.749  -2.453  -8.270  1.00  0.00     0.015 A 
ATOM     29  C   UNL     1       2.562  -3.617  -6.506  1.00  0.00     0.015 A 
ATOM     30  C   UNL     1       4.775  -3.405  -8.203  1.00  0.00     0.016 A 
ATOM     31  C   UNL     1       3.598  -4.553  -6.426  1.00  0.00     0.016 A 
ATOM     32  C   UNL     1       4.704  -4.436  -7.266  1.00  0.00     0.018 A 
ATOM     33  Br  UNL     1       6.129  -5.670  -7.112  1.00  0.00    -0.051 Br
ENDBRANCH  24  27
ENDBRANCH  13  23
ENDBRANCH   7   8
ENDBRANCH   6   7
ENDBRANCH   4   6
ENDBRANCH   1   2
BRANCH   1  34
ATOM     34  C   UNL     1       3.288   3.167   0.907  1.00  0.00     0.042 C 
BRANCH  34  35
ATOM     35  C   UNL     1       4.502   3.957   1.329  1.00  0.00     0.118 C 
BRANCH  35  36
ATOM     36  N   UNL     1       5.028   4.798   0.262  1.00  0.00    -0.352 N 
ATOM     37  C   UNL     1       5.631   6.026   0.373  1.00  0.00     0.251 C 
ATOM     38  H   UNL     1       4.940   4.442  -0.652  1.00  0.00     0.163 HD
ATOM     39  O   UNL     1       5.894   6.685  -0.619  1.00  0.00    -0.269 OA
BRANCH  37  40
ATOM     40  C   UNL     1       5.929   6.543   1.724  1.00  0.00     0.039 A 
ATOM     41  C   UNL     1       5.690   7.888   1.998  1.00  0.00     0.014 A 
ATOM     42  C   UNL     1       6.422   5.693   2.718  1.00  0.00     0.014 A 
ATOM     43  C   UNL     1       5.936   8.373   3.280  1.00  0.00     0.010 A 
ATOM     44  C   UNL     1       6.534   6.143   4.021  1.00  0.00     0.010 A 
ATOM     45  C   UNL     1       6.349   7.500   4.301  1.00  0.00    -0.014 A 
BRANCH  45  46
ATOM     46  C   UNL     1       6.685   8.008   5.648  1.00  0.00     0.031 A 
ATOM     47  C   UNL     1       8.094   7.870   6.161  1.00  0.00     0.074 A 
ATOM     48  C   UNL     1       5.725   8.572   6.402  1.00  0.00     0.049 A 
ATOM     49  N   UNL     1       8.600   8.274   7.298  1.00  0.00    -0.248 NA
ATOM     50  C   UNL     1       9.056   7.158   5.301  1.00  0.00     0.031 C 
ATOM     51  C   UNL     1       4.315   8.705   6.025  1.00  0.00     0.029 A 
ATOM     52  N   UNL     1       5.795   9.154   7.640  1.00  0.00    -0.354 N 
ATOM     53  C   UNL     1       9.924   7.849   7.290  1.00  0.00     0.074 A 
ATOM     54  C   UNL     1      10.124   7.092   6.078  1.00  0.00     0.031 C 
ATOM     55  C   UNL     1       3.667   9.381   6.987  1.00  0.00     0.029 A 
ATOM     56  C   UNL     1       4.604   9.692   8.060  1.00  0.00     0.049 A 
ATOM     57  H   UNL     1       6.620   9.184   8.176  1.00  0.00     0.167 HD
ATOM     58  C   UNL     1      10.898   8.097   8.195  1.00  0.00     0.031 A 
ATOM     59  C   UNL     1       4.311  10.372   9.182  1.00  0.00     0.031 A 
ATOM     60  C   UNL     1      10.693   8.867   9.390  1.00  0.00     0.049 A 
ATOM     61  C   UNL     1       5.412  10.644  10.168  1.00  0.00     0.074 A 
ATOM     62  C   UNL     1      11.615   9.226  10.355  1.00  0.00     0.029 A 
ATOM     63  N   UNL     1       9.472   9.398   9.779  1.00  0.00    -0.354 N 
ATOM     64  N   UNL     1       6.677  10.301  10.113  1.00  0.00    -0.248 NA
ATOM     65  C   UNL     1       5.048  11.421  11.360  1.00  0.00     0.031 C 
ATOM     66  C   UNL     1      10.940   9.930  11.358  1.00  0.00     0.029 A 
ATOM     67  C   UNL     1       9.613  10.068  10.982  1.00  0.00     0.049 A 
ATOM     68  H   UNL     1       8.631   9.312   9.275  1.00  0.00     0.167 HD
ATOM     69  C   UNL     1       7.267  10.846  11.246  1.00  0.00     0.074 A 
ATOM     70  C   UNL     1       6.224  11.561  11.954  1.00  0.00     0.031 C 
ATOM     71  C   UNL     1       8.555  10.767  11.666  1.00  0.00     0.031 A 
BRANCH  58  72
ATOM     72  C   UNL     1      12.262   7.526   7.918  1.00  0.00    -0.014 A 
ATOM     73  C   UNL     1      13.044   7.984   6.843  1.00  0.00     0.009 A 
ATOM     74  C   UNL     1      12.780   6.521   8.748  1.00  0.00     0.009 A 
ATOM     75  C   UNL     1      14.293   7.418   6.581  1.00  0.00     0.001 A 
ATOM     76  C   UNL     1      14.045   5.981   8.505  1.00  0.00     0.001 A 
ATOM     77  C   UNL     1      14.796   6.422   7.416  1.00  0.00     0.000 A 
ENDBRANCH  58  72
BRANCH  59  78
ATOM     78  C   UNL     1       2.931  10.874   9.412  1.00  0.00    -0.014 A 
ATOM     79  C   UNL     1       2.656  12.250   9.384  1.00  0.00     0.009 A 
ATOM     80  C   UNL     1       1.879   9.979   9.665  1.00  0.00     0.009 A 
ATOM     81  C   UNL     1       1.365  12.721   9.638  1.00  0.00     0.001 A 
ATOM     82  C   UNL     1       0.584  10.450   9.886  1.00  0.00     0.001 A 
ATOM     83  C   UNL     1       0.330  11.821   9.885  1.00  0.00     0.000 A 
ENDBRANCH  59  78
BRANCH  71  84
ATOM     84  C   UNL     1       8.905  11.510  12.924  1.00  0.00    -0.014 A 
ATOM     85  C   UNL     1       8.429  11.098  14.178  1.00  0.00     0.009 A 
ATOM     86  C   UNL     1       9.741  12.636  12.849  1.00  0.00     0.009 A 
ATOM     87  C   UNL     1       8.739  11.831  15.325  1.00  0.00     0.001 A 
ATOM     88  C   UNL     1      10.080  13.344  14.001  1.00  0.00     0.001 A 
ATOM     89  C   UNL     1       9.567  12.950  15.236  1.00  0.00     0.000 A 
ENDBRANCH  71  84
ENDBRANCH  45  46
ENDBRANCH  37  40
ENDBRANCH  35  36
ENDBRANCH  34  35
ENDBRANCH   1  34
TORSDOF 15
