REMARK SMILES Cc1ccccc1/[NH+]=C1\S[C@@H](CC(=O)Nc2ccc(C(=O)NCCCNC(=O)c3ccc(-c4c5nc(c(-c6ccccc6)c6ccc([nH]6)c(-c6ccccc6)c6nc(c(-c7ccccc7)c7ccc4[nH]7)C=C6)C=C5)cc3)cc2)C(=O)N1C
REMARK SMILES IDX 23 1 22 2 20 3 21 4 19 6 16 7 17 8 78 9 18 10 77 11 15 12
REMARK SMILES IDX 13 13 14 14 12 16 11 17 8 18 9 19 10 21 81 22 79 23 82 24
REMARK SMILES IDX 80 25 7 26 1 27 2 28 3 29 4 30 6 31 5 32 24 33 25 34 26 35
REMARK SMILES IDX 27 36 28 38 29 39 30 40 76 41 31 42 75 43 32 44 33 45 34 46
REMARK SMILES IDX 69 47 35 48 74 49 68 50 70 51 36 52 73 53 67 54 66 55 37 57
REMARK SMILES IDX 59 58 44 59 58 60 45 61 48 62 57 63 71 64 46 65 47 66 56 68
REMARK SMILES IDX 72 69 49 70 38 71 39 72 43 73 40 74 42 75 41 76 60 77 61 78
REMARK SMILES IDX 65 79 62 80 64 81 63 82 50 83 51 84 55 85 52 86 54 87 53 88
REMARK H PARENT 22 5 15 15 8 20 26 37 70 56 48 67
REMARK Flexibility Score: inf
ROOT
ATOM      1  C   UNL     1       3.191   4.940  -3.004  1.00  0.00     0.118 C 
ENDROOT
BRANCH   1   2
ATOM      2  N   UNL     1       4.138   5.928  -3.518  1.00  0.00    -0.352 N 
ATOM      3  C   UNL     1       5.474   6.127  -3.231  1.00  0.00     0.251 C 
ATOM      4  O   UNL     1       6.144   6.849  -3.967  1.00  0.00    -0.269 OA
ATOM      5  H   UNL     1       3.761   6.555  -4.176  1.00  0.00     0.163 HD
BRANCH   3   6
ATOM      6  C   UNL     1       6.135   5.482  -2.069  1.00  0.00     0.039 A 
ATOM      7  C   UNL     1       7.360   4.143   0.061  1.00  0.00     0.041 A 
ATOM      8  C   UNL     1       6.112   4.736   0.217  1.00  0.00     0.027 A 
ATOM      9  C   UNL     1       8.086   4.375  -1.100  1.00  0.00     0.027 A 
ATOM     10  C   UNL     1       5.500   5.400  -0.836  1.00  0.00     0.016 A 
ATOM     11  C   UNL     1       7.463   5.035  -2.173  1.00  0.00     0.016 A 
BRANCH   7  12
ATOM     12  N   UNL     1       7.844   3.293   1.062  1.00  0.00    -0.326 N 
ATOM     13  C   UNL     1       7.171   2.195   1.563  1.00  0.00     0.226 C 
ATOM     14  O   UNL     1       7.515   1.667   2.619  1.00  0.00    -0.275 OA
ATOM     15  H   UNL     1       8.732   3.493   1.438  1.00  0.00     0.169 HD
BRANCH  13  16
ATOM     16  C   UNL     1       6.140   1.537   0.655  1.00  0.00     0.128 C 
BRANCH  16  17
ATOM     17  C   UNL     1       4.714   1.498   1.161  1.00  0.00     0.183 C 
ATOM     18  N   UNL     1       1.044   1.840   0.675  1.00  0.00    -0.234 N 
ATOM     19  C   UNL     1       2.308   2.044   0.611  1.00  0.00     0.319 C 
ATOM     20  H   UNL     1       0.531   2.526   1.162  1.00  0.00     0.313 HD
ATOM     21  S   UNL     1       3.562   1.208  -0.241  1.00  0.00    -0.022 SA
ATOM     22  N   UNL     1       2.885   3.036   1.348  1.00  0.00    -0.193 N 
ATOM     23  C   UNL     1       4.152   2.750   1.813  1.00  0.00     0.324 C 
ATOM     24  C   UNL     1       2.165   4.199   1.825  1.00  0.00     0.301 C 
ATOM     25  O   UNL     1       4.702   3.358   2.724  1.00  0.00    -0.245 OA
BRANCH  18  26
ATOM     26  C   UNL     1       0.284   0.783   0.153  1.00  0.00     0.128 A 
ATOM     27  C   UNL     1       1.831  -1.199   0.777  1.00  0.00     0.049 C 
ATOM     28  C   UNL     1       0.556  -0.600   0.255  1.00  0.00    -0.004 A 
ATOM     29  C   UNL     1      -0.431  -1.531  -0.137  1.00  0.00     0.008 A 
ATOM     30  C   UNL     1      -1.698  -1.121  -0.538  1.00  0.00     0.001 A 
ATOM     31  C   UNL     1      -1.001   1.166  -0.274  1.00  0.00     0.052 A 
ATOM     32  C   UNL     1      -1.987   0.233  -0.601  1.00  0.00     0.004 A 
ENDBRANCH  18  26
ENDBRANCH  16  17
ENDBRANCH  13  16
ENDBRANCH   7  12
ENDBRANCH   3   6
ENDBRANCH   1   2
BRANCH   1  33
ATOM     33  C   UNL     1       2.235   5.512  -1.957  1.00  0.00     0.042 C 
BRANCH  33  34
ATOM     34  C   UNL     1       0.978   6.160  -2.523  1.00  0.00     0.118 C 
BRANCH  34  35
ATOM     35  N   UNL     1      -0.236   5.361  -2.358  1.00  0.00    -0.352 N 
ATOM     36  C   UNL     1      -1.551   5.690  -2.666  1.00  0.00     0.251 C 
ATOM     37  H   UNL     1      -0.103   4.463  -1.975  1.00  0.00     0.163 HD
ATOM     38  O   UNL     1      -2.451   4.888  -2.503  1.00  0.00    -0.269 OA
BRANCH  36  39
ATOM     39  C   UNL     1      -1.817   6.991  -3.330  1.00  0.00     0.039 A 
ATOM     40  C   UNL     1      -2.476   6.968  -4.563  1.00  0.00     0.014 A 
ATOM     41  C   UNL     1      -1.171   8.141  -2.893  1.00  0.00     0.014 A 
ATOM     42  C   UNL     1      -2.233   7.990  -5.475  1.00  0.00     0.010 A 
ATOM     43  C   UNL     1      -0.827   9.087  -3.836  1.00  0.00     0.010 A 
ATOM     44  C   UNL     1      -1.298   8.970  -5.149  1.00  0.00    -0.014 A 
BRANCH  44  45
ATOM     45  C   UNL     1      -0.637   9.811  -6.140  1.00  0.00     0.031 A 
ATOM     46  C   UNL     1      -0.846  11.271  -6.152  1.00  0.00     0.074 A 
ATOM     47  C   UNL     1       0.266   9.267  -6.988  1.00  0.00     0.049 A 
ATOM     48  N   UNL     1      -0.568  12.024  -7.162  1.00  0.00    -0.248 NA
ATOM     49  C   UNL     1      -1.440  12.002  -5.038  1.00  0.00     0.031 C 
ATOM     50  C   UNL     1       1.279   9.961  -7.779  1.00  0.00     0.029 A 
ATOM     51  N   UNL     1       0.300   7.958  -7.464  1.00  0.00    -0.354 N 
ATOM     52  C   UNL     1      -0.662  13.328  -6.746  1.00  0.00     0.074 A 
ATOM     53  C   UNL     1      -1.277  13.266  -5.440  1.00  0.00     0.031 C 
ATOM     54  C   UNL     1       1.669   9.165  -8.786  1.00  0.00     0.029 A 
ATOM     55  C   UNL     1       0.803   8.000  -8.779  1.00  0.00     0.049 A 
ATOM     56  H   UNL     1       0.023   7.151  -6.972  1.00  0.00     0.167 HD
ATOM     57  C   UNL     1      -0.104  14.311  -7.502  1.00  0.00     0.031 A 
ATOM     58  C   UNL     1       0.041   7.586  -9.835  1.00  0.00     0.031 A 
ATOM     59  C   UNL     1       0.463  13.804  -8.749  1.00  0.00     0.049 A 
ATOM     60  C   UNL     1      -0.266   8.664 -10.860  1.00  0.00     0.074 A 
ATOM     61  C   UNL     1       1.746  13.547  -9.204  1.00  0.00     0.029 A 
ATOM     62  N   UNL     1      -0.391  13.213  -9.663  1.00  0.00    -0.354 N 
ATOM     63  N   UNL     1       0.080   9.916 -10.744  1.00  0.00    -0.248 NA
ATOM     64  C   UNL     1      -1.093   8.429 -12.046  1.00  0.00     0.031 C 
ATOM     65  C   UNL     1       1.646  12.821 -10.426  1.00  0.00     0.029 A 
ATOM     66  C   UNL     1       0.305  12.650 -10.712  1.00  0.00     0.049 A 
ATOM     67  H   UNL     1      -1.371  13.196  -9.575  1.00  0.00     0.167 HD
ATOM     68  C   UNL     1      -0.522  10.650 -11.733  1.00  0.00     0.074 A 
ATOM     69  C   UNL     1      -1.233   9.674 -12.535  1.00  0.00     0.031 C 
ATOM     70  C   UNL     1      -0.446  12.012 -11.778  1.00  0.00     0.031 A 
BRANCH  57  71
ATOM     71  C   UNL     1       0.109  15.718  -7.009  1.00  0.00    -0.014 A 
ATOM     72  C   UNL     1       1.172  16.479  -7.527  1.00  0.00     0.009 A 
ATOM     73  C   UNL     1      -0.679  16.341  -6.028  1.00  0.00     0.009 A 
ATOM     74  C   UNL     1       1.486  17.749  -7.028  1.00  0.00     0.001 A 
ATOM     75  C   UNL     1      -0.347  17.594  -5.495  1.00  0.00     0.001 A 
ATOM     76  C   UNL     1       0.743  18.295  -5.990  1.00  0.00     0.000 A 
ENDBRANCH  57  71
BRANCH  58  77
ATOM     77  C   UNL     1      -0.895   6.483  -9.476  1.00  0.00    -0.014 A 
ATOM     78  C   UNL     1      -0.351   5.238  -9.101  1.00  0.00     0.009 A 
ATOM     79  C   UNL     1      -2.229   6.760  -9.146  1.00  0.00     0.009 A 
ATOM     80  C   UNL     1      -1.082   4.350  -8.308  1.00  0.00     0.001 A 
ATOM     81  C   UNL     1      -2.963   5.859  -8.367  1.00  0.00     0.001 A 
ATOM     82  C   UNL     1      -2.378   4.675  -7.917  1.00  0.00     0.000 A 
ENDBRANCH  58  77
BRANCH  70  83
ATOM     83  C   UNL     1      -1.129  12.877 -12.805  1.00  0.00    -0.014 A 
ATOM     84  C   UNL     1      -1.216  12.535 -14.159  1.00  0.00     0.009 A 
ATOM     85  C   UNL     1      -1.615  14.152 -12.437  1.00  0.00     0.009 A 
ATOM     86  C   UNL     1      -1.814  13.400 -15.088  1.00  0.00     0.001 A 
ATOM     87  C   UNL     1      -2.192  15.025 -13.361  1.00  0.00     0.001 A 
ATOM     88  C   UNL     1      -2.302  14.642 -14.689  1.00  0.00     0.000 A 
ENDBRANCH  70  83
ENDBRANCH  44  45
ENDBRANCH  36  39
ENDBRANCH  34  35
ENDBRANCH  33  34
ENDBRANCH   1  33
TORSDOF 14
