REMARK SMILES CC1(C)CN(CC(=O)NCCCNC(=O)c2ccc(-c3c4nc(c(-c5ccccc5)c5ccc([nH]5)c(-c5ccccc5)c5nc(c(-c6ccccc6)c6ccc3[nH]6)C=C5)C=C4)cc2)c2ccc(S(=O)(=O)N3CCCCC3)cc21
REMARK SMILES IDX 10 1 9 2 7 3 8 4 6 6 5 7 1 8 2 9 3 10 4 11 78 12 64 13 77 14
REMARK SMILES IDX 65 15 67 16 66 17 68 18 69 19 70 20 71 21 72 22 76 23 73 24
REMARK SMILES IDX 75 25 74 26 11 27 12 28 13 29 14 30 15 32 16 33 17 34 63 35
REMARK SMILES IDX 18 36 62 37 19 38 20 39 21 40 56 41 22 42 61 43 55 44 57 45
REMARK SMILES IDX 23 46 60 47 54 48 53 49 24 51 46 52 31 53 45 54 32 55 35 56
REMARK SMILES IDX 44 57 58 58 33 59 34 60 43 62 59 63 36 64 25 65 26 66 30 67
REMARK SMILES IDX 27 68 29 69 28 70 47 71 48 72 52 73 49 74 51 75 50 76 37 77
REMARK SMILES IDX 38 78 42 79 39 80 41 81 40 82
REMARK H PARENT 9 5 13 31 57 50 35 61
REMARK Flexibility Score: inf
ROOT
ATOM      1  C   UNL     1      -2.623   2.106   2.294  1.00  0.00     0.117 C 
ENDROOT
BRANCH   1   2
ATOM      2  N   UNL     1      -2.526   3.535   2.075  1.00  0.00    -0.354 N 
ATOM      3  C   UNL     1      -2.279   4.197   0.902  1.00  0.00     0.239 C 
ATOM      4  O   UNL     1      -2.192   5.427   0.938  1.00  0.00    -0.273 OA
ATOM      5  H   UNL     1      -2.654   4.102   2.869  1.00  0.00     0.163 HD
BRANCH   3   6
ATOM      6  C   UNL     1      -2.173   3.416  -0.415  1.00  0.00     0.216 C 
BRANCH   6   7
ATOM      7  N   UNL     1      -0.994   2.562  -0.483  1.00  0.00    -0.361 N 
ATOM      8  C   UNL     1       0.802  -0.342  -0.096  1.00  0.00     0.018 C 
ATOM      9  C   UNL     1       0.411   0.686  -1.163  1.00  0.00     0.009 C 
ATOM     10  C   UNL     1       0.611   0.104  -2.566  1.00  0.00     0.018 C 
ATOM     11  C   UNL     1      -1.056   1.185  -0.980  1.00  0.00     0.128 C 
ATOM     12  C   UNL     1       1.180   1.971  -0.980  1.00  0.00    -0.016 A 
ATOM     13  C   UNL     1       0.307   3.004  -0.625  1.00  0.00     0.041 A 
ATOM     14  C   UNL     1       2.547   2.181  -1.119  1.00  0.00     0.028 A 
ATOM     15  C   UNL     1       0.804   4.282  -0.448  1.00  0.00     0.027 A 
ATOM     16  C   UNL     1       3.051   3.470  -0.917  1.00  0.00     0.083 A 
ATOM     17  C   UNL     1       2.178   4.518  -0.598  1.00  0.00     0.024 A 
BRANCH  16  18
ATOM     18  S   UNL     1       4.818   3.661  -1.093  1.00  0.00     0.243 S 
ATOM     19  O   UNL     1       5.403   3.019   0.066  1.00  0.00    -0.207 OA
ATOM     20  O   UNL     1       5.131   3.214  -2.434  1.00  0.00    -0.207 OA
BRANCH  18  21
ATOM     21  N   UNL     1       5.185   5.324  -1.012  1.00  0.00    -0.198 NA
ATOM     22  C   UNL     1       4.751   6.151  -2.162  1.00  0.00     0.102 C 
ATOM     23  C   UNL     1       5.164   5.946   0.334  1.00  0.00     0.102 C 
ATOM     24  C   UNL     1       5.378   7.538  -2.123  1.00  0.00     0.017 C 
ATOM     25  C   UNL     1       5.767   7.346   0.319  1.00  0.00     0.017 C 
ATOM     26  C   UNL     1       5.151   8.205  -0.775  1.00  0.00     0.003 C 
ENDBRANCH  18  21
ENDBRANCH  16  18
ENDBRANCH   6   7
ENDBRANCH   3   6
ENDBRANCH   1   2
BRANCH   1  27
ATOM     27  C   UNL     1      -1.301   1.501   2.749  1.00  0.00     0.042 C 
BRANCH  27  28
ATOM     28  C   UNL     1      -0.862   1.943   4.139  1.00  0.00     0.118 C 
BRANCH  28  29
ATOM     29  N   UNL     1      -1.708   1.410   5.200  1.00  0.00    -0.352 N 
ATOM     30  C   UNL     1      -1.392   0.604   6.269  1.00  0.00     0.251 C 
ATOM     31  H   UNL     1      -2.657   1.668   5.143  1.00  0.00     0.163 HD
ATOM     32  O   UNL     1      -2.289   0.137   6.965  1.00  0.00    -0.269 OA
BRANCH  30  33
ATOM     33  C   UNL     1       0.019   0.267   6.564  1.00  0.00     0.039 A 
ATOM     34  C   UNL     1       1.022   1.232   6.482  1.00  0.00     0.014 A 
ATOM     35  C   UNL     1       0.344  -1.045   6.923  1.00  0.00     0.014 A 
ATOM     36  C   UNL     1       2.356   0.851   6.565  1.00  0.00     0.010 A 
ATOM     37  C   UNL     1       1.683  -1.407   7.103  1.00  0.00     0.010 A 
ATOM     38  C   UNL     1       2.705  -0.475   6.870  1.00  0.00    -0.014 A 
BRANCH  38  39
ATOM     39  C   UNL     1       4.140  -0.862   6.923  1.00  0.00     0.031 A 
ATOM     40  C   UNL     1       4.704  -1.859   5.945  1.00  0.00     0.074 A 
ATOM     41  C   UNL     1       4.953  -0.266   7.817  1.00  0.00     0.049 A 
ATOM     42  N   UNL     1       5.933  -2.302   5.841  1.00  0.00    -0.248 NA
ATOM     43  C   UNL     1       3.777  -2.438   4.958  1.00  0.00     0.031 C 
ATOM     44  C   UNL     1       4.531   0.731   8.804  1.00  0.00     0.029 A 
ATOM     45  N   UNL     1       6.304  -0.389   8.027  1.00  0.00    -0.354 N 
ATOM     46  C   UNL     1       5.924  -3.208   4.788  1.00  0.00     0.074 A 
ATOM     47  C   UNL     1       4.562  -3.287   4.309  1.00  0.00     0.031 C 
ATOM     48  C   UNL     1       5.607   1.163   9.478  1.00  0.00     0.029 A 
ATOM     49  C   UNL     1       6.782   0.427   9.024  1.00  0.00     0.049 A 
ATOM     50  H   UNL     1       6.876  -1.002   7.511  1.00  0.00     0.167 HD
ATOM     51  C   UNL     1       6.961  -3.899   4.258  1.00  0.00     0.031 A 
ATOM     52  C   UNL     1       8.021   0.561   9.535  1.00  0.00     0.031 A 
ATOM     53  C   UNL     1       8.319  -3.807   4.725  1.00  0.00     0.049 A 
ATOM     54  C   UNL     1       9.145  -0.254   8.960  1.00  0.00     0.074 A 
ATOM     55  C   UNL     1       9.435  -4.469   4.242  1.00  0.00     0.029 A 
ATOM     56  N   UNL     1       8.749  -3.001   5.767  1.00  0.00    -0.354 N 
ATOM     57  N   UNL     1       9.115  -1.106   7.964  1.00  0.00    -0.248 NA
ATOM     58  C   UNL     1      10.472  -0.089   9.571  1.00  0.00     0.031 C 
ATOM     59  C   UNL     1      10.529  -4.111   5.031  1.00  0.00     0.029 A 
ATOM     60  C   UNL     1      10.110  -3.169   5.956  1.00  0.00     0.049 A 
ATOM     61  H   UNL     1       8.173  -2.400   6.293  1.00  0.00     0.167 HD
ATOM     62  C   UNL     1      10.417  -1.565   7.819  1.00  0.00     0.074 A 
ATOM     63  C   UNL     1      11.218  -0.881   8.812  1.00  0.00     0.031 C 
ATOM     64  C   UNL     1      10.900  -2.479   6.943  1.00  0.00     0.031 A 
BRANCH  51  65
ATOM     65  C   UNL     1       6.691  -4.822   3.101  1.00  0.00    -0.014 A 
ATOM     66  C   UNL     1       6.831  -6.209   3.268  1.00  0.00     0.009 A 
ATOM     67  C   UNL     1       6.436  -4.315   1.818  1.00  0.00     0.009 A 
ATOM     68  C   UNL     1       6.750  -7.068   2.171  1.00  0.00     0.001 A 
ATOM     69  C   UNL     1       6.327  -5.179   0.726  1.00  0.00     0.001 A 
ATOM     70  C   UNL     1       6.497  -6.553   0.901  1.00  0.00     0.000 A 
ENDBRANCH  51  65
BRANCH  52  71
ATOM     71  C   UNL     1       8.246   1.504  10.665  1.00  0.00    -0.014 A 
ATOM     72  C   UNL     1       7.655   1.263  11.917  1.00  0.00     0.009 A 
ATOM     73  C   UNL     1       9.008   2.668  10.492  1.00  0.00     0.009 A 
ATOM     74  C   UNL     1       7.794   2.179  12.960  1.00  0.00     0.001 A 
ATOM     75  C   UNL     1       9.178   3.566  11.550  1.00  0.00     0.001 A 
ATOM     76  C   UNL     1       8.562   3.327  12.778  1.00  0.00     0.000 A 
ENDBRANCH  52  71
BRANCH  64  77
ATOM     77  C   UNL     1      12.368  -2.799   6.991  1.00  0.00    -0.014 A 
ATOM     78  C   UNL     1      13.195  -2.440   5.913  1.00  0.00     0.009 A 
ATOM     79  C   UNL     1      12.909  -3.561   8.037  1.00  0.00     0.009 A 
ATOM     80  C   UNL     1      14.526  -2.856   5.872  1.00  0.00     0.001 A 
ATOM     81  C   UNL     1      14.250  -3.949   8.008  1.00  0.00     0.001 A 
ATOM     82  C   UNL     1      15.053  -3.607   6.921  1.00  0.00     0.000 A 
ENDBRANCH  64  77
ENDBRANCH  38  39
ENDBRANCH  30  33
ENDBRANCH  28  29
ENDBRANCH  27  28
ENDBRANCH   1  27
TORSDOF 13
