REMARK SMILES COc1c(N)cc(-c2ccccc2)cc1C(=O)NCCCNC(=O)c1ccc(-c2c3nc(c(-c4ccccc4)c4ccc([nH]4)c(-c4ccccc4)c4nc(c(-c5ccccc5)c5ccc2[nH]5)C=C4)C=C3)cc1
REMARK SMILES IDX 20 1 19 2 18 3 16 4 17 5 15 7 3 8 4 9 6 10 14 11 7 12 2 13
REMARK SMILES IDX 1 14 5 15 8 18 9 19 13 20 10 21 12 22 11 23 21 24 22 25
REMARK SMILES IDX 23 26 24 28 25 29 26 30 72 31 27 32 71 33 28 34 29 35 30 36
REMARK SMILES IDX 65 37 31 38 70 39 64 40 66 41 32 42 69 43 63 44 62 45 33 47
REMARK SMILES IDX 55 48 40 49 54 50 41 51 44 52 53 53 67 54 42 55 43 56 52 58
REMARK SMILES IDX 68 59 45 60 34 61 35 62 39 63 36 64 38 65 37 66 56 67 57 68
REMARK SMILES IDX 61 69 58 70 60 71 59 72 46 73 47 74 51 75 48 76 50 77 49 78
REMARK H PARENT 18 6 5 16 5 17 22 27 66 46 44 57
REMARK Flexibility Score: inf
ROOT
ATOM      1  C   UNL     1      -1.087   0.130   1.588  1.00  0.00     0.042 C 
ENDROOT
BRANCH   1   2
ATOM      2  C   UNL     1      -1.046  -1.381   1.831  1.00  0.00     0.118 C 
BRANCH   2   3
ATOM      3  N   UNL     1      -1.690  -2.076   0.732  1.00  0.00    -0.352 N 
ATOM      4  C   UNL     1      -1.221  -2.677  -0.406  1.00  0.00     0.255 C 
ATOM      5  O   UNL     1      -2.084  -3.063  -1.200  1.00  0.00    -0.269 OA
ATOM      6  H   UNL     1      -2.668  -2.126   0.823  1.00  0.00     0.163 HD
BRANCH   4   7
ATOM      7  C   UNL     1       0.207  -2.982  -0.714  1.00  0.00     0.084 A 
ATOM      8  C   UNL     1       1.341  -2.209  -0.436  1.00  0.00     0.154 A 
ATOM      9  C   UNL     1       2.636  -2.699  -0.727  1.00  0.00     0.076 A 
ATOM     10  C   UNL     1       2.769  -3.857  -1.497  1.00  0.00     0.038 A 
ATOM     11  C   UNL     1       0.390  -4.171  -1.456  1.00  0.00     0.026 A 
ATOM     12  C   UNL     1       1.653  -4.604  -1.889  1.00  0.00    -0.015 A 
BRANCH   8  13
ATOM     13  O   UNL     1       1.254  -0.964   0.135  1.00  0.00    -0.494 OA
ATOM     14  C   UNL     1       1.414   0.058  -0.856  1.00  0.00     0.278 C 
ENDBRANCH   8  13
BRANCH   9  15
ATOM     15  N   UNL     1       3.779  -1.966  -0.400  1.00  0.00    -0.396 N 
ATOM     16  H   UNL     1       3.701  -1.148   0.143  1.00  0.00     0.156 HD
ATOM     17  H   UNL     1       4.663  -2.268  -0.711  1.00  0.00     0.156 HD
ENDBRANCH   9  15
BRANCH  12  18
ATOM     18  C   UNL     1       1.804  -5.786  -2.752  1.00  0.00    -0.018 A 
ATOM     19  C   UNL     1       2.654  -6.844  -2.390  1.00  0.00     0.009 A 
ATOM     20  C   UNL     1       1.127  -5.873  -3.980  1.00  0.00     0.009 A 
ATOM     21  C   UNL     1       2.829  -7.946  -3.231  1.00  0.00     0.001 A 
ATOM     22  C   UNL     1       1.303  -6.973  -4.824  1.00  0.00     0.001 A 
ATOM     23  C   UNL     1       2.156  -8.008  -4.449  1.00  0.00     0.000 A 
ENDBRANCH  12  18
ENDBRANCH   4   7
ENDBRANCH   2   3
ENDBRANCH   1   2
BRANCH   1  24
ATOM     24  C   UNL     1      -2.453   0.760   1.847  1.00  0.00     0.118 C 
BRANCH  24  25
ATOM     25  N   UNL     1      -2.665   1.035   3.257  1.00  0.00    -0.352 N 
ATOM     26  C   UNL     1      -2.720   2.235   3.926  1.00  0.00     0.251 C 
ATOM     27  H   UNL     1      -2.790   0.239   3.822  1.00  0.00     0.163 HD
ATOM     28  O   UNL     1      -2.662   2.244   5.152  1.00  0.00    -0.269 OA
BRANCH  26  29
ATOM     29  C   UNL     1      -2.837   3.521   3.195  1.00  0.00     0.039 A 
ATOM     30  C   UNL     1      -2.109   4.623   3.657  1.00  0.00     0.014 A 
ATOM     31  C   UNL     1      -3.708   3.674   2.113  1.00  0.00     0.014 A 
ATOM     32  C   UNL     1      -2.214   5.857   3.008  1.00  0.00     0.010 A 
ATOM     33  C   UNL     1      -3.768   4.890   1.429  1.00  0.00     0.010 A 
ATOM     34  C   UNL     1      -3.026   5.995   1.872  1.00  0.00    -0.014 A 
BRANCH  34  35
ATOM     35  C   UNL     1      -3.115   7.283   1.136  1.00  0.00     0.031 A 
ATOM     36  C   UNL     1      -4.407   8.052   1.099  1.00  0.00     0.074 A 
ATOM     37  C   UNL     1      -2.051   7.731   0.442  1.00  0.00     0.049 A 
ATOM     38  N   UNL     1      -4.704   9.138   0.429  1.00  0.00    -0.248 NA
ATOM     39  C   UNL     1      -5.517   7.520   1.906  1.00  0.00     0.031 C 
ATOM     40  C   UNL     1      -0.744   7.076   0.374  1.00  0.00     0.029 A 
ATOM     41  N   UNL     1      -1.908   8.842  -0.354  1.00  0.00    -0.354 N 
ATOM     42  C   UNL     1      -6.037   9.406   0.715  1.00  0.00     0.074 A 
ATOM     43  C   UNL     1      -6.500   8.353   1.594  1.00  0.00     0.031 C 
ATOM     44  C   UNL     1       0.071   7.801  -0.409  1.00  0.00     0.029 A 
ATOM     45  C   UNL     1      -0.666   8.948  -0.931  1.00  0.00     0.049 A 
ATOM     46  H   UNL     1      -2.627   9.498  -0.497  1.00  0.00     0.167 HD
ATOM     47  C   UNL     1      -6.805  10.439   0.293  1.00  0.00     0.031 A 
ATOM     48  C   UNL     1      -0.178   9.855  -1.797  1.00  0.00     0.031 A 
ATOM     49  C   UNL     1      -6.347  11.497  -0.568  1.00  0.00     0.049 A 
ATOM     50  C   UNL     1      -1.057  10.977  -2.271  1.00  0.00     0.074 A 
ATOM     51  C   UNL     1      -7.036  12.619  -0.996  1.00  0.00     0.029 A 
ATOM     52  N   UNL     1      -5.084  11.562  -1.133  1.00  0.00    -0.354 N 
ATOM     53  N   UNL     1      -2.300  11.241  -1.952  1.00  0.00    -0.248 NA
ATOM     54  C   UNL     1      -0.463  11.924  -3.226  1.00  0.00     0.031 C 
ATOM     55  C   UNL     1      -6.203  13.342  -1.858  1.00  0.00     0.029 A 
ATOM     56  C   UNL     1      -4.982  12.690  -1.930  1.00  0.00     0.049 A 
ATOM     57  H   UNL     1      -4.366  10.904  -0.991  1.00  0.00     0.167 HD
ATOM     58  C   UNL     1      -2.633  12.392  -2.655  1.00  0.00     0.074 A 
ATOM     59  C   UNL     1      -1.457  12.784  -3.403  1.00  0.00     0.031 C 
ATOM     60  C   UNL     1      -3.810  13.062  -2.678  1.00  0.00     0.031 A 
BRANCH  47  61
ATOM     61  C   UNL     1      -8.236  10.468   0.751  1.00  0.00    -0.014 A 
ATOM     62  C   UNL     1      -8.568  10.795   2.075  1.00  0.00     0.009 A 
ATOM     63  C   UNL     1      -9.266  10.200  -0.164  1.00  0.00     0.009 A 
ATOM     64  C   UNL     1      -9.904  10.820   2.482  1.00  0.00     0.001 A 
ATOM     65  C   UNL     1     -10.602  10.248   0.240  1.00  0.00     0.001 A 
ATOM     66  C   UNL     1     -10.919  10.550   1.564  1.00  0.00     0.000 A 
ENDBRANCH  47  61
BRANCH  48  67
ATOM     67  C   UNL     1       1.221   9.737  -2.282  1.00  0.00    -0.014 A 
ATOM     68  C   UNL     1       2.208  10.622  -1.823  1.00  0.00     0.009 A 
ATOM     69  C   UNL     1       1.574   8.740  -3.204  1.00  0.00     0.009 A 
ATOM     70  C   UNL     1       3.519  10.521  -2.293  1.00  0.00     0.001 A 
ATOM     71  C   UNL     1       2.891   8.628  -3.654  1.00  0.00     0.001 A 
ATOM     72  C   UNL     1       3.861   9.523  -3.204  1.00  0.00     0.000 A 
ENDBRANCH  48  67
BRANCH  60  73
ATOM     73  C   UNL     1      -3.878  14.295  -3.530  1.00  0.00    -0.014 A 
ATOM     74  C   UNL     1      -3.975  14.203  -4.927  1.00  0.00     0.009 A 
ATOM     75  C   UNL     1      -3.879  15.562  -2.928  1.00  0.00     0.009 A 
ATOM     76  C   UNL     1      -4.046  15.359  -5.706  1.00  0.00     0.001 A 
ATOM     77  C   UNL     1      -3.972  16.716  -3.708  1.00  0.00     0.001 A 
ATOM     78  C   UNL     1      -4.049  16.614  -5.096  1.00  0.00     0.000 A 
ENDBRANCH  60  73
ENDBRANCH  34  35
ENDBRANCH  26  29
ENDBRANCH  24  25
ENDBRANCH   1  24
TORSDOF 13
