REMARK SMILES O=C(CSc1ccc2ccccc2c1)NCCCNC(=O)c1ccc(-c2c3nc(c(-c4ccccc4)c4ccc([nH]4)c(-c4ccccc4)c4nc(c(-c5ccccc5)c5ccc2[nH]5)C=C4)C=C3)cc1
REMARK SMILES IDX 17 1 16 2 15 3 1 4 2 5 3 7 4 8 5 9 6 10 14 11 7 12 13 13
REMARK SMILES IDX 8 14 12 15 9 16 11 17 10 18 18 19 19 20 20 21 21 23 22 24
REMARK SMILES IDX 23 25 69 26 24 27 68 28 25 29 26 30 27 31 62 32 28 33 67 34
REMARK SMILES IDX 61 35 63 36 29 37 66 38 60 39 59 40 30 42 52 43 37 44 51 45
REMARK SMILES IDX 38 46 41 47 50 48 64 49 39 50 40 51 49 53 65 54 42 55 31 56
REMARK SMILES IDX 32 57 36 58 33 59 35 60 34 61 53 62 54 63 58 64 55 65 57 66
REMARK SMILES IDX 56 67 43 68 44 69 48 70 45 71 47 72 46 73
REMARK H PARENT 15 6 19 22 63 41 41 52
REMARK Flexibility Score: inf
ROOT
ATOM      1  C   UNL     1       2.429   0.278   3.304  1.00  0.00     0.042 C 
ENDROOT
BRANCH   1   2
ATOM      2  C   UNL     1       2.172   1.167   2.090  1.00  0.00     0.117 C 
BRANCH   2   3
ATOM      3  N   UNL     1       2.832   0.692   0.892  1.00  0.00    -0.355 N 
ATOM      4  O   UNL     1       0.970  -0.251  -0.063  1.00  0.00    -0.274 OA
ATOM      5  C   UNL     1       2.159   0.056  -0.130  1.00  0.00     0.230 C 
ATOM      6  H   UNL     1       3.803   0.830   0.802  1.00  0.00     0.163 HD
BRANCH   5   7
ATOM      7  C   UNL     1       3.016  -0.349  -1.318  1.00  0.00     0.174 C 
BRANCH   7   8
ATOM      8  S   UNL     1       4.197   0.950  -1.823  1.00  0.00    -0.116 SA
BRANCH   8   9
ATOM      9  C   UNL     1       3.133   2.311  -2.289  1.00  0.00     0.008 A 
ATOM     10  C   UNL     1       3.620   3.605  -2.079  1.00  0.00     0.016 A 
ATOM     11  C   UNL     1       1.882   2.152  -2.896  1.00  0.00     0.023 A 
ATOM     12  C   UNL     1       2.867   4.722  -2.450  1.00  0.00     0.010 A 
ATOM     13  C   UNL     1       1.111   3.267  -3.277  1.00  0.00    -0.017 A 
ATOM     14  C   UNL     1       1.611   4.569  -3.052  1.00  0.00    -0.018 A 
ATOM     15  C   UNL     1      -0.146   3.115  -3.886  1.00  0.00     0.009 A 
ATOM     16  C   UNL     1       0.845   5.680  -3.442  1.00  0.00     0.009 A 
ATOM     17  C   UNL     1      -0.896   4.229  -4.269  1.00  0.00     0.001 A 
ATOM     18  C   UNL     1      -0.400   5.511  -4.047  1.00  0.00     0.001 A 
ENDBRANCH   8   9
ENDBRANCH   7   8
ENDBRANCH   5   7
ENDBRANCH   2   3
ENDBRANCH   1   2
BRANCH   1  19
ATOM     19  C   UNL     1       3.892   0.164   3.727  1.00  0.00     0.118 C 
BRANCH  19  20
ATOM     20  N   UNL     1       4.493   1.438   4.091  1.00  0.00    -0.352 N 
ATOM     21  C   UNL     1       5.255   1.802   5.171  1.00  0.00     0.251 C 
ATOM     22  H   UNL     1       4.322   2.166   3.450  1.00  0.00     0.163 HD
ATOM     23  O   UNL     1       5.565   2.986   5.303  1.00  0.00    -0.269 OA
BRANCH  21  24
ATOM     24  C   UNL     1       5.692   0.823   6.195  1.00  0.00     0.039 A 
ATOM     25  C   UNL     1       5.728   1.244   7.530  1.00  0.00     0.014 A 
ATOM     26  C   UNL     1       6.119  -0.468   5.872  1.00  0.00     0.014 A 
ATOM     27  C   UNL     1       6.135   0.363   8.537  1.00  0.00     0.010 A 
ATOM     28  C   UNL     1       6.466  -1.368   6.884  1.00  0.00     0.010 A 
ATOM     29  C   UNL     1       6.478  -0.962   8.227  1.00  0.00    -0.014 A 
BRANCH  29  30
ATOM     30  C   UNL     1       6.827  -1.921   9.308  1.00  0.00     0.031 A 
ATOM     31  C   UNL     1       8.217  -2.483   9.431  1.00  0.00     0.074 A 
ATOM     32  C   UNL     1       5.873  -2.312  10.176  1.00  0.00     0.049 A 
ATOM     33  N   UNL     1       8.697  -3.303  10.333  1.00  0.00    -0.248 NA
ATOM     34  C   UNL     1       9.188  -2.089   8.400  1.00  0.00     0.031 C 
ATOM     35  C   UNL     1       4.472  -1.888  10.143  1.00  0.00     0.029 A 
ATOM     36  N   UNL     1       5.941  -3.152  11.260  1.00  0.00    -0.354 N 
ATOM     37  C   UNL     1      10.018  -3.534   9.972  1.00  0.00     0.074 A 
ATOM     38  C   UNL     1      10.253  -2.800   8.746  1.00  0.00     0.031 C 
ATOM     39  C   UNL     1       3.822  -2.440  11.181  1.00  0.00     0.029 A 
ATOM     40  C   UNL     1       4.751  -3.273  11.936  1.00  0.00     0.049 A 
ATOM     41  H   UNL     1       6.764  -3.622  11.528  1.00  0.00     0.167 HD
ATOM     42  C   UNL     1      10.958  -4.275  10.608  1.00  0.00     0.031 A 
ATOM     43  C   UNL     1       4.442  -3.967  13.047  1.00  0.00     0.031 A 
ATOM     44  C   UNL     1      10.739  -4.998  11.833  1.00  0.00     0.049 A 
ATOM     45  C   UNL     1       5.509  -4.755  13.751  1.00  0.00     0.074 A 
ATOM     46  C   UNL     1      11.648  -5.731  12.577  1.00  0.00     0.029 A 
ATOM     47  N   UNL     1       9.525  -5.079  12.495  1.00  0.00    -0.354 N 
ATOM     48  N   UNL     1       6.771  -4.904  13.433  1.00  0.00    -0.248 NA
ATOM     49  C   UNL     1       5.108  -5.456  14.979  1.00  0.00     0.031 C 
ATOM     50  C   UNL     1      10.975  -6.285  13.672  1.00  0.00     0.029 A 
ATOM     51  C   UNL     1       9.657  -5.860  13.632  1.00  0.00     0.049 A 
ATOM     52  H   UNL     1       8.691  -4.646  12.201  1.00  0.00     0.167 HD
ATOM     53  C   UNL     1       7.322  -5.693  14.434  1.00  0.00     0.074 A 
ATOM     54  C   UNL     1       6.260  -5.977  15.378  1.00  0.00     0.031 C 
ATOM     55  C   UNL     1       8.594  -6.141  14.560  1.00  0.00     0.031 A 
BRANCH  42  56
ATOM     56  C   UNL     1      12.323  -4.340   9.981  1.00  0.00    -0.014 A 
ATOM     57  C   UNL     1      13.188  -3.234  10.011  1.00  0.00     0.009 A 
ATOM     58  C   UNL     1      12.764  -5.532   9.385  1.00  0.00     0.009 A 
ATOM     59  C   UNL     1      14.453  -3.310   9.425  1.00  0.00     0.001 A 
ATOM     60  C   UNL     1      14.039  -5.612   8.822  1.00  0.00     0.001 A 
ATOM     61  C   UNL     1      14.879  -4.499   8.835  1.00  0.00     0.000 A 
ENDBRANCH  42  56
BRANCH  43  62
ATOM     62  C   UNL     1       3.063  -3.912  13.594  1.00  0.00    -0.014 A 
ATOM     63  C   UNL     1       2.791  -3.174  14.756  1.00  0.00     0.009 A 
ATOM     64  C   UNL     1       2.016  -4.598  12.960  1.00  0.00     0.009 A 
ATOM     65  C   UNL     1       1.500  -3.145  15.287  1.00  0.00     0.001 A 
ATOM     66  C   UNL     1       0.722  -4.547  13.481  1.00  0.00     0.001 A 
ATOM     67  C   UNL     1       0.467  -3.828  14.648  1.00  0.00     0.000 A 
ENDBRANCH  43  62
BRANCH  55  68
ATOM     68  C   UNL     1       8.909  -6.961  15.778  1.00  0.00    -0.014 A 
ATOM     69  C   UNL     1       8.455  -8.283  15.903  1.00  0.00     0.009 A 
ATOM     70  C   UNL     1       9.678  -6.404  16.811  1.00  0.00     0.009 A 
ATOM     71  C   UNL     1       8.732  -9.018  17.058  1.00  0.00     0.001 A 
ATOM     72  C   UNL     1       9.974  -7.150  17.954  1.00  0.00     0.001 A 
ATOM     73  C   UNL     1       9.492  -8.452  18.081  1.00  0.00     0.000 A 
ENDBRANCH  55  68
ENDBRANCH  29  30
ENDBRANCH  21  24
ENDBRANCH  19  20
ENDBRANCH   1  19
TORSDOF 12
