REMARK SMILES C[C@H](Oc1ccc(/C=C2/SC(=S)N(c3ccc(F)cc3)C2=O)cc1)C(=O)NCCCNC(=O)c1ccc(-c2c3nc(c(-c4ccccc4)c4ccc([nH]4)c(-c4ccccc4)c4nc(c(-c5ccccc5)c5ccc2[nH]5)C=C4)C=C3)cc1
REMARK SMILES IDX 28 1 27 2 25 3 26 4 2 6 1 7 3 8 4 9 5 10 24 11 6 12 23 13
REMARK SMILES IDX 7 14 8 15 9 16 10 17 21 18 11 19 13 20 22 21 12 22 14 23
REMARK SMILES IDX 15 24 20 25 16 26 19 27 17 28 18 29 29 30 30 31 31 32 32 33
REMARK SMILES IDX 33 35 34 36 35 37 81 38 36 39 80 40 37 41 38 42 39 43 74 44
REMARK SMILES IDX 40 45 79 46 73 47 75 48 41 49 78 50 72 51 71 52 42 54 64 55
REMARK SMILES IDX 49 56 63 57 50 58 53 59 62 60 76 61 51 62 52 63 61 65 77 66
REMARK SMILES IDX 54 67 43 68 44 69 48 70 45 71 47 72 46 73 65 74 66 75 70 76
REMARK SMILES IDX 67 77 69 78 68 79 55 80 56 81 60 82 57 83 59 84 58 85
REMARK H PARENT 27 5 31 34 75 53 53 64
REMARK Flexibility Score: inf
ROOT
ATOM      1  C   UNL     1      -0.931   1.708  -1.565  1.00  0.00     0.118 C 
ENDROOT
BRANCH   1   2
ATOM      2  N   UNL     1      -1.445   1.404  -0.238  1.00  0.00    -0.353 N 
ATOM      3  C   UNL     1      -0.760   1.212   0.935  1.00  0.00     0.260 C 
ATOM      4  O   UNL     1      -1.413   0.984   1.957  1.00  0.00    -0.271 OA
ATOM      5  H   UNL     1      -2.424   1.325  -0.172  1.00  0.00     0.163 HD
BRANCH   3   6
ATOM      6  C   UNL     1       0.773   1.326   0.969  1.00  0.00     0.258 C 
ATOM      7  C   UNL     1       1.165   2.771   0.645  1.00  0.00     0.064 C 
BRANCH   6   8
ATOM      8  O   UNL     1       1.209   0.306   0.071  1.00  0.00    -0.481 OA
BRANCH   8   9
ATOM      9  C   UNL     1       2.509   0.135  -0.280  1.00  0.00     0.120 A 
ATOM     10  C   UNL     1       3.601   0.886   0.138  1.00  0.00     0.047 A 
ATOM     11  C   UNL     1       2.703  -0.889  -1.209  1.00  0.00     0.047 A 
ATOM     12  C   UNL     1       4.850   0.706  -0.472  1.00  0.00     0.012 A 
ATOM     13  C   UNL     1       3.953  -1.098  -1.789  1.00  0.00     0.012 A 
ATOM     14  C   UNL     1       5.019  -0.253  -1.475  1.00  0.00    -0.024 A 
BRANCH  14  15
ATOM     15  C   UNL     1       6.301  -0.369  -2.177  1.00  0.00     0.029 C 
ATOM     16  C   UNL     1       6.478  -0.262  -3.505  1.00  0.00     0.081 C 
ATOM     17  S   UNL     1       8.004  -0.538  -4.252  1.00  0.00    -0.054 SA
ATOM     18  C   UNL     1       5.450   0.039  -4.551  1.00  0.00     0.270 C 
ATOM     19  C   UNL     1       7.338  -0.451  -5.883  1.00  0.00     0.152 C 
ATOM     20  N   UNL     1       5.975  -0.194  -5.824  1.00  0.00    -0.261 N 
ATOM     21  O   UNL     1       4.318   0.413  -4.287  1.00  0.00    -0.268 OA
ATOM     22  S   UNL     1       8.352  -0.575  -7.210  1.00  0.00    -0.051 S 
BRANCH  20  23
ATOM     23  C   UNL     1       5.103  -0.161  -6.960  1.00  0.00     0.051 A 
ATOM     24  C   UNL     1       4.135   0.849  -7.097  1.00  0.00     0.030 A 
ATOM     25  C   UNL     1       5.139  -1.182  -7.925  1.00  0.00     0.030 A 
ATOM     26  C   UNL     1       3.244   0.850  -8.175  1.00  0.00     0.041 A 
ATOM     27  C   UNL     1       4.242  -1.186  -8.998  1.00  0.00     0.041 A 
ATOM     28  C   UNL     1       3.305  -0.169  -9.114  1.00  0.00     0.123 A 
ATOM     29  F   UNL     1       2.442  -0.178 -10.138  1.00  0.00    -0.207 F 
ENDBRANCH  20  23
ENDBRANCH  14  15
ENDBRANCH   8   9
ENDBRANCH   6   8
ENDBRANCH   3   6
ENDBRANCH   1   2
BRANCH   1  30
ATOM     30  C   UNL     1      -1.238   0.619  -2.582  1.00  0.00     0.042 C 
BRANCH  30  31
ATOM     31  C   UNL     1      -2.718   0.483  -2.916  1.00  0.00     0.118 C 
BRANCH  31  32
ATOM     32  N   UNL     1      -3.259   1.654  -3.597  1.00  0.00    -0.352 N 
ATOM     33  C   UNL     1      -3.893   1.751  -4.813  1.00  0.00     0.251 C 
ATOM     34  H   UNL     1      -3.153   2.504  -3.112  1.00  0.00     0.163 HD
ATOM     35  O   UNL     1      -4.145   2.853  -5.289  1.00  0.00    -0.269 OA
BRANCH  33  36
ATOM     36  C   UNL     1      -4.250   0.527  -5.560  1.00  0.00     0.039 A 
ATOM     37  C   UNL     1      -3.972   0.462  -6.929  1.00  0.00     0.014 A 
ATOM     38  C   UNL     1      -4.850  -0.554  -4.912  1.00  0.00     0.014 A 
ATOM     39  C   UNL     1      -4.217  -0.722  -7.630  1.00  0.00     0.010 A 
ATOM     40  C   UNL     1      -5.025  -1.754  -5.593  1.00  0.00     0.010 A 
ATOM     41  C   UNL     1      -4.704  -1.852  -6.956  1.00  0.00    -0.014 A 
BRANCH  41  42
ATOM     42  C   UNL     1      -4.887  -3.158  -7.637  1.00  0.00     0.031 A 
ATOM     43  C   UNL     1      -6.259  -3.763  -7.734  1.00  0.00     0.074 A 
ATOM     44  C   UNL     1      -3.812  -3.849  -8.065  1.00  0.00     0.049 A 
ATOM     45  N   UNL     1      -6.608  -4.965  -8.118  1.00  0.00    -0.248 NA
ATOM     46  C   UNL     1      -7.385  -2.914  -7.311  1.00  0.00     0.031 C 
ATOM     47  C   UNL     1      -2.424  -3.388  -8.007  1.00  0.00     0.029 A 
ATOM     48  N   UNL     1      -3.723  -5.104  -8.614  1.00  0.00    -0.354 N 
ATOM     49  C   UNL     1      -7.984  -5.028  -7.946  1.00  0.00     0.074 A 
ATOM     50  C   UNL     1      -8.403  -3.756  -7.398  1.00  0.00     0.031 C 
ATOM     51  C   UNL     1      -1.623  -4.341  -8.511  1.00  0.00     0.029 A 
ATOM     52  C   UNL     1      -2.434  -5.496  -8.881  1.00  0.00     0.049 A 
ATOM     53  H   UNL     1      -4.508  -5.669  -8.798  1.00  0.00     0.167 HD
ATOM     54  C   UNL     1      -8.826  -6.050  -8.228  1.00  0.00     0.031 A 
ATOM     55  C   UNL     1      -1.955  -6.662  -9.353  1.00  0.00     0.031 A 
ATOM     56  C   UNL     1      -8.416  -7.303  -8.800  1.00  0.00     0.049 A 
ATOM     57  C   UNL     1      -2.910  -7.779  -9.665  1.00  0.00     0.074 A 
ATOM     58  C   UNL     1      -9.201  -8.381  -9.171  1.00  0.00     0.029 A 
ATOM     59  N   UNL     1      -7.104  -7.643  -9.092  1.00  0.00    -0.354 N 
ATOM     60  N   UNL     1      -4.213  -7.813  -9.529  1.00  0.00    -0.248 NA
ATOM     61  C   UNL     1      -2.328  -9.018 -10.203  1.00  0.00     0.031 C 
ATOM     62  C   UNL     1      -8.361  -9.386  -9.659  1.00  0.00     0.029 A 
ATOM     63  C   UNL     1      -7.057  -8.917  -9.631  1.00  0.00     0.049 A 
ATOM     64  H   UNL     1      -6.323  -7.064  -8.939  1.00  0.00     0.167 HD
ATOM     65  C   UNL     1      -4.610  -9.060  -9.992  1.00  0.00     0.074 A 
ATOM     66  C   UNL     1      -3.411  -9.753 -10.417  1.00  0.00     0.031 C 
ATOM     67  C   UNL     1      -5.857  -9.583 -10.062  1.00  0.00     0.031 A 
BRANCH  54  68
ATOM     68  C   UNL     1     -10.281  -5.852  -7.910  1.00  0.00    -0.014 A 
ATOM     69  C   UNL     1     -11.082  -4.991  -8.676  1.00  0.00     0.009 A 
ATOM     70  C   UNL     1     -10.864  -6.558  -6.846  1.00  0.00     0.009 A 
ATOM     71  C   UNL     1     -12.430  -4.812  -8.359  1.00  0.00     0.001 A 
ATOM     72  C   UNL     1     -12.218  -6.397  -6.548  1.00  0.00     0.001 A 
ATOM     73  C   UNL     1     -12.997  -5.518  -7.299  1.00  0.00     0.000 A 
ENDBRANCH  54  68
BRANCH  55  74
ATOM     74  C   UNL     1      -0.496  -6.833  -9.568  1.00  0.00    -0.014 A 
ATOM     75  C   UNL     1       0.030  -6.845 -10.869  1.00  0.00     0.009 A 
ATOM     76  C   UNL     1       0.377  -6.985  -8.480  1.00  0.00     0.009 A 
ATOM     77  C   UNL     1       1.399  -7.029 -11.076  1.00  0.00     0.001 A 
ATOM     78  C   UNL     1       1.748  -7.145  -8.690  1.00  0.00     0.001 A 
ATOM     79  C   UNL     1       2.257  -7.175  -9.988  1.00  0.00     0.000 A 
ENDBRANCH  55  74
BRANCH  67  80
ATOM     80  C   UNL     1      -5.998 -10.949 -10.667  1.00  0.00    -0.014 A 
ATOM     81  C   UNL     1      -5.650 -12.103  -9.951  1.00  0.00     0.009 A 
ATOM     82  C   UNL     1      -6.543 -11.080 -11.954  1.00  0.00     0.009 A 
ATOM     83  C   UNL     1      -5.825 -13.365 -10.523  1.00  0.00     0.001 A 
ATOM     84  C   UNL     1      -6.736 -12.343 -12.515  1.00  0.00     0.001 A 
ATOM     85  C   UNL     1      -6.372 -13.484 -11.801  1.00  0.00     0.000 A 
ENDBRANCH  67  80
ENDBRANCH  41  42
ENDBRANCH  33  36
ENDBRANCH  31  32
ENDBRANCH  30  31
ENDBRANCH   1  30
TORSDOF 14
