REMARK SMILES COc1ccc(Cl)c2c1N[C@@H](c1ccc(C(=O)NCCCNC(=O)c3ccc(-c4c5nc(c(-c6ccccc6)c6ccc([nH]6)c(-c6ccccc6)c6nc(c(-c7ccccc7)c7ccc4[nH]7)C=C6)C=C5)cc3)cc1)[C@@H]1CC=C[C@H]21
REMARK SMILES IDX 20 1 19 2 18 3 16 4 17 5 15 7 12 8 13 9 74 10 14 11 73 12
REMARK SMILES IDX 11 13 3 14 4 15 9 16 5 17 8 18 10 19 6 20 79 21 7 23 75 24
REMARK SMILES IDX 78 25 76 26 77 27 2 28 1 29 21 30 22 31 23 32 24 34 25 35
REMARK SMILES IDX 26 36 72 37 27 38 71 39 28 40 29 41 30 42 65 43 31 44 70 45
REMARK SMILES IDX 64 46 66 47 32 48 69 49 63 50 62 51 33 53 55 54 40 55 54 56
REMARK SMILES IDX 41 57 44 58 53 59 67 60 42 61 43 62 52 64 68 65 45 66 34 67
REMARK SMILES IDX 35 68 39 69 36 70 38 71 37 72 56 73 57 74 61 75 58 76 60 77
REMARK SMILES IDX 59 78 46 79 47 80 51 81 48 82 50 83 49 84
REMARK H PARENT 18 6 10 22 22 33 66 52 44 63
REMARK Flexibility Score: inf
ROOT
ATOM      1  C   UNL     1       9.860   3.306  -1.136  1.00  0.00     0.042 C 
ENDROOT
BRANCH   1   2
ATOM      2  C   UNL     1       9.920   2.270  -0.015  1.00  0.00     0.118 C 
BRANCH   2   3
ATOM      3  N   UNL     1       9.163   2.724   1.134  1.00  0.00    -0.352 N 
ATOM      4  C   UNL     1       7.878   2.477   1.541  1.00  0.00     0.251 C 
ATOM      5  O   UNL     1       7.497   3.020   2.578  1.00  0.00    -0.269 OA
ATOM      6  H   UNL     1       9.666   3.321   1.734  1.00  0.00     0.163 HD
BRANCH   4   7
ATOM      7  C   UNL     1       6.967   1.539   0.832  1.00  0.00     0.039 A 
ATOM      8  C   UNL     1       5.239  -0.402  -0.309  1.00  0.00    -0.025 A 
ATOM      9  C   UNL     1       5.200  -0.116   1.065  1.00  0.00     0.006 A 
ATOM     10  C   UNL     1       6.115   0.348  -1.105  1.00  0.00     0.006 A 
ATOM     11  C   UNL     1       6.034   0.858   1.621  1.00  0.00     0.014 A 
ATOM     12  C   UNL     1       6.968   1.303  -0.543  1.00  0.00     0.014 A 
BRANCH   8  13
ATOM     13  C   UNL     1       4.361  -1.467  -0.961  1.00  0.00     0.114 C 
ATOM     14  C   UNL     1       0.841  -2.389  -0.165  1.00  0.00     0.142 A 
ATOM     15  C   UNL     1      -0.106  -3.375  -0.430  1.00  0.00     0.050 A 
ATOM     16  C   UNL     1       2.186  -2.552  -0.554  1.00  0.00     0.083 A 
ATOM     17  C   UNL     1       0.271  -4.520  -1.125  1.00  0.00     0.025 A 
ATOM     18  C   UNL     1       2.568  -3.699  -1.277  1.00  0.00     0.005 A 
ATOM     19  N   UNL     1       3.125  -1.596  -0.217  1.00  0.00    -0.375 N 
ATOM     20  C   UNL     1       1.595  -4.682  -1.547  1.00  0.00     0.047 A 
ATOM     21  C   UNL     1       4.019  -3.886  -1.659  1.00  0.00     0.051 C 
ATOM     22  H   UNL     1       2.951  -0.993   0.541  1.00  0.00     0.161 HD
ATOM     23  Cl  UNL     1       1.981  -6.160  -2.360  1.00  0.00    -0.084 Cl
ATOM     24  C   UNL     1       5.022  -2.860  -1.060  1.00  0.00     0.031 C 
ATOM     25  C   UNL     1       4.309  -3.754  -3.135  1.00  0.00    -0.023 C 
ATOM     26  C   UNL     1       6.200  -2.919  -2.052  1.00  0.00     0.034 C 
ATOM     27  C   UNL     1       5.522  -3.229  -3.348  1.00  0.00    -0.030 C 
BRANCH  14  28
ATOM     28  O   UNL     1       0.413  -1.310   0.575  1.00  0.00    -0.495 OA
ATOM     29  C   UNL     1       0.480  -0.080  -0.148  1.00  0.00     0.278 C 
ENDBRANCH  14  28
ENDBRANCH   8  13
ENDBRANCH   4   7
ENDBRANCH   2   3
ENDBRANCH   1   2
BRANCH   1  30
ATOM     30  C   UNL     1      10.700   4.541  -0.838  1.00  0.00     0.118 C 
BRANCH  30  31
ATOM     31  N   UNL     1      12.122   4.234  -0.860  1.00  0.00    -0.352 N 
ATOM     32  C   UNL     1      13.091   4.701  -1.711  1.00  0.00     0.251 C 
ATOM     33  H   UNL     1      12.431   3.604  -0.169  1.00  0.00     0.163 HD
ATOM     34  O   UNL     1      14.179   4.144  -1.781  1.00  0.00    -0.269 OA
BRANCH  32  35
ATOM     35  C   UNL     1      12.810   5.890  -2.537  1.00  0.00     0.039 A 
ATOM     36  C   UNL     1      13.161   5.884  -3.888  1.00  0.00     0.014 A 
ATOM     37  C   UNL     1      12.222   7.018  -1.956  1.00  0.00     0.014 A 
ATOM     38  C   UNL     1      12.886   7.004  -4.673  1.00  0.00     0.010 A 
ATOM     39  C   UNL     1      11.895   8.108  -2.749  1.00  0.00     0.010 A 
ATOM     40  C   UNL     1      12.239   8.115  -4.109  1.00  0.00    -0.014 A 
BRANCH  40  41
ATOM     41  C   UNL     1      11.958   9.332  -4.897  1.00  0.00     0.031 A 
ATOM     42  C   UNL     1      12.712  10.593  -4.590  1.00  0.00     0.074 A 
ATOM     43  C   UNL     1      10.988   9.320  -5.830  1.00  0.00     0.049 A 
ATOM     44  N   UNL     1      12.537  11.794  -5.075  1.00  0.00    -0.248 NA
ATOM     45  C   UNL     1      13.796  10.496  -3.596  1.00  0.00     0.031 C 
ATOM     46  C   UNL     1      10.195   8.152  -6.213  1.00  0.00     0.029 A 
ATOM     47  N   UNL     1      10.501  10.330  -6.619  1.00  0.00    -0.354 N 
ATOM     48  C   UNL     1      13.481  12.592  -4.444  1.00  0.00     0.074 A 
ATOM     49  C   UNL     1      14.198  11.755  -3.509  1.00  0.00     0.031 C 
ATOM     50  C   UNL     1       9.333   8.508  -7.179  1.00  0.00     0.029 A 
ATOM     51  C   UNL     1       9.484   9.934  -7.452  1.00  0.00     0.049 A 
ATOM     52  H   UNL     1      10.848  11.251  -6.591  1.00  0.00     0.167 HD
ATOM     53  C   UNL     1      13.738  13.904  -4.644  1.00  0.00     0.031 A 
ATOM     54  C   UNL     1       8.753  10.645  -8.331  1.00  0.00     0.031 A 
ATOM     55  C   UNL     1      13.030  14.729  -5.581  1.00  0.00     0.049 A 
ATOM     56  C   UNL     1       9.026  12.113  -8.498  1.00  0.00     0.074 A 
ATOM     57  C   UNL     1      13.231  16.068  -5.865  1.00  0.00     0.029 A 
ATOM     58  N   UNL     1      11.996  14.293  -6.392  1.00  0.00    -0.354 N 
ATOM     59  N   UNL     1       9.921  12.856  -7.894  1.00  0.00    -0.248 NA
ATOM     60  C   UNL     1       8.197  12.839  -9.470  1.00  0.00     0.031 C 
ATOM     61  C   UNL     1      12.291  16.453  -6.822  1.00  0.00     0.029 A 
ATOM     62  C   UNL     1      11.544  15.339  -7.174  1.00  0.00     0.049 A 
ATOM     63  H   UNL     1      11.636  13.376  -6.409  1.00  0.00     0.167 HD
ATOM     64  C   UNL     1       9.789  14.126  -8.438  1.00  0.00     0.074 A 
ATOM     65  C   UNL     1       8.725  14.056  -9.417  1.00  0.00     0.031 C 
ATOM     66  C   UNL     1      10.495  15.247  -8.155  1.00  0.00     0.031 A 
BRANCH  53  67
ATOM     67  C   UNL     1      14.846  14.535  -3.854  1.00  0.00    -0.014 A 
ATOM     68  C   UNL     1      16.187  14.289  -4.184  1.00  0.00     0.009 A 
ATOM     69  C   UNL     1      14.547  15.469  -2.850  1.00  0.00     0.009 A 
ATOM     70  C   UNL     1      17.211  14.970  -3.523  1.00  0.00     0.001 A 
ATOM     71  C   UNL     1      15.573  16.163  -2.206  1.00  0.00     0.001 A 
ATOM     72  C   UNL     1      16.902  15.914  -2.544  1.00  0.00     0.000 A 
ENDBRANCH  53  67
BRANCH  54  73
ATOM     73  C   UNL     1       7.722   9.958  -9.149  1.00  0.00    -0.014 A 
ATOM     74  C   UNL     1       7.957   9.706 -10.509  1.00  0.00     0.009 A 
ATOM     75  C   UNL     1       6.522   9.514  -8.572  1.00  0.00     0.009 A 
ATOM     76  C   UNL     1       7.009   9.027 -11.277  1.00  0.00     0.001 A 
ATOM     77  C   UNL     1       5.585   8.815  -9.338  1.00  0.00     0.001 A 
ATOM     78  C   UNL     1       5.828   8.576 -10.690  1.00  0.00     0.000 A 
ENDBRANCH  54  73
BRANCH  66  79
ATOM     79  C   UNL     1      10.190  16.490  -8.939  1.00  0.00    -0.014 A 
ATOM     80  C   UNL     1       9.052  17.261  -8.665  1.00  0.00     0.009 A 
ATOM     81  C   UNL     1      11.126  16.957  -9.876  1.00  0.00     0.009 A 
ATOM     82  C   UNL     1       8.854  18.476  -9.323  1.00  0.00     0.001 A 
ATOM     83  C   UNL     1      10.938  18.184 -10.512  1.00  0.00     0.001 A 
ATOM     84  C   UNL     1       9.801  18.941 -10.237  1.00  0.00     0.000 A 
ENDBRANCH  66  79
ENDBRANCH  40  41
ENDBRANCH  32  35
ENDBRANCH  30  31
ENDBRANCH   1  30
TORSDOF 12
