REMARK SMILES O=C(NCCCNC(=O)c1ccc2c(=O)n(CCC[NH+]3CCOCC3)c(=O)[nH]c2c1)c1ccc(-c2c3nc(c(-c4ccccc4)c4ccc([nH]4)c(-c4ccccc4)c4nc(c(-c5ccccc5)c5ccc2[nH]5)C=C4)C=C3)cc1
REMARK SMILES IDX 6 1 5 2 4 3 3 4 1 5 2 6 31 8 32 9 78 10 33 11 77 12 34 13
REMARK SMILES IDX 35 14 36 15 71 16 37 17 76 18 70 19 72 20 38 21 75 22 69 23
REMARK SMILES IDX 68 24 39 26 61 27 46 28 60 29 47 30 50 31 59 32 73 33 48 34
REMARK SMILES IDX 49 35 58 37 74 38 51 39 40 40 41 41 45 42 42 43 44 44 43 45
REMARK SMILES IDX 62 46 63 47 67 48 64 49 66 50 65 51 52 52 53 53 57 54 54 55
REMARK SMILES IDX 56 56 55 57 7 58 8 59 9 61 10 62 11 63 30 64 12 65 29 66
REMARK SMILES IDX 13 67 28 68 14 69 26 70 15 72 16 73 27 74 17 75 18 76 19 77
REMARK SMILES IDX 20 78 21 79 25 80 22 82 24 83 23 84
REMARK H PARENT 3 7 72 25 50 36 7 60 28 71 20 81
REMARK Flexibility Score: inf
ROOT
ATOM      1  C   UNL     1       4.676   0.000   3.746  1.00  0.00     0.118 C 
ENDROOT
BRANCH   1   2
ATOM      2  C   UNL     1       5.115   0.558   2.401  1.00  0.00     0.042 C 
BRANCH   2   3
ATOM      3  C   UNL     1       4.684  -0.278   1.208  1.00  0.00     0.118 C 
BRANCH   3   4
ATOM      4  N   UNL     1       3.239  -0.367   1.075  1.00  0.00    -0.352 N 
ATOM      5  O   UNL     1       1.218  -0.109   0.131  1.00  0.00    -0.269 OA
ATOM      6  C   UNL     1       2.438  -0.122  -0.011  1.00  0.00     0.251 C 
ATOM      7  H   UNL     1       2.762  -0.647   1.889  1.00  0.00     0.163 HD
BRANCH   6   8
ATOM      8  C   UNL     1       3.023   0.133  -1.346  1.00  0.00     0.039 A 
ATOM      9  C   UNL     1       2.403   1.071  -2.179  1.00  0.00     0.014 A 
ATOM     10  C   UNL     1       4.131  -0.582  -1.809  1.00  0.00     0.014 A 
ATOM     11  C   UNL     1       2.905   1.305  -3.461  1.00  0.00     0.010 A 
ATOM     12  C   UNL     1       4.681  -0.289  -3.054  1.00  0.00     0.010 A 
ATOM     13  C   UNL     1       4.054   0.632  -3.904  1.00  0.00    -0.014 A 
BRANCH  13  14
ATOM     14  C   UNL     1       4.565   0.810  -5.284  1.00  0.00     0.031 A 
ATOM     15  C   UNL     1       4.525  -0.348  -6.244  1.00  0.00     0.074 A 
ATOM     16  C   UNL     1       5.092   1.988  -5.667  1.00  0.00     0.049 A 
ATOM     17  N   UNL     1       4.986  -0.423  -7.467  1.00  0.00    -0.248 NA
ATOM     18  C   UNL     1       3.906  -1.594  -5.760  1.00  0.00     0.031 C 
ATOM     19  C   UNL     1       5.199   3.182  -4.827  1.00  0.00     0.029 A 
ATOM     20  N   UNL     1       5.636   2.373  -6.867  1.00  0.00    -0.354 N 
ATOM     21  C   UNL     1       4.732  -1.723  -7.884  1.00  0.00     0.074 A 
ATOM     22  C   UNL     1       4.122  -2.418  -6.774  1.00  0.00     0.031 C 
ATOM     23  C   UNL     1       5.745   4.175  -5.548  1.00  0.00     0.029 A 
ATOM     24  C   UNL     1       6.063   3.678  -6.884  1.00  0.00     0.049 A 
ATOM     25  H   UNL     1       5.713   1.771  -7.642  1.00  0.00     0.167 HD
ATOM     26  C   UNL     1       4.964  -2.283  -9.094  1.00  0.00     0.031 A 
ATOM     27  C   UNL     1       6.646   4.395  -7.864  1.00  0.00     0.031 A 
ATOM     28  C   UNL     1       5.537  -1.583 -10.209  1.00  0.00     0.049 A 
ATOM     29  C   UNL     1       6.902   3.750  -9.198  1.00  0.00     0.074 A 
ATOM     30  C   UNL     1       5.766  -2.053 -11.490  1.00  0.00     0.029 A 
ATOM     31  N   UNL     1       5.959  -0.264 -10.181  1.00  0.00    -0.354 N 
ATOM     32  N   UNL     1       6.630   2.528  -9.587  1.00  0.00    -0.248 NA
ATOM     33  C   UNL     1       7.537   4.582 -10.231  1.00  0.00     0.031 C 
ATOM     34  C   UNL     1       6.370  -1.030 -12.226  1.00  0.00     0.029 A 
ATOM     35  C   UNL     1       6.465   0.092 -11.418  1.00  0.00     0.049 A 
ATOM     36  H   UNL     1       5.907   0.331  -9.398  1.00  0.00     0.167 HD
ATOM     37  C   UNL     1       7.040   2.449 -10.911  1.00  0.00     0.074 A 
ATOM     38  C   UNL     1       7.569   3.750 -11.265  1.00  0.00     0.031 C 
ATOM     39  C   UNL     1       6.984   1.392 -11.756  1.00  0.00     0.031 A 
BRANCH  26  40
ATOM     40  C   UNL     1       4.588  -3.725  -9.284  1.00  0.00    -0.014 A 
ATOM     41  C   UNL     1       5.591  -4.692  -9.452  1.00  0.00     0.009 A 
ATOM     42  C   UNL     1       3.243  -4.116  -9.372  1.00  0.00     0.009 A 
ATOM     43  C   UNL     1       5.255  -6.022  -9.712  1.00  0.00     0.001 A 
ATOM     44  C   UNL     1       2.910  -5.452  -9.604  1.00  0.00     0.001 A 
ATOM     45  C   UNL     1       3.915  -6.401  -9.782  1.00  0.00     0.000 A 
ENDBRANCH  26  40
BRANCH  27  46
ATOM     46  C   UNL     1       6.998   5.817  -7.620  1.00  0.00    -0.014 A 
ATOM     47  C   UNL     1       8.054   6.157  -6.759  1.00  0.00     0.009 A 
ATOM     48  C   UNL     1       6.249   6.845  -8.213  1.00  0.00     0.009 A 
ATOM     49  C   UNL     1       8.340   7.496  -6.483  1.00  0.00     0.001 A 
ATOM     50  C   UNL     1       6.554   8.183  -7.955  1.00  0.00     0.001 A 
ATOM     51  C   UNL     1       7.593   8.508  -7.084  1.00  0.00     0.000 A 
ENDBRANCH  27  46
BRANCH  39  52
ATOM     52  C   UNL     1       7.488   1.581 -13.158  1.00  0.00    -0.014 A 
ATOM     53  C   UNL     1       6.578   1.592 -14.228  1.00  0.00     0.009 A 
ATOM     54  C   UNL     1       8.863   1.624 -13.431  1.00  0.00     0.009 A 
ATOM     55  C   UNL     1       7.036   1.624 -15.545  1.00  0.00     0.001 A 
ATOM     56  C   UNL     1       9.317   1.682 -14.750  1.00  0.00     0.001 A 
ATOM     57  C   UNL     1       8.405   1.670 -15.805  1.00  0.00     0.000 A 
ENDBRANCH  39  52
ENDBRANCH  13  14
ENDBRANCH   6   8
ENDBRANCH   3   4
ENDBRANCH   2   3
ENDBRANCH   1   2
BRANCH   1  58
ATOM     58  N   UNL     1       5.273  -1.299   4.047  1.00  0.00    -0.352 N 
ATOM     59  C   UNL     1       6.120  -1.656   5.071  1.00  0.00     0.251 C 
ATOM     60  H   UNL     1       5.034  -2.025   3.426  1.00  0.00     0.163 HD
ATOM     61  O   UNL     1       6.670  -2.751   5.087  1.00  0.00    -0.269 OA
BRANCH  59  62
ATOM     62  C   UNL     1       6.378  -0.687   6.151  1.00  0.00     0.041 A 
ATOM     63  C   UNL     1       5.288  -0.050   6.758  1.00  0.00     0.015 A 
ATOM     64  C   UNL     1       7.700  -0.367   6.502  1.00  0.00     0.040 A 
ATOM     65  C   UNL     1       5.517   1.057   7.551  1.00  0.00     0.017 A 
ATOM     66  C   UNL     1       7.919   0.704   7.361  1.00  0.00     0.056 A 
ATOM     67  C   UNL     1       6.835   1.443   7.800  1.00  0.00     0.064 A 
ATOM     68  N   UNL     1       9.191   1.080   7.793  1.00  0.00    -0.307 N 
ATOM     69  C   UNL     1       7.108   2.706   8.460  1.00  0.00     0.264 A 
ATOM     70  C   UNL     1       9.423   2.093   8.700  1.00  0.00     0.328 A 
ATOM     71  H   UNL     1       9.967   0.595   7.430  1.00  0.00     0.171 HD
ATOM     72  O   UNL     1       6.237   3.560   8.346  1.00  0.00    -0.268 OA
ATOM     73  N   UNL     1       8.327   2.866   9.072  1.00  0.00    -0.260 N 
ATOM     74  O   UNL     1      10.566   2.260   9.119  1.00  0.00    -0.248 OA
BRANCH  73  75
ATOM     75  C   UNL     1       8.466   3.858  10.149  1.00  0.00     0.137 C 
BRANCH  75  76
ATOM     76  C   UNL     1       8.040   5.312   9.888  1.00  0.00     0.083 C 
BRANCH  76  77
ATOM     77  C   UNL     1       6.560   5.778   9.954  1.00  0.00     0.264 C 
BRANCH  77  78
ATOM     78  N   UNL     1       5.764   5.445  11.152  1.00  0.00    -0.331 N 
ATOM     79  C   UNL     1       5.170   4.084  11.143  1.00  0.00     0.291 C 
ATOM     80  C   UNL     1       4.627   6.399  11.300  1.00  0.00     0.291 C 
ATOM     81  H   UNL     1       6.432   5.500  11.921  1.00  0.00     0.348 HD
ATOM     82  C   UNL     1       3.929   3.874  10.247  1.00  0.00     0.221 C 
ATOM     83  C   UNL     1       3.456   6.157  10.327  1.00  0.00     0.221 C 
ATOM     84  O   UNL     1       2.914   4.845  10.513  1.00  0.00    -0.370 OA
ENDBRANCH  77  78
ENDBRANCH  76  77
ENDBRANCH  75  76
ENDBRANCH  73  75
ENDBRANCH  59  62
ENDBRANCH   1  58
TORSDOF 14
