REMARK SMILES CC1=C(CC(=O)NCCCNC(=O)c2ccc(-c3c4nc(c(-c5ccccc5)c5ccc([nH]5)c(-c5ccccc5)c5nc(c(-c6ccccc6)c6ccc3[nH]6)C=C5)C=C4)cc2)c2cc(F)ccc2/C1=C\c1cccc(OCc2ccccc2)c1
REMARK SMILES IDX 5 1 6 2 7 3 4 5 3 6 1 7 2 8 69 9 62 10 68 11 70 12 63 13
REMARK SMILES IDX 67 14 64 15 66 16 65 17 71 18 72 19 84 20 73 21 75 22 74 23
REMARK SMILES IDX 76 24 77 25 78 26 79 27 83 28 80 29 82 30 81 31 8 32 9 33
REMARK SMILES IDX 10 34 11 35 12 36 13 38 14 39 15 40 61 41 16 42 60 43 17 44
REMARK SMILES IDX 18 45 19 46 54 47 20 48 59 49 53 50 55 51 21 52 58 53 52 54
REMARK SMILES IDX 51 55 22 57 44 58 29 59 43 60 30 61 33 62 42 63 56 64 31 65
REMARK SMILES IDX 32 66 41 68 57 69 34 70 23 71 24 72 28 73 25 74 27 75 26 76
REMARK SMILES IDX 45 77 46 78 50 79 47 80 49 81 48 82 35 83 36 84 40 85 37 86
REMARK SMILES IDX 39 87 38 88
REMARK H PARENT 7 4 11 37 55 56 33 67
REMARK Flexibility Score: inf
ROOT
ATOM      1  C   UNL     1      -3.068   0.930  -1.031  1.00  0.00     0.224 C 
ATOM      2  O   UNL     1      -4.002   1.392  -1.690  1.00  0.00    -0.275 OA
ATOM      3  N   UNL     1      -3.318   0.538   0.251  1.00  0.00    -0.356 N 
ATOM      4  H   UNL     1      -4.250   0.644   0.551  1.00  0.00     0.163 HD
ENDROOT
BRANCH   1   5
ATOM      5  C   UNL     1      -1.675   0.769  -1.634  1.00  0.00     0.136 C 
BRANCH   5   6
ATOM      6  C   UNL     1      -0.682   1.731  -1.068  1.00  0.00    -0.027 C 
ATOM      7  C   UNL     1       1.085   0.156  -0.088  1.00  0.00     0.045 C 
ATOM      8  C   UNL     1       0.465   1.480  -0.394  1.00  0.00    -0.039 C 
ATOM      9  C   UNL     1       1.076   2.751   0.022  1.00  0.00    -0.014 C 
ATOM     10  C   UNL     1      -0.815   3.195  -1.198  1.00  0.00    -0.011 A 
ATOM     11  C   UNL     1       0.270   3.832  -0.567  1.00  0.00    -0.010 A 
ATOM     12  C   UNL     1       2.144   2.846   0.834  1.00  0.00     0.017 C 
ATOM     13  C   UNL     1      -1.796   3.942  -1.836  1.00  0.00     0.048 A 
ATOM     14  C   UNL     1       0.400   5.214  -0.598  1.00  0.00     0.012 A 
ATOM     15  C   UNL     1      -1.673   5.329  -1.835  1.00  0.00     0.123 A 
ATOM     16  C   UNL     1      -0.589   5.967  -1.232  1.00  0.00     0.040 A 
ATOM     17  F   UNL     1      -2.614   6.072  -2.433  1.00  0.00    -0.207 F 
BRANCH  12  18
ATOM     18  C   UNL     1       2.799   4.085   1.248  1.00  0.00    -0.021 A 
ATOM     19  C   UNL     1       2.296   4.882   2.279  1.00  0.00     0.008 A 
ATOM     20  C   UNL     1       3.946   4.483   0.553  1.00  0.00     0.054 A 
ATOM     21  C   UNL     1       2.930   6.084   2.592  1.00  0.00     0.004 A 
ATOM     22  C   UNL     1       4.615   5.654   0.898  1.00  0.00     0.120 A 
ATOM     23  C   UNL     1       4.085   6.466   1.903  1.00  0.00     0.046 A 
BRANCH  22  24
ATOM     24  O   UNL     1       5.779   6.100   0.331  1.00  0.00    -0.489 OA
BRANCH  24  25
ATOM     25  C   UNL     1       6.526   5.188  -0.489  1.00  0.00     0.265 C 
BRANCH  25  26
ATOM     26  C   UNL     1       7.128   4.041   0.295  1.00  0.00    -0.011 A 
ATOM     27  C   UNL     1       7.954   4.297   1.398  1.00  0.00     0.007 A 
ATOM     28  C   UNL     1       6.844   2.709  -0.044  1.00  0.00     0.007 A 
ATOM     29  C   UNL     1       8.458   3.245   2.164  1.00  0.00     0.000 A 
ATOM     30  C   UNL     1       7.335   1.659   0.733  1.00  0.00     0.000 A 
ATOM     31  C   UNL     1       8.140   1.928   1.838  1.00  0.00     0.000 A 
ENDBRANCH  25  26
ENDBRANCH  24  25
ENDBRANCH  22  24
ENDBRANCH  12  18
ENDBRANCH   5   6
ENDBRANCH   1   5
BRANCH   3  32
ATOM     32  C   UNL     1      -2.408  -0.012   1.236  1.00  0.00     0.117 C 
BRANCH  32  33
ATOM     33  C   UNL     1      -1.925   1.036   2.233  1.00  0.00     0.042 C 
BRANCH  33  34
ATOM     34  C   UNL     1      -3.006   1.546   3.178  1.00  0.00     0.118 C 
BRANCH  34  35
ATOM     35  N   UNL     1      -3.489   0.530   4.105  1.00  0.00    -0.352 N 
ATOM     36  C   UNL     1      -3.666   0.589   5.467  1.00  0.00     0.251 C 
ATOM     37  H   UNL     1      -3.724  -0.332   3.692  1.00  0.00     0.163 HD
ATOM     38  O   UNL     1      -3.968  -0.429   6.085  1.00  0.00    -0.269 OA
BRANCH  36  39
ATOM     39  C   UNL     1      -3.453   1.858   6.199  1.00  0.00     0.039 A 
ATOM     40  C   UNL     1      -3.897   3.074   5.680  1.00  0.00     0.014 A 
ATOM     41  C   UNL     1      -2.780   1.830   7.425  1.00  0.00     0.014 A 
ATOM     42  C   UNL     1      -3.499   4.265   6.277  1.00  0.00     0.010 A 
ATOM     43  C   UNL     1      -2.462   3.027   8.075  1.00  0.00     0.010 A 
ATOM     44  C   UNL     1      -2.762   4.258   7.473  1.00  0.00    -0.014 A 
BRANCH  44  45
ATOM     45  C   UNL     1      -2.293   5.548   8.044  1.00  0.00     0.031 A 
ATOM     46  C   UNL     1      -0.821   5.862   8.127  1.00  0.00     0.074 A 
ATOM     47  C   UNL     1      -3.197   6.479   8.407  1.00  0.00     0.049 A 
ATOM     48  N   UNL     1      -0.238   6.974   8.504  1.00  0.00    -0.248 NA
ATOM     49  C   UNL     1       0.120   4.798   7.742  1.00  0.00     0.031 C 
ATOM     50  C   UNL     1      -4.650   6.302   8.358  1.00  0.00     0.029 A 
ATOM     51  N   UNL     1      -3.034   7.770   8.844  1.00  0.00    -0.354 N 
ATOM     52  C   UNL     1       1.129   6.737   8.413  1.00  0.00     0.074 A 
ATOM     53  C   UNL     1       1.293   5.368   7.982  1.00  0.00     0.031 C 
ATOM     54  C   UNL     1      -5.243   7.462   8.678  1.00  0.00     0.029 A 
ATOM     55  C   UNL     1      -4.218   8.445   9.015  1.00  0.00     0.049 A 
ATOM     56  H   UNL     1      -2.152   8.174   9.018  1.00  0.00     0.167 HD
ATOM     57  C   UNL     1       2.154   7.589   8.651  1.00  0.00     0.031 A 
ATOM     58  C   UNL     1      -4.462   9.715   9.395  1.00  0.00     0.031 A 
ATOM     59  C   UNL     1       1.991   8.956   9.069  1.00  0.00     0.049 A 
ATOM     60  C   UNL     1      -3.307  10.630   9.684  1.00  0.00     0.074 A 
ATOM     61  C   UNL     1       2.974   9.897   9.324  1.00  0.00     0.029 A 
ATOM     62  N   UNL     1       0.773   9.579   9.290  1.00  0.00    -0.354 N 
ATOM     63  N   UNL     1      -2.022  10.393   9.578  1.00  0.00    -0.248 NA
ATOM     64  C   UNL     1      -3.632  11.990  10.140  1.00  0.00     0.031 C 
ATOM     65  C   UNL     1       2.353  11.071   9.754  1.00  0.00     0.029 A 
ATOM     66  C   UNL     1       0.981  10.886   9.696  1.00  0.00     0.049 A 
ATOM     67  H   UNL     1      -0.109   9.155   9.174  1.00  0.00     0.167 HD
ATOM     68  C   UNL     1      -1.386  11.576   9.932  1.00  0.00     0.074 A 
ATOM     69  C   UNL     1      -2.426  12.535  10.241  1.00  0.00     0.031 C 
ATOM     70  C   UNL     1      -0.059  11.837   9.995  1.00  0.00     0.031 A 
BRANCH  57  71
ATOM     71  C   UNL     1       3.558   7.076   8.475  1.00  0.00    -0.014 A 
ATOM     72  C   UNL     1       4.394   6.937   9.595  1.00  0.00     0.009 A 
ATOM     73  C   UNL     1       4.085   6.820   7.199  1.00  0.00     0.009 A 
ATOM     74  C   UNL     1       5.732   6.570   9.440  1.00  0.00     0.001 A 
ATOM     75  C   UNL     1       5.416   6.423   7.050  1.00  0.00     0.001 A 
ATOM     76  C   UNL     1       6.240   6.309   8.169  1.00  0.00     0.000 A 
ENDBRANCH  57  71
BRANCH  58  77
ATOM     77  C   UNL     1      -5.868  10.189   9.492  1.00  0.00    -0.014 A 
ATOM     78  C   UNL     1      -6.731   9.667  10.470  1.00  0.00     0.009 A 
ATOM     79  C   UNL     1      -6.372  11.123   8.575  1.00  0.00     0.009 A 
ATOM     80  C   UNL     1      -8.074  10.045  10.509  1.00  0.00     0.001 A 
ATOM     81  C   UNL     1      -7.709  11.525   8.637  1.00  0.00     0.001 A 
ATOM     82  C   UNL     1      -8.561  10.977   9.595  1.00  0.00     0.000 A 
ENDBRANCH  58  77
BRANCH  70  83
ATOM     83  C   UNL     1       0.372  13.223  10.388  1.00  0.00    -0.014 A 
ATOM     84  C   UNL     1       1.005  14.046   9.442  1.00  0.00     0.009 A 
ATOM     85  C   UNL     1       0.264  13.669  11.713  1.00  0.00     0.009 A 
ATOM     86  C   UNL     1       1.538  15.280   9.818  1.00  0.00     0.001 A 
ATOM     87  C   UNL     1       0.771  14.918  12.081  1.00  0.00     0.001 A 
ATOM     88  C   UNL     1       1.417  15.716  11.136  1.00  0.00     0.000 A 
ENDBRANCH  70  83
ENDBRANCH  44  45
ENDBRANCH  36  39
ENDBRANCH  34  35
ENDBRANCH  33  34
ENDBRANCH  32  33
ENDBRANCH   3  32
TORSDOF 15
