REMARK SMILES CC(C)Cc1ccc(-c2cc(Cl)cc3c2O[C@H](C(F)(F)F)C(C(=O)NCCCNC(=O)c2ccc(-c4c5nc(c(-c6ccccc6)c6ccc([nH]6)c(-c6ccccc6)c6nc(c(-c7ccccc7)c7ccc4[nH]7)C=C6)C=C5)cc2)=C3)cc1
REMARK SMILES IDX 26 1 25 2 23 3 24 4 22 6 9 7 10 8 15 9 11 10 14 11 16 12
REMARK SMILES IDX 12 13 13 14 80 15 17 16 8 17 5 18 6 19 82 20 7 21 81 22 4 23
REMARK SMILES IDX 2 24 1 25 3 26 18 27 19 28 20 29 21 30 27 31 28 32 29 33
REMARK SMILES IDX 30 34 31 36 32 37 33 38 79 39 34 40 78 41 35 42 36 43 37 44
REMARK SMILES IDX 72 45 38 46 77 47 71 48 73 49 39 50 76 51 70 52 69 53 40 55
REMARK SMILES IDX 62 56 47 57 61 58 48 59 51 60 60 61 74 62 49 63 50 64 59 66
REMARK SMILES IDX 75 67 52 68 41 69 42 70 46 71 43 72 45 73 44 74 63 75 64 76
REMARK SMILES IDX 68 77 65 78 67 79 66 80 53 81 54 82 58 83 55 84 57 85 56 86
REMARK H PARENT 25 5 29 35 73 54 51 65
REMARK Flexibility Score: inf
ROOT
ATOM      1  C   UNL     1      -6.434  10.569  -3.542  1.00  0.00     0.118 C 
ENDROOT
BRANCH   1   2
ATOM      2  N   UNL     1      -5.176   9.941  -3.893  1.00  0.00    -0.352 N 
ATOM      3  C   UNL     1      -4.726   8.749  -3.426  1.00  0.00     0.251 C 
ATOM      4  O   UNL     1      -3.556   8.627  -3.081  1.00  0.00    -0.270 OA
ATOM      5  H   UNL     1      -4.597  10.422  -4.528  1.00  0.00     0.163 HD
BRANCH   3   6
ATOM      6  C   UNL     1      -5.674   7.603  -3.506  1.00  0.00     0.067 C 
ATOM      7  C   UNL     1      -3.094   4.575  -2.685  1.00  0.00     0.026 A 
ATOM      8  C   UNL     1      -1.931   4.851  -3.459  1.00  0.00     0.033 A 
ATOM      9  C   UNL     1      -4.243   5.316  -3.025  1.00  0.00     0.135 A 
ATOM     10  C   UNL     1      -1.938   5.663  -4.589  1.00  0.00     0.042 A 
ATOM     11  C   UNL     1      -4.259   6.033  -4.254  1.00  0.00     0.019 A 
ATOM     12  O   UNL     1      -5.352   5.464  -2.197  1.00  0.00    -0.475 OA
ATOM     13  Cl  UNL     1      -0.471   5.982  -5.423  1.00  0.00    -0.084 Cl
ATOM     14  C   UNL     1      -3.124   6.195  -5.042  1.00  0.00     0.032 A 
ATOM     15  C   UNL     1      -5.464   6.823  -4.585  1.00  0.00     0.025 C 
ATOM     16  C   UNL     1      -5.921   6.854  -2.207  1.00  0.00     0.314 C 
BRANCH   7  17
ATOM     17  C   UNL     1      -2.932   3.407  -1.766  1.00  0.00    -0.015 A 
ATOM     18  C   UNL     1      -1.824   0.840  -1.030  1.00  0.00    -0.048 A 
ATOM     19  C   UNL     1      -1.194   2.031  -0.680  1.00  0.00     0.004 A 
ATOM     20  C   UNL     1      -3.098   0.962  -1.621  1.00  0.00     0.004 A 
ATOM     21  C   UNL     1      -1.753   3.284  -1.002  1.00  0.00     0.009 A 
ATOM     22  C   UNL     1      -3.643   2.218  -1.987  1.00  0.00     0.009 A 
BRANCH  18  23
ATOM     23  C   UNL     1      -1.248  -0.551  -0.771  1.00  0.00     0.038 C 
BRANCH  23  24
ATOM     24  C   UNL     1       0.289  -0.821  -0.738  1.00  0.00    -0.013 C 
ATOM     25  C   UNL     1       1.017  -0.289   0.502  1.00  0.00     0.008 C 
ATOM     26  C   UNL     1       0.544  -2.344  -0.763  1.00  0.00     0.008 C 
ENDBRANCH  23  24
ENDBRANCH  18  23
ENDBRANCH   7  17
BRANCH  16  27
ATOM     27  C   UNL     1      -7.448   6.887  -1.948  1.00  0.00     0.429 C 
ATOM     28  F   UNL     1      -8.006   5.659  -1.916  1.00  0.00    -0.167 F 
ATOM     29  F   UNL     1      -7.730   7.500  -0.772  1.00  0.00    -0.167 F 
ATOM     30  F   UNL     1      -8.123   7.589  -2.900  1.00  0.00    -0.167 F 
ENDBRANCH  16  27
ENDBRANCH   3   6
ENDBRANCH   1   2
BRANCH   1  31
ATOM     31  C   UNL     1      -6.178  11.860  -2.761  1.00  0.00     0.042 C 
BRANCH  31  32
ATOM     32  C   UNL     1      -5.376  12.913  -3.521  1.00  0.00     0.118 C 
BRANCH  32  33
ATOM     33  N   UNL     1      -6.022  13.346  -4.750  1.00  0.00    -0.352 N 
ATOM     34  C   UNL     1      -6.265  14.618  -5.199  1.00  0.00     0.251 C 
ATOM     35  H   UNL     1      -6.329  12.623  -5.343  1.00  0.00     0.163 HD
ATOM     36  O   UNL     1      -6.970  14.793  -6.194  1.00  0.00    -0.269 OA
BRANCH  34  37
ATOM     37  C   UNL     1      -5.700  15.780  -4.484  1.00  0.00     0.039 A 
ATOM     38  C   UNL     1      -6.496  16.913  -4.300  1.00  0.00     0.014 A 
ATOM     39  C   UNL     1      -4.384  15.765  -4.013  1.00  0.00     0.014 A 
ATOM     40  C   UNL     1      -5.983  18.016  -3.616  1.00  0.00     0.010 A 
ATOM     41  C   UNL     1      -3.910  16.823  -3.246  1.00  0.00     0.010 A 
ATOM     42  C   UNL     1      -4.690  17.974  -3.067  1.00  0.00    -0.014 A 
BRANCH  42  43
ATOM     43  C   UNL     1      -4.115  19.149  -2.365  1.00  0.00     0.031 A 
ATOM     44  C   UNL     1      -2.891  19.828  -2.923  1.00  0.00     0.074 A 
ATOM     45  C   UNL     1      -4.666  19.587  -1.216  1.00  0.00     0.049 A 
ATOM     46  N   UNL     1      -2.224  20.851  -2.450  1.00  0.00    -0.248 NA
ATOM     47  C   UNL     1      -2.321  19.264  -4.159  1.00  0.00     0.031 C 
ATOM     48  C   UNL     1      -5.827  18.994  -0.550  1.00  0.00     0.029 A 
ATOM     49  N   UNL     1      -4.321  20.640  -0.407  1.00  0.00    -0.354 N 
ATOM     50  C   UNL     1      -1.153  21.035  -3.317  1.00  0.00     0.074 A 
ATOM     51  C   UNL     1      -1.217  19.980  -4.302  1.00  0.00     0.031 C 
ATOM     52  C   UNL     1      -6.122  19.716   0.543  1.00  0.00     0.029 A 
ATOM     53  C   UNL     1      -5.150  20.796   0.677  1.00  0.00     0.049 A 
ATOM     54  H   UNL     1      -3.552  21.227  -0.586  1.00  0.00     0.167 HD
ATOM     55  C   UNL     1      -0.215  22.011  -3.315  1.00  0.00     0.031 A 
ATOM     56  C   UNL     1      -5.130  21.710   1.666  1.00  0.00     0.031 A 
ATOM     57  C   UNL     1      -0.160  23.071  -2.345  1.00  0.00     0.049 A 
ATOM     58  C   UNL     1      -4.075  22.783   1.649  1.00  0.00     0.074 A 
ATOM     59  C   UNL     1       0.718  24.138  -2.282  1.00  0.00     0.029 A 
ATOM     60  N   UNL     1      -1.024  23.197  -1.269  1.00  0.00    -0.354 N 
ATOM     61  N   UNL     1      -3.109  22.982   0.785  1.00  0.00    -0.248 NA
ATOM     62  C   UNL     1      -4.124  23.770   2.736  1.00  0.00     0.031 C 
ATOM     63  C   UNL     1       0.419  24.880  -1.135  1.00  0.00     0.029 A 
ATOM     64  C   UNL     1      -0.690  24.315  -0.524  1.00  0.00     0.049 A 
ATOM     65  H   UNL     1      -1.766  22.583  -1.064  1.00  0.00     0.167 HD
ATOM     66  C   UNL     1      -2.462  24.139   1.200  1.00  0.00     0.074 A 
ATOM     67  C   UNL     1      -3.155  24.603   2.385  1.00  0.00     0.031 C 
ATOM     68  C   UNL     1      -1.394  24.766   0.648  1.00  0.00     0.031 A 
BRANCH  55  69
ATOM     69  C   UNL     1       0.831  21.968  -4.397  1.00  0.00    -0.014 A 
ATOM     70  C   UNL     1       0.499  22.197  -5.744  1.00  0.00     0.009 A 
ATOM     71  C   UNL     1       2.170  21.715  -4.066  1.00  0.00     0.009 A 
ATOM     72  C   UNL     1       1.477  22.126  -6.738  1.00  0.00     0.001 A 
ATOM     73  C   UNL     1       3.153  21.680  -5.057  1.00  0.00     0.001 A 
ATOM     74  C   UNL     1       2.804  21.873  -6.393  1.00  0.00     0.000 A 
ENDBRANCH  55  69
BRANCH  56  75
ATOM     75  C   UNL     1      -6.159  21.674   2.740  1.00  0.00    -0.014 A 
ATOM     76  C   UNL     1      -7.134  22.681   2.829  1.00  0.00     0.009 A 
ATOM     77  C   UNL     1      -6.164  20.643   3.692  1.00  0.00     0.009 A 
ATOM     78  C   UNL     1      -8.067  22.676   3.868  1.00  0.00     0.001 A 
ATOM     79  C   UNL     1      -7.119  20.622   4.711  1.00  0.00     0.001 A 
ATOM     80  C   UNL     1      -8.061  21.645   4.806  1.00  0.00     0.000 A 
ENDBRANCH  56  75
BRANCH  68  81
ATOM     81  C   UNL     1      -0.948  26.054   1.283  1.00  0.00    -0.014 A 
ATOM     82  C   UNL     1      -0.339  26.083   2.547  1.00  0.00     0.009 A 
ATOM     83  C   UNL     1      -1.115  27.259   0.582  1.00  0.00     0.009 A 
ATOM     84  C   UNL     1       0.050  27.298   3.115  1.00  0.00     0.001 A 
ATOM     85  C   UNL     1      -0.693  28.468   1.136  1.00  0.00     0.001 A 
ATOM     86  C   UNL     1      -0.123  28.488   2.408  1.00  0.00     0.000 A 
ENDBRANCH  68  81
ENDBRANCH  42  43
ENDBRANCH  34  37
ENDBRANCH  32  33
ENDBRANCH  31  32
ENDBRANCH   1  31
TORSDOF 14
