REMARK SMILES CC[NH2+][C@@]1(C(=O)NCCCNC(=O)c2ccc(-c3c4nc(c(-c5ccccc5)c5ccc([nH]5)c(-c5ccccc5)c5nc(c(-c6ccccc6)c6ccc3[nH]6)C=C5)C=C4)cc2)CC[C@H](Oc2ccc3c(c2)OCO3)C1
REMARK SMILES IDX 9 1 8 2 7 3 5 4 6 5 4 7 62 8 75 9 63 10 64 11 3 12 2 15 1 16
REMARK SMILES IDX 65 17 66 18 67 19 71 20 68 21 70 22 69 23 72 24 74 25 73 26
REMARK SMILES IDX 10 27 11 28 12 29 13 31 14 32 15 33 61 34 16 35 60 36 17 37
REMARK SMILES IDX 18 38 19 39 54 40 20 41 59 42 53 43 55 44 21 45 58 46 52 47
REMARK SMILES IDX 51 48 22 50 44 51 29 52 43 53 30 54 33 55 42 56 56 57 31 58
REMARK SMILES IDX 32 59 41 61 57 62 34 63 23 64 24 65 28 66 25 67 27 68 26 69
REMARK SMILES IDX 45 70 46 71 50 72 47 73 49 74 48 75 35 76 36 77 40 78 37 79
REMARK SMILES IDX 39 80 38 81
REMARK H PARENT 7 6 3 13 3 14 11 30 55 49 33 60
REMARK Flexibility Score: inf
ROOT
ATOM      1  C   UNL     1       1.043   0.628   7.480  1.00  0.00     0.042 C 
ENDROOT
BRANCH   1   2
ATOM      2  C   UNL     1       1.318   1.774   6.523  1.00  0.00     0.118 C 
BRANCH   2   3
ATOM      3  N   UNL     1       2.080   1.384   5.357  1.00  0.00    -0.351 N 
ATOM      4  C   UNL     1       1.759   1.264   4.041  1.00  0.00     0.281 C 
ATOM      5  O   UNL     1       2.728   1.044   3.297  1.00  0.00    -0.268 OA
ATOM      6  H   UNL     1       3.018   1.161   5.556  1.00  0.00     0.163 HD
BRANCH   4   7
ATOM      7  C   UNL     1       0.297   1.377   3.427  1.00  0.00     0.179 C 
ATOM      8  C   UNL     1      -0.406   2.713   3.749  1.00  0.00     0.083 C 
ATOM      9  C   UNL     1      -0.636   0.290   3.971  1.00  0.00     0.124 C 
ATOM     10  C   UNL     1      -1.571   2.421   4.704  1.00  0.00     0.052 C 
ATOM     11  C   UNL     1      -1.902   0.946   4.532  1.00  0.00     0.180 C 
BRANCH   7  12
ATOM     12  N   UNL     1       0.470   1.367   1.931  1.00  0.00    -0.334 N 
ATOM     13  H   UNL     1      -0.301   1.895   1.522  1.00  0.00     0.347 HD
ATOM     14  H   UNL     1       1.388   1.775   1.754  1.00  0.00     0.347 HD
BRANCH  12  15
ATOM     15  C   UNL     1       0.491   0.041   1.305  1.00  0.00     0.257 C 
ATOM     16  C   UNL     1       1.177   0.083  -0.055  1.00  0.00     0.071 C 
ENDBRANCH  12  15
ENDBRANCH   7  12
BRANCH  11  17
ATOM     17  O   UNL     1      -2.281   0.101   5.617  1.00  0.00    -0.490 OA
BRANCH  17  18
ATOM     18  C   UNL     1      -2.567   0.492   6.879  1.00  0.00     0.123 A 
ATOM     19  C   UNL     1      -3.295   1.632   7.236  1.00  0.00     0.050 A 
ATOM     20  C   UNL     1      -2.165  -0.424   7.864  1.00  0.00     0.097 A 
ATOM     21  C   UNL     1      -3.590   1.887   8.584  1.00  0.00     0.054 A 
ATOM     22  C   UNL     1      -2.462  -0.148   9.179  1.00  0.00     0.169 A 
ATOM     23  C   UNL     1      -3.163   0.978   9.529  1.00  0.00     0.166 A 
ATOM     24  O   UNL     1      -2.131  -0.913  10.252  1.00  0.00    -0.453 OA
ATOM     25  O   UNL     1      -3.388   1.049  10.867  1.00  0.00    -0.454 OA
ATOM     26  C   UNL     1      -2.832  -0.208  11.298  1.00  0.00     0.468 C 
ENDBRANCH  17  18
ENDBRANCH  11  17
ENDBRANCH   4   7
ENDBRANCH   2   3
ENDBRANCH   1   2
BRANCH   1  27
ATOM     27  C   UNL     1       2.130   0.399   8.519  1.00  0.00     0.118 C 
BRANCH  27  28
ATOM     28  N   UNL     1       2.089   1.389   9.591  1.00  0.00    -0.352 N 
ATOM     29  C   UNL     1       1.709   1.334  10.913  1.00  0.00     0.251 C 
ATOM     30  H   UNL     1       2.398   2.280   9.311  1.00  0.00     0.163 HD
ATOM     31  O   UNL     1       1.622   2.397  11.525  1.00  0.00    -0.269 OA
BRANCH  29  32
ATOM     32  C   UNL     1       1.388   0.067  11.627  1.00  0.00     0.039 A 
ATOM     33  C   UNL     1       0.549   0.133  12.751  1.00  0.00     0.014 A 
ATOM     34  C   UNL     1       1.942  -1.165  11.287  1.00  0.00     0.014 A 
ATOM     35  C   UNL     1       0.222  -1.023  13.473  1.00  0.00     0.010 A 
ATOM     36  C   UNL     1       1.539  -2.332  11.938  1.00  0.00     0.010 A 
ATOM     37  C   UNL     1       0.696  -2.271  13.055  1.00  0.00    -0.014 A 
BRANCH  37  38
ATOM     38  C   UNL     1       0.428  -3.506  13.834  1.00  0.00     0.031 A 
ATOM     39  C   UNL     1       1.561  -4.176  14.562  1.00  0.00     0.074 A 
ATOM     40  C   UNL     1      -0.801  -4.055  13.856  1.00  0.00     0.049 A 
ATOM     41  N   UNL     1       1.550  -5.266  15.287  1.00  0.00    -0.248 NA
ATOM     42  C   UNL     1       2.889  -3.552  14.436  1.00  0.00     0.031 C 
ATOM     43  C   UNL     1      -1.972  -3.537  13.152  1.00  0.00     0.029 A 
ATOM     44  N   UNL     1      -1.266  -5.181  14.490  1.00  0.00    -0.354 N 
ATOM     45  C   UNL     1       2.865  -5.459  15.693  1.00  0.00     0.074 A 
ATOM     46  C   UNL     1       3.656  -4.417  15.078  1.00  0.00     0.031 C 
ATOM     47  C   UNL     1      -3.029  -4.324  13.414  1.00  0.00     0.029 A 
ATOM     48  C   UNL     1      -2.603  -5.422  14.277  1.00  0.00     0.049 A 
ATOM     49  H   UNL     1      -0.697  -5.760  15.045  1.00  0.00     0.167 HD
ATOM     50  C   UNL     1       3.369  -6.399  16.525  1.00  0.00     0.031 A 
ATOM     51  C   UNL     1      -3.391  -6.417  14.726  1.00  0.00     0.031 A 
ATOM     52  C   UNL     1       2.587  -7.442  17.131  1.00  0.00     0.049 A 
ATOM     53  C   UNL     1      -2.801  -7.470  15.628  1.00  0.00     0.074 A 
ATOM     54  C   UNL     1       2.994  -8.417  18.025  1.00  0.00     0.029 A 
ATOM     55  N   UNL     1       1.237  -7.650  16.896  1.00  0.00    -0.354 N 
ATOM     56  N   UNL     1      -1.575  -7.586  16.076  1.00  0.00    -0.248 NA
ATOM     57  C   UNL     1      -3.716  -8.521  16.099  1.00  0.00     0.031 C 
ATOM     58  C   UNL     1       1.901  -9.249  18.287  1.00  0.00     0.029 A 
ATOM     59  C   UNL     1       0.799  -8.754  17.607  1.00  0.00     0.049 A 
ATOM     60  H   UNL     1       0.674  -7.095  16.310  1.00  0.00     0.167 HD
ATOM     61  C   UNL     1      -1.578  -8.700  16.908  1.00  0.00     0.074 A 
ATOM     62  C   UNL     1      -2.933  -9.210  16.917  1.00  0.00     0.031 C 
ATOM     63  C   UNL     1      -0.552  -9.251  17.603  1.00  0.00     0.031 A 
BRANCH  50  64
ATOM     64  C   UNL     1       4.843  -6.334  16.815  1.00  0.00    -0.014 A 
ATOM     65  C   UNL     1       5.388  -5.279  17.566  1.00  0.00     0.009 A 
ATOM     66  C   UNL     1       5.698  -7.335  16.332  1.00  0.00     0.009 A 
ATOM     67  C   UNL     1       6.765  -5.203  17.786  1.00  0.00     0.001 A 
ATOM     68  C   UNL     1       7.070  -7.274  16.582  1.00  0.00     0.001 A 
ATOM     69  C   UNL     1       7.604  -6.203  17.296  1.00  0.00     0.000 A 
ENDBRANCH  50  64
BRANCH  51  70
ATOM     70  C   UNL     1      -4.832  -6.466  14.359  1.00  0.00    -0.014 A 
ATOM     71  C   UNL     1      -5.822  -6.242  15.329  1.00  0.00     0.009 A 
ATOM     72  C   UNL     1      -5.228  -6.774  13.048  1.00  0.00     0.009 A 
ATOM     73  C   UNL     1      -7.176  -6.363  15.004  1.00  0.00     0.001 A 
ATOM     74  C   UNL     1      -6.583  -6.864  12.719  1.00  0.00     0.001 A 
ATOM     75  C   UNL     1      -7.555  -6.671  13.699  1.00  0.00     0.000 A 
ENDBRANCH  51  70
BRANCH  63  76
ATOM     76  C   UNL     1      -0.868 -10.446  18.461  1.00  0.00    -0.014 A 
ATOM     77  C   UNL     1      -1.190 -11.690  17.897  1.00  0.00     0.009 A 
ATOM     78  C   UNL     1      -0.814 -10.328  19.859  1.00  0.00     0.009 A 
ATOM     79  C   UNL     1      -1.495 -12.779  18.716  1.00  0.00     0.001 A 
ATOM     80  C   UNL     1      -1.084 -11.427  20.675  1.00  0.00     0.001 A 
ATOM     81  C   UNL     1      -1.437 -12.648  20.103  1.00  0.00     0.000 A 
ENDBRANCH  63  76
ENDBRANCH  37  38
ENDBRANCH  29  32
ENDBRANCH  27  28
ENDBRANCH   1  27
TORSDOF 14
