REMARK SMILES C[NH2+][C@@]1(C(=O)NCCCNC(=O)c2ccc(-c3c4nc(c(-c5ccccc5)c5ccc([nH]5)c(-c5ccccc5)c5nc(c(-c6ccccc6)c6ccc3[nH]6)C=C5)C=C4)cc2)CC[C@H](Oc2cc(C)cc(C)c2C)C1
REMARK SMILES IDX 8 1 7 2 6 3 4 4 5 5 3 7 61 8 74 9 62 10 63 11 2 12 1 13
REMARK SMILES IDX 64 16 65 17 66 18 72 19 67 20 70 21 73 22 68 23 69 24 71 25
REMARK SMILES IDX 9 26 10 27 11 28 12 30 13 31 14 32 60 33 15 34 59 35 16 36
REMARK SMILES IDX 17 37 18 38 53 39 19 40 58 41 52 42 54 43 20 44 57 45 51 46
REMARK SMILES IDX 50 47 21 49 43 50 28 51 42 52 29 53 32 54 41 55 55 56 30 57
REMARK SMILES IDX 31 58 40 60 56 61 33 62 22 63 23 64 27 65 24 66 26 67 25 68
REMARK SMILES IDX 44 69 45 70 49 71 46 72 48 73 47 74 34 75 35 76 39 77 36 78
REMARK SMILES IDX 38 79 37 80
REMARK H PARENT 6 6 2 14 2 15 10 29 54 48 32 59
REMARK Flexibility Score: inf
ROOT
ATOM      1  C   UNL     1      -4.836  -0.266   0.613  1.00  0.00     0.042 C 
ENDROOT
BRANCH   1   2
ATOM      2  C   UNL     1      -3.986   0.935   0.226  1.00  0.00     0.118 C 
BRANCH   2   3
ATOM      3  N   UNL     1      -2.644   0.814   0.750  1.00  0.00    -0.351 N 
ATOM      4  C   UNL     1      -1.467   0.369   0.249  1.00  0.00     0.281 C 
ATOM      5  O   UNL     1      -0.675   0.070   1.155  1.00  0.00    -0.268 OA
ATOM      6  H   UNL     1      -2.569   1.127   1.681  1.00  0.00     0.163 HD
BRANCH   4   7
ATOM      7  C   UNL     1      -1.088   0.215  -1.288  1.00  0.00     0.179 C 
ATOM      8  C   UNL     1      -1.654   1.316  -2.194  1.00  0.00     0.083 C 
ATOM      9  C   UNL     1      -1.568  -1.104  -1.925  1.00  0.00     0.124 C 
ATOM     10  C   UNL     1      -2.776   0.720  -3.025  1.00  0.00     0.052 C 
ATOM     11  C   UNL     1      -2.761  -0.799  -2.860  1.00  0.00     0.180 C 
BRANCH   7  12
ATOM     12  N   UNL     1       0.398   0.364  -1.481  1.00  0.00    -0.336 N 
ATOM     13  C   UNL     1       1.275  -0.395  -0.600  1.00  0.00     0.331 C 
ATOM     14  H   UNL     1       0.610   0.082  -2.438  1.00  0.00     0.346 HD
ATOM     15  H   UNL     1       0.591   1.340  -1.259  1.00  0.00     0.346 HD
ENDBRANCH   7  12
BRANCH  11  16
ATOM     16  O   UNL     1      -3.899  -1.443  -2.287  1.00  0.00    -0.490 OA
BRANCH  16  17
ATOM     17  C   UNL     1      -5.202  -1.239  -2.643  1.00  0.00     0.123 A 
ATOM     18  C   UNL     1      -5.658  -0.223  -3.482  1.00  0.00     0.050 A 
ATOM     19  C   UNL     1      -6.139  -2.033  -1.943  1.00  0.00    -0.006 A 
ATOM     20  C   UNL     1      -6.999   0.181  -3.457  1.00  0.00    -0.047 A 
ATOM     21  C   UNL     1      -7.496  -1.645  -1.938  1.00  0.00    -0.044 A 
ATOM     22  C   UNL     1      -5.691  -3.228  -1.134  1.00  0.00     0.049 C 
ATOM     23  C   UNL     1      -7.435   1.420  -4.179  1.00  0.00     0.044 C 
ATOM     24  C   UNL     1      -7.907  -0.532  -2.680  1.00  0.00     0.007 A 
ATOM     25  C   UNL     1      -8.545  -2.349  -1.137  1.00  0.00     0.045 C 
ENDBRANCH  16  17
ENDBRANCH  11  16
ENDBRANCH   4   7
ENDBRANCH   2   3
ENDBRANCH   1   2
BRANCH   1  26
ATOM     26  C   UNL     1      -5.316  -0.273   2.055  1.00  0.00     0.118 C 
BRANCH  26  27
ATOM     27  N   UNL     1      -6.490   0.570   2.248  1.00  0.00    -0.352 N 
ATOM     28  C   UNL     1      -7.837   0.310   2.324  1.00  0.00     0.251 C 
ATOM     29  H   UNL     1      -6.272   1.526   2.343  1.00  0.00     0.163 HD
ATOM     30  O   UNL     1      -8.605   1.277   2.294  1.00  0.00    -0.269 OA
BRANCH  28  31
ATOM     31  C   UNL     1      -8.418  -1.058   2.416  1.00  0.00     0.039 A 
ATOM     32  C   UNL     1      -9.736  -1.250   1.963  1.00  0.00     0.014 A 
ATOM     33  C   UNL     1      -7.757  -2.141   2.990  1.00  0.00     0.014 A 
ATOM     34  C   UNL     1     -10.341  -2.514   2.007  1.00  0.00     0.010 A 
ATOM     35  C   UNL     1      -8.322  -3.419   2.962  1.00  0.00     0.010 A 
ATOM     36  C   UNL     1      -9.626  -3.617   2.485  1.00  0.00    -0.014 A 
BRANCH  36  37
ATOM     37  C   UNL     1     -10.252  -4.956   2.626  1.00  0.00     0.031 A 
ATOM     38  C   UNL     1     -10.555  -5.472   4.004  1.00  0.00     0.074 A 
ATOM     39  C   UNL     1     -10.497  -5.733   1.553  1.00  0.00     0.049 A 
ATOM     40  N   UNL     1     -11.049  -6.629   4.364  1.00  0.00    -0.248 NA
ATOM     41  C   UNL     1     -10.242  -4.573   5.127  1.00  0.00     0.031 C 
ATOM     42  C   UNL     1     -10.243  -5.358   0.167  1.00  0.00     0.029 A 
ATOM     43  N   UNL     1     -10.999  -7.008   1.460  1.00  0.00    -0.354 N 
ATOM     44  C   UNL     1     -11.097  -6.597   5.751  1.00  0.00     0.074 A 
ATOM     45  C   UNL     1     -10.527  -5.336   6.170  1.00  0.00     0.031 C 
ATOM     46  C   UNL     1     -10.583  -6.375  -0.643  1.00  0.00     0.029 A 
ATOM     47  C   UNL     1     -11.068  -7.483   0.171  1.00  0.00     0.049 A 
ATOM     48  H   UNL     1     -11.285  -7.532   2.243  1.00  0.00     0.167 HD
ATOM     49  C   UNL     1     -11.595  -7.523   6.603  1.00  0.00     0.031 A 
ATOM     50  C   UNL     1     -11.477  -8.676  -0.301  1.00  0.00     0.031 A 
ATOM     51  C   UNL     1     -12.155  -8.779   6.189  1.00  0.00     0.049 A 
ATOM     52  C   UNL     1     -11.983  -9.709   0.669  1.00  0.00     0.074 A 
ATOM     53  C   UNL     1     -12.722  -9.770   6.970  1.00  0.00     0.029 A 
ATOM     54  N   UNL     1     -12.209  -9.222   4.876  1.00  0.00    -0.354 N 
ATOM     55  N   UNL     1     -12.097  -9.632   1.973  1.00  0.00    -0.248 NA
ATOM     56  C   UNL     1     -12.438 -10.985   0.099  1.00  0.00     0.031 C 
ATOM     57  C   UNL     1     -13.069 -10.836   6.135  1.00  0.00     0.029 A 
ATOM     58  C   UNL     1     -12.776 -10.483   4.827  1.00  0.00     0.049 A 
ATOM     59  H   UNL     1     -11.892  -8.714   4.094  1.00  0.00     0.167 HD
ATOM     60  C   UNL     1     -12.672 -10.830   2.374  1.00  0.00     0.074 A 
ATOM     61  C   UNL     1     -12.893 -11.612   1.175  1.00  0.00     0.031 C 
ATOM     62  C   UNL     1     -12.994 -11.244   3.624  1.00  0.00     0.031 A 
BRANCH  49  63
ATOM     63  C   UNL     1     -11.534  -7.201   8.069  1.00  0.00    -0.014 A 
ATOM     64  C   UNL     1     -12.328  -6.183   8.623  1.00  0.00     0.009 A 
ATOM     65  C   UNL     1     -10.670  -7.921   8.906  1.00  0.00     0.009 A 
ATOM     66  C   UNL     1     -12.222  -5.862   9.977  1.00  0.00     0.001 A 
ATOM     67  C   UNL     1     -10.589  -7.619  10.266  1.00  0.00     0.001 A 
ATOM     68  C   UNL     1     -11.355  -6.582  10.798  1.00  0.00     0.000 A 
ENDBRANCH  49  63
BRANCH  50  69
ATOM     69  C   UNL     1     -11.456  -8.959  -1.762  1.00  0.00    -0.014 A 
ATOM     70  C   UNL     1     -12.656  -9.083  -2.481  1.00  0.00     0.009 A 
ATOM     71  C   UNL     1     -10.241  -9.139  -2.441  1.00  0.00     0.009 A 
ATOM     72  C   UNL     1     -12.641  -9.416  -3.838  1.00  0.00     0.001 A 
ATOM     73  C   UNL     1     -10.228  -9.443  -3.805  1.00  0.00     0.001 A 
ATOM     74  C   UNL     1     -11.428  -9.594  -4.499  1.00  0.00     0.000 A 
ENDBRANCH  50  69
BRANCH  62  75
ATOM     75  C   UNL     1     -13.664 -12.583   3.756  1.00  0.00    -0.014 A 
ATOM     76  C   UNL     1     -12.961 -13.779   3.549  1.00  0.00     0.009 A 
ATOM     77  C   UNL     1     -15.011 -12.643   4.147  1.00  0.00     0.009 A 
ATOM     78  C   UNL     1     -13.603 -15.009   3.700  1.00  0.00     0.001 A 
ATOM     79  C   UNL     1     -15.642 -13.874   4.329  1.00  0.00     0.001 A 
ATOM     80  C   UNL     1     -14.940 -15.056   4.096  1.00  0.00     0.000 A 
ENDBRANCH  62  75
ENDBRANCH  36  37
ENDBRANCH  28  31
ENDBRANCH  26  27
ENDBRANCH   1  26
TORSDOF 13
