REMARK SMILES O=C(NCCCNC(=O)c1nnn(-c2ccccc2C(F)(F)F)c1-c1cccc(Cl)c1)c1ccc(-c2c3nc(c(-c4ccccc4)c4ccc([nH]4)c(-c4ccccc4)c4nc(c(-c5ccccc5)c5ccc2[nH]5)C=C4)C=C3)cc1
REMARK SMILES IDX 5 1 4 2 3 3 1 4 2 5 32 7 33 8 79 9 34 10 78 11 35 12 36 13
REMARK SMILES IDX 37 14 72 15 38 16 77 17 71 18 73 19 39 20 76 21 70 22 69 23
REMARK SMILES IDX 40 25 62 26 47 27 61 28 48 29 51 30 60 31 74 32 49 33 50 34
REMARK SMILES IDX 59 36 75 37 52 38 41 39 42 40 46 41 43 42 45 43 44 44 63 45
REMARK SMILES IDX 64 46 68 47 65 48 67 49 66 50 53 51 54 52 58 53 55 54 57 55
REMARK SMILES IDX 56 56 6 57 7 58 8 59 9 61 10 62 11 63 24 64 12 65 13 66
REMARK SMILES IDX 25 67 26 68 31 69 27 70 29 71 28 72 30 73 14 74 15 75 19 76
REMARK SMILES IDX 16 77 18 78 17 79 20 80 21 81 22 82 23 83
REMARK H PARENT 3 6 73 24 51 35 7 60
REMARK Flexibility Score: inf
ROOT
ATOM      1  C   UNL     1       5.182  -0.415   1.961  1.00  0.00     0.042 C 
ENDROOT
BRANCH   1   2
ATOM      2  C   UNL     1       4.809  -0.850   0.547  1.00  0.00     0.118 C 
BRANCH   2   3
ATOM      3  N   UNL     1       3.393  -1.059   0.313  1.00  0.00    -0.352 N 
ATOM      4  O   UNL     1       1.266  -0.810  -0.226  1.00  0.00    -0.269 OA
ATOM      5  C   UNL     1       2.318  -0.245   0.089  1.00  0.00     0.251 C 
ATOM      6  H   UNL     1       3.148  -2.012   0.318  1.00  0.00     0.163 HD
BRANCH   5   7
ATOM      7  C   UNL     1       2.304   1.234   0.257  1.00  0.00     0.039 A 
ATOM      8  C   UNL     1       3.425   2.056   0.372  1.00  0.00     0.014 A 
ATOM      9  C   UNL     1       1.030   1.830   0.311  1.00  0.00     0.014 A 
ATOM     10  C   UNL     1       3.280   3.421   0.621  1.00  0.00     0.010 A 
ATOM     11  C   UNL     1       0.878   3.195   0.532  1.00  0.00     0.010 A 
ATOM     12  C   UNL     1       2.007   3.988   0.719  1.00  0.00    -0.014 A 
BRANCH  12  13
ATOM     13  C   UNL     1       1.894   5.437   0.884  1.00  0.00     0.031 A 
ATOM     14  C   UNL     1       2.333   6.269  -0.276  1.00  0.00     0.074 A 
ATOM     15  C   UNL     1       1.257   6.026   1.916  1.00  0.00     0.049 A 
ATOM     16  N   UNL     1       3.207   7.224  -0.297  1.00  0.00    -0.248 NA
ATOM     17  C   UNL     1       1.736   5.972  -1.587  1.00  0.00     0.031 C 
ATOM     18  C   UNL     1       0.466   5.381   2.966  1.00  0.00     0.029 A 
ATOM     19  N   UNL     1       1.078   7.357   2.161  1.00  0.00    -0.354 N 
ATOM     20  C   UNL     1       3.179   7.748  -1.590  1.00  0.00     0.074 A 
ATOM     21  C   UNL     1       2.324   6.882  -2.364  1.00  0.00     0.031 C 
ATOM     22  C   UNL     1      -0.288   6.316   3.587  1.00  0.00     0.029 A 
ATOM     23  C   UNL     1       0.063   7.628   3.066  1.00  0.00     0.049 A 
ATOM     24  H   UNL     1       1.620   8.060   1.735  1.00  0.00     0.167 HD
ATOM     25  C   UNL     1       3.721   8.955  -1.909  1.00  0.00     0.031 A 
ATOM     26  C   UNL     1      -0.501   8.833   3.321  1.00  0.00     0.031 A 
ATOM     27  C   UNL     1       4.620   9.442  -0.902  1.00  0.00     0.049 A 
ATOM     28  C   UNL     1       0.407   9.889   2.823  1.00  0.00     0.074 A 
ATOM     29  C   UNL     1       5.804   9.002  -0.346  1.00  0.00     0.029 A 
ATOM     30  N   UNL     1       4.171  10.445  -0.080  1.00  0.00    -0.354 N 
ATOM     31  N   UNL     1       1.551  10.180   3.369  1.00  0.00    -0.248 NA
ATOM     32  C   UNL     1       0.210  10.401   1.477  1.00  0.00     0.031 C 
ATOM     33  C   UNL     1       5.747   9.419   1.016  1.00  0.00     0.029 A 
ATOM     34  C   UNL     1       4.546  10.108   1.193  1.00  0.00     0.049 A 
ATOM     35  H   UNL     1       3.675  11.251  -0.353  1.00  0.00     0.167 HD
ATOM     36  C   UNL     1       2.370  10.529   2.307  1.00  0.00     0.074 A 
ATOM     37  C   UNL     1       1.460  10.771   1.192  1.00  0.00     0.031 C 
ATOM     38  C   UNL     1       3.717  10.315   2.358  1.00  0.00     0.031 A 
BRANCH  25  39
ATOM     39  C   UNL     1       3.180   9.867  -2.981  1.00  0.00    -0.014 A 
ATOM     40  C   UNL     1       3.899  11.030  -3.317  1.00  0.00     0.009 A 
ATOM     41  C   UNL     1       1.860   9.777  -3.461  1.00  0.00     0.009 A 
ATOM     42  C   UNL     1       3.306  12.073  -4.038  1.00  0.00     0.001 A 
ATOM     43  C   UNL     1       1.279  10.798  -4.220  1.00  0.00     0.001 A 
ATOM     44  C   UNL     1       1.993  11.959  -4.484  1.00  0.00     0.000 A 
ENDBRANCH  25  39
BRANCH  26  45
ATOM     45  C   UNL     1      -1.879   9.134   3.760  1.00  0.00    -0.014 A 
ATOM     46  C   UNL     1      -2.197  10.374   4.336  1.00  0.00     0.009 A 
ATOM     47  C   UNL     1      -2.943   8.296   3.379  1.00  0.00     0.009 A 
ATOM     48  C   UNL     1      -3.531  10.771   4.495  1.00  0.00     0.001 A 
ATOM     49  C   UNL     1      -4.274   8.689   3.543  1.00  0.00     0.001 A 
ATOM     50  C   UNL     1      -4.568   9.934   4.088  1.00  0.00     0.000 A 
ENDBRANCH  26  45
BRANCH  38  51
ATOM     51  C   UNL     1       4.327   9.952   3.688  1.00  0.00    -0.014 A 
ATOM     52  C   UNL     1       3.943   8.811   4.414  1.00  0.00     0.009 A 
ATOM     53  C   UNL     1       5.424  10.696   4.147  1.00  0.00     0.009 A 
ATOM     54  C   UNL     1       4.612   8.449   5.587  1.00  0.00     0.001 A 
ATOM     55  C   UNL     1       6.108  10.320   5.305  1.00  0.00     0.001 A 
ATOM     56  C   UNL     1       5.698   9.201   6.028  1.00  0.00     0.000 A 
ENDBRANCH  38  51
ENDBRANCH  12  13
ENDBRANCH   5   7
ENDBRANCH   2   3
ENDBRANCH   1   2
BRANCH   1  57
ATOM     57  C   UNL     1       4.701  -1.340   3.071  1.00  0.00     0.118 C 
BRANCH  57  58
ATOM     58  N   UNL     1       5.301  -2.660   3.023  1.00  0.00    -0.351 N 
ATOM     59  C   UNL     1       6.010  -3.331   3.992  1.00  0.00     0.274 C 
ATOM     60  H   UNL     1       5.183  -3.146   2.175  1.00  0.00     0.163 HD
ATOM     61  O   UNL     1       6.501  -4.423   3.704  1.00  0.00    -0.267 OA
BRANCH  59  62
ATOM     62  C   UNL     1       6.169  -2.736   5.308  1.00  0.00     0.178 A 
ATOM     63  N   UNL     1       7.407  -2.433   5.811  1.00  0.00    -0.124 NA
ATOM     64  C   UNL     1       5.191  -2.344   6.218  1.00  0.00     0.108 A 
ATOM     65  N   UNL     1       7.244  -1.807   6.965  1.00  0.00    -0.061 NA
ATOM     66  N   UNL     1       5.932  -1.852   7.290  1.00  0.00    -0.211 N 
BRANCH  64  67
ATOM     67  C   UNL     1       3.735  -2.300   6.095  1.00  0.00     0.004 A 
ATOM     68  C   UNL     1       3.054  -1.076   6.204  1.00  0.00     0.010 A 
ATOM     69  C   UNL     1       3.006  -3.466   5.836  1.00  0.00     0.031 A 
ATOM     70  C   UNL     1       1.667  -1.020   6.081  1.00  0.00     0.002 A 
ATOM     71  C   UNL     1       1.616  -3.404   5.729  1.00  0.00     0.041 A 
ATOM     72  C   UNL     1       0.945  -2.188   5.850  1.00  0.00     0.020 A 
ATOM     73  Cl  UNL     1       0.718  -4.846   5.457  1.00  0.00    -0.084 Cl
ENDBRANCH  64  67
BRANCH  66  74
ATOM     74  C   UNL     1       5.466  -1.248   8.485  1.00  0.00     0.079 A 
ATOM     75  C   UNL     1       5.969   0.032   8.783  1.00  0.00     0.029 A 
ATOM     76  C   UNL     1       4.490  -1.838   9.312  1.00  0.00     0.081 A 
ATOM     77  C   UNL     1       5.431   0.771   9.835  1.00  0.00     0.002 A 
ATOM     78  C   UNL     1       3.953  -1.061  10.360  1.00  0.00     0.015 A 
ATOM     79  C   UNL     1       4.408   0.234  10.609  1.00  0.00     0.001 A 
BRANCH  76  80
ATOM     80  C   UNL     1       4.047  -3.282   9.237  1.00  0.00     0.418 C 
ATOM     81  F   UNL     1       4.102  -3.895  10.455  1.00  0.00    -0.166 F 
ATOM     82  F   UNL     1       2.756  -3.409   8.829  1.00  0.00    -0.166 F 
ATOM     83  F   UNL     1       4.791  -4.065   8.413  1.00  0.00    -0.166 F 
ENDBRANCH  76  80
ENDBRANCH  66  74
ENDBRANCH  59  62
ENDBRANCH  57  58
ENDBRANCH   1  57
TORSDOF 13
