REMARK SMILES NS(=O)(=O)c1ccc(-c2cc(Cl)cc3c2O[C@H](C(F)(F)F)C(C(=O)NCCCNC(=O)c2ccc(-c4c5nc(c(-c6ccccc6)c6ccc([nH]6)c(-c6ccccc6)c6nc(c(-c7ccccc7)c7ccc4[nH]7)C=C6)C=C5)cc2)=C3)cc1
REMARK SMILES IDX 26 1 25 2 23 3 24 4 22 6 9 7 10 8 15 9 11 10 14 11 16 12
REMARK SMILES IDX 12 13 13 14 80 15 17 16 8 17 5 18 6 19 82 20 7 21 81 22 2 23
REMARK SMILES IDX 3 24 4 25 1 26 18 29 19 30 20 31 21 32 27 33 28 34 29 35
REMARK SMILES IDX 30 36 31 38 32 39 33 40 79 41 34 42 78 43 35 44 36 45 37 46
REMARK SMILES IDX 72 47 38 48 77 49 71 50 73 51 39 52 76 53 70 54 69 55 40 57
REMARK SMILES IDX 62 58 47 59 61 60 48 61 51 62 60 63 74 64 49 65 50 66 59 68
REMARK SMILES IDX 75 69 52 70 41 71 42 72 46 73 43 74 45 75 44 76 63 77 64 78
REMARK SMILES IDX 68 79 65 80 67 81 66 82 53 83 54 84 58 85 55 86 57 87 56 88
REMARK H PARENT 25 5 1 27 1 28 29 37 73 56 51 67
REMARK Flexibility Score: inf
ROOT
ATOM      1  C   UNL     1       6.683  -4.948 -11.891  1.00  0.00     0.118 C 
ENDROOT
BRANCH   1   2
ATOM      2  N   UNL     1       5.346  -5.182 -11.384  1.00  0.00    -0.352 N 
ATOM      3  C   UNL     1       4.914  -4.921 -10.125  1.00  0.00     0.251 C 
ATOM      4  O   UNL     1       4.205  -5.730  -9.538  1.00  0.00    -0.270 OA
ATOM      5  H   UNL     1       4.691  -5.566 -12.011  1.00  0.00     0.163 HD
BRANCH   3   6
ATOM      6  C   UNL     1       5.218  -3.566  -9.579  1.00  0.00     0.067 C 
ATOM      7  C   UNL     1       2.796  -3.577  -6.315  1.00  0.00     0.026 A 
ATOM      8  C   UNL     1       1.540  -4.098  -6.719  1.00  0.00     0.033 A 
ATOM      9  C   UNL     1       3.683  -3.218  -7.342  1.00  0.00     0.135 A 
ATOM     10  C   UNL     1       1.125  -4.101  -8.050  1.00  0.00     0.042 A 
ATOM     11  C   UNL     1       3.203  -3.119  -8.671  1.00  0.00     0.019 A 
ATOM     12  O   UNL     1       5.036  -2.995  -7.130  1.00  0.00    -0.475 OA
ATOM     13  Cl  UNL     1      -0.404  -4.764  -8.466  1.00  0.00    -0.084 Cl
ATOM     14  C   UNL     1       1.927  -3.544  -9.027  1.00  0.00     0.032 A 
ATOM     15  C   UNL     1       4.171  -2.729  -9.721  1.00  0.00     0.025 C 
ATOM     16  C   UNL     1       5.891  -3.564  -8.211  1.00  0.00     0.314 C 
BRANCH   7  17
ATOM     17  C   UNL     1       2.906  -3.255  -4.869  1.00  0.00    -0.015 A 
ATOM     18  C   UNL     1       1.916  -2.424  -2.363  1.00  0.00     0.082 A 
ATOM     19  C   UNL     1       2.010  -3.786  -2.654  1.00  0.00     0.022 A 
ATOM     20  C   UNL     1       2.444  -1.481  -3.245  1.00  0.00     0.022 A 
ATOM     21  C   UNL     1       2.518  -4.197  -3.893  1.00  0.00     0.010 A 
ATOM     22  C   UNL     1       2.950  -1.900  -4.485  1.00  0.00     0.010 A 
BRANCH  18  23
ATOM     23  S   UNL     1       1.006  -1.931  -0.926  1.00  0.00     0.238 S 
ATOM     24  O   UNL     1       1.402  -2.770   0.184  1.00  0.00    -0.207 OA
ATOM     25  O   UNL     1      -0.372  -1.744  -1.306  1.00  0.00    -0.207 OA
BRANCH  23  26
ATOM     26  N   UNL     1       1.584  -0.400  -0.546  1.00  0.00    -0.225 NA
ATOM     27  H   UNL     1       1.100  -0.048   0.280  1.00  0.00     0.137 HD
ATOM     28  H   UNL     1       1.419   0.231  -1.331  1.00  0.00     0.137 HD
ENDBRANCH  23  26
ENDBRANCH  18  23
ENDBRANCH   7  17
BRANCH  16  29
ATOM     29  C   UNL     1       7.239  -2.820  -8.334  1.00  0.00     0.429 C 
ATOM     30  F   UNL     1       7.302  -1.714  -7.561  1.00  0.00    -0.167 F 
ATOM     31  F   UNL     1       8.272  -3.625  -7.983  1.00  0.00    -0.167 F 
ATOM     32  F   UNL     1       7.496  -2.415  -9.607  1.00  0.00    -0.167 F 
ENDBRANCH  16  29
ENDBRANCH   3   6
ENDBRANCH   1   2
BRANCH   1  33
ATOM     33  C   UNL     1       7.349  -6.278 -12.250  1.00  0.00     0.042 C 
BRANCH  33  34
ATOM     34  C   UNL     1       6.639  -7.070 -13.347  1.00  0.00     0.118 C 
BRANCH  34  35
ATOM     35  N   UNL     1       6.592  -6.370 -14.621  1.00  0.00    -0.352 N 
ATOM     36  C   UNL     1       6.934  -6.825 -15.872  1.00  0.00     0.251 C 
ATOM     37  H   UNL     1       6.271  -5.441 -14.582  1.00  0.00     0.163 HD
ATOM     38  O   UNL     1       6.965  -6.052 -16.824  1.00  0.00    -0.269 OA
BRANCH  36  39
ATOM     39  C   UNL     1       7.299  -8.245 -16.060  1.00  0.00     0.039 A 
ATOM     40  C   UNL     1       8.454  -8.555 -16.780  1.00  0.00     0.014 A 
ATOM     41  C   UNL     1       6.519  -9.264 -15.508  1.00  0.00     0.014 A 
ATOM     42  C   UNL     1       8.868  -9.884 -16.884  1.00  0.00     0.010 A 
ATOM     43  C   UNL     1       6.975 -10.578 -15.543  1.00  0.00     0.010 A 
ATOM     44  C   UNL     1       8.155 -10.903 -16.230  1.00  0.00    -0.014 A 
BRANCH  44  45
ATOM     45  C   UNL     1       8.631 -12.310 -16.245  1.00  0.00     0.031 A 
ATOM     46  C   UNL     1       7.787 -13.389 -16.869  1.00  0.00     0.074 A 
ATOM     47  C   UNL     1       9.789 -12.631 -15.635  1.00  0.00     0.049 A 
ATOM     48  N   UNL     1       8.000 -14.680 -16.917  1.00  0.00    -0.248 NA
ATOM     49  C   UNL     1       6.525 -12.964 -17.498  1.00  0.00     0.031 C 
ATOM     50  C   UNL     1      10.681 -11.689 -14.955  1.00  0.00     0.029 A 
ATOM     51  N   UNL     1      10.413 -13.845 -15.482  1.00  0.00    -0.354 N 
ATOM     52  C   UNL     1       6.892 -15.221 -17.558  1.00  0.00     0.074 A 
ATOM     53  C   UNL     1       5.987 -14.127 -17.835  1.00  0.00     0.031 C 
ATOM     54  C   UNL     1      11.748 -12.355 -14.484  1.00  0.00     0.029 A 
ATOM     55  C   UNL     1      11.597 -13.773 -14.789  1.00  0.00     0.049 A 
ATOM     56  H   UNL     1      10.046 -14.687 -15.837  1.00  0.00     0.167 HD
ATOM     57  C   UNL     1       6.656 -16.509 -17.904  1.00  0.00     0.031 A 
ATOM     58  C   UNL     1      12.462 -14.742 -14.430  1.00  0.00     0.031 A 
ATOM     59  C   UNL     1       7.562 -17.595 -17.642  1.00  0.00     0.049 A 
ATOM     60  C   UNL     1      12.172 -16.165 -14.819  1.00  0.00     0.074 A 
ATOM     61  C   UNL     1       7.440 -18.924 -18.007  1.00  0.00     0.029 A 
ATOM     62  N   UNL     1       8.757 -17.477 -16.950  1.00  0.00    -0.354 N 
ATOM     63  N   UNL     1      11.154 -16.649 -15.487  1.00  0.00    -0.248 NA
ATOM     64  C   UNL     1      13.161 -17.175 -14.412  1.00  0.00     0.031 C 
ATOM     65  C   UNL     1       8.536 -19.621 -17.488  1.00  0.00     0.029 A 
ATOM     66  C   UNL     1       9.371 -18.714 -16.855  1.00  0.00     0.049 A 
ATOM     67  H   UNL     1       9.115 -16.638 -16.579  1.00  0.00     0.167 HD
ATOM     68  C   UNL     1      11.394 -18.012 -15.610  1.00  0.00     0.074 A 
ATOM     69  C   UNL     1      12.661 -18.275 -14.959  1.00  0.00     0.031 C 
ATOM     70  C   UNL     1      10.634 -18.959 -16.209  1.00  0.00     0.031 A 
BRANCH  57  71
ATOM     71  C   UNL     1       5.359 -16.813 -18.601  1.00  0.00    -0.014 A 
ATOM     72  C   UNL     1       5.118 -16.378 -19.915  1.00  0.00     0.009 A 
ATOM     73  C   UNL     1       4.379 -17.579 -17.950  1.00  0.00     0.009 A 
ATOM     74  C   UNL     1       3.907 -16.671 -20.546  1.00  0.00     0.001 A 
ATOM     75  C   UNL     1       3.182 -17.896 -18.595  1.00  0.00     0.001 A 
ATOM     76  C   UNL     1       2.943 -17.433 -19.888  1.00  0.00     0.000 A 
ENDBRANCH  57  71
BRANCH  58  77
ATOM     77  C   UNL     1      13.694 -14.400 -13.671  1.00  0.00    -0.014 A 
ATOM     78  C   UNL     1      14.956 -14.504 -14.277  1.00  0.00     0.009 A 
ATOM     79  C   UNL     1      13.617 -13.982 -12.333  1.00  0.00     0.009 A 
ATOM     80  C   UNL     1      16.116 -14.226 -13.550  1.00  0.00     0.001 A 
ATOM     81  C   UNL     1      14.777 -13.675 -11.618  1.00  0.00     0.001 A 
ATOM     82  C   UNL     1      16.026 -13.807 -12.223  1.00  0.00     0.000 A 
ENDBRANCH  58  77
BRANCH  70  83
ATOM     83  C   UNL     1      11.171 -20.363 -16.232  1.00  0.00    -0.014 A 
ATOM     84  C   UNL     1      11.214 -21.149 -15.070  1.00  0.00     0.009 A 
ATOM     85  C   UNL     1      11.598 -20.921 -17.448  1.00  0.00     0.009 A 
ATOM     86  C   UNL     1      11.705 -22.456 -15.121  1.00  0.00     0.001 A 
ATOM     87  C   UNL     1      12.059 -22.236 -17.501  1.00  0.00     0.001 A 
ATOM     88  C   UNL     1      12.121 -23.000 -16.337  1.00  0.00     0.000 A 
ENDBRANCH  70  83
ENDBRANCH  44  45
ENDBRANCH  36  39
ENDBRANCH  34  35
ENDBRANCH  33  34
ENDBRANCH   1  33
TORSDOF 14
