REMARK SMILES CC(C)(C)[C@@H]1CC(C(=O)NCCCNC(=O)c2ccc(-c3c4nc(c(-c5ccccc5)c5ccc([nH]5)c(-c5ccccc5)c5nc(c(-c6ccccc6)c6ccc3[nH]6)C=C5)C=C4)cc2)C[C@@H](C(C)(C)C)C1
REMARK SMILES IDX 12 1 11 2 10 3 8 4 9 5 7 7 5 8 6 9 71 10 66 11 65 12 2 13
REMARK SMILES IDX 1 14 3 15 4 16 67 17 68 18 69 19 70 20 13 21 14 22 15 23
REMARK SMILES IDX 16 25 17 26 18 27 64 28 19 29 63 30 20 31 21 32 22 33 57 34
REMARK SMILES IDX 23 35 62 36 56 37 58 38 24 39 61 40 55 41 54 42 25 44 47 45
REMARK SMILES IDX 32 46 46 47 33 48 36 49 45 50 59 51 34 52 35 53 44 55 60 56
REMARK SMILES IDX 37 57 26 58 27 59 31 60 28 61 30 62 29 63 48 64 49 65 53 66
REMARK SMILES IDX 50 67 52 68 51 69 38 70 39 71 43 72 40 73 42 74 41 75
REMARK H PARENT 10 6 14 24 58 43 36 54
REMARK Flexibility Score: inf
ROOT
ATOM      1  C   UNL     1       1.171  -5.628   3.005  1.00  0.00     0.042 C 
ENDROOT
BRANCH   1   2
ATOM      2  C   UNL     1       1.901  -5.991   1.718  1.00  0.00     0.117 C 
BRANCH   2   3
ATOM      3  N   UNL     1       1.033  -6.649   0.753  1.00  0.00    -0.356 N 
ATOM      4  C   UNL     1       0.533  -6.242  -0.446  1.00  0.00     0.223 C 
ATOM      5  O   UNL     1      -0.223  -7.019  -1.037  1.00  0.00    -0.275 OA
ATOM      6  H   UNL     1       0.755  -7.556   1.017  1.00  0.00     0.163 HD
BRANCH   4   7
ATOM      7  C   UNL     1       0.894  -4.893  -1.061  1.00  0.00     0.079 C 
ATOM      8  C   UNL     1       0.935  -2.344  -0.550  1.00  0.00    -0.005 C 
ATOM      9  C   UNL     1       0.378  -3.735  -0.203  1.00  0.00     0.017 C 
ATOM     10  C   UNL     1       2.447  -2.398  -0.870  1.00  0.00     0.008 C 
ATOM     11  C   UNL     1       2.890  -3.483  -1.881  1.00  0.00    -0.005 C 
ATOM     12  C   UNL     1       2.378  -4.850  -1.409  1.00  0.00     0.017 C 
BRANCH   8  13
ATOM     13  C   UNL     1       0.554  -1.248   0.529  1.00  0.00    -0.035 C 
ATOM     14  C   UNL     1       1.063   0.142   0.088  1.00  0.00     0.011 C 
ATOM     15  C   UNL     1       1.135  -1.538   1.929  1.00  0.00     0.011 C 
ATOM     16  C   UNL     1      -0.983  -1.154   0.663  1.00  0.00     0.011 C 
ENDBRANCH   8  13
BRANCH  11  17
ATOM     17  C   UNL     1       2.705  -3.147  -3.413  1.00  0.00    -0.035 C 
ATOM     18  C   UNL     1       3.768  -2.096  -3.818  1.00  0.00     0.011 C 
ATOM     19  C   UNL     1       2.949  -4.393  -4.293  1.00  0.00     0.011 C 
ATOM     20  C   UNL     1       1.332  -2.573  -3.792  1.00  0.00     0.011 C 
ENDBRANCH  11  17
ENDBRANCH   4   7
ENDBRANCH   2   3
ENDBRANCH   1   2
BRANCH   1  21
ATOM     21  C   UNL     1       0.599  -6.822   3.751  1.00  0.00     0.118 C 
BRANCH  21  22
ATOM     22  N   UNL     1       1.628  -7.741   4.210  1.00  0.00    -0.352 N 
ATOM     23  C   UNL     1       2.008  -8.085   5.483  1.00  0.00     0.251 C 
ATOM     24  H   UNL     1       2.134  -8.188   3.493  1.00  0.00     0.163 HD
ATOM     25  O   UNL     1       3.035  -8.735   5.654  1.00  0.00    -0.269 OA
BRANCH  23  26
ATOM     26  C   UNL     1       1.203  -7.662   6.650  1.00  0.00     0.039 A 
ATOM     27  C   UNL     1       1.866  -7.257   7.811  1.00  0.00     0.014 A 
ATOM     28  C   UNL     1      -0.193  -7.691   6.619  1.00  0.00     0.014 A 
ATOM     29  C   UNL     1       1.129  -6.826   8.916  1.00  0.00     0.010 A 
ATOM     30  C   UNL     1      -0.924  -7.173   7.684  1.00  0.00     0.010 A 
ATOM     31  C   UNL     1      -0.271  -6.749   8.850  1.00  0.00    -0.014 A 
BRANCH  31  32
ATOM     32  C   UNL     1      -1.069  -6.251   9.997  1.00  0.00     0.031 A 
ATOM     33  C   UNL     1      -2.045  -7.161  10.692  1.00  0.00     0.074 A 
ATOM     34  C   UNL     1      -0.952  -4.965  10.382  1.00  0.00     0.049 A 
ATOM     35  N   UNL     1      -2.854  -6.897  11.688  1.00  0.00    -0.248 NA
ATOM     36  C   UNL     1      -2.149  -8.539  10.185  1.00  0.00     0.031 C 
ATOM     37  C   UNL     1      -0.079  -3.968   9.760  1.00  0.00     0.029 A 
ATOM     38  N   UNL     1      -1.575  -4.277  11.392  1.00  0.00    -0.354 N 
ATOM     39  C   UNL     1      -3.572  -8.065  11.909  1.00  0.00     0.074 A 
ATOM     40  C   UNL     1      -3.144  -9.022  10.913  1.00  0.00     0.031 C 
ATOM     41  C   UNL     1      -0.194  -2.807  10.426  1.00  0.00     0.029 A 
ATOM     42  C   UNL     1      -1.172  -2.968  11.496  1.00  0.00     0.049 A 
ATOM     43  H   UNL     1      -2.247  -4.683  11.987  1.00  0.00     0.167 HD
ATOM     44  C   UNL     1      -4.491  -8.329  12.869  1.00  0.00     0.031 A 
ATOM     45  C   UNL     1      -1.546  -2.006  12.359  1.00  0.00     0.031 A 
ATOM     46  C   UNL     1      -4.902  -7.387  13.874  1.00  0.00     0.049 A 
ATOM     47  C   UNL     1      -2.556  -2.327  13.424  1.00  0.00     0.074 A 
ATOM     48  C   UNL     1      -5.782  -7.577  14.926  1.00  0.00     0.029 A 
ATOM     49  N   UNL     1      -4.458  -6.077  13.953  1.00  0.00    -0.354 N 
ATOM     50  N   UNL     1      -3.177  -3.457  13.660  1.00  0.00    -0.248 NA
ATOM     51  C   UNL     1      -2.905  -1.241  14.350  1.00  0.00     0.031 C 
ATOM     52  C   UNL     1      -5.900  -6.367  15.619  1.00  0.00     0.029 A 
ATOM     53  C   UNL     1      -5.058  -5.440  15.026  1.00  0.00     0.049 A 
ATOM     54  H   UNL     1      -3.813  -5.660  13.338  1.00  0.00     0.167 HD
ATOM     55  C   UNL     1      -3.971  -3.226  14.775  1.00  0.00     0.074 A 
ATOM     56  C   UNL     1      -3.739  -1.854  15.179  1.00  0.00     0.031 C 
ATOM     57  C   UNL     1      -4.817  -4.074  15.410  1.00  0.00     0.031 A 
BRANCH  44  58
ATOM     58  C   UNL     1      -5.111  -9.698  12.872  1.00  0.00    -0.014 A 
ATOM     59  C   UNL     1      -4.368 -10.832  13.242  1.00  0.00     0.009 A 
ATOM     60  C   UNL     1      -6.461  -9.856  12.523  1.00  0.00     0.009 A 
ATOM     61  C   UNL     1      -4.954 -12.099  13.224  1.00  0.00     0.001 A 
ATOM     62  C   UNL     1      -7.052 -11.121  12.533  1.00  0.00     0.001 A 
ATOM     63  C   UNL     1      -6.296 -12.242  12.874  1.00  0.00     0.000 A 
ENDBRANCH  44  58
BRANCH  45  64
ATOM     64  C   UNL     1      -0.938  -0.654  12.274  1.00  0.00    -0.014 A 
ATOM     65  C   UNL     1      -0.019  -0.228  13.245  1.00  0.00     0.009 A 
ATOM     66  C   UNL     1      -1.273   0.217  11.226  1.00  0.00     0.009 A 
ATOM     67  C   UNL     1       0.533   1.054  13.184  1.00  0.00     0.001 A 
ATOM     68  C   UNL     1      -0.699   1.488  11.152  1.00  0.00     0.001 A 
ATOM     69  C   UNL     1       0.196   1.909  12.135  1.00  0.00     0.000 A 
ENDBRANCH  45  64
BRANCH  57  70
ATOM     70  C   UNL     1      -5.528  -3.546  16.622  1.00  0.00    -0.014 A 
ATOM     71  C   UNL     1      -6.577  -2.621  16.506  1.00  0.00     0.009 A 
ATOM     72  C   UNL     1      -5.159  -4.003  17.897  1.00  0.00     0.009 A 
ATOM     73  C   UNL     1      -7.218  -2.136  17.647  1.00  0.00     0.001 A 
ATOM     74  C   UNL     1      -5.821  -3.536  19.034  1.00  0.00     0.001 A 
ATOM     75  C   UNL     1      -6.842  -2.596  18.908  1.00  0.00     0.000 A 
ENDBRANCH  57  70
ENDBRANCH  31  32
ENDBRANCH  23  26
ENDBRANCH  21  22
ENDBRANCH   1  21
TORSDOF 12
