REMARK SMILES Cc1ccc([C@H](CC(=O)NCCCNC(=O)c2ccc(-c3c4nc(c(-c5ccccc5)c5ccc([nH]5)c(-c5ccccc5)c5nc(c(-c6ccccc6)c6ccc3[nH]6)C=C5)C=C4)cc2)NC(=O)C(F)(F)F)cc1
REMARK SMILES IDX 11 1 10 2 8 3 9 4 7 6 6 7 5 8 1 9 2 10 3 11 73 12 4 13 72 14
REMARK SMILES IDX 65 15 66 16 67 18 68 19 69 20 70 21 71 22 12 23 13 24 14 25
REMARK SMILES IDX 15 26 16 28 17 29 18 30 64 31 19 32 63 33 20 34 21 35 22 36
REMARK SMILES IDX 57 37 23 38 62 39 56 40 58 41 24 42 61 43 55 44 54 45 25 47
REMARK SMILES IDX 47 48 32 49 46 50 33 51 36 52 45 53 59 54 34 55 35 56 44 58
REMARK SMILES IDX 60 59 37 60 26 61 27 62 31 63 28 64 30 65 29 66 48 67 49 68
REMARK SMILES IDX 53 69 50 70 52 71 51 72 38 73 39 74 43 75 40 76 42 77 41 78
REMARK H PARENT 10 5 65 17 14 27 58 46 36 57
REMARK Flexibility Score: inf
ROOT
ATOM      1  C   UNL     1      -1.844   2.673  -1.279  1.00  0.00     0.117 C 
ENDROOT
BRANCH   1   2
ATOM      2  N   UNL     1      -1.503   2.376   0.107  1.00  0.00    -0.356 N 
ATOM      3  C   UNL     1      -1.455   1.184   0.772  1.00  0.00     0.222 C 
ATOM      4  O   UNL     1      -1.099   1.176   1.950  1.00  0.00    -0.275 OA
ATOM      5  H   UNL     1      -1.268   3.162   0.652  1.00  0.00     0.163 HD
BRANCH   3   6
ATOM      6  C   UNL     1      -1.855  -0.095   0.076  1.00  0.00     0.129 C 
BRANCH   6   7
ATOM      7  C   UNL     1      -3.381  -0.245   0.036  1.00  0.00     0.122 C 
BRANCH   7   8
ATOM      8  C   UNL     1      -3.802  -0.988  -1.221  1.00  0.00    -0.025 A 
ATOM      9  C   UNL     1      -4.669  -2.890  -5.005  1.00  0.00     0.044 C 
ATOM     10  C   UNL     1      -4.398  -2.250  -3.676  1.00  0.00    -0.051 A 
ATOM     11  C   UNL     1      -4.682  -0.896  -3.492  1.00  0.00     0.004 A 
ATOM     12  C   UNL     1      -3.835  -2.975  -2.621  1.00  0.00     0.004 A 
ATOM     13  C   UNL     1      -4.398  -0.277  -2.275  1.00  0.00     0.006 A 
ATOM     14  C   UNL     1      -3.535  -2.351  -1.405  1.00  0.00     0.006 A 
ENDBRANCH   7   8
BRANCH   7  15
ATOM     15  N   UNL     1      -3.914  -0.882   1.235  1.00  0.00    -0.341 N 
ATOM     16  C   UNL     1      -4.717  -0.313   2.203  1.00  0.00     0.326 C 
ATOM     17  H   UNL     1      -3.672  -1.827   1.370  1.00  0.00     0.164 HD
ATOM     18  O   UNL     1      -5.062  -1.037   3.144  1.00  0.00    -0.265 OA
BRANCH  16  19
ATOM     19  C   UNL     1      -5.171   1.161   2.064  1.00  0.00     0.471 C 
ATOM     20  F   UNL     1      -4.122   2.030   1.984  1.00  0.00    -0.162 F 
ATOM     21  F   UNL     1      -5.897   1.366   0.925  1.00  0.00    -0.162 F 
ATOM     22  F   UNL     1      -5.949   1.595   3.092  1.00  0.00    -0.162 F 
ENDBRANCH  16  19
ENDBRANCH   7  15
ENDBRANCH   6   7
ENDBRANCH   3   6
ENDBRANCH   1   2
BRANCH   1  23
ATOM     23  C   UNL     1      -3.278   3.170  -1.447  1.00  0.00     0.042 C 
BRANCH  23  24
ATOM     24  C   UNL     1      -3.525   4.573  -0.923  1.00  0.00     0.118 C 
BRANCH  24  25
ATOM     25  N   UNL     1      -3.503   5.610  -1.943  1.00  0.00    -0.352 N 
ATOM     26  C   UNL     1      -3.657   6.981  -1.811  1.00  0.00     0.251 C 
ATOM     27  H   UNL     1      -3.359   5.291  -2.863  1.00  0.00     0.163 HD
ATOM     28  O   UNL     1      -3.675   7.685  -2.807  1.00  0.00    -0.269 OA
BRANCH  26  29
ATOM     29  C   UNL     1      -3.650   7.603  -0.460  1.00  0.00     0.039 A 
ATOM     30  C   UNL     1      -2.906   8.778  -0.288  1.00  0.00     0.014 A 
ATOM     31  C   UNL     1      -4.177   6.950   0.648  1.00  0.00     0.014 A 
ATOM     32  C   UNL     1      -2.479   9.141   0.987  1.00  0.00     0.010 A 
ATOM     33  C   UNL     1      -3.662   7.234   1.893  1.00  0.00     0.010 A 
ATOM     34  C   UNL     1      -2.766   8.295   2.053  1.00  0.00    -0.014 A 
BRANCH  34  35
ATOM     35  C   UNL     1      -2.113   8.357   3.352  1.00  0.00     0.031 A 
ATOM     36  C   UNL     1      -2.868   8.768   4.550  1.00  0.00     0.074 A 
ATOM     37  C   UNL     1      -0.863   7.864   3.484  1.00  0.00     0.049 A 
ATOM     38  N   UNL     1      -2.317   9.102   5.667  1.00  0.00    -0.248 NA
ATOM     39  C   UNL     1      -4.321   8.891   4.566  1.00  0.00     0.031 C 
ATOM     40  C   UNL     1      -0.198   7.439   4.713  1.00  0.00     0.029 A 
ATOM     41  N   UNL     1       0.143   7.839   2.520  1.00  0.00    -0.354 N 
ATOM     42  C   UNL     1      -3.311   9.178   6.611  1.00  0.00     0.074 A 
ATOM     43  C   UNL     1      -4.545   9.137   5.860  1.00  0.00     0.031 C 
ATOM     44  C   UNL     1       1.127   7.420   4.504  1.00  0.00     0.029 A 
ATOM     45  C   UNL     1       1.366   8.011   3.199  1.00  0.00     0.049 A 
ATOM     46  H   UNL     1       0.023   7.725   1.549  1.00  0.00     0.167 HD
ATOM     47  C   UNL     1      -2.977   9.137   7.930  1.00  0.00     0.031 A 
ATOM     48  C   UNL     1       2.139   9.116   2.977  1.00  0.00     0.031 A 
ATOM     49  C   UNL     1      -1.528   9.125   8.134  1.00  0.00     0.049 A 
ATOM     50  C   UNL     1       2.361   9.996   4.193  1.00  0.00     0.074 A 
ATOM     51  C   UNL     1      -0.606   8.161   8.510  1.00  0.00     0.029 A 
ATOM     52  N   UNL     1      -0.788  10.201   7.675  1.00  0.00    -0.354 N 
ATOM     53  N   UNL     1       1.786   9.817   5.349  1.00  0.00    -0.248 NA
ATOM     54  C   UNL     1       3.168  11.219   4.163  1.00  0.00     0.031 C 
ATOM     55  C   UNL     1       0.700   8.690   8.298  1.00  0.00     0.029 A 
ATOM     56  C   UNL     1       0.565   9.974   7.805  1.00  0.00     0.049 A 
ATOM     57  H   UNL     1      -1.179  11.024   7.303  1.00  0.00     0.167 HD
ATOM     58  C   UNL     1       2.057  10.882   6.165  1.00  0.00     0.074 A 
ATOM     59  C   UNL     1       2.940  11.729   5.386  1.00  0.00     0.031 C 
ATOM     60  C   UNL     1       1.486  11.019   7.396  1.00  0.00     0.031 A 
BRANCH  47  61
ATOM     61  C   UNL     1      -3.961   8.898   9.050  1.00  0.00    -0.014 A 
ATOM     62  C   UNL     1      -3.494   8.415  10.287  1.00  0.00     0.009 A 
ATOM     63  C   UNL     1      -5.349   9.087   8.955  1.00  0.00     0.009 A 
ATOM     64  C   UNL     1      -4.364   8.061  11.327  1.00  0.00     0.001 A 
ATOM     65  C   UNL     1      -6.230   8.706   9.977  1.00  0.00     0.001 A 
ATOM     66  C   UNL     1      -5.736   8.182  11.162  1.00  0.00     0.000 A 
ENDBRANCH  47  61
BRANCH  48  67
ATOM     67  C   UNL     1       2.022   9.634   1.584  1.00  0.00    -0.014 A 
ATOM     68  C   UNL     1       2.527   8.848   0.530  1.00  0.00     0.009 A 
ATOM     69  C   UNL     1       1.108  10.655   1.285  1.00  0.00     0.009 A 
ATOM     70  C   UNL     1       2.039   9.002  -0.771  1.00  0.00     0.001 A 
ATOM     71  C   UNL     1       0.633  10.814  -0.022  1.00  0.00     0.001 A 
ATOM     72  C   UNL     1       1.070   9.966  -1.039  1.00  0.00     0.000 A 
ENDBRANCH  48  67
BRANCH  60  73
ATOM     73  C   UNL     1       1.707  12.190   8.312  1.00  0.00    -0.014 A 
ATOM     74  C   UNL     1       2.966  12.764   8.525  1.00  0.00     0.009 A 
ATOM     75  C   UNL     1       0.639  12.672   9.101  1.00  0.00     0.009 A 
ATOM     76  C   UNL     1       3.136  13.805   9.448  1.00  0.00     0.001 A 
ATOM     77  C   UNL     1       0.810  13.693  10.037  1.00  0.00     0.001 A 
ATOM     78  C   UNL     1       2.061  14.268  10.204  1.00  0.00     0.000 A 
ENDBRANCH  60  73
ENDBRANCH  34  35
ENDBRANCH  26  29
ENDBRANCH  24  25
ENDBRANCH  23  24
ENDBRANCH   1  23
TORSDOF 14
