REMARK SMILES O=C(NCCCNC(=O)[C@H]1[C@@H](C(=O)NN2CCOCC2)[C@H]2C=C[C@@H]1CC2)c1ccc(-c2c3nc(c(-c4ccccc4)c4ccc([nH]4)c(-c4ccccc4)c4nc(c(-c5ccccc5)c5ccc2[nH]5)C=C4)C=C3)cc1
REMARK SMILES IDX 5 1 4 2 3 3 1 4 2 5 27 7 28 8 74 9 29 10 73 11 30 12 31 13
REMARK SMILES IDX 32 14 67 15 33 16 72 17 66 18 68 19 34 20 71 21 65 22 64 23
REMARK SMILES IDX 35 25 57 26 42 27 56 28 43 29 46 30 55 31 69 32 44 33 45 34
REMARK SMILES IDX 54 36 70 37 47 38 36 39 37 40 41 41 38 42 40 43 39 44 58 45
REMARK SMILES IDX 59 46 63 47 60 48 62 49 61 50 48 51 49 52 53 53 50 54 52 55
REMARK SMILES IDX 51 56 6 57 7 58 8 59 9 61 10 62 11 63 24 64 21 65 23 66
REMARK SMILES IDX 25 67 22 68 26 69 12 70 13 71 14 72 15 74 16 75 20 76 17 77
REMARK SMILES IDX 19 78 18 79
REMARK H PARENT 3 6 68 24 46 35 7 60 14 73
REMARK Flexibility Score: inf
ROOT
ATOM      1  C   UNL     1       9.132   4.133   0.548  1.00  0.00     0.042 C 
ENDROOT
BRANCH   1   2
ATOM      2  C   UNL     1      10.617   4.432   0.722  1.00  0.00     0.118 C 
BRANCH   2   3
ATOM      3  N   UNL     1      11.418   3.226   0.567  1.00  0.00    -0.352 N 
ATOM      4  O   UNL     1      12.558   1.675  -0.598  1.00  0.00    -0.269 OA
ATOM      5  C   UNL     1      12.222   2.853  -0.475  1.00  0.00     0.251 C 
ATOM      6  H   UNL     1      11.375   2.590   1.317  1.00  0.00     0.163 HD
BRANCH   5   7
ATOM      7  C   UNL     1      12.707   3.863  -1.435  1.00  0.00     0.039 A 
ATOM      8  C   UNL     1      13.122   5.119  -0.983  1.00  0.00     0.014 A 
ATOM      9  C   UNL     1      12.844   3.520  -2.783  1.00  0.00     0.014 A 
ATOM     10  C   UNL     1      13.592   6.062  -1.885  1.00  0.00     0.010 A 
ATOM     11  C   UNL     1      13.405   4.435  -3.675  1.00  0.00     0.010 A 
ATOM     12  C   UNL     1      13.792   5.707  -3.227  1.00  0.00    -0.014 A 
BRANCH  12  13
ATOM     13  C   UNL     1      14.568   6.618  -4.097  1.00  0.00     0.031 A 
ATOM     14  C   UNL     1      13.948   7.280  -5.289  1.00  0.00     0.074 A 
ATOM     15  C   UNL     1      15.865   6.823  -3.788  1.00  0.00     0.049 A 
ATOM     16  N   UNL     1      14.507   8.079  -6.160  1.00  0.00    -0.248 NA
ATOM     17  C   UNL     1      12.525   7.010  -5.545  1.00  0.00     0.031 C 
ATOM     18  C   UNL     1      16.569   6.209  -2.655  1.00  0.00     0.029 A 
ATOM     19  N   UNL     1      16.822   7.600  -4.385  1.00  0.00    -0.354 N 
ATOM     20  C   UNL     1      13.516   8.389  -7.081  1.00  0.00     0.074 A 
ATOM     21  C   UNL     1      12.320   7.686  -6.669  1.00  0.00     0.031 C 
ATOM     22  C   UNL     1      17.830   6.659  -2.621  1.00  0.00     0.029 A 
ATOM     23  C   UNL     1      18.047   7.528  -3.769  1.00  0.00     0.049 A 
ATOM     24  H   UNL     1      16.648   8.156  -5.179  1.00  0.00     0.167 HD
ATOM     25  C   UNL     1      13.607   9.186  -8.171  1.00  0.00     0.031 A 
ATOM     26  C   UNL     1      19.230   8.068  -4.110  1.00  0.00     0.031 A 
ATOM     27  C   UNL     1      14.806   9.882  -8.563  1.00  0.00     0.049 A 
ATOM     28  C   UNL     1      19.302   8.909  -5.349  1.00  0.00     0.074 A 
ATOM     29  C   UNL     1      14.981  10.766  -9.614  1.00  0.00     0.029 A 
ATOM     30  N   UNL     1      16.034   9.760  -7.933  1.00  0.00    -0.354 N 
ATOM     31  N   UNL     1      18.337   9.251  -6.168  1.00  0.00    -0.248 NA
ATOM     32  C   UNL     1      20.624   9.429  -5.718  1.00  0.00     0.031 C 
ATOM     33  C   UNL     1      16.331  11.127  -9.659  1.00  0.00     0.029 A 
ATOM     34  C   UNL     1      16.983  10.514  -8.602  1.00  0.00     0.049 A 
ATOM     35  H   UNL     1      16.205   9.219  -7.128  1.00  0.00     0.167 HD
ATOM     36  C   UNL     1      18.934  10.030  -7.147  1.00  0.00     0.074 A 
ATOM     37  C   UNL     1      20.337  10.138  -6.801  1.00  0.00     0.031 C 
ATOM     38  C   UNL     1      18.375  10.596  -8.243  1.00  0.00     0.031 A 
BRANCH  25  39
ATOM     39  C   UNL     1      12.396   9.331  -9.048  1.00  0.00    -0.014 A 
ATOM     40  C   UNL     1      11.299  10.113  -8.658  1.00  0.00     0.009 A 
ATOM     41  C   UNL     1      12.398   8.751 -10.327  1.00  0.00     0.009 A 
ATOM     42  C   UNL     1      10.222  10.301  -9.529  1.00  0.00     0.001 A 
ATOM     43  C   UNL     1      11.331   8.958 -11.203  1.00  0.00     0.001 A 
ATOM     44  C   UNL     1      10.242   9.731 -10.802  1.00  0.00     0.000 A 
ENDBRANCH  25  39
BRANCH  26  45
ATOM     45  C   UNL     1      20.446   7.774  -3.308  1.00  0.00    -0.014 A 
ATOM     46  C   UNL     1      21.093   8.784  -2.582  1.00  0.00     0.009 A 
ATOM     47  C   UNL     1      20.973   6.472  -3.275  1.00  0.00     0.009 A 
ATOM     48  C   UNL     1      22.258   8.502  -1.865  1.00  0.00     0.001 A 
ATOM     49  C   UNL     1      22.117   6.186  -2.530  1.00  0.00     0.001 A 
ATOM     50  C   UNL     1      22.767   7.204  -1.836  1.00  0.00     0.000 A 
ENDBRANCH  26  45
BRANCH  38  51
ATOM     51  C   UNL     1      19.287  11.384  -9.137  1.00  0.00    -0.014 A 
ATOM     52  C   UNL     1      20.218  10.738  -9.964  1.00  0.00     0.009 A 
ATOM     53  C   UNL     1      19.190  12.783  -9.176  1.00  0.00     0.009 A 
ATOM     54  C   UNL     1      21.057  11.483 -10.793  1.00  0.00     0.001 A 
ATOM     55  C   UNL     1      20.009  13.522 -10.028  1.00  0.00     0.001 A 
ATOM     56  C   UNL     1      20.948  12.873 -10.829  1.00  0.00     0.000 A 
ENDBRANCH  38  51
ENDBRANCH  12  13
ENDBRANCH   5   7
ENDBRANCH   2   3
ENDBRANCH   1   2
BRANCH   1  57
ATOM     57  C   UNL     1       8.574   3.303   1.699  1.00  0.00     0.117 C 
BRANCH  57  58
ATOM     58  N   UNL     1       8.471   4.112   2.893  1.00  0.00    -0.356 N 
ATOM     59  C   UNL     1       7.571   5.021   3.339  1.00  0.00     0.224 C 
ATOM     60  H   UNL     1       9.219   3.972   3.518  1.00  0.00     0.163 HD
ATOM     61  O   UNL     1       8.004   5.691   4.281  1.00  0.00    -0.275 OA
BRANCH  59  62
ATOM     62  C   UNL     1       6.097   5.084   2.898  1.00  0.00     0.098 C 
ATOM     63  C   UNL     1       5.311   6.392   3.346  1.00  0.00     0.100 C 
ATOM     64  C   UNL     1       5.711   4.782   1.419  1.00  0.00     0.025 C 
ATOM     65  C   UNL     1       4.490   6.944   2.148  1.00  0.00     0.025 C 
ATOM     66  C   UNL     1       6.020   5.982   0.561  1.00  0.00    -0.027 C 
ATOM     67  C   UNL     1       4.172   4.574   1.347  1.00  0.00     0.009 C 
ATOM     68  C   UNL     1       5.380   7.097   0.932  1.00  0.00    -0.027 C 
ATOM     69  C   UNL     1       3.445   5.864   1.770  1.00  0.00     0.009 C 
BRANCH  63  70
ATOM     70  C   UNL     1       6.016   7.395   4.285  1.00  0.00     0.238 C 
ATOM     71  O   UNL     1       5.972   7.189   5.509  1.00  0.00    -0.273 OA
ATOM     72  N   UNL     1       6.703   8.514   3.891  1.00  0.00    -0.288 N 
ATOM     73  H   UNL     1       7.403   8.841   4.501  1.00  0.00     0.185 HD
BRANCH  72  74
ATOM     74  N   UNL     1       6.509   9.239   2.709  1.00  0.00    -0.217 NA
ATOM     75  C   UNL     1       7.684  10.069   2.344  1.00  0.00     0.136 C 
ATOM     76  C   UNL     1       5.308  10.105   2.792  1.00  0.00     0.136 C 
ATOM     77  C   UNL     1       7.793  11.405   3.102  1.00  0.00     0.177 C 
ATOM     78  C   UNL     1       5.498  11.424   3.541  1.00  0.00     0.177 C 
ATOM     79  O   UNL     1       6.587  12.168   2.997  1.00  0.00    -0.379 OA
ENDBRANCH  72  74
ENDBRANCH  63  70
ENDBRANCH  59  62
ENDBRANCH  57  58
ENDBRANCH   1  57
TORSDOF 12
