REMARK SMILES O=C(COc1cccc(NC(=O)c2ccc3c(c2)C(=O)N(c2ccccc2-c2ccccc2)C3=O)c1)NCCCNC(=O)c1ccc(-c2c3nc(c(-c4ccccc4)c4ccc([nH]4)c(-c4ccccc4)c4nc(c(-c5ccccc5)c5ccc2[nH]5)C=C4)C=C3)cc1
REMARK SMILES IDX 1 1 2 2 37 3 3 5 4 6 5 7 6 8 36 9 7 10 9 11 8 12 10 13 11 14
REMARK SMILES IDX 12 16 13 17 14 18 18 19 15 20 17 21 16 22 19 23 34 24 20 25
REMARK SMILES IDX 21 26 35 27 22 28 23 29 27 30 24 31 26 32 25 33 28 34 29 35
REMARK SMILES IDX 33 36 30 37 32 38 31 39 38 40 39 41 40 42 41 43 42 44 43 46
REMARK SMILES IDX 44 47 45 48 91 49 46 50 90 51 47 52 48 53 49 54 84 55 50 56
REMARK SMILES IDX 89 57 83 58 85 59 51 60 88 61 82 62 81 63 52 65 74 66 59 67
REMARK SMILES IDX 73 68 60 69 63 70 72 71 86 72 61 73 62 74 71 76 87 77 64 78
REMARK SMILES IDX 53 79 54 80 58 81 55 82 57 83 56 84 75 85 76 86 80 87 77 88
REMARK SMILES IDX 79 89 78 90 65 91 66 92 70 93 67 94 69 95 68 96
REMARK H PARENT 37 4 10 15 41 45 85 64 63 75
REMARK Flexibility Score: inf
ROOT
ATOM      1  O   UNL     1       0.927  -0.762   0.482  1.00  0.00    -0.271 OA
ATOM      2  C   UNL     1       2.024  -0.288   0.207  1.00  0.00     0.257 C 
ATOM      3  N   UNL     1       2.745   0.518   1.066  1.00  0.00    -0.353 N 
ATOM      4  H   UNL     1       3.691   0.699   0.866  1.00  0.00     0.163 HD
ENDROOT
BRANCH   2   5
ATOM      5  C   UNL     1       2.699  -0.509  -1.147  1.00  0.00     0.329 C 
BRANCH   5   6
ATOM      6  O   UNL     1       3.726   0.424  -1.462  1.00  0.00    -0.484 OA
BRANCH   6   7
ATOM      7  C   UNL     1       3.320   1.607  -2.022  1.00  0.00     0.122 A 
ATOM      8  C   UNL     1       4.099   2.043  -3.087  1.00  0.00     0.046 A 
ATOM      9  C   UNL     1       2.314   2.439  -1.502  1.00  0.00     0.072 A 
ATOM     10  C   UNL     1       3.886   3.305  -3.619  1.00  0.00     0.006 A 
ATOM     11  C   UNL     1       2.099   3.726  -2.017  1.00  0.00     0.045 A 
ATOM     12  C   UNL     1       2.909   4.140  -3.073  1.00  0.00     0.026 A 
BRANCH  11  13
ATOM     13  N   UNL     1       1.159   4.557  -1.351  1.00  0.00    -0.322 N 
ATOM     14  C   UNL     1       0.573   5.768  -1.689  1.00  0.00     0.255 C 
ATOM     15  H   UNL     1       0.866   4.204  -0.480  1.00  0.00     0.170 HD
ATOM     16  O   UNL     1      -0.022   6.449  -0.861  1.00  0.00    -0.269 OA
BRANCH  14  17
ATOM     17  C   UNL     1       0.511   6.158  -3.107  1.00  0.00     0.041 A 
ATOM     18  C   UNL     1       1.431   7.087  -3.644  1.00  0.00     0.015 A 
ATOM     19  C   UNL     1      -0.289   5.359  -3.919  1.00  0.00     0.028 A 
ATOM     20  C   UNL     1       1.727   7.047  -5.018  1.00  0.00     0.015 A 
ATOM     21  C   UNL     1       0.039   5.348  -5.253  1.00  0.00     0.054 A 
ATOM     22  C   UNL     1       1.063   6.097  -5.781  1.00  0.00     0.053 A 
ATOM     23  C   UNL     1      -0.334   4.342  -6.220  1.00  0.00     0.266 C 
ATOM     24  C   UNL     1       1.394   5.487  -7.075  1.00  0.00     0.266 C 
ATOM     25  O   UNL     1      -1.358   3.707  -6.052  1.00  0.00    -0.268 OA
ATOM     26  N   UNL     1       0.667   4.314  -7.168  1.00  0.00    -0.242 N 
ATOM     27  O   UNL     1       2.140   6.061  -7.847  1.00  0.00    -0.268 OA
BRANCH  26  28
ATOM     28  C   UNL     1       0.892   3.177  -8.025  1.00  0.00     0.060 A 
ATOM     29  C   UNL     1      -0.145   2.217  -8.145  1.00  0.00     0.027 A 
ATOM     30  C   UNL     1       2.125   2.856  -8.655  1.00  0.00     0.006 A 
ATOM     31  C   UNL     1       0.001   1.005  -8.823  1.00  0.00     0.002 A 
ATOM     32  C   UNL     1       2.234   1.632  -9.373  1.00  0.00     0.011 A 
ATOM     33  C   UNL     1       1.194   0.712  -9.448  1.00  0.00     0.001 A 
BRANCH  30  34
ATOM     34  C   UNL     1       3.389   3.596  -8.535  1.00  0.00    -0.016 A 
ATOM     35  C   UNL     1       3.842   4.424  -9.574  1.00  0.00     0.009 A 
ATOM     36  C   UNL     1       4.234   3.389  -7.432  1.00  0.00     0.009 A 
ATOM     37  C   UNL     1       5.076   5.072  -9.486  1.00  0.00     0.001 A 
ATOM     38  C   UNL     1       5.473   4.030  -7.348  1.00  0.00     0.001 A 
ATOM     39  C   UNL     1       5.888   4.880  -8.371  1.00  0.00     0.000 A 
ENDBRANCH  30  34
ENDBRANCH  26  28
ENDBRANCH  14  17
ENDBRANCH  11  13
ENDBRANCH   6   7
ENDBRANCH   5   6
ENDBRANCH   2   5
BRANCH   3  40
ATOM     40  C   UNL     1       2.156   1.103   2.249  1.00  0.00     0.117 C 
BRANCH  40  41
ATOM     41  C   UNL     1       2.509   0.360   3.525  1.00  0.00     0.042 C 
BRANCH  41  42
ATOM     42  C   UNL     1       3.998   0.345   3.851  1.00  0.00     0.118 C 
BRANCH  42  43
ATOM     43  N   UNL     1       4.558   1.672   4.067  1.00  0.00    -0.352 N 
ATOM     44  C   UNL     1       5.304   2.171   5.106  1.00  0.00     0.251 C 
ATOM     45  H   UNL     1       4.369   2.319   3.349  1.00  0.00     0.163 HD
ATOM     46  O   UNL     1       5.569   3.370   5.129  1.00  0.00    -0.269 OA
BRANCH  44  47
ATOM     47  C   UNL     1       5.769   1.299   6.209  1.00  0.00     0.039 A 
ATOM     48  C   UNL     1       5.756   1.813   7.509  1.00  0.00     0.014 A 
ATOM     49  C   UNL     1       6.248   0.006   5.982  1.00  0.00     0.014 A 
ATOM     50  C   UNL     1       6.162   1.014   8.580  1.00  0.00     0.010 A 
ATOM     51  C   UNL     1       6.576  -0.818   7.058  1.00  0.00     0.010 A 
ATOM     52  C   UNL     1       6.542  -0.322   8.369  1.00  0.00    -0.014 A 
BRANCH  52  53
ATOM     53  C   UNL     1       6.889  -1.199   9.517  1.00  0.00     0.031 A 
ATOM     54  C   UNL     1       8.279  -1.753   9.676  1.00  0.00     0.074 A 
ATOM     55  C   UNL     1       5.934  -1.524  10.411  1.00  0.00     0.049 A 
ATOM     56  N   UNL     1       8.763  -2.501  10.637  1.00  0.00    -0.248 NA
ATOM     57  C   UNL     1       9.245  -1.448   8.609  1.00  0.00     0.031 C 
ATOM     58  C   UNL     1       4.532  -1.105  10.345  1.00  0.00     0.029 A 
ATOM     59  N   UNL     1       6.001  -2.276  11.557  1.00  0.00    -0.354 N 
ATOM     60  C   UNL     1      10.081  -2.763  10.285  1.00  0.00     0.074 A 
ATOM     61  C   UNL     1      10.306  -2.139   8.999  1.00  0.00     0.031 C 
ATOM     62  C   UNL     1       3.883  -1.568  11.425  1.00  0.00     0.029 A 
ATOM     63  C   UNL     1       4.813  -2.339  12.244  1.00  0.00     0.049 A 
ATOM     64  H   UNL     1       6.823  -2.727  11.859  1.00  0.00     0.167 HD
ATOM     65  C   UNL     1      11.028  -3.442  10.977  1.00  0.00     0.031 A 
ATOM     66  C   UNL     1       4.506  -2.939  13.409  1.00  0.00     0.031 A 
ATOM     67  C   UNL     1      10.813  -4.057  12.261  1.00  0.00     0.049 A 
ATOM     68  C   UNL     1       5.579  -3.667  14.168  1.00  0.00     0.074 A 
ATOM     69  C   UNL     1      11.725  -4.718  13.065  1.00  0.00     0.029 A 
ATOM     70  N   UNL     1       9.598  -4.087  12.927  1.00  0.00    -0.354 N 
ATOM     71  N   UNL     1       6.841  -3.837  13.858  1.00  0.00    -0.248 NA
ATOM     72  C   UNL     1       5.184  -4.268  15.450  1.00  0.00     0.031 C 
ATOM     73  C   UNL     1      11.052  -5.187  14.199  1.00  0.00     0.029 A 
ATOM     74  C   UNL     1       9.732  -4.771  14.125  1.00  0.00     0.049 A 
ATOM     75  H   UNL     1       8.763  -3.683  12.598  1.00  0.00     0.167 HD
ATOM     76  C   UNL     1       7.398  -4.540  14.918  1.00  0.00     0.074 A 
ATOM     77  C   UNL     1       6.341  -4.745  15.887  1.00  0.00     0.031 C 
ATOM     78  C   UNL     1       8.671  -4.976  15.076  1.00  0.00     0.031 A 
BRANCH  65  79
ATOM     79  C   UNL     1      12.392  -3.554  10.352  1.00  0.00    -0.014 A 
ATOM     80  C   UNL     1      13.236  -2.437  10.245  1.00  0.00     0.009 A 
ATOM     81  C   UNL     1      12.853  -4.799   9.896  1.00  0.00     0.009 A 
ATOM     82  C   UNL     1      14.498  -2.556   9.659  1.00  0.00     0.001 A 
ATOM     83  C   UNL     1      14.126  -4.921   9.337  1.00  0.00     0.001 A 
ATOM     84  C   UNL     1      14.944  -3.799   9.210  1.00  0.00     0.000 A 
ENDBRANCH  65  79
BRANCH  66  85
ATOM     85  C   UNL     1       3.128  -2.841  13.955  1.00  0.00    -0.014 A 
ATOM     86  C   UNL     1       2.866  -2.047  15.083  1.00  0.00     0.009 A 
ATOM     87  C   UNL     1       2.071  -3.543  13.358  1.00  0.00     0.009 A 
ATOM     88  C   UNL     1       1.578  -1.982  15.618  1.00  0.00     0.001 A 
ATOM     89  C   UNL     1       0.778  -3.453  13.879  1.00  0.00     0.001 A 
ATOM     90  C   UNL     1       0.535  -2.682  15.014  1.00  0.00     0.000 A 
ENDBRANCH  66  85
BRANCH  78  91
ATOM     91  C   UNL     1       8.992  -5.691  16.358  1.00  0.00    -0.014 A 
ATOM     92  C   UNL     1       8.505  -6.982  16.617  1.00  0.00     0.009 A 
ATOM     93  C   UNL     1       9.800  -5.064  17.320  1.00  0.00     0.009 A 
ATOM     94  C   UNL     1       8.781  -7.611  17.833  1.00  0.00     0.001 A 
ATOM     95  C   UNL     1      10.100  -5.707  18.521  1.00  0.00     0.001 A 
ATOM     96  C   UNL     1       9.580  -6.974  18.782  1.00  0.00     0.000 A 
ENDBRANCH  78  91
ENDBRANCH  52  53
ENDBRANCH  44  47
ENDBRANCH  42  43
ENDBRANCH  41  42
ENDBRANCH  40  41
ENDBRANCH   3  40
TORSDOF 16
