REMARK SMILES O=C(COc1cc2ccccc2cc1O)NCCCNC(=O)c1ccc(-c2c3nc(c(-c4ccccc4)c4ccc([nH]4)c(-c4ccccc4)c4nc(c(-c5ccccc5)c5ccc2[nH]5)C=C4)C=C3)cc1
REMARK SMILES IDX 17 1 16 2 1 3 2 4 3 6 4 7 5 8 6 9 14 10 7 11 13 12 8 13
REMARK SMILES IDX 12 14 9 15 11 16 10 17 15 18 18 20 19 21 20 22 21 23 22 25
REMARK SMILES IDX 23 26 24 27 70 28 25 29 69 30 26 31 27 32 28 33 63 34 29 35
REMARK SMILES IDX 68 36 62 37 64 38 30 39 67 40 61 41 60 42 31 44 53 45 38 46
REMARK SMILES IDX 52 47 39 48 42 49 51 50 65 51 40 52 41 53 50 55 66 56 43 57
REMARK SMILES IDX 32 58 33 59 37 60 34 61 36 62 35 63 54 64 55 65 59 66 56 67
REMARK SMILES IDX 58 68 57 69 44 70 45 71 49 72 46 73 48 74 47 75
REMARK H PARENT 16 5 15 19 20 24 64 43 42 54
REMARK Flexibility Score: inf
ROOT
ATOM      1  C   UNL     1       2.229   1.471  -2.009  1.00  0.00     0.117 C 
ENDROOT
BRANCH   1   2
ATOM      2  N   UNL     1       2.912   0.589  -1.086  1.00  0.00    -0.353 N 
ATOM      3  O   UNL     1       1.201   0.451   0.442  1.00  0.00    -0.271 OA
ATOM      4  C   UNL     1       2.333   0.140   0.088  1.00  0.00     0.257 C 
ATOM      5  H   UNL     1       3.827   0.297  -1.303  1.00  0.00     0.163 HD
BRANCH   4   6
ATOM      6  C   UNL     1       3.297  -0.668   0.959  1.00  0.00     0.329 C 
BRANCH   6   7
ATOM      7  O   UNL     1       3.908  -1.745   0.266  1.00  0.00    -0.480 OA
BRANCH   7   8
ATOM      8  C   UNL     1       3.483  -3.033   0.425  1.00  0.00     0.162 A 
ATOM      9  C   UNL     1       4.224  -3.949  -0.338  1.00  0.00     0.059 A 
ATOM     10  C   UNL     1       2.470  -3.535   1.238  1.00  0.00     0.158 A 
ATOM     11  C   UNL     1       3.968  -5.333  -0.303  1.00  0.00    -0.014 A 
ATOM     12  C   UNL     1       2.188  -4.907   1.282  1.00  0.00     0.059 A 
ATOM     13  C   UNL     1       4.721  -6.242  -1.066  1.00  0.00     0.009 A 
ATOM     14  C   UNL     1       2.930  -5.819   0.518  1.00  0.00    -0.014 A 
ATOM     15  C   UNL     1       4.451  -7.611  -1.020  1.00  0.00     0.001 A 
ATOM     16  C   UNL     1       2.667  -7.200   0.551  1.00  0.00     0.009 A 
ATOM     17  C   UNL     1       3.424  -8.090  -0.213  1.00  0.00     0.001 A 
BRANCH  10  18
ATOM     18  O   UNL     1       1.709  -2.731   2.033  1.00  0.00    -0.504 OA
ATOM     19  H   UNL     1       1.857  -1.805   2.041  1.00  0.00     0.293 HD
ENDBRANCH  10  18
ENDBRANCH   7   8
ENDBRANCH   6   7
ENDBRANCH   4   6
ENDBRANCH   1   2
BRANCH   1  20
ATOM     20  C   UNL     1       2.488   2.949  -1.719  1.00  0.00     0.042 C 
BRANCH  20  21
ATOM     21  C   UNL     1       3.954   3.373  -1.797  1.00  0.00     0.118 C 
BRANCH  21  22
ATOM     22  N   UNL     1       4.540   3.178  -3.114  1.00  0.00    -0.352 N 
ATOM     23  C   UNL     1       5.228   4.039  -3.932  1.00  0.00     0.251 C 
ATOM     24  H   UNL     1       4.424   2.272  -3.482  1.00  0.00     0.163 HD
ATOM     25  O   UNL     1       5.520   3.676  -5.068  1.00  0.00    -0.269 OA
BRANCH  23  26
ATOM     26  C   UNL     1       5.613   5.399  -3.485  1.00  0.00     0.039 A 
ATOM     27  C   UNL     1       5.554   6.443  -4.416  1.00  0.00     0.014 A 
ATOM     28  C   UNL     1       6.096   5.651  -2.199  1.00  0.00     0.014 A 
ATOM     29  C   UNL     1       5.938   7.736  -4.049  1.00  0.00     0.010 A 
ATOM     30  C   UNL     1       6.413   6.955  -1.812  1.00  0.00     0.010 A 
ATOM     31  C   UNL     1       6.352   8.008  -2.737  1.00  0.00    -0.014 A 
BRANCH  31  32
ATOM     32  C   UNL     1       6.753   9.382  -2.331  1.00  0.00     0.031 A 
ATOM     33  C   UNL     1       8.173   9.671  -1.924  1.00  0.00     0.074 A 
ATOM     34  C   UNL     1       5.834  10.367  -2.293  1.00  0.00     0.049 A 
ATOM     35  N   UNL     1       8.704  10.797  -1.514  1.00  0.00    -0.248 NA
ATOM     36  C   UNL     1       9.118   8.543  -1.962  1.00  0.00     0.031 C 
ATOM     37  C   UNL     1       4.417  10.219  -2.631  1.00  0.00     0.029 A 
ATOM     38  N   UNL     1       5.957  11.691  -1.950  1.00  0.00    -0.354 N 
ATOM     39  C   UNL     1      10.033  10.508  -1.229  1.00  0.00     0.074 A 
ATOM     40  C   UNL     1      10.216   9.093  -1.466  1.00  0.00     0.031 C 
ATOM     41  C   UNL     1       3.809  11.410  -2.506  1.00  0.00     0.029 A 
ATOM     42  C   UNL     1       4.782  12.396  -2.047  1.00  0.00     0.049 A 
ATOM     43  H   UNL     1       6.807  12.096  -1.663  1.00  0.00     0.167 HD
ATOM     44  C   UNL     1      11.019  11.345  -0.827  1.00  0.00     0.031 A 
ATOM     45  C   UNL     1       4.516  13.692  -1.795  1.00  0.00     0.031 A 
ATOM     46  C   UNL     1      10.846  12.756  -0.604  1.00  0.00     0.049 A 
ATOM     47  C   UNL     1       5.627  14.601  -1.344  1.00  0.00     0.074 A 
ATOM     48  C   UNL     1      11.797  13.695  -0.243  1.00  0.00     0.029 A 
ATOM     49  N   UNL     1       9.642  13.431  -0.722  1.00  0.00    -0.354 N 
ATOM     50  N   UNL     1       6.891  14.323  -1.139  1.00  0.00    -0.248 NA
ATOM     51  C   UNL     1       5.273  16.008  -1.106  1.00  0.00     0.031 C 
ATOM     52  C   UNL     1      11.159  14.931  -0.099  1.00  0.00     0.029 A 
ATOM     53  C   UNL     1       9.822  14.772  -0.425  1.00  0.00     0.049 A 
ATOM     54  H   UNL     1       8.786  13.019  -0.980  1.00  0.00     0.167 HD
ATOM     55  C   UNL     1       7.489  15.524  -0.782  1.00  0.00     0.074 A 
ATOM     56  C   UNL     1       6.452  16.535  -0.810  1.00  0.00     0.031 C 
ATOM     57  C   UNL     1       8.784  15.769  -0.462  1.00  0.00     0.031 A 
BRANCH  44  58
ATOM     58  C   UNL     1      12.380  10.748  -0.594  1.00  0.00    -0.014 A 
ATOM     59  C   UNL     1      13.167  10.292  -1.664  1.00  0.00     0.009 A 
ATOM     60  C   UNL     1      12.894  10.666   0.710  1.00  0.00     0.009 A 
ATOM     61  C   UNL     1      14.424   9.730  -1.429  1.00  0.00     0.001 A 
ATOM     62  C   UNL     1      14.163  10.131   0.939  1.00  0.00     0.001 A 
ATOM     63  C   UNL     1      14.922   9.654  -0.129  1.00  0.00     0.000 A 
ENDBRANCH  44  58
BRANCH  45  64
ATOM     64  C   UNL     1       3.141  14.221  -1.987  1.00  0.00    -0.014 A 
ATOM     65  C   UNL     1       2.857  15.095  -3.048  1.00  0.00     0.009 A 
ATOM     66  C   UNL     1       2.108  13.866  -1.106  1.00  0.00     0.009 A 
ATOM     67  C   UNL     1       1.574  15.625  -3.205  1.00  0.00     0.001 A 
ATOM     68  C   UNL     1       0.819  14.374  -1.283  1.00  0.00     0.001 A 
ATOM     69  C   UNL     1       0.556  15.261  -2.326  1.00  0.00     0.000 A 
ENDBRANCH  45  64
BRANCH  57  70
ATOM     70  C   UNL     1       9.162  17.192  -0.163  1.00  0.00    -0.014 A 
ATOM     71  C   UNL     1       8.765  17.822   1.026  1.00  0.00     0.009 A 
ATOM     72  C   UNL     1       9.960  17.901  -1.075  1.00  0.00     0.009 A 
ATOM     73  C   UNL     1       9.130  19.146   1.279  1.00  0.00     0.001 A 
ATOM     74  C   UNL     1      10.347  19.215  -0.806  1.00  0.00     0.001 A 
ATOM     75  C   UNL     1       9.924  19.839   0.366  1.00  0.00     0.000 A 
ENDBRANCH  57  70
ENDBRANCH  31  32
ENDBRANCH  23  26
ENDBRANCH  21  22
ENDBRANCH  20  21
ENDBRANCH   1  20
TORSDOF 13
