REMARK SMILES CO[C@H]1C[C@H](C(=O)NCCCNC(=O)c2ccc(-c3c4nc(c(-c5ccccc5)c5ccc([nH]5)c(-c5ccccc5)c5nc(c(-c6ccccc6)c6ccc3[nH]6)C=C5)C=C4)cc2)N(C(=O)[C@H]2C=C[C@@H]([NH3+])C2)C1
REMARK SMILES IDX 9 1 8 2 6 3 7 4 5 6 3 7 4 8 72 9 63 10 2 11 1 12 64 13 65 14
REMARK SMILES IDX 66 15 67 16 71 17 68 18 69 19 70 20 10 24 11 25 12 26 13 27
REMARK SMILES IDX 14 29 15 30 16 31 62 32 17 33 61 34 18 35 19 36 20 37 55 38
REMARK SMILES IDX 21 39 60 40 54 41 56 42 22 43 59 44 53 45 52 46 23 48 45 49
REMARK SMILES IDX 30 50 44 51 31 52 34 53 43 54 57 55 32 56 33 57 42 59 58 60
REMARK SMILES IDX 35 61 24 62 25 63 29 64 26 65 28 66 27 67 46 68 47 69 51 70
REMARK SMILES IDX 48 71 50 72 49 73 36 74 37 75 41 76 38 77 40 78 39 79
REMARK H PARENT 8 5 70 21 70 22 70 23 12 28 56 47 34 58
REMARK Flexibility Score: inf
ROOT
ATOM      1  C   UNL     1      -1.761   3.045  -0.924  1.00  0.00     0.117 C 
ENDROOT
BRANCH   1   2
ATOM      2  N   UNL     1      -1.351   3.161   0.464  1.00  0.00    -0.354 N 
ATOM      3  C   UNL     1      -0.135   3.235   1.067  1.00  0.00     0.242 C 
ATOM      4  O   UNL     1      -0.145   3.083   2.298  1.00  0.00    -0.273 OA
ATOM      5  H   UNL     1      -2.106   3.192   1.095  1.00  0.00     0.163 HD
BRANCH   3   6
ATOM      6  C   UNL     1       1.234   3.319   0.339  1.00  0.00     0.177 C 
ATOM      7  C   UNL     1       1.440   1.920  -1.609  1.00  0.00     0.139 C 
ATOM      8  C   UNL     1       1.724   1.938  -0.112  1.00  0.00     0.069 C 
ATOM      9  C   UNL     1       1.675   3.366  -2.039  1.00  0.00     0.152 C 
ATOM     10  N   UNL     1       1.394   4.169  -0.846  1.00  0.00    -0.327 N 
BRANCH   7  11
ATOM     11  O   UNL     1       2.059   0.841  -2.281  1.00  0.00    -0.380 OA
ATOM     12  C   UNL     1       3.391   1.011  -2.719  1.00  0.00     0.195 C 
ENDBRANCH   7  11
BRANCH  10  13
ATOM     13  C   UNL     1       1.564   5.535  -0.917  1.00  0.00     0.230 C 
ATOM     14  O   UNL     1       1.704   6.072  -2.024  1.00  0.00    -0.274 OA
BRANCH  13  15
ATOM     15  C   UNL     1       1.640   6.429   0.335  1.00  0.00     0.107 C 
ATOM     16  C   UNL     1       0.472   6.366   1.264  1.00  0.00    -0.012 C 
ATOM     17  C   UNL     1       2.855   6.174   1.239  1.00  0.00     0.087 C 
ATOM     18  C   UNL     1       0.862   6.303   2.542  1.00  0.00     0.033 C 
ATOM     19  C   UNL     1       2.346   6.293   2.687  1.00  0.00     0.205 C 
BRANCH  19  20
ATOM     20  N   UNL     1       2.792   5.185   3.515  1.00  0.00    -0.352 N 
ATOM     21  H   UNL     1       2.470   4.307   3.109  1.00  0.00     0.345 HD
ATOM     22  H   UNL     1       2.407   5.287   4.454  1.00  0.00     0.345 HD
ATOM     23  H   UNL     1       3.811   5.184   3.562  1.00  0.00     0.345 HD
ENDBRANCH  19  20
ENDBRANCH  13  15
ENDBRANCH  10  13
ENDBRANCH   3   6
ENDBRANCH   1   2
BRANCH   1  24
ATOM     24  C   UNL     1      -1.973   1.579  -1.317  1.00  0.00     0.042 C 
BRANCH  24  25
ATOM     25  C   UNL     1      -3.368   1.039  -1.042  1.00  0.00     0.118 C 
BRANCH  25  26
ATOM     26  N   UNL     1      -4.325   1.472  -2.047  1.00  0.00    -0.352 N 
ATOM     27  C   UNL     1      -5.047   0.742  -2.962  1.00  0.00     0.251 C 
ATOM     28  H   UNL     1      -4.481   2.444  -2.078  1.00  0.00     0.163 HD
ATOM     29  O   UNL     1      -5.628   1.332  -3.870  1.00  0.00    -0.269 OA
BRANCH  27  30
ATOM     30  C   UNL     1      -5.137  -0.737  -2.879  1.00  0.00     0.039 A 
ATOM     31  C   UNL     1      -5.196  -1.474  -4.068  1.00  0.00     0.014 A 
ATOM     32  C   UNL     1      -5.235  -1.402  -1.655  1.00  0.00     0.014 A 
ATOM     33  C   UNL     1      -5.311  -2.867  -4.028  1.00  0.00     0.010 A 
ATOM     34  C   UNL     1      -5.264  -2.795  -1.613  1.00  0.00     0.010 A 
ATOM     35  C   UNL     1      -5.323  -3.543  -2.798  1.00  0.00    -0.014 A 
BRANCH  35  36
ATOM     36  C   UNL     1      -5.438  -5.023  -2.727  1.00  0.00     0.031 A 
ATOM     37  C   UNL     1      -6.642  -5.656  -2.079  1.00  0.00     0.074 A 
ATOM     38  C   UNL     1      -4.439  -5.799  -3.190  1.00  0.00     0.049 A 
ATOM     39  N   UNL     1      -6.892  -6.922  -1.856  1.00  0.00    -0.248 NA
ATOM     40  C   UNL     1      -7.690  -4.744  -1.593  1.00  0.00     0.031 C 
ATOM     41  C   UNL     1      -3.203  -5.313  -3.807  1.00  0.00     0.029 A 
ATOM     42  N   UNL     1      -4.303  -7.165  -3.205  1.00  0.00    -0.354 N 
ATOM     43  C   UNL     1      -8.106  -6.954  -1.182  1.00  0.00     0.074 A 
ATOM     44  C   UNL     1      -8.521  -5.582  -0.991  1.00  0.00     0.031 C 
ATOM     45  C   UNL     1      -2.448  -6.365  -4.165  1.00  0.00     0.029 A 
ATOM     46  C   UNL     1      -3.127  -7.595  -3.769  1.00  0.00     0.049 A 
ATOM     47  H   UNL     1      -4.985  -7.778  -2.847  1.00  0.00     0.167 HD
ATOM     48  C   UNL     1      -8.825  -8.028  -0.774  1.00  0.00     0.031 A 
ATOM     49  C   UNL     1      -2.645  -8.840  -3.943  1.00  0.00     0.031 A 
ATOM     50  C   UNL     1      -8.428  -9.394  -0.986  1.00  0.00     0.049 A 
ATOM     51  C   UNL     1      -3.461 -10.016  -3.486  1.00  0.00     0.074 A 
ATOM     52  C   UNL     1      -9.117 -10.552  -0.668  1.00  0.00     0.029 A 
ATOM     53  N   UNL     1      -7.236  -9.785  -1.575  1.00  0.00    -0.354 N 
ATOM     54  N   UNL     1      -4.637 -10.030  -2.905  1.00  0.00    -0.248 NA
ATOM     55  C   UNL     1      -2.888 -11.350  -3.717  1.00  0.00     0.031 C 
ATOM     56  C   UNL     1      -8.320 -11.645  -1.026  1.00  0.00     0.029 A 
ATOM     57  C   UNL     1      -7.159 -11.166  -1.611  1.00  0.00     0.049 A 
ATOM     58  H   UNL     1      -6.546  -9.171  -1.916  1.00  0.00     0.167 HD
ATOM     59  C   UNL     1      -4.954 -11.370  -2.725  1.00  0.00     0.074 A 
ATOM     60  C   UNL     1      -3.855 -12.139  -3.272  1.00  0.00     0.031 C 
ATOM     61  C   UNL     1      -6.058 -11.915  -2.158  1.00  0.00     0.031 A 
BRANCH  48  62
ATOM     62  C   UNL     1     -10.117  -7.762  -0.052  1.00  0.00    -0.014 A 
ATOM     63  C   UNL     1     -11.234  -7.242  -0.725  1.00  0.00     0.009 A 
ATOM     64  C   UNL     1     -10.227  -8.060   1.315  1.00  0.00     0.009 A 
ATOM     65  C   UNL     1     -12.421  -6.987  -0.035  1.00  0.00     0.001 A 
ATOM     66  C   UNL     1     -11.424  -7.831   1.996  1.00  0.00     0.001 A 
ATOM     67  C   UNL     1     -12.517  -7.285   1.324  1.00  0.00     0.000 A 
ENDBRANCH  48  62
BRANCH  49  68
ATOM     68  C   UNL     1      -1.328  -9.042  -4.601  1.00  0.00    -0.014 A 
ATOM     69  C   UNL     1      -1.256  -9.571  -5.899  1.00  0.00     0.009 A 
ATOM     70  C   UNL     1      -0.137  -8.709  -3.938  1.00  0.00     0.009 A 
ATOM     71  C   UNL     1      -0.019  -9.784  -6.510  1.00  0.00     0.001 A 
ATOM     72  C   UNL     1       1.098  -8.898  -4.562  1.00  0.00     0.001 A 
ATOM     73  C   UNL     1       1.157  -9.443  -5.843  1.00  0.00     0.000 A 
ENDBRANCH  49  68
BRANCH  61  74
ATOM     74  C   UNL     1      -6.145 -13.413  -2.127  1.00  0.00    -0.014 A 
ATOM     75  C   UNL     1      -5.364 -14.169  -1.240  1.00  0.00     0.009 A 
ATOM     76  C   UNL     1      -7.056 -14.073  -2.967  1.00  0.00     0.009 A 
ATOM     77  C   UNL     1      -5.474 -15.560  -1.215  1.00  0.00     0.001 A 
ATOM     78  C   UNL     1      -7.183 -15.462  -2.920  1.00  0.00     0.001 A 
ATOM     79  C   UNL     1      -6.386 -16.205  -2.050  1.00  0.00     0.000 A 
ENDBRANCH  61  74
ENDBRANCH  35  36
ENDBRANCH  27  30
ENDBRANCH  25  26
ENDBRANCH  24  25
ENDBRANCH   1  24
TORSDOF 14
