REMARK SMILES COc1ccc(-n2c(SCC(=O)NCCCNC(=O)c3ccc(-c4c5nc(c(-c6ccccc6)c6ccc([nH]6)c(-c6ccccc6)c6nc(c(-c7ccccc7)c7ccc4[nH]7)C=C6)C=C5)cc3)nc3sc4c(c3c2=O)CC[N@H+](C)C4)cc1
REMARK SMILES IDX 14 1 13 2 11 3 12 4 10 6 9 7 8 8 7 9 74 10 68 11 73 12 75 13
REMARK SMILES IDX 69 14 72 15 70 16 71 17 76 18 80 19 77 20 78 21 79 22 6 24
REMARK SMILES IDX 3 25 4 26 82 27 5 28 81 29 2 30 1 31 15 32 16 33 17 34 18 35
REMARK SMILES IDX 19 37 20 38 21 39 67 40 22 41 66 42 23 43 24 44 25 45 60 46
REMARK SMILES IDX 26 47 65 48 59 49 61 50 27 51 64 52 58 53 57 54 28 56 50 57
REMARK SMILES IDX 35 58 49 59 36 60 39 61 48 62 62 63 37 64 38 65 47 67 63 68
REMARK SMILES IDX 40 69 29 70 30 71 34 72 31 73 33 74 32 75 51 76 52 77 56 78
REMARK SMILES IDX 53 79 55 80 54 81 41 82 42 83 46 84 43 85 45 86 44 87
REMARK H PARENT 13 5 78 23 17 36 61 55 39 66
REMARK Flexibility Score: inf
ROOT
ATOM      1  C   UNL     1       6.148  -4.923  -1.023  1.00  0.00     0.117 C 
ENDROOT
BRANCH   1   2
ATOM      2  N   UNL     1       4.983  -4.084  -0.793  1.00  0.00    -0.355 N 
ATOM      3  C   UNL     1       3.799  -4.430  -0.202  1.00  0.00     0.230 C 
ATOM      4  O   UNL     1       3.278  -3.569   0.517  1.00  0.00    -0.274 OA
ATOM      5  H   UNL     1       5.055  -3.152  -1.101  1.00  0.00     0.163 HD
BRANCH   3   6
ATOM      6  C   UNL     1       3.141  -5.796  -0.331  1.00  0.00     0.178 C 
BRANCH   6   7
ATOM      7  S   UNL     1       3.524  -6.745  -1.780  1.00  0.00    -0.077 SA
BRANCH   7   8
ATOM      8  C   UNL     1       2.535  -6.413  -3.182  1.00  0.00     0.177 A 
ATOM      9  N   UNL     1       1.602  -5.381  -3.350  1.00  0.00    -0.255 N 
ATOM     10  C   UNL     1       0.886  -5.238  -4.559  1.00  0.00     0.267 A 
ATOM     11  N   UNL     1       2.801  -7.294  -4.105  1.00  0.00    -0.212 NA
ATOM     12  C   UNL     1       1.239  -6.188  -5.587  1.00  0.00     0.081 A 
ATOM     13  O   UNL     1       0.037  -4.373  -4.776  1.00  0.00    -0.268 OA
ATOM     14  C   UNL     1       2.154  -7.159  -5.279  1.00  0.00     0.132 A 
ATOM     15  C   UNL     1       0.795  -6.270  -6.938  1.00  0.00    -0.008 A 
ATOM     16  S   UNL     1       2.425  -8.223  -6.586  1.00  0.00    -0.114 S 
ATOM     17  C   UNL     1       1.338  -7.369  -7.576  1.00  0.00     0.065 A 
ATOM     18  C   UNL     1      -0.169  -5.365  -7.646  1.00  0.00     0.099 C 
ATOM     19  C   UNL     1       1.040  -7.765  -8.994  1.00  0.00     0.310 C 
ATOM     20  C   UNL     1      -0.222  -5.684  -9.158  1.00  0.00     0.267 C 
ATOM     21  N   UNL     1      -0.200  -7.126  -9.500  1.00  0.00    -0.333 N 
ATOM     22  C   UNL     1      -1.394  -7.814  -9.005  1.00  0.00     0.333 C 
ATOM     23  H   UNL     1      -0.207  -7.207 -10.517  1.00  0.00     0.348 HD
BRANCH   9  24
ATOM     24  C   UNL     1       1.350  -4.343  -2.426  1.00  0.00     0.052 A 
ATOM     25  C   UNL     1       0.640  -2.092  -0.913  1.00  0.00     0.119 A 
ATOM     26  C   UNL     1      -0.173  -3.229  -0.914  1.00  0.00     0.048 A 
ATOM     27  C   UNL     1       1.790  -2.072  -1.704  1.00  0.00     0.048 A 
ATOM     28  C   UNL     1       0.167  -4.347  -1.678  1.00  0.00     0.030 A 
ATOM     29  C   UNL     1       2.141  -3.191  -2.467  1.00  0.00     0.030 A 
BRANCH  25  30
ATOM     30  O   UNL     1       0.196  -1.074  -0.115  1.00  0.00    -0.497 OA
ATOM     31  C   UNL     1       1.020   0.083  -0.039  1.00  0.00     0.278 C 
ENDBRANCH  25  30
ENDBRANCH   9  24
ENDBRANCH   7   8
ENDBRANCH   6   7
ENDBRANCH   3   6
ENDBRANCH   1   2
BRANCH   1  32
ATOM     32  C   UNL     1       6.650  -4.963  -2.475  1.00  0.00     0.042 C 
BRANCH  32  33
ATOM     33  C   UNL     1       7.298  -3.679  -3.033  1.00  0.00     0.118 C 
BRANCH  33  34
ATOM     34  N   UNL     1       8.416  -3.230  -2.219  1.00  0.00    -0.352 N 
ATOM     35  C   UNL     1       9.727  -2.932  -2.471  1.00  0.00     0.251 C 
ATOM     36  H   UNL     1       8.174  -3.114  -1.272  1.00  0.00     0.163 HD
ATOM     37  O   UNL     1      10.464  -2.839  -1.486  1.00  0.00    -0.269 OA
BRANCH  35  38
ATOM     38  C   UNL     1      10.322  -2.685  -3.811  1.00  0.00     0.039 A 
ATOM     39  C   UNL     1      11.687  -2.989  -3.955  1.00  0.00     0.014 A 
ATOM     40  C   UNL     1       9.677  -1.998  -4.841  1.00  0.00     0.014 A 
ATOM     41  C   UNL     1      12.397  -2.624  -5.104  1.00  0.00     0.010 A 
ATOM     42  C   UNL     1      10.393  -1.637  -6.002  1.00  0.00     0.010 A 
ATOM     43  C   UNL     1      11.758  -1.947  -6.147  1.00  0.00    -0.014 A 
BRANCH  43  44
ATOM     44  C   UNL     1      12.514  -1.748  -7.411  1.00  0.00     0.031 A 
ATOM     45  C   UNL     1      11.788  -2.162  -8.647  1.00  0.00     0.074 A 
ATOM     46  C   UNL     1      13.548  -0.886  -7.564  1.00  0.00     0.049 A 
ATOM     47  N   UNL     1      10.940  -1.379  -9.249  1.00  0.00    -0.248 NA
ATOM     48  C   UNL     1      11.769  -3.541  -9.131  1.00  0.00     0.031 C 
ATOM     49  C   UNL     1      13.664   0.380  -6.833  1.00  0.00     0.029 A 
ATOM     50  N   UNL     1      14.537  -0.809  -8.526  1.00  0.00    -0.354 N 
ATOM     51  C   UNL     1      10.234  -2.155 -10.149  1.00  0.00     0.074 A 
ATOM     52  C   UNL     1      10.795  -3.486 -10.055  1.00  0.00     0.031 C 
ATOM     53  C   UNL     1      14.545   1.174  -7.480  1.00  0.00     0.029 A 
ATOM     54  C   UNL     1      15.185   0.428  -8.566  1.00  0.00     0.049 A 
ATOM     55  H   UNL     1      14.763  -1.555  -9.127  1.00  0.00     0.167 HD
ATOM     56  C   UNL     1       9.217  -1.659 -10.902  1.00  0.00     0.031 A 
ATOM     57  C   UNL     1      15.690   1.020  -9.686  1.00  0.00     0.031 A 
ATOM     58  C   UNL     1       8.931  -0.267 -10.713  1.00  0.00     0.049 A 
ATOM     59  C   UNL     1      14.444   1.298 -10.477  1.00  0.00     0.074 A 
ATOM     60  C   UNL     1       8.050   0.502  -9.984  1.00  0.00     0.029 A 
ATOM     61  N   UNL     1       9.727   0.646 -11.358  1.00  0.00    -0.354 N 
ATOM     62  N   UNL     1      13.612   2.280 -10.282  1.00  0.00    -0.248 NA
ATOM     63  C   UNL     1      13.936   0.221 -11.328  1.00  0.00     0.031 C 
ATOM     64  C   UNL     1       8.674   1.786  -9.867  1.00  0.00     0.029 A 
ATOM     65  C   UNL     1       9.916   1.691 -10.492  1.00  0.00     0.049 A 
ATOM     66  H   UNL     1      10.092   0.567 -12.269  1.00  0.00     0.167 HD
ATOM     67  C   UNL     1      12.376   1.812 -10.724  1.00  0.00     0.074 A 
ATOM     68  C   UNL     1      12.653   0.551 -11.388  1.00  0.00     0.031 C 
ATOM     69  C   UNL     1      11.186   2.368 -10.352  1.00  0.00     0.031 A 
BRANCH  56  70
ATOM     70  C   UNL     1       8.497  -2.400 -11.957  1.00  0.00    -0.014 A 
ATOM     71  C   UNL     1       8.829  -2.125 -13.293  1.00  0.00     0.009 A 
ATOM     72  C   UNL     1       7.360  -3.165 -11.679  1.00  0.00     0.009 A 
ATOM     73  C   UNL     1       8.010  -2.557 -14.334  1.00  0.00     0.001 A 
ATOM     74  C   UNL     1       6.545  -3.608 -12.727  1.00  0.00     0.001 A 
ATOM     75  C   UNL     1       6.861  -3.289 -14.049  1.00  0.00     0.000 A 
ENDBRANCH  56  70
BRANCH  57  76
ATOM     76  C   UNL     1      16.909   0.432 -10.331  1.00  0.00    -0.014 A 
ATOM     77  C   UNL     1      18.017   0.119  -9.521  1.00  0.00     0.009 A 
ATOM     78  C   UNL     1      17.055   0.229 -11.714  1.00  0.00     0.009 A 
ATOM     79  C   UNL     1      19.174  -0.462 -10.056  1.00  0.00     0.001 A 
ATOM     80  C   UNL     1      18.197  -0.384 -12.248  1.00  0.00     0.001 A 
ATOM     81  C   UNL     1      19.252  -0.741 -11.416  1.00  0.00     0.000 A 
ENDBRANCH  57  76
BRANCH  69  82
ATOM     82  C   UNL     1      11.279   3.601  -9.504  1.00  0.00    -0.014 A 
ATOM     83  C   UNL     1      11.796   4.795 -10.023  1.00  0.00     0.009 A 
ATOM     84  C   UNL     1      10.841   3.581  -8.169  1.00  0.00     0.009 A 
ATOM     85  C   UNL     1      11.852   5.946  -9.233  1.00  0.00     0.001 A 
ATOM     86  C   UNL     1      10.876   4.736  -7.387  1.00  0.00     0.001 A 
ATOM     87  C   UNL     1      11.380   5.919  -7.921  1.00  0.00     0.000 A 
ENDBRANCH  69  82
ENDBRANCH  43  44
ENDBRANCH  35  38
ENDBRANCH  33  34
ENDBRANCH  32  33
ENDBRANCH   1  32
TORSDOF 14
