REMARK SMILES CCCS[C@@H]1CC[C@@]([NH2+]CC)(C(=O)NCCCNC(=O)c2ccc(-c3c4nc(c(-c5ccccc5)c5ccc([nH]5)c(-c5ccccc5)c5nc(c(-c6ccccc6)c6ccc3[nH]6)C=C5)C=C4)cc2)C1
REMARK SMILES IDX 15 1 14 2 12 3 13 4 8 6 5 7 6 8 69 9 7 10 4 11 3 12 2 13
REMARK SMILES IDX 1 14 9 15 10 18 11 19 16 20 17 21 18 22 19 23 20 25 21 26
REMARK SMILES IDX 22 27 68 28 23 29 67 30 24 31 25 32 26 33 61 34 27 35 66 36
REMARK SMILES IDX 60 37 62 38 28 39 65 40 59 41 58 42 29 44 51 45 36 46 50 47
REMARK SMILES IDX 37 48 40 49 49 50 63 51 38 52 39 53 48 55 64 56 41 57 30 58
REMARK SMILES IDX 31 59 35 60 32 61 34 62 33 63 52 64 53 65 57 66 54 67 56 68
REMARK SMILES IDX 55 69 42 70 43 71 47 72 44 73 46 74 45 75
REMARK H PARENT 14 5 9 16 9 17 18 24 62 43 40 54
REMARK Flexibility Score: inf
ROOT
ATOM      1  C   UNL     1       2.635  -6.222   1.710  1.00  0.00     0.118 C 
ENDROOT
BRANCH   1   2
ATOM      2  N   UNL     1       1.359  -5.529   1.702  1.00  0.00    -0.351 N 
ATOM      3  C   UNL     1       0.737  -4.850   0.692  1.00  0.00     0.281 C 
ATOM      4  O   UNL     1      -0.358  -4.345   0.954  1.00  0.00    -0.268 OA
ATOM      5  H   UNL     1       0.866  -5.552   2.554  1.00  0.00     0.163 HD
BRANCH   3   6
ATOM      6  C   UNL     1       1.401  -4.714  -0.715  1.00  0.00     0.176 C 
ATOM      7  C   UNL     1       0.917  -2.445  -1.410  1.00  0.00     0.053 C 
ATOM      8  C   UNL     1       2.432  -2.545  -1.339  1.00  0.00     0.022 C 
ATOM      9  C   UNL     1       0.515  -3.893  -1.678  1.00  0.00     0.093 C 
ATOM     10  C   UNL     1       2.685  -3.847  -0.577  1.00  0.00     0.080 C 
BRANCH   7  11
ATOM     11  S   UNL     1       0.284  -1.361  -2.726  1.00  0.00    -0.158 SA
BRANCH  11  12
ATOM     12  C   UNL     1       1.060   0.236  -2.310  1.00  0.00     0.069 C 
BRANCH  12  13
ATOM     13  C   UNL     1       0.407   0.995  -1.154  1.00  0.00     0.007 C 
ATOM     14  C   UNL     1       0.884   0.583   0.230  1.00  0.00     0.005 C 
ENDBRANCH  12  13
ENDBRANCH  11  12
ENDBRANCH   7  11
BRANCH   6  15
ATOM     15  N   UNL     1       1.738  -6.044  -1.279  1.00  0.00    -0.334 N 
ATOM     16  H   UNL     1       2.506  -6.427  -0.727  1.00  0.00     0.347 HD
ATOM     17  H   UNL     1       1.959  -5.869  -2.259  1.00  0.00     0.347 HD
BRANCH  15  18
ATOM     18  C   UNL     1       0.670  -7.046  -1.303  1.00  0.00     0.257 C 
ATOM     19  C   UNL     1      -0.352  -6.870  -2.415  1.00  0.00     0.071 C 
ENDBRANCH  15  18
ENDBRANCH   6  15
ENDBRANCH   3   6
ENDBRANCH   1   2
BRANCH   1  20
ATOM     20  C   UNL     1       3.613  -5.599   2.698  1.00  0.00     0.042 C 
BRANCH  20  21
ATOM     21  C   UNL     1       3.176  -5.702   4.152  1.00  0.00     0.118 C 
BRANCH  21  22
ATOM     22  N   UNL     1       3.137  -7.076   4.632  1.00  0.00    -0.352 N 
ATOM     23  C   UNL     1       3.755  -7.647   5.712  1.00  0.00     0.251 C 
ATOM     24  H   UNL     1       2.580  -7.688   4.098  1.00  0.00     0.163 HD
ATOM     25  O   UNL     1       3.731  -8.873   5.847  1.00  0.00    -0.269 OA
BRANCH  23  26
ATOM     26  C   UNL     1       4.463  -6.817   6.710  1.00  0.00     0.039 A 
ATOM     27  C   UNL     1       5.657  -7.296   7.258  1.00  0.00     0.014 A 
ATOM     28  C   UNL     1       3.943  -5.594   7.141  1.00  0.00     0.014 A 
ATOM     29  C   UNL     1       6.342  -6.535   8.207  1.00  0.00     0.010 A 
ATOM     30  C   UNL     1       4.673  -4.794   8.015  1.00  0.00     0.010 A 
ATOM     31  C   UNL     1       5.866  -5.268   8.580  1.00  0.00    -0.014 A 
BRANCH  31  32
ATOM     32  C   UNL     1       6.574  -4.453   9.600  1.00  0.00     0.031 A 
ATOM     33  C   UNL     1       5.894  -4.120  10.903  1.00  0.00     0.074 A 
ATOM     34  C   UNL     1       7.810  -3.982   9.346  1.00  0.00     0.049 A 
ATOM     35  N   UNL     1       6.337  -3.408  11.909  1.00  0.00    -0.248 NA
ATOM     36  C   UNL     1       4.526  -4.631  11.089  1.00  0.00     0.031 C 
ATOM     37  C   UNL     1       8.564  -4.196   8.110  1.00  0.00     0.029 A 
ATOM     38  N   UNL     1       8.651  -3.224  10.121  1.00  0.00    -0.354 N 
ATOM     39  C   UNL     1       5.299  -3.371  12.832  1.00  0.00     0.074 A 
ATOM     40  C   UNL     1       4.184  -4.079  12.243  1.00  0.00     0.031 C 
ATOM     41  C   UNL     1       9.770  -3.616   8.225  1.00  0.00     0.029 A 
ATOM     42  C   UNL     1       9.860  -2.960   9.525  1.00  0.00     0.049 A 
ATOM     43  H   UNL     1       8.412  -2.901  11.020  1.00  0.00     0.167 HD
ATOM     44  C   UNL     1       5.279  -2.823  14.070  1.00  0.00     0.031 A 
ATOM     45  C   UNL     1      10.924  -2.271   9.977  1.00  0.00     0.031 A 
ATOM     46  C   UNL     1       6.392  -2.132  14.665  1.00  0.00     0.049 A 
ATOM     47  C   UNL     1      10.880  -1.674  11.357  1.00  0.00     0.074 A 
ATOM     48  C   UNL     1       6.490  -1.583  15.931  1.00  0.00     0.029 A 
ATOM     49  N   UNL     1       7.603  -1.899  14.031  1.00  0.00    -0.354 N 
ATOM     50  N   UNL     1       9.914  -1.704  12.242  1.00  0.00    -0.248 NA
ATOM     51  C   UNL     1      12.087  -0.965  11.806  1.00  0.00     0.031 C 
ATOM     52  C   UNL     1       7.745  -0.976  16.047  1.00  0.00     0.029 A 
ATOM     53  C   UNL     1       8.450  -1.202  14.876  1.00  0.00     0.049 A 
ATOM     54  H   UNL     1       7.827  -2.187  13.117  1.00  0.00     0.167 HD
ATOM     55  C   UNL     1      10.409  -1.054  13.366  1.00  0.00     0.074 A 
ATOM     56  C   UNL     1      11.766  -0.653  13.053  1.00  0.00     0.031 C 
ATOM     57  C   UNL     1       9.798  -0.814  14.552  1.00  0.00     0.031 A 
BRANCH  44  58
ATOM     58  C   UNL     1       4.004  -2.947  14.860  1.00  0.00    -0.014 A 
ATOM     59  C   UNL     1       3.567  -4.190  15.348  1.00  0.00     0.009 A 
ATOM     60  C   UNL     1       3.239  -1.804  15.138  1.00  0.00     0.009 A 
ATOM     61  C   UNL     1       2.370  -4.291  16.059  1.00  0.00     0.001 A 
ATOM     62  C   UNL     1       2.059  -1.903  15.878  1.00  0.00     0.001 A 
ATOM     63  C   UNL     1       1.620  -3.147  16.327  1.00  0.00     0.000 A 
ENDBRANCH  44  58
BRANCH  45  64
ATOM     64  C   UNL     1      12.140  -2.134   9.133  1.00  0.00    -0.014 A 
ATOM     65  C   UNL     1      13.326  -2.802   9.478  1.00  0.00     0.009 A 
ATOM     66  C   UNL     1      12.127  -1.326   7.986  1.00  0.00     0.009 A 
ATOM     67  C   UNL     1      14.482  -2.636   8.712  1.00  0.00     0.001 A 
ATOM     68  C   UNL     1      13.276  -1.187   7.204  1.00  0.00     0.001 A 
ATOM     69  C   UNL     1      14.455  -1.832   7.574  1.00  0.00     0.000 A 
ENDBRANCH  45  64
BRANCH  57  70
ATOM     70  C   UNL     1      10.612  -0.134  15.618  1.00  0.00    -0.014 A 
ATOM     71  C   UNL     1      10.977   1.217  15.516  1.00  0.00     0.009 A 
ATOM     72  C   UNL     1      11.000  -0.859  16.756  1.00  0.00     0.009 A 
ATOM     73  C   UNL     1      11.753   1.815  16.511  1.00  0.00     0.001 A 
ATOM     74  C   UNL     1      11.747  -0.250  17.765  1.00  0.00     0.001 A 
ATOM     75  C   UNL     1      12.134   1.083  17.635  1.00  0.00     0.000 A 
ENDBRANCH  57  70
ENDBRANCH  31  32
ENDBRANCH  23  26
ENDBRANCH  21  22
ENDBRANCH  20  21
ENDBRANCH   1  20
TORSDOF 15
