REMARK SMILES O=C(CC1(NC(=O)C2(c3ccccc3)CC2)CCC1)NCCCNC(=O)c1ccc(-c2c3nc(c(-c4ccccc4)c4ccc([nH]4)c(-c4ccccc4)c4nc(c(-c5ccccc5)c5ccc2[nH]5)C=C4)C=C3)cc1
REMARK SMILES IDX 21 1 20 2 1 3 2 4 3 6 4 7 17 8 19 9 18 10 5 11 6 12 7 14
REMARK SMILES IDX 8 15 15 16 16 17 9 18 10 19 14 20 11 21 13 22 12 23 22 24
REMARK SMILES IDX 23 25 24 26 25 27 26 29 27 30 28 31 74 32 29 33 73 34 30 35
REMARK SMILES IDX 31 36 32 37 67 38 33 39 72 40 66 41 68 42 34 43 71 44 65 45
REMARK SMILES IDX 64 46 35 48 57 49 42 50 56 51 43 52 46 53 55 54 69 55 44 56
REMARK SMILES IDX 45 57 54 59 70 60 47 61 36 62 37 63 41 64 38 65 40 66 39 67
REMARK SMILES IDX 58 68 59 69 63 70 60 71 62 72 61 73 48 74 49 75 53 76 50 77
REMARK SMILES IDX 52 78 51 79
REMARK H PARENT 20 5 5 13 24 28 68 47 46 58
REMARK Flexibility Score: inf
ROOT
ATOM      1  C   UNL     1       1.731   1.930   2.571  1.00  0.00     0.117 C 
ENDROOT
BRANCH   1   2
ATOM      2  N   UNL     1       2.567   0.882   2.044  1.00  0.00    -0.356 N 
ATOM      3  O   UNL     1       0.932  -0.435   1.122  1.00  0.00    -0.275 OA
ATOM      4  C   UNL     1       2.109  -0.088   1.171  1.00  0.00     0.222 C 
ATOM      5  H   UNL     1       3.512   0.855   2.319  1.00  0.00     0.163 HD
BRANCH   4   6
ATOM      6  C   UNL     1       3.358  -0.750   0.247  1.00  0.00     0.128 C 
BRANCH   6   7
ATOM      7  C   UNL     1       4.055  -0.381  -1.781  1.00  0.00     0.049 C 
ATOM      8  C   UNL     1       4.372   1.210  -2.691  1.00  0.00     0.029 C 
ATOM      9  C   UNL     1       5.708  -0.620  -2.568  1.00  0.00     0.029 C 
ATOM     10  C   UNL     1       5.734   0.769  -3.177  1.00  0.00     0.005 C 
BRANCH   7  11
ATOM     11  N   UNL     1       3.260  -1.040  -3.315  1.00  0.00    -0.349 N 
ATOM     12  C   UNL     1       2.149  -1.844  -3.538  1.00  0.00     0.231 C 
ATOM     13  H   UNL     1       3.718  -0.766  -4.142  1.00  0.00     0.164 HD
ATOM     14  O   UNL     1       1.749  -2.170  -4.646  1.00  0.00    -0.274 OA
BRANCH  12  15
ATOM     15  C   UNL     1       1.526  -2.252  -2.286  1.00  0.00     0.074 C 
ATOM     16  C   UNL     1       0.051  -2.414  -2.078  1.00  0.00     0.023 C 
ATOM     17  C   UNL     1       0.958  -3.617  -2.036  1.00  0.00     0.023 C 
BRANCH  15  18
ATOM     18  C   UNL     1       2.379  -1.577  -1.318  1.00  0.00    -0.032 A 
ATOM     19  C   UNL     1       2.175   0.217  -1.162  1.00  0.00     0.005 A 
ATOM     20  C   UNL     1       3.994  -2.334  -0.980  1.00  0.00     0.005 A 
ATOM     21  C   UNL     1       3.513   1.198  -0.479  1.00  0.00     0.000 A 
ATOM     22  C   UNL     1       5.303  -1.340  -0.307  1.00  0.00     0.000 A 
ATOM     23  C   UNL     1       5.083   0.434  -0.099  1.00  0.00     0.000 A 
ENDBRANCH  15  18
ENDBRANCH  12  15
ENDBRANCH   7  11
ENDBRANCH   6   7
ENDBRANCH   4   6
ENDBRANCH   1   2
BRANCH   1  24
ATOM     24  C   UNL     1       2.183   2.383   3.947  1.00  0.00     0.042 C 
BRANCH  24  25
ATOM     25  C   UNL     1       3.686   2.557   4.110  1.00  0.00     0.118 C 
BRANCH  25  26
ATOM     26  N   UNL     1       4.264   3.655   3.346  1.00  0.00    -0.352 N 
ATOM     27  C   UNL     1       5.261   4.508   3.772  1.00  0.00     0.251 C 
ATOM     28  H   UNL     1       3.909   3.801   2.439  1.00  0.00     0.163 HD
ATOM     29  O   UNL     1       5.628   5.459   3.094  1.00  0.00    -0.269 OA
BRANCH  27  30
ATOM     30  C   UNL     1       5.845   4.260   5.106  1.00  0.00     0.039 A 
ATOM     31  C   UNL     1       5.696   5.226   6.100  1.00  0.00     0.014 A 
ATOM     32  C   UNL     1       6.376   3.000   5.401  1.00  0.00     0.014 A 
ATOM     33  C   UNL     1       6.026   4.902   7.416  1.00  0.00     0.010 A 
ATOM     34  C   UNL     1       6.610   2.653   6.726  1.00  0.00     0.010 A 
ATOM     35  C   UNL     1       6.446   3.601   7.748  1.00  0.00    -0.014 A 
BRANCH  35  36
ATOM     36  C   UNL     1       6.726   3.231   9.160  1.00  0.00     0.031 A 
ATOM     37  C   UNL     1       8.112   2.807   9.568  1.00  0.00     0.074 A 
ATOM     38  C   UNL     1       5.734   3.253  10.073  1.00  0.00     0.049 A 
ATOM     39  N   UNL     1       8.560   2.484  10.755  1.00  0.00    -0.248 NA
ATOM     40  C   UNL     1       9.121   2.708   8.500  1.00  0.00     0.031 C 
ATOM     41  C   UNL     1       4.335   3.591   9.800  1.00  0.00     0.029 A 
ATOM     42  N   UNL     1       5.753   2.996  11.422  1.00  0.00    -0.354 N 
ATOM     43  C   UNL     1       9.894   2.141  10.573  1.00  0.00     0.074 A 
ATOM     44  C   UNL     1      10.164   2.224   9.156  1.00  0.00     0.031 C 
ATOM     45  C   UNL     1       3.644   3.571  10.951  1.00  0.00     0.029 A 
ATOM     46  C   UNL     1       4.538   3.181  12.037  1.00  0.00     0.049 A 
ATOM     47  H   UNL     1       6.562   2.707  11.903  1.00  0.00     0.167 HD
ATOM     48  C   UNL     1      10.822   1.815  11.502  1.00  0.00     0.031 A 
ATOM     49  C   UNL     1       4.184   3.056  13.331  1.00  0.00     0.031 A 
ATOM     50  C   UNL     1      10.557   1.734  12.913  1.00  0.00     0.049 A 
ATOM     51  C   UNL     1       5.230   2.674  14.343  1.00  0.00     0.074 A 
ATOM     52  C   UNL     1      11.441   1.462  13.942  1.00  0.00     0.029 A 
ATOM     53  N   UNL     1       9.311   1.916  13.492  1.00  0.00    -0.354 N 
ATOM     54  N   UNL     1       6.508   2.438  14.164  1.00  0.00    -0.248 NA
ATOM     55  C   UNL     1       4.786   2.558  15.739  1.00  0.00     0.031 C 
ATOM     56  C   UNL     1      10.718   1.417  15.137  1.00  0.00     0.029 A 
ATOM     57  C   UNL     1       9.397   1.733  14.862  1.00  0.00     0.049 A 
ATOM     58  H   UNL     1       8.487   2.142  13.003  1.00  0.00     0.167 HD
ATOM     59  C   UNL     1       7.025   2.177  15.427  1.00  0.00     0.074 A 
ATOM     60  C   UNL     1       5.927   2.305  16.363  1.00  0.00     0.031 C 
ATOM     61  C   UNL     1       8.295   1.859  15.781  1.00  0.00     0.031 A 
BRANCH  48  62
ATOM     62  C   UNL     1      12.214   1.517  11.014  1.00  0.00    -0.014 A 
ATOM     63  C   UNL     1      13.026   2.522  10.462  1.00  0.00     0.009 A 
ATOM     64  C   UNL     1      12.733   0.218  11.133  1.00  0.00     0.009 A 
ATOM     65  C   UNL     1      14.310   2.224  10.002  1.00  0.00     0.001 A 
ATOM     66  C   UNL     1      14.030  -0.069  10.704  1.00  0.00     0.001 A 
ATOM     67  C   UNL     1      14.813   0.930  10.129  1.00  0.00     0.000 A 
ENDBRANCH  48  62
BRANCH  49  68
ATOM     68  C   UNL     1       2.781   3.316  13.754  1.00  0.00    -0.014 A 
ATOM     69  C   UNL     1       2.468   4.420  14.562  1.00  0.00     0.009 A 
ATOM     70  C   UNL     1       1.747   2.447  13.370  1.00  0.00     0.009 A 
ATOM     71  C   UNL     1       1.158   4.630  15.003  1.00  0.00     0.001 A 
ATOM     72  C   UNL     1       0.433   2.678  13.783  1.00  0.00     0.001 A 
ATOM     73  C   UNL     1       0.142   3.761  14.610  1.00  0.00     0.000 A 
ENDBRANCH  49  68
BRANCH  61  74
ATOM     74  C   UNL     1       8.573   1.668  17.247  1.00  0.00    -0.014 A 
ATOM     75  C   UNL     1       8.066   0.567  17.954  1.00  0.00     0.009 A 
ATOM     76  C   UNL     1       9.385   2.593  17.923  1.00  0.00     0.009 A 
ATOM     77  C   UNL     1       8.329   0.421  19.318  1.00  0.00     0.001 A 
ATOM     78  C   UNL     1       9.677   2.425  19.277  1.00  0.00     0.001 A 
ATOM     79  C   UNL     1       9.137   1.347  19.976  1.00  0.00     0.000 A 
ENDBRANCH  61  74
ENDBRANCH  35  36
ENDBRANCH  27  30
ENDBRANCH  25  26
ENDBRANCH  24  25
ENDBRANCH   1  24
TORSDOF 14
