REMARK SMILES CS(=O)(=O)CCSCc1cc(F)cc(/C=C/C(=O)NCCCNC(=O)c2ccc(-c3c4nc(c(-c5ccccc5)c5ccc([nH]5)c(-c5ccccc5)c5nc(c(-c6ccccc6)c6ccc3[nH]6)C=C5)C=C4)cc2)c1
REMARK SMILES IDX 17 1 18 2 19 3 16 5 15 6 14 7 9 8 10 9 74 10 11 11 12 12
REMARK SMILES IDX 13 13 8 14 7 15 6 16 5 17 2 18 1 19 3 20 4 21 20 22 21 23
REMARK SMILES IDX 22 24 23 25 24 26 25 28 26 29 27 30 73 31 28 32 72 33 29 34
REMARK SMILES IDX 30 35 31 36 66 37 32 38 71 39 65 40 67 41 33 42 70 43 64 44
REMARK SMILES IDX 63 45 34 47 56 48 41 49 55 50 42 51 45 52 54 53 68 54 43 55
REMARK SMILES IDX 44 56 53 58 69 59 46 60 35 61 36 62 40 63 37 64 39 65 38 66
REMARK SMILES IDX 57 67 58 68 62 69 59 70 61 71 60 72 47 73 48 74 52 75 49 76
REMARK SMILES IDX 51 77 50 78
REMARK H PARENT 19 4 23 27 67 46 45 57
REMARK Flexibility Score: inf
ROOT
ATOM      1  C   UNL     1      -6.015   4.029  -1.238  1.00  0.00     0.244 C 
ATOM      2  O   UNL     1      -7.239   4.068  -1.359  1.00  0.00    -0.270 OA
ATOM      3  N   UNL     1      -5.338   5.191  -1.071  1.00  0.00    -0.352 N 
ATOM      4  H   UNL     1      -5.904   5.996  -1.106  1.00  0.00     0.163 HD
ENDROOT
BRANCH   1   5
ATOM      5  C   UNL     1      -5.344   2.709  -1.198  1.00  0.00     0.072 C 
ATOM      6  C   UNL     1      -4.145   2.412  -1.719  1.00  0.00     0.014 C 
BRANCH   6   7
ATOM      7  C   UNL     1      -3.515   1.081  -1.717  1.00  0.00    -0.022 A 
ATOM      8  C   UNL     1      -1.444  -0.233  -2.016  1.00  0.00    -0.035 A 
ATOM      9  C   UNL     1      -2.213  -1.395  -1.946  1.00  0.00     0.043 A 
ATOM     10  C   UNL     1      -2.124   1.001  -1.914  1.00  0.00     0.013 A 
ATOM     11  C   UNL     1      -3.581  -1.323  -1.701  1.00  0.00     0.124 A 
ATOM     12  F   UNL     1      -4.282  -2.458  -1.577  1.00  0.00    -0.207 F 
ATOM     13  C   UNL     1      -4.236  -0.104  -1.583  1.00  0.00     0.047 A 
BRANCH   8  14
ATOM     14  C   UNL     1       0.064  -0.185  -2.065  1.00  0.00     0.105 C 
BRANCH  14  15
ATOM     15  S   UNL     1       1.041  -1.599  -2.642  1.00  0.00    -0.156 SA
BRANCH  15  16
ATOM     16  C   UNL     1       0.857  -2.874  -1.337  1.00  0.00     0.086 C 
BRANCH  16  17
ATOM     17  C   UNL     1       1.682  -2.764  -0.067  1.00  0.00     0.147 C 
BRANCH  17  18
ATOM     18  S   UNL     1       0.998  -1.710   1.195  1.00  0.00     0.148 S 
ATOM     19  C   UNL     1       1.985  -0.234   1.088  1.00  0.00     0.158 C 
ATOM     20  O   UNL     1       1.285  -2.317   2.483  1.00  0.00    -0.229 OA
ATOM     21  O   UNL     1      -0.362  -1.371   0.841  1.00  0.00    -0.229 OA
ENDBRANCH  17  18
ENDBRANCH  16  17
ENDBRANCH  15  16
ENDBRANCH  14  15
ENDBRANCH   8  14
ENDBRANCH   6   7
ENDBRANCH   1   5
BRANCH   3  22
ATOM     22  C   UNL     1      -3.931   5.468  -0.851  1.00  0.00     0.118 C 
BRANCH  22  23
ATOM     23  C   UNL     1      -3.272   5.999  -2.122  1.00  0.00     0.042 C 
BRANCH  23  24
ATOM     24  C   UNL     1      -3.726   7.410  -2.485  1.00  0.00     0.118 C 
BRANCH  24  25
ATOM     25  N   UNL     1      -3.302   8.392  -1.495  1.00  0.00    -0.352 N 
ATOM     26  C   UNL     1      -2.496   9.493  -1.643  1.00  0.00     0.251 C 
ATOM     27  H   UNL     1      -3.644   8.243  -0.584  1.00  0.00     0.163 HD
ATOM     28  O   UNL     1      -2.046  10.064  -0.655  1.00  0.00    -0.269 OA
BRANCH  26  29
ATOM     29  C   UNL     1      -2.166   9.983  -2.996  1.00  0.00     0.039 A 
ATOM     30  C   UNL     1      -0.856  10.374  -3.279  1.00  0.00     0.014 A 
ATOM     31  C   UNL     1      -3.156  10.063  -3.978  1.00  0.00     0.014 A 
ATOM     32  C   UNL     1      -0.522  10.781  -4.572  1.00  0.00     0.010 A 
ATOM     33  C   UNL     1      -2.807  10.389  -5.282  1.00  0.00     0.010 A 
ATOM     34  C   UNL     1      -1.487  10.752  -5.592  1.00  0.00    -0.014 A 
BRANCH  34  35
ATOM     35  C   UNL     1      -1.148  11.090  -6.996  1.00  0.00     0.031 A 
ATOM     36  C   UNL     1      -1.814  12.259  -7.667  1.00  0.00     0.074 A 
ATOM     37  C   UNL     1      -0.317  10.290  -7.691  1.00  0.00     0.049 A 
ATOM     38  N   UNL     1      -1.745  12.642  -8.916  1.00  0.00    -0.248 NA
ATOM     39  C   UNL     1      -2.696  13.089  -6.830  1.00  0.00     0.031 C 
ATOM     40  C   UNL     1       0.366   9.108  -7.159  1.00  0.00     0.029 A 
ATOM     41  N   UNL     1       0.082  10.340  -9.002  1.00  0.00    -0.354 N 
ATOM     42  C   UNL     1      -2.590  13.740  -9.018  1.00  0.00     0.074 A 
ATOM     43  C   UNL     1      -3.198  13.931  -7.720  1.00  0.00     0.031 C 
ATOM     44  C   UNL     1       1.114   8.559  -8.129  1.00  0.00     0.029 A 
ATOM     45  C   UNL     1       0.923   9.315  -9.361  1.00  0.00     0.049 A 
ATOM     46  H   UNL     1      -0.206  11.045  -9.627  1.00  0.00     0.167 HD
ATOM     47  C   UNL     1      -2.826  14.528 -10.094  1.00  0.00     0.031 A 
ATOM     48  C   UNL     1       1.464   9.006 -10.555  1.00  0.00     0.031 A 
ATOM     49  C   UNL     1      -2.215  14.335 -11.381  1.00  0.00     0.049 A 
ATOM     50  C   UNL     1       1.158   9.876 -11.743  1.00  0.00     0.074 A 
ATOM     51  C   UNL     1      -2.345  15.109 -12.521  1.00  0.00     0.029 A 
ATOM     52  N   UNL     1      -1.364  13.289 -11.701  1.00  0.00    -0.354 N 
ATOM     53  N   UNL     1       0.410  10.951 -11.809  1.00  0.00    -0.248 NA
ATOM     54  C   UNL     1       1.778   9.495 -13.020  1.00  0.00     0.031 C 
ATOM     55  C   UNL     1      -1.624  14.495 -13.548  1.00  0.00     0.029 A 
ATOM     56  C   UNL     1      -0.986  13.380 -13.030  1.00  0.00     0.049 A 
ATOM     57  H   UNL     1      -1.072  12.585 -11.077  1.00  0.00     0.167 HD
ATOM     58  C   UNL     1       0.495  11.393 -13.123  1.00  0.00     0.074 A 
ATOM     59  C   UNL     1       1.378  10.477 -13.816  1.00  0.00     0.031 C 
ATOM     60  C   UNL     1      -0.101  12.463 -13.702  1.00  0.00     0.031 A 
BRANCH  47  61
ATOM     61  C   UNL     1      -3.799  15.663  -9.925  1.00  0.00    -0.014 A 
ATOM     62  C   UNL     1      -3.498  16.770  -9.114  1.00  0.00     0.009 A 
ATOM     63  C   UNL     1      -5.021  15.643 -10.616  1.00  0.00     0.009 A 
ATOM     64  C   UNL     1      -4.417  17.811  -8.967  1.00  0.00     0.001 A 
ATOM     65  C   UNL     1      -5.923  16.701 -10.494  1.00  0.00     0.001 A 
ATOM     66  C   UNL     1      -5.626  17.779  -9.662  1.00  0.00     0.000 A 
ENDBRANCH  47  61
BRANCH  48  67
ATOM     67  C   UNL     1       2.352   7.820 -10.688  1.00  0.00    -0.014 A 
ATOM     68  C   UNL     1       3.722   7.981 -10.945  1.00  0.00     0.009 A 
ATOM     69  C   UNL     1       1.834   6.521 -10.567  1.00  0.00     0.009 A 
ATOM     70  C   UNL     1       4.548   6.866 -11.108  1.00  0.00     0.001 A 
ATOM     71  C   UNL     1       2.669   5.409 -10.697  1.00  0.00     0.001 A 
ATOM     72  C   UNL     1       4.022   5.582 -10.978  1.00  0.00     0.000 A 
ENDBRANCH  48  67
BRANCH  60  73
ATOM     73  C   UNL     1       0.215  12.736 -15.146  1.00  0.00    -0.014 A 
ATOM     74  C   UNL     1      -0.284  11.920 -16.173  1.00  0.00     0.009 A 
ATOM     75  C   UNL     1       0.973  13.869 -15.484  1.00  0.00     0.009 A 
ATOM     76  C   UNL     1      -0.009  12.222 -17.509  1.00  0.00     0.001 A 
ATOM     77  C   UNL     1       1.218  14.186 -16.820  1.00  0.00     0.001 A 
ATOM     78  C   UNL     1       0.734  13.358 -17.831  1.00  0.00     0.000 A 
ENDBRANCH  60  73
ENDBRANCH  34  35
ENDBRANCH  26  29
ENDBRANCH  24  25
ENDBRANCH  23  24
ENDBRANCH  22  23
ENDBRANCH   3  22
TORSDOF 16
