REMARK SMILES C[C@H](C(=O)NCCCNC(=O)c1ccc(-c2c3nc(c(-c4ccccc4)c4ccc([nH]4)c(-c4ccccc4)c4nc(c(-c5ccccc5)c5ccc2[nH]5)C=C4)C=C3)cc1)[C@@H](C)[N@H+]1CCCSCC1
REMARK SMILES IDX 3 1 4 2 5 3 2 5 1 6 60 7 61 8 62 9 63 11 64 12 68 14 67 15
REMARK SMILES IDX 66 16 65 17 6 19 7 20 8 21 9 22 10 23 11 25 12 26 13 27
REMARK SMILES IDX 59 28 14 29 58 30 15 31 16 32 17 33 52 34 18 35 57 36 51 37
REMARK SMILES IDX 53 38 19 39 56 40 50 41 49 42 20 44 42 45 27 46 41 47 28 48
REMARK SMILES IDX 31 49 40 50 54 51 29 52 30 53 39 55 55 56 32 57 21 58 22 59
REMARK SMILES IDX 26 60 23 61 25 62 24 63 43 64 44 65 48 66 45 67 47 68 46 69
REMARK SMILES IDX 33 70 34 71 38 72 35 73 37 74 36 75
REMARK H PARENT 5 4 62 10 9 24 53 43 31 54
REMARK Flexibility Score: 80.00
ROOT
ATOM      1  C   UNL     1       0.656   0.176  -0.016  1.00  0.00     0.228 C 
ATOM      2  O   UNL     1       0.973   1.344  -0.250  1.00  0.00    -0.275 OA
ATOM      3  N   UNL     1       0.667  -0.696  -1.065  1.00  0.00    -0.356 N 
ATOM      4  H   UNL     1       0.998  -0.308  -1.907  1.00  0.00     0.163 HD
ENDROOT
BRANCH   1   5
ATOM      5  C   UNL     1       0.255  -0.288   1.382  1.00  0.00     0.133 C 
ATOM      6  C   UNL     1       1.193   0.392   2.394  1.00  0.00     0.024 C 
BRANCH   5   7
ATOM      7  C   UNL     1      -1.230   0.063   1.699  1.00  0.00     0.193 C 
ATOM      8  C   UNL     1      -2.211  -0.383   0.607  1.00  0.00     0.076 C 
BRANCH   7   9
ATOM      9  N   UNL     1      -1.634  -0.435   3.054  1.00  0.00    -0.331 N 
ATOM     10  H   UNL     1      -0.845  -0.321   3.690  1.00  0.00     0.348 HD
BRANCH   9  11
ATOM     11  C   UNL     1      -2.732   0.390   3.585  1.00  0.00     0.263 C 
BRANCH  11  12
ATOM     12  C   UNL     1      -3.285   0.047   4.971  1.00  0.00     0.072 CG0
ATOM     13  G   UNL     1      -4.186  -1.181   4.972  1.00  0.00     0.000 G0
ENDBRANCH  11  12
ENDBRANCH   9  11
BRANCH   9  14
ATOM     14  C   UNL     1      -1.880  -1.889   3.089  1.00  0.00     0.273 C 
BRANCH  14  15
ATOM     15  C   UNL     1      -1.760  -2.504   4.489  1.00  0.00     0.131 C 
BRANCH  15  16
ATOM     16  S   UNL     1      -3.341  -2.742   5.356  1.00  0.00    -0.156 SA
BRANCH  16  17
ATOM     17  C   UNL     1      -4.186  -1.181   4.972  1.00  0.00     0.075 CG0
ATOM     18  G   UNL     1      -3.285   0.047   4.971  1.00  0.00     0.000 G0
ENDBRANCH  16  17
ENDBRANCH  15  16
ENDBRANCH  14  15
ENDBRANCH   9  14
ENDBRANCH   7   9
ENDBRANCH   5   7
ENDBRANCH   1   5
BRANCH   3  19
ATOM     19  C   UNL     1       0.278  -2.096  -1.165  1.00  0.00     0.117 C 
BRANCH  19  20
ATOM     20  C   UNL     1      -0.970  -2.287  -2.026  1.00  0.00     0.042 C 
BRANCH  20  21
ATOM     21  C   UNL     1      -0.779  -1.897  -3.486  1.00  0.00     0.118 C 
BRANCH  21  22
ATOM     22  N   UNL     1      -0.405  -3.036  -4.307  1.00  0.00    -0.352 N 
ATOM     23  C   UNL     1      -1.153  -3.725  -5.232  1.00  0.00     0.251 C 
ATOM     24  H   UNL     1       0.516  -3.360  -4.183  1.00  0.00     0.163 HD
ATOM     25  O   UNL     1      -0.755  -4.805  -5.657  1.00  0.00    -0.269 OA
BRANCH  23  26
ATOM     26  C   UNL     1      -2.447  -3.181  -5.709  1.00  0.00     0.039 A 
ATOM     27  C   UNL     1      -3.535  -4.046  -5.867  1.00  0.00     0.014 A 
ATOM     28  C   UNL     1      -2.580  -1.831  -6.041  1.00  0.00     0.014 A 
ATOM     29  C   UNL     1      -4.766  -3.549  -6.306  1.00  0.00     0.010 A 
ATOM     30  C   UNL     1      -3.825  -1.322  -6.397  1.00  0.00     0.010 A 
ATOM     31  C   UNL     1      -4.928  -2.178  -6.552  1.00  0.00    -0.014 A 
BRANCH  31  32
ATOM     32  C   UNL     1      -6.213  -1.601  -7.024  1.00  0.00     0.031 A 
ATOM     33  C   UNL     1      -6.270  -0.917  -8.364  1.00  0.00     0.074 A 
ATOM     34  C   UNL     1      -7.294  -1.590  -6.221  1.00  0.00     0.049 A 
ATOM     35  N   UNL     1      -7.223  -0.187  -8.884  1.00  0.00    -0.248 NA
ATOM     36  C   UNL     1      -5.075  -1.044  -9.213  1.00  0.00     0.031 C 
ATOM     37  C   UNL     1      -7.372  -2.195  -4.892  1.00  0.00     0.029 A 
ATOM     38  N   UNL     1      -8.530  -1.019  -6.402  1.00  0.00    -0.354 N 
ATOM     39  C   UNL     1      -6.724   0.269 -10.098  1.00  0.00     0.074 A 
ATOM     40  C   UNL     1      -5.374  -0.234 -10.218  1.00  0.00     0.031 C 
ATOM     41  C   UNL     1      -8.591  -1.964  -4.377  1.00  0.00     0.029 A 
ATOM     42  C   UNL     1      -9.362  -1.155  -5.318  1.00  0.00     0.049 A 
ATOM     43  H   UNL     1      -8.795  -0.556  -7.230  1.00  0.00     0.167 HD
ATOM     44  C   UNL     1      -7.337   1.031 -11.036  1.00  0.00     0.031 A 
ATOM     45  C   UNL     1     -10.595  -0.664  -5.092  1.00  0.00     0.031 A 
ATOM     46  C   UNL     1      -8.688   1.511 -10.929  1.00  0.00     0.049 A 
ATOM     47  C   UNL     1     -11.263   0.176  -6.144  1.00  0.00     0.074 A 
ATOM     48  C   UNL     1      -9.422   2.234 -11.853  1.00  0.00     0.029 A 
ATOM     49  N   UNL     1      -9.509   1.312  -9.830  1.00  0.00    -0.354 N 
ATOM     50  N   UNL     1     -10.798   0.562  -7.307  1.00  0.00    -0.248 NA
ATOM     51  C   UNL     1     -12.627   0.641  -5.857  1.00  0.00     0.031 C 
ATOM     52  C   UNL     1     -10.674   2.511 -11.293  1.00  0.00     0.029 A 
ATOM     53  C   UNL     1     -10.736   1.915 -10.044  1.00  0.00     0.049 A 
ATOM     54  H   UNL     1      -9.257   0.815  -9.018  1.00  0.00     0.167 HD
ATOM     55  C   UNL     1     -11.820   1.290  -7.902  1.00  0.00     0.074 A 
ATOM     56  C   UNL     1     -12.932   1.289  -6.974  1.00  0.00     0.031 C 
ATOM     57  C   UNL     1     -11.836   1.899  -9.113  1.00  0.00     0.031 A 
BRANCH  44  58
ATOM     58  C   UNL     1      -6.530   1.407 -12.248  1.00  0.00    -0.014 A 
ATOM     59  C   UNL     1      -6.152   0.449 -13.203  1.00  0.00     0.009 A 
ATOM     60  C   UNL     1      -6.140   2.742 -12.436  1.00  0.00     0.009 A 
ATOM     61  C   UNL     1      -5.352   0.810 -14.290  1.00  0.00     0.001 A 
ATOM     62  C   UNL     1      -5.369   3.107 -13.541  1.00  0.00     0.001 A 
ATOM     63  C   UNL     1      -4.963   2.138 -14.459  1.00  0.00     0.000 A 
ENDBRANCH  44  58
BRANCH  45  64
ATOM     64  C   UNL     1     -11.277  -0.964  -3.806  1.00  0.00    -0.014 A 
ATOM     65  C   UNL     1     -12.330  -1.888  -3.759  1.00  0.00     0.009 A 
ATOM     66  C   UNL     1     -10.853  -0.354  -2.615  1.00  0.00     0.009 A 
ATOM     67  C   UNL     1     -12.953  -2.189  -2.545  1.00  0.00     0.001 A 
ATOM     68  C   UNL     1     -11.461  -0.675  -1.399  1.00  0.00     0.001 A 
ATOM     69  C   UNL     1     -12.513  -1.588  -1.366  1.00  0.00     0.000 A 
ENDBRANCH  45  64
BRANCH  57  70
ATOM     70  C   UNL     1     -13.107   2.580  -9.533  1.00  0.00    -0.014 A 
ATOM     71  C   UNL     1     -13.483   3.820  -8.995  1.00  0.00     0.009 A 
ATOM     72  C   UNL     1     -13.896   2.006 -10.543  1.00  0.00     0.009 A 
ATOM     73  C   UNL     1     -14.636   4.463  -9.450  1.00  0.00     0.001 A 
ATOM     74  C   UNL     1     -15.034   2.663 -11.011  1.00  0.00     0.001 A 
ATOM     75  C   UNL     1     -15.406   3.888 -10.462  1.00  0.00     0.000 A 
ENDBRANCH  57  70
ENDBRANCH  31  32
ENDBRANCH  23  26
ENDBRANCH  21  22
ENDBRANCH  20  21
ENDBRANCH  19  20
ENDBRANCH   3  19
TORSDOF 12
