REMARK SMILES C[C@H](C(=O)NCCCNC(=O)c1ccc(-c2c3nc(c(-c4ccccc4)c4ccc([nH]4)c(-c4ccccc4)c4nc(c(-c5ccccc5)c5ccc2[nH]5)C=C4)C=C3)cc1)N1CCc2ccccc21
REMARK SMILES IDX 7 1 6 2 5 3 3 4 4 5 2 7 1 8 60 9 61 10 68 11 62 12 63 13
REMARK SMILES IDX 67 14 64 15 66 16 65 17 8 18 9 19 10 20 11 22 12 23 13 24
REMARK SMILES IDX 59 25 14 26 58 27 15 28 16 29 17 30 52 31 18 32 57 33 51 34
REMARK SMILES IDX 53 35 19 36 56 37 50 38 49 39 20 41 42 42 27 43 41 44 28 45
REMARK SMILES IDX 31 46 40 47 54 48 29 49 30 50 39 52 55 53 32 54 21 55 22 56
REMARK SMILES IDX 26 57 23 58 25 59 24 60 43 61 44 62 48 63 45 64 47 65 46 66
REMARK SMILES IDX 33 67 34 68 38 69 35 70 37 71 36 72
REMARK H PARENT 5 6 9 21 53 40 31 51
REMARK Flexibility Score: inf
ROOT
ATOM      1  C   UNL     1       0.656   2.127   3.017  1.00  0.00     0.042 C 
ENDROOT
BRANCH   1   2
ATOM      2  C   UNL     1       0.295   2.294   1.539  1.00  0.00     0.117 C 
BRANCH   2   3
ATOM      3  N   UNL     1       1.301   1.803   0.617  1.00  0.00    -0.354 N 
ATOM      4  C   UNL     1       1.454   0.584   0.022  1.00  0.00     0.242 C 
ATOM      5  O   UNL     1       2.439   0.460  -0.716  1.00  0.00    -0.273 OA
ATOM      6  H   UNL     1       1.993   2.462   0.379  1.00  0.00     0.163 HD
BRANCH   4   7
ATOM      7  C   UNL     1       0.404  -0.541   0.174  1.00  0.00     0.168 C 
ATOM      8  C   UNL     1       0.875  -1.825  -0.520  1.00  0.00     0.042 C 
BRANCH   7   9
ATOM      9  N   UNL     1       0.021  -0.833   1.560  1.00  0.00    -0.359 N 
ATOM     10  C   UNL     1      -1.350  -1.257   1.870  1.00  0.00     0.122 C 
ATOM     11  C   UNL     1       0.838  -1.357   2.549  1.00  0.00     0.041 A 
ATOM     12  C   UNL     1      -1.363  -1.759   3.325  1.00  0.00     0.059 C 
ATOM     13  C   UNL     1       0.096  -1.909   3.599  1.00  0.00    -0.023 A 
ATOM     14  C   UNL     1       2.220  -1.337   2.632  1.00  0.00     0.026 A 
ATOM     15  C   UNL     1       0.696  -2.452   4.725  1.00  0.00     0.006 A 
ATOM     16  C   UNL     1       2.845  -1.876   3.763  1.00  0.00     0.002 A 
ATOM     17  C   UNL     1       2.087  -2.433   4.801  1.00  0.00     0.000 A 
ENDBRANCH   7   9
ENDBRANCH   4   7
ENDBRANCH   2   3
ENDBRANCH   1   2
BRANCH   1  18
ATOM     18  C   UNL     1       2.077   2.532   3.406  1.00  0.00     0.118 C 
BRANCH  18  19
ATOM     19  N   UNL     1       2.178   3.956   3.672  1.00  0.00    -0.352 N 
ATOM     20  C   UNL     1       2.754   4.593   4.742  1.00  0.00     0.251 C 
ATOM     21  H   UNL     1       1.779   4.545   2.992  1.00  0.00     0.163 HD
ATOM     22  O   UNL     1       2.525   5.790   4.922  1.00  0.00    -0.269 OA
BRANCH  20  23
ATOM     23  C   UNL     1       3.655   3.880   5.682  1.00  0.00     0.039 A 
ATOM     24  C   UNL     1       3.593   4.212   7.042  1.00  0.00     0.014 A 
ATOM     25  C   UNL     1       4.643   2.997   5.233  1.00  0.00     0.014 A 
ATOM     26  C   UNL     1       4.522   3.679   7.942  1.00  0.00     0.010 A 
ATOM     27  C   UNL     1       5.549   2.435   6.141  1.00  0.00     0.010 A 
ATOM     28  C   UNL     1       5.519   2.798   7.497  1.00  0.00    -0.014 A 
BRANCH  28  29
ATOM     29  C   UNL     1       6.583   2.334   8.426  1.00  0.00     0.031 A 
ATOM     30  C   UNL     1       7.986   2.868   8.293  1.00  0.00     0.074 A 
ATOM     31  C   UNL     1       6.304   1.439   9.392  1.00  0.00     0.049 A 
ATOM     32  N   UNL     1       9.046   2.601   9.015  1.00  0.00    -0.248 NA
ATOM     33  C   UNL     1       8.231   3.817   7.195  1.00  0.00     0.031 C 
ATOM     34  C   UNL     1       4.996   0.830   9.632  1.00  0.00     0.029 A 
ATOM     35  N   UNL     1       7.113   0.889  10.357  1.00  0.00    -0.354 N 
ATOM     36  C   UNL     1      10.084   3.333   8.450  1.00  0.00     0.074 A 
ATOM     37  C   UNL     1       9.535   4.028   7.305  1.00  0.00     0.031 C 
ATOM     38  C   UNL     1       5.086   0.006  10.690  1.00  0.00     0.029 A 
ATOM     39  C   UNL     1       6.459   0.013  11.189  1.00  0.00     0.049 A 
ATOM     40  H   UNL     1       8.070   1.103  10.445  1.00  0.00     0.167 HD
ATOM     41  C   UNL     1      11.375   3.432   8.850  1.00  0.00     0.031 A 
ATOM     42  C   UNL     1       6.912  -0.700  12.238  1.00  0.00     0.031 A 
ATOM     43  C   UNL     1      11.929   2.762   9.995  1.00  0.00     0.049 A 
ATOM     44  C   UNL     1       8.348  -0.572  12.665  1.00  0.00     0.074 A 
ATOM     45  C   UNL     1      13.215   2.842  10.504  1.00  0.00     0.029 A 
ATOM     46  N   UNL     1      11.230   1.888  10.811  1.00  0.00    -0.354 N 
ATOM     47  N   UNL     1       9.300   0.168  12.153  1.00  0.00    -0.248 NA
ATOM     48  C   UNL     1       8.765  -1.369  13.830  1.00  0.00     0.031 C 
ATOM     49  C   UNL     1      13.303   1.987  11.608  1.00  0.00     0.029 A 
ATOM     50  C   UNL     1      12.061   1.409  11.811  1.00  0.00     0.049 A 
ATOM     51  H   UNL     1      10.284   1.643  10.697  1.00  0.00     0.167 HD
ATOM     52  C   UNL     1      10.417  -0.047  12.951  1.00  0.00     0.074 A 
ATOM     53  C   UNL     1      10.023  -0.981  13.985  1.00  0.00     0.031 C 
ATOM     54  C   UNL     1      11.657   0.487  12.839  1.00  0.00     0.031 A 
BRANCH  41  55
ATOM     55  C   UNL     1      12.286   4.298   8.026  1.00  0.00    -0.014 A 
ATOM     56  C   UNL     1      12.190   5.698   8.064  1.00  0.00     0.009 A 
ATOM     57  C   UNL     1      13.273   3.705   7.223  1.00  0.00     0.009 A 
ATOM     58  C   UNL     1      13.040   6.485   7.285  1.00  0.00     0.001 A 
ATOM     59  C   UNL     1      14.138   4.495   6.465  1.00  0.00     0.001 A 
ATOM     60  C   UNL     1      14.015   5.884   6.489  1.00  0.00     0.000 A 
ENDBRANCH  41  55
BRANCH  42  61
ATOM     61  C   UNL     1       5.984  -1.583  12.989  1.00  0.00    -0.014 A 
ATOM     62  C   UNL     1       5.535  -1.217  14.267  1.00  0.00     0.009 A 
ATOM     63  C   UNL     1       5.551  -2.798  12.437  1.00  0.00     0.009 A 
ATOM     64  C   UNL     1       4.690  -2.062  14.988  1.00  0.00     0.001 A 
ATOM     65  C   UNL     1       4.687  -3.630  13.152  1.00  0.00     0.001 A 
ATOM     66  C   UNL     1       4.263  -3.266  14.429  1.00  0.00     0.000 A 
ENDBRANCH  42  61
BRANCH  54  67
ATOM     67  C   UNL     1      12.666   0.112  13.886  1.00  0.00    -0.014 A 
ATOM     68  C   UNL     1      13.275  -1.153  13.892  1.00  0.00     0.009 A 
ATOM     69  C   UNL     1      13.039   1.052  14.859  1.00  0.00     0.009 A 
ATOM     70  C   UNL     1      14.214  -1.478  14.873  1.00  0.00     0.001 A 
ATOM     71  C   UNL     1      13.994   0.733  15.824  1.00  0.00     0.001 A 
ATOM     72  C   UNL     1      14.575  -0.535  15.835  1.00  0.00     0.000 A 
ENDBRANCH  54  67
ENDBRANCH  28  29
ENDBRANCH  20  23
ENDBRANCH  18  19
ENDBRANCH   1  18
TORSDOF 11
