REMARK SMILES O=C(NCCCNC(=O)c1nn(-c2ccc(Br)cc2F)cc1CCCO)c1ccc(-c2c3nc(c(-c4ccccc4)c4ccc([nH]4)c(-c4ccccc4)c4nc(c(-c5ccccc5)c5ccc2[nH]5)C=C4)C=C3)cc1
REMARK SMILES IDX 6 1 5 2 4 3 3 4 1 5 2 6 27 8 28 9 74 10 29 11 73 12 30 13
REMARK SMILES IDX 31 14 32 15 67 16 33 17 72 18 66 19 68 20 34 21 71 22 65 23
REMARK SMILES IDX 64 24 35 26 57 27 42 28 56 29 43 30 46 31 55 32 69 33 44 34
REMARK SMILES IDX 45 35 54 37 70 38 47 39 36 40 37 41 41 42 38 43 40 44 39 45
REMARK SMILES IDX 58 46 59 47 63 48 60 49 62 50 61 51 48 52 49 53 53 54 50 55
REMARK SMILES IDX 52 56 51 57 7 58 8 59 9 61 10 62 11 63 22 64 12 65 21 66
REMARK SMILES IDX 23 67 24 68 25 69 26 70 13 72 14 73 19 74 15 75 18 76 20 77
REMARK SMILES IDX 16 78 17 79
REMARK H PARENT 3 7 68 25 46 36 7 60 26 71
REMARK Flexibility Score: inf
ROOT
ATOM      1  C   UNL     1       4.237   0.241   3.635  1.00  0.00     0.118 C 
ENDROOT
BRANCH   1   2
ATOM      2  C   UNL     1       4.879   0.650   2.306  1.00  0.00     0.042 C 
BRANCH   2   3
ATOM      3  C   UNL     1       4.628  -0.294   1.128  1.00  0.00     0.118 C 
BRANCH   3   4
ATOM      4  N   UNL     1       3.239  -0.628   0.875  1.00  0.00    -0.352 N 
ATOM      5  O   UNL     1       1.146  -0.667   0.172  1.00  0.00    -0.269 OA
ATOM      6  C   UNL     1       2.174   0.005   0.296  1.00  0.00     0.251 C 
ATOM      7  H   UNL     1       3.006  -1.529   1.197  1.00  0.00     0.163 HD
BRANCH   6   8
ATOM      8  C   UNL     1       2.151   1.424  -0.155  1.00  0.00     0.039 A 
ATOM      9  C   UNL     1       3.271   2.231  -0.342  1.00  0.00     0.014 A 
ATOM     10  C   UNL     1       0.882   1.970  -0.436  1.00  0.00     0.014 A 
ATOM     11  C   UNL     1       3.126   3.559  -0.749  1.00  0.00     0.010 A 
ATOM     12  C   UNL     1       0.733   3.290  -0.865  1.00  0.00     0.010 A 
ATOM     13  C   UNL     1       1.860   4.094  -1.010  1.00  0.00    -0.014 A 
BRANCH  13  14
ATOM     14  C   UNL     1       1.798   5.454  -1.547  1.00  0.00     0.031 A 
ATOM     15  C   UNL     1       2.415   5.672  -2.888  1.00  0.00     0.074 A 
ATOM     16  C   UNL     1       1.126   6.490  -1.009  1.00  0.00     0.049 A 
ATOM     17  N   UNL     1       3.406   6.446  -3.195  1.00  0.00    -0.248 NA
ATOM     18  C   UNL     1       1.852   4.930  -4.024  1.00  0.00     0.031 C 
ATOM     19  C   UNL     1       0.159   6.476   0.086  1.00  0.00     0.029 A 
ATOM     20  N   UNL     1       1.120   7.794  -1.425  1.00  0.00    -0.354 N 
ATOM     21  C   UNL     1       3.516   6.403  -4.583  1.00  0.00     0.074 A 
ATOM     22  C   UNL     1       2.583   5.399  -5.037  1.00  0.00     0.031 C 
ATOM     23  C   UNL     1      -0.488   7.664   0.116  1.00  0.00     0.029 A 
ATOM     24  C   UNL     1       0.112   8.558  -0.864  1.00  0.00     0.049 A 
ATOM     25  H   UNL     1       1.773   8.156  -2.067  1.00  0.00     0.167 HD
ATOM     26  C   UNL     1       4.254   7.300  -5.293  1.00  0.00     0.031 A 
ATOM     27  C   UNL     1      -0.237   9.821  -1.203  1.00  0.00     0.031 A 
ATOM     28  C   UNL     1       5.159   8.056  -4.474  1.00  0.00     0.049 A 
ATOM     29  C   UNL     1       0.884  10.449  -1.936  1.00  0.00     0.074 A 
ATOM     30  C   UNL     1       6.214   7.761  -3.635  1.00  0.00     0.029 A 
ATOM     31  N   UNL     1       4.856   9.374  -4.241  1.00  0.00    -0.354 N 
ATOM     32  N   UNL     1       1.994  10.842  -1.383  1.00  0.00    -0.248 NA
ATOM     33  C   UNL     1       0.895  10.406  -3.390  1.00  0.00     0.031 C 
ATOM     34  C   UNL     1       6.181   8.767  -2.625  1.00  0.00     0.029 A 
ATOM     35  C   UNL     1       5.107   9.610  -2.915  1.00  0.00     0.049 A 
ATOM     36  H   UNL     1       4.521  10.025  -4.899  1.00  0.00     0.167 HD
ATOM     37  C   UNL     1       2.953  10.698  -2.371  1.00  0.00     0.074 A 
ATOM     38  C   UNL     1       2.199  10.581  -3.612  1.00  0.00     0.031 C 
ATOM     39  C   UNL     1       4.249  10.399  -2.059  1.00  0.00     0.031 A 
BRANCH  26  40
ATOM     40  C   UNL     1       3.945   7.723  -6.706  1.00  0.00    -0.014 A 
ATOM     41  C   UNL     1       4.888   8.492  -7.413  1.00  0.00     0.009 A 
ATOM     42  C   UNL     1       2.656   7.628  -7.263  1.00  0.00     0.009 A 
ATOM     43  C   UNL     1       4.546   9.169  -8.590  1.00  0.00     0.001 A 
ATOM     44  C   UNL     1       2.323   8.267  -8.462  1.00  0.00     0.001 A 
ATOM     45  C   UNL     1       3.262   9.057  -9.113  1.00  0.00     0.000 A 
ENDBRANCH  26  40
BRANCH  27  46
ATOM     46  C   UNL     1      -1.537  10.503  -1.056  1.00  0.00    -0.014 A 
ATOM     47  C   UNL     1      -1.619  11.904  -1.075  1.00  0.00     0.009 A 
ATOM     48  C   UNL     1      -2.736   9.773  -1.139  1.00  0.00     0.009 A 
ATOM     49  C   UNL     1      -2.855  12.550  -1.200  1.00  0.00     0.001 A 
ATOM     50  C   UNL     1      -3.971  10.417  -1.254  1.00  0.00     0.001 A 
ATOM     51  C   UNL     1      -4.029  11.806  -1.299  1.00  0.00     0.000 A 
ENDBRANCH  27  46
BRANCH  39  52
ATOM     52  C   UNL     1       4.700  10.585  -0.632  1.00  0.00    -0.014 A 
ATOM     53  C   UNL     1       4.077   9.944   0.453  1.00  0.00     0.009 A 
ATOM     54  C   UNL     1       5.868  11.323  -0.387  1.00  0.00     0.009 A 
ATOM     55  C   UNL     1       4.577  10.081   1.750  1.00  0.00     0.001 A 
ATOM     56  C   UNL     1       6.383  11.438   0.907  1.00  0.00     0.001 A 
ATOM     57  C   UNL     1       5.732  10.825   1.976  1.00  0.00     0.000 A 
ENDBRANCH  39  52
ENDBRANCH  13  14
ENDBRANCH   6   8
ENDBRANCH   3   4
ENDBRANCH   2   3
ENDBRANCH   1   2
BRANCH   1  58
ATOM     58  N   UNL     1       4.540  -1.131   3.994  1.00  0.00    -0.351 N 
ATOM     59  C   UNL     1       5.286  -1.624   5.029  1.00  0.00     0.272 C 
ATOM     60  H   UNL     1       4.149  -1.813   3.401  1.00  0.00     0.163 HD
ATOM     61  O   UNL     1       5.565  -2.833   4.992  1.00  0.00    -0.267 OA
BRANCH  59  62
ATOM     62  C   UNL     1       5.771  -0.734   6.088  1.00  0.00     0.153 A 
ATOM     63  N   UNL     1       4.928   0.063   6.778  1.00  0.00    -0.162 NA
ATOM     64  C   UNL     1       7.109  -0.600   6.568  1.00  0.00     0.004 A 
ATOM     65  N   UNL     1       5.728   0.841   7.544  1.00  0.00    -0.237 N 
ATOM     66  C   UNL     1       7.042   0.459   7.451  1.00  0.00     0.119 A 
BRANCH  64  67
ATOM     67  C   UNL     1       8.354  -1.314   6.147  1.00  0.00     0.042 C 
BRANCH  67  68
ATOM     68  C   UNL     1       8.629  -2.643   6.862  1.00  0.00     0.033 C 
BRANCH  68  69
ATOM     69  C   UNL     1       7.990  -3.886   6.251  1.00  0.00     0.156 C 
BRANCH  69  70
ATOM     70  O   UNL     1       8.036  -3.851   4.832  1.00  0.00    -0.396 OA
ATOM     71  H   UNL     1       7.543  -3.080   4.511  1.00  0.00     0.210 HD
ENDBRANCH  69  70
ENDBRANCH  68  69
ENDBRANCH  67  68
ENDBRANCH  64  67
BRANCH  65  72
ATOM     72  C   UNL     1       5.191   1.895   8.317  1.00  0.00     0.100 A 
ATOM     73  C   UNL     1       3.908   1.773   8.867  1.00  0.00     0.032 A 
ATOM     74  C   UNL     1       5.926   3.063   8.534  1.00  0.00     0.149 A 
ATOM     75  C   UNL     1       3.393   2.802   9.663  1.00  0.00     0.018 A 
ATOM     76  C   UNL     1       5.397   4.109   9.285  1.00  0.00     0.057 A 
ATOM     77  F   UNL     1       7.126   3.245   7.963  1.00  0.00    -0.205 F 
ATOM     78  C   UNL     1       4.136   3.967   9.860  1.00  0.00     0.021 A 
ATOM     79  Br  UNL     1       3.425   5.368  10.910  1.00  0.00    -0.051 Br
ENDBRANCH  65  72
ENDBRANCH  59  62
ENDBRANCH   1  58
TORSDOF 15
