REMARK SMILES CCC[C@H](C(=O)NCCCNC(=O)c1ccc(-c2c3nc(c(-c4ccccc4)c4ccc([nH]4)c(-c4ccccc4)c4nc(c(-c5ccccc5)c5ccc2[nH]5)C=C4)C=C3)cc1)N1C(=O)/C(=C\C(C)=C\c2ccccc2)SC1=S
REMARK SMILES IDX 8 1 7 2 5 3 6 4 4 6 3 7 2 8 1 9 62 10 63 11 77 12 64 13
REMARK SMILES IDX 65 14 76 15 78 16 66 17 67 18 68 19 69 20 70 21 71 22 75 23
REMARK SMILES IDX 72 24 74 25 73 26 9 27 10 28 11 29 12 30 13 32 14 33 15 34
REMARK SMILES IDX 61 35 16 36 60 37 17 38 18 39 19 40 54 41 20 42 59 43 53 44
REMARK SMILES IDX 55 45 21 46 58 47 52 48 51 49 22 51 44 52 29 53 43 54 30 55
REMARK SMILES IDX 33 56 42 57 56 58 31 59 32 60 41 62 57 63 34 64 23 65 24 66
REMARK SMILES IDX 28 67 25 68 27 69 26 70 45 71 46 72 50 73 47 74 49 75 48 76
REMARK SMILES IDX 35 77 36 78 40 79 37 80 39 81 38 82
REMARK H PARENT 7 5 11 31 55 50 33 61
REMARK Flexibility Score: inf
ROOT
ATOM      1  C   UNL     1      -0.900  -2.087   0.578  1.00  0.00     0.117 C 
ENDROOT
BRANCH   1   2
ATOM      2  N   UNL     1       0.391  -2.159   1.223  1.00  0.00    -0.354 N 
ATOM      3  C   UNL     1       0.992  -1.421   2.186  1.00  0.00     0.243 C 
ATOM      4  O   UNL     1       2.173  -1.726   2.408  1.00  0.00    -0.273 OA
ATOM      5  H   UNL     1       0.950  -2.899   0.893  1.00  0.00     0.163 HD
BRANCH   3   6
ATOM      6  C   UNL     1       0.356  -0.213   2.924  1.00  0.00     0.181 C 
BRANCH   6   7
ATOM      7  C   UNL     1      -1.161  -0.014   3.131  1.00  0.00     0.035 C 
BRANCH   7   8
ATOM      8  C   UNL     1      -1.721   1.262   2.477  1.00  0.00    -0.001 C 
ATOM      9  C   UNL     1      -1.746   1.275   0.959  1.00  0.00     0.004 C 
ENDBRANCH   7   8
ENDBRANCH   6   7
BRANCH   6  10
ATOM     10  N   UNL     1       1.005  -0.149   4.260  1.00  0.00    -0.280 N 
ATOM     11  C   UNL     1       1.673   1.013   4.613  1.00  0.00     0.266 C 
ATOM     12  C   UNL     1       0.897  -1.119   5.241  1.00  0.00     0.149 C 
ATOM     13  O   UNL     1       2.023   1.888   3.841  1.00  0.00    -0.268 OA
ATOM     14  C   UNL     1       1.840   1.054   6.095  1.00  0.00     0.080 C 
ATOM     15  S   UNL     1       1.701  -0.563   6.702  1.00  0.00    -0.054 SA
ATOM     16  S   UNL     1       0.100  -2.587   5.190  1.00  0.00    -0.052 S 
ATOM     17  C   UNL     1       1.908   2.100   6.933  1.00  0.00     0.024 C 
BRANCH  17  18
ATOM     18  C   UNL     1       1.874   3.542   6.690  1.00  0.00    -0.049 C 
ATOM     19  C   UNL     1       2.483   4.358   7.809  1.00  0.00     0.044 C 
ATOM     20  C   UNL     1       1.236   4.102   5.641  1.00  0.00     0.011 C 
BRANCH  20  21
ATOM     21  C   UNL     1       1.191   5.517   5.230  1.00  0.00    -0.025 A 
ATOM     22  C   UNL     1       0.033   6.000   4.605  1.00  0.00     0.008 A 
ATOM     23  C   UNL     1       2.310   6.357   5.301  1.00  0.00     0.008 A 
ATOM     24  C   UNL     1      -0.017   7.299   4.095  1.00  0.00     0.001 A 
ATOM     25  C   UNL     1       2.258   7.662   4.804  1.00  0.00     0.001 A 
ATOM     26  C   UNL     1       1.095   8.132   4.199  1.00  0.00     0.000 A 
ENDBRANCH  20  21
ENDBRANCH  17  18
ENDBRANCH   6  10
ENDBRANCH   3   6
ENDBRANCH   1   2
BRANCH   1  27
ATOM     27  C   UNL     1      -0.782  -1.556  -0.842  1.00  0.00     0.042 C 
BRANCH  27  28
ATOM     28  C   UNL     1      -0.681  -2.682  -1.856  1.00  0.00     0.118 C 
BRANCH  28  29
ATOM     29  N   UNL     1      -1.957  -3.380  -2.005  1.00  0.00    -0.352 N 
ATOM     30  C   UNL     1      -2.908  -3.308  -2.994  1.00  0.00     0.251 C 
ATOM     31  H   UNL     1      -2.170  -4.006  -1.276  1.00  0.00     0.163 HD
ATOM     32  O   UNL     1      -4.030  -3.761  -2.787  1.00  0.00    -0.269 OA
BRANCH  30  33
ATOM     33  C   UNL     1      -2.594  -2.689  -4.299  1.00  0.00     0.039 A 
ATOM     34  C   UNL     1      -3.590  -1.992  -4.992  1.00  0.00     0.014 A 
ATOM     35  C   UNL     1      -1.330  -2.832  -4.868  1.00  0.00     0.014 A 
ATOM     36  C   UNL     1      -3.295  -1.391  -6.220  1.00  0.00     0.010 A 
ATOM     37  C   UNL     1      -1.002  -2.131  -6.018  1.00  0.00     0.010 A 
ATOM     38  C   UNL     1      -1.987  -1.427  -6.726  1.00  0.00    -0.014 A 
BRANCH  38  39
ATOM     39  C   UNL     1      -1.604  -0.805  -8.018  1.00  0.00     0.031 A 
ATOM     40  C   UNL     1      -0.987  -1.667  -9.091  1.00  0.00     0.074 A 
ATOM     41  C   UNL     1      -1.692   0.527  -8.187  1.00  0.00     0.049 A 
ATOM     42  N   UNL     1      -0.368  -1.311 -10.187  1.00  0.00    -0.248 NA
ATOM     43  C   UNL     1      -1.023  -3.123  -8.869  1.00  0.00     0.031 C 
ATOM     44  C   UNL     1      -2.240   1.478  -7.217  1.00  0.00     0.029 A 
ATOM     45  N   UNL     1      -1.296   1.316  -9.237  1.00  0.00    -0.354 N 
ATOM     46  C   UNL     1       0.108  -2.491 -10.748  1.00  0.00     0.074 A 
ATOM     47  C   UNL     1      -0.252  -3.565  -9.850  1.00  0.00     0.031 C 
ATOM     48  C   UNL     1      -2.166   2.718  -7.727  1.00  0.00     0.029 A 
ATOM     49  C   UNL     1      -1.517   2.656  -9.032  1.00  0.00     0.049 A 
ATOM     50  H   UNL     1      -0.892   0.956 -10.059  1.00  0.00     0.167 HD
ATOM     51  C   UNL     1       0.770  -2.668 -11.915  1.00  0.00     0.031 A 
ATOM     52  C   UNL     1      -1.214   3.717  -9.802  1.00  0.00     0.031 A 
ATOM     53  C   UNL     1       1.072  -1.605 -12.833  1.00  0.00     0.049 A 
ATOM     54  C   UNL     1      -0.513   3.494 -11.113  1.00  0.00     0.074 A 
ATOM     55  C   UNL     1       1.671  -1.682 -14.077  1.00  0.00     0.029 A 
ATOM     56  N   UNL     1       0.776  -0.269 -12.610  1.00  0.00    -0.354 N 
ATOM     57  N   UNL     1      -0.099   2.370 -11.647  1.00  0.00    -0.248 NA
ATOM     58  C   UNL     1      -0.246   4.685 -11.932  1.00  0.00     0.031 C 
ATOM     59  C   UNL     1       1.767  -0.387 -14.595  1.00  0.00     0.029 A 
ATOM     60  C   UNL     1       1.184   0.490 -13.692  1.00  0.00     0.049 A 
ATOM     61  H   UNL     1       0.341   0.087 -11.802  1.00  0.00     0.167 HD
ATOM     62  C   UNL     1       0.447   2.714 -12.877  1.00  0.00     0.074 A 
ATOM     63  C   UNL     1       0.303   4.149 -13.013  1.00  0.00     0.031 C 
ATOM     64  C   UNL     1       1.014   1.914 -13.812  1.00  0.00     0.031 A 
BRANCH  51  65
ATOM     65  C   UNL     1       1.206  -4.065 -12.260  1.00  0.00    -0.014 A 
ATOM     66  C   UNL     1       0.274  -5.063 -12.588  1.00  0.00     0.009 A 
ATOM     67  C   UNL     1       2.573  -4.385 -12.275  1.00  0.00     0.009 A 
ATOM     68  C   UNL     1       0.698  -6.362 -12.877  1.00  0.00     0.001 A 
ATOM     69  C   UNL     1       2.996  -5.676 -12.597  1.00  0.00     0.001 A 
ATOM     70  C   UNL     1       2.058  -6.666 -12.886  1.00  0.00     0.000 A 
ENDBRANCH  51  65
BRANCH  52  71
ATOM     71  C   UNL     1      -1.590   5.087  -9.365  1.00  0.00    -0.014 A 
ATOM     72  C   UNL     1      -2.634   5.770 -10.008  1.00  0.00     0.009 A 
ATOM     73  C   UNL     1      -0.918   5.716  -8.306  1.00  0.00     0.009 A 
ATOM     74  C   UNL     1      -2.979   7.066  -9.617  1.00  0.00     0.001 A 
ATOM     75  C   UNL     1      -1.284   7.001  -7.899  1.00  0.00     0.001 A 
ATOM     76  C   UNL     1      -2.307   7.678  -8.560  1.00  0.00     0.000 A 
ENDBRANCH  52  71
BRANCH  64  77
ATOM     77  C   UNL     1       1.468   2.561 -15.087  1.00  0.00    -0.014 A 
ATOM     78  C   UNL     1       2.631   3.344 -15.136  1.00  0.00     0.009 A 
ATOM     79  C   UNL     1       0.748   2.332 -16.270  1.00  0.00     0.009 A 
ATOM     80  C   UNL     1       3.049   3.907 -16.342  1.00  0.00     0.001 A 
ATOM     81  C   UNL     1       1.182   2.875 -17.479  1.00  0.00     0.001 A 
ATOM     82  C   UNL     1       2.328   3.668 -17.513  1.00  0.00     0.000 A 
ENDBRANCH  64  77
ENDBRANCH  38  39
ENDBRANCH  30  33
ENDBRANCH  28  29
ENDBRANCH  27  28
ENDBRANCH   1  27
TORSDOF 15
