REMARK SMILES O=C(NCCCNC(=O)c1cccc(S(=O)(=O)NC[C@@H]2COc3ccccc3O2)c1)c1ccc(-c2c3nc(c(-c4ccccc4)c4ccc([nH]4)c(-c4ccccc4)c4nc(c(-c5ccccc5)c5ccc2[nH]5)C=C4)C=C3)cc1
REMARK SMILES IDX 6 1 5 2 4 3 3 4 1 5 2 6 31 8 32 9 78 10 33 11 77 12 34 13
REMARK SMILES IDX 35 14 36 15 71 16 37 17 76 18 70 19 72 20 38 21 75 22 69 23
REMARK SMILES IDX 68 24 39 26 61 27 46 28 60 29 47 30 50 31 59 32 73 33 48 34
REMARK SMILES IDX 49 35 58 37 74 38 51 39 40 40 41 41 45 42 42 43 44 44 43 45
REMARK SMILES IDX 62 46 63 47 67 48 64 49 66 50 65 51 52 52 53 53 57 54 54 55
REMARK SMILES IDX 56 56 55 57 7 58 8 59 9 61 10 62 11 63 30 64 12 65 14 66
REMARK SMILES IDX 13 67 15 68 16 69 17 70 18 71 19 73 20 74 21 75 29 76 22 77
REMARK SMILES IDX 28 78 23 79 27 80 24 81 26 82 25 83
REMARK H PARENT 3 7 72 25 50 36 7 60 18 72
REMARK Flexibility Score: inf
ROOT
ATOM      1  C   UNL     1       4.418  -0.272  -3.804  1.00  0.00     0.118 C 
ENDROOT
BRANCH   1   2
ATOM      2  C   UNL     1       4.934  -0.534  -2.398  1.00  0.00     0.042 C 
BRANCH   2   3
ATOM      3  C   UNL     1       4.577   0.566  -1.409  1.00  0.00     0.118 C 
BRANCH   3   4
ATOM      4  N   UNL     1       3.154   0.602  -1.098  1.00  0.00    -0.352 N 
ATOM      5  O   UNL     1       1.240   0.103  -0.027  1.00  0.00    -0.269 OA
ATOM      6  C   UNL     1       2.466   0.150   0.003  1.00  0.00     0.251 C 
ATOM      7  H   UNL     1       2.593   1.020  -1.790  1.00  0.00     0.163 HD
BRANCH   6   8
ATOM      8  C   UNL     1       3.187  -0.304   1.213  1.00  0.00     0.039 A 
ATOM      9  C   UNL     1       4.309   0.380   1.679  1.00  0.00     0.014 A 
ATOM     10  C   UNL     1       2.709  -1.412   1.921  1.00  0.00     0.014 A 
ATOM     11  C   UNL     1       5.054  -0.143   2.728  1.00  0.00     0.010 A 
ATOM     12  C   UNL     1       3.395  -1.870   3.052  1.00  0.00     0.010 A 
ATOM     13  C   UNL     1       4.596  -1.261   3.443  1.00  0.00    -0.014 A 
BRANCH  13  14
ATOM     14  C   UNL     1       5.369  -1.714   4.628  1.00  0.00     0.031 A 
ATOM     15  C   UNL     1       6.022  -3.067   4.669  1.00  0.00     0.074 A 
ATOM     16  C   UNL     1       5.535  -0.853   5.652  1.00  0.00     0.049 A 
ATOM     17  N   UNL     1       6.796  -3.576   5.596  1.00  0.00    -0.248 NA
ATOM     18  C   UNL     1       5.776  -3.969   3.533  1.00  0.00     0.031 C 
ATOM     19  C   UNL     1       4.941   0.485   5.736  1.00  0.00     0.029 A 
ATOM     20  N   UNL     1       6.283  -0.954   6.797  1.00  0.00    -0.354 N 
ATOM     21  C   UNL     1       7.117  -4.856   5.165  1.00  0.00     0.074 A 
ATOM     22  C   UNL     1       6.433  -5.060   3.905  1.00  0.00     0.031 C 
ATOM     23  C   UNL     1       5.403   1.105   6.830  1.00  0.00     0.029 A 
ATOM     24  C   UNL     1       6.272   0.189   7.559  1.00  0.00     0.049 A 
ATOM     25  H   UNL     1       6.779  -1.766   7.048  1.00  0.00     0.167 HD
ATOM     26  C   UNL     1       7.915  -5.776   5.759  1.00  0.00     0.031 A 
ATOM     27  C   UNL     1       6.886   0.474   8.721  1.00  0.00     0.031 A 
ATOM     28  C   UNL     1       8.595  -5.576   7.012  1.00  0.00     0.049 A 
ATOM     29  C   UNL     1       7.755  -0.567   9.359  1.00  0.00     0.074 A 
ATOM     30  C   UNL     1       9.426  -6.450   7.692  1.00  0.00     0.029 A 
ATOM     31  N   UNL     1       8.527  -4.418   7.771  1.00  0.00    -0.354 N 
ATOM     32  N   UNL     1       8.056  -1.768   8.927  1.00  0.00    -0.248 NA
ATOM     33  C   UNL     1       8.370  -0.214  10.646  1.00  0.00     0.031 C 
ATOM     34  C   UNL     1       9.832  -5.834   8.882  1.00  0.00     0.029 A 
ATOM     35  C   UNL     1       9.290  -4.559   8.918  1.00  0.00     0.049 A 
ATOM     36  H   UNL     1       8.012  -3.614   7.530  1.00  0.00     0.167 HD
ATOM     37  C   UNL     1       8.897  -2.312   9.886  1.00  0.00     0.074 A 
ATOM     38  C   UNL     1       9.085  -1.299  10.905  1.00  0.00     0.031 C 
ATOM     39  C   UNL     1       9.457  -3.545   9.925  1.00  0.00     0.031 A 
BRANCH  26  40
ATOM     40  C   UNL     1       8.085  -7.099   5.065  1.00  0.00    -0.014 A 
ATOM     41  C   UNL     1       8.882  -7.217   3.916  1.00  0.00     0.009 A 
ATOM     42  C   UNL     1       7.482  -8.250   5.596  1.00  0.00     0.009 A 
ATOM     43  C   UNL     1       9.052  -8.459   3.298  1.00  0.00     0.001 A 
ATOM     44  C   UNL     1       7.672  -9.493   4.990  1.00  0.00     0.001 A 
ATOM     45  C   UNL     1       8.451  -9.596   3.838  1.00  0.00     0.000 A 
ENDBRANCH  26  40
BRANCH  27  46
ATOM     46  C   UNL     1       6.685   1.800   9.359  1.00  0.00    -0.014 A 
ATOM     47  C   UNL     1       7.728   2.736   9.414  1.00  0.00     0.009 A 
ATOM     48  C   UNL     1       5.437   2.137   9.908  1.00  0.00     0.009 A 
ATOM     49  C   UNL     1       7.530   3.975  10.026  1.00  0.00     0.001 A 
ATOM     50  C   UNL     1       5.235   3.388  10.492  1.00  0.00     0.001 A 
ATOM     51  C   UNL     1       6.284   4.302  10.559  1.00  0.00     0.000 A 
ENDBRANCH  27  46
BRANCH  39  52
ATOM     52  C   UNL     1      10.334  -3.850  11.103  1.00  0.00    -0.014 A 
ATOM     53  C   UNL     1       9.784  -4.088  12.372  1.00  0.00     0.009 A 
ATOM     54  C   UNL     1      11.726  -3.908  10.940  1.00  0.00     0.009 A 
ATOM     55  C   UNL     1      10.615  -4.341  13.464  1.00  0.00     0.001 A 
ATOM     56  C   UNL     1      12.553  -4.186  12.029  1.00  0.00     0.001 A 
ATOM     57  C   UNL     1      11.998  -4.391  13.291  1.00  0.00     0.000 A 
ENDBRANCH  39  52
ENDBRANCH  13  14
ENDBRANCH   6   8
ENDBRANCH   3   4
ENDBRANCH   2   3
ENDBRANCH   1   2
BRANCH   1  58
ATOM     58  N   UNL     1       4.983   0.952  -4.360  1.00  0.00    -0.352 N 
ATOM     59  C   UNL     1       6.031   1.154  -5.222  1.00  0.00     0.251 C 
ATOM     60  H   UNL     1       4.534   1.777  -4.066  1.00  0.00     0.163 HD
ATOM     61  O   UNL     1       6.542   2.269  -5.282  1.00  0.00    -0.269 OA
BRANCH  59  62
ATOM     62  C   UNL     1       6.502   0.092  -6.141  1.00  0.00     0.041 A 
ATOM     63  C   UNL     1       7.828   0.085  -6.582  1.00  0.00     0.014 A 
ATOM     64  C   UNL     1       5.594  -0.789  -6.720  1.00  0.00     0.035 A 
ATOM     65  C   UNL     1       8.234  -0.818  -7.572  1.00  0.00     0.002 A 
ATOM     66  C   UNL     1       5.983  -1.660  -7.732  1.00  0.00     0.083 A 
ATOM     67  C   UNL     1       7.310  -1.692  -8.156  1.00  0.00     0.022 A 
BRANCH  66  68
ATOM     68  S   UNL     1       4.766  -2.697  -8.504  1.00  0.00     0.240 S 
ATOM     69  O   UNL     1       4.598  -2.259  -9.867  1.00  0.00    -0.207 OA
ATOM     70  O   UNL     1       5.107  -4.057  -8.151  1.00  0.00    -0.207 OA
BRANCH  68  71
ATOM     71  N   UNL     1       3.346  -2.354  -7.639  1.00  0.00    -0.207 NA
ATOM     72  H   UNL     1       3.638  -1.920  -6.763  1.00  0.00     0.141 HD
BRANCH  71  73
ATOM     73  C   UNL     1       2.292  -1.474  -8.219  1.00  0.00     0.147 C 
BRANCH  73  74
ATOM     74  C   UNL     1       2.724  -0.042  -8.604  1.00  0.00     0.226 C 
ATOM     75  C   UNL     1       2.622   0.991  -7.476  1.00  0.00     0.276 C 
ATOM     76  O   UNL     1       1.942   0.389  -9.738  1.00  0.00    -0.482 OA
ATOM     77  O   UNL     1       1.277   1.155  -7.026  1.00  0.00    -0.486 OA
ATOM     78  C   UNL     1       0.796   1.060  -9.402  1.00  0.00     0.161 A 
ATOM     79  C   UNL     1       0.466   1.425  -8.094  1.00  0.00     0.161 A 
ATOM     80  C   UNL     1      -0.057   1.397 -10.448  1.00  0.00     0.050 A 
ATOM     81  C   UNL     1      -0.724   2.095  -7.825  1.00  0.00     0.050 A 
ATOM     82  C   UNL     1      -1.241   2.089 -10.185  1.00  0.00     0.004 A 
ATOM     83  C   UNL     1      -1.576   2.434  -8.875  1.00  0.00     0.004 A 
ENDBRANCH  73  74
ENDBRANCH  71  73
ENDBRANCH  68  71
ENDBRANCH  66  68
ENDBRANCH  59  62
ENDBRANCH   1  58
TORSDOF 14
