REMARK SMILES COCCOc1ccc([C@H]([NH3+])C(=O)NCCCNC(=O)c2ccc(-c3c4nc(c(-c5ccccc5)c5ccc([nH]5)c(-c5ccccc5)c5nc(c(-c6ccccc6)c6ccc3[nH]6)C=C5)C=C4)cc2)cc1OC
REMARK SMILES IDX 12 1 13 2 14 3 10 5 9 6 6 7 7 8 70 9 8 10 69 11 5 12 4 13
REMARK SMILES IDX 3 14 2 15 1 16 71 17 72 18 11 19 15 23 16 24 17 25 18 26
REMARK SMILES IDX 19 27 20 29 21 30 22 31 68 32 23 33 67 34 24 35 25 36 26 37
REMARK SMILES IDX 61 38 27 39 66 40 60 41 62 42 28 43 65 44 59 45 58 46 29 48
REMARK SMILES IDX 51 49 36 50 50 51 37 52 40 53 49 54 63 55 38 56 39 57 48 59
REMARK SMILES IDX 64 60 41 61 30 62 31 63 35 64 32 65 34 66 33 67 52 68 53 69
REMARK SMILES IDX 57 70 54 71 56 72 55 73 42 74 43 75 47 76 44 77 46 78 45 79
REMARK H PARENT 14 4 11 20 11 21 11 22 18 28 62 47 40 58
REMARK Flexibility Score: inf
ROOT
ATOM      1  C   UNL     1      -2.097  -2.980  -3.055  1.00  0.00     0.283 C 
ATOM      2  O   UNL     1      -3.069  -2.515  -3.659  1.00  0.00    -0.268 OA
ATOM      3  N   UNL     1      -2.293  -4.143  -2.365  1.00  0.00    -0.351 N 
ATOM      4  H   UNL     1      -3.208  -4.505  -2.406  1.00  0.00     0.163 HD
ENDROOT
BRANCH   1   5
ATOM      5  C   UNL     1      -0.706  -2.297  -3.110  1.00  0.00     0.302 C 
BRANCH   5   6
ATOM      6  C   UNL     1       0.377  -3.105  -3.832  1.00  0.00     0.023 A 
ATOM      7  C   UNL     1       2.329  -4.256  -5.531  1.00  0.00     0.161 A 
ATOM      8  C   UNL     1       2.717  -3.415  -4.489  1.00  0.00     0.051 A 
ATOM      9  C   UNL     1       0.984  -4.604  -5.668  1.00  0.00     0.161 A 
ATOM     10  C   UNL     1       1.749  -2.853  -3.640  1.00  0.00     0.014 A 
ATOM     11  C   UNL     1       0.018  -4.011  -4.848  1.00  0.00     0.061 A 
BRANCH   7  12
ATOM     12  O   UNL     1       3.192  -4.560  -6.548  1.00  0.00    -0.487 OA
BRANCH  12  13
ATOM     13  C   UNL     1       4.225  -5.503  -6.244  1.00  0.00     0.258 C 
BRANCH  13  14
ATOM     14  C   UNL     1       3.736  -6.943  -6.435  1.00  0.00     0.201 C 
BRANCH  14  15
ATOM     15  O   UNL     1       3.739  -7.770  -5.267  1.00  0.00    -0.381 OA
ATOM     16  C   UNL     1       3.161  -7.207  -4.102  1.00  0.00     0.195 C 
ENDBRANCH  14  15
ENDBRANCH  13  14
ENDBRANCH  12  13
ENDBRANCH   7  12
BRANCH   9  17
ATOM     17  O   UNL     1       0.598  -5.427  -6.694  1.00  0.00    -0.493 OA
ATOM     18  C   UNL     1       0.014  -6.648  -6.235  1.00  0.00     0.278 C 
ENDBRANCH   9  17
ENDBRANCH   5   6
BRANCH   5  19
ATOM     19  N   UNL     1      -0.339  -1.822  -1.760  1.00  0.00    -0.343 N 
ATOM     20  H   UNL     1      -0.258  -2.620  -1.130  1.00  0.00     0.345 HD
ATOM     21  H   UNL     1      -1.060  -1.188  -1.416  1.00  0.00     0.345 HD
ATOM     22  H   UNL     1       0.553  -1.331  -1.804  1.00  0.00     0.345 HD
ENDBRANCH   5  19
ENDBRANCH   1   5
BRANCH   3  23
ATOM     23  C   UNL     1      -1.358  -4.921  -1.582  1.00  0.00     0.118 C 
BRANCH  23  24
ATOM     24  C   UNL     1      -1.620  -4.789  -0.088  1.00  0.00     0.042 C 
BRANCH  24  25
ATOM     25  C   UNL     1      -2.991  -5.296   0.343  1.00  0.00     0.118 C 
BRANCH  25  26
ATOM     26  N   UNL     1      -3.188  -6.706   0.037  1.00  0.00    -0.352 N 
ATOM     27  C   UNL     1      -3.497  -7.756   0.861  1.00  0.00     0.251 C 
ATOM     28  H   UNL     1      -3.082  -6.943  -0.912  1.00  0.00     0.163 HD
ATOM     29  O   UNL     1      -3.419  -8.906   0.428  1.00  0.00    -0.269 OA
BRANCH  27  30
ATOM     30  C   UNL     1      -3.905  -7.524   2.261  1.00  0.00     0.039 A 
ATOM     31  C   UNL     1      -3.454  -8.406   3.246  1.00  0.00     0.014 A 
ATOM     32  C   UNL     1      -4.753  -6.468   2.606  1.00  0.00     0.014 A 
ATOM     33  C   UNL     1      -3.811  -8.198   4.579  1.00  0.00     0.010 A 
ATOM     34  C   UNL     1      -5.033  -6.208   3.944  1.00  0.00     0.010 A 
ATOM     35  C   UNL     1      -4.576  -7.078   4.944  1.00  0.00    -0.014 A 
BRANCH  35  36
ATOM     36  C   UNL     1      -4.907  -6.812   6.367  1.00  0.00     0.031 A 
ATOM     37  C   UNL     1      -6.338  -6.814   6.830  1.00  0.00     0.074 A 
ATOM     38  C   UNL     1      -3.917  -6.529   7.236  1.00  0.00     0.049 A 
ATOM     39  N   UNL     1      -6.817  -6.597   8.030  1.00  0.00    -0.248 NA
ATOM     40  C   UNL     1      -7.369  -7.072   5.811  1.00  0.00     0.031 C 
ATOM     41  C   UNL     1      -2.492  -6.453   6.903  1.00  0.00     0.029 A 
ATOM     42  N   UNL     1      -3.958  -6.256   8.580  1.00  0.00    -0.354 N 
ATOM     43  C   UNL     1      -8.198  -6.680   7.906  1.00  0.00     0.074 A 
ATOM     44  C   UNL     1      -8.485  -6.909   6.507  1.00  0.00     0.031 C 
ATOM     45  C   UNL     1      -1.794  -6.194   8.020  1.00  0.00     0.029 A 
ATOM     46  C   UNL     1      -2.721  -6.040   9.136  1.00  0.00     0.049 A 
ATOM     47  H   UNL     1      -4.795  -6.218   9.097  1.00  0.00     0.167 HD
ATOM     48  C   UNL     1      -9.144  -6.595   8.872  1.00  0.00     0.031 A 
ATOM     49  C   UNL     1      -2.370  -5.749  10.402  1.00  0.00     0.031 A 
ATOM     50  C   UNL     1      -8.859  -6.369  10.264  1.00  0.00     0.049 A 
ATOM     51  C   UNL     1      -3.441  -5.638  11.452  1.00  0.00     0.074 A 
ATOM     52  C   UNL     1      -9.743  -6.318  11.328  1.00  0.00     0.029 A 
ATOM     53  N   UNL     1      -7.593  -6.147  10.784  1.00  0.00    -0.354 N 
ATOM     54  N   UNL     1      -4.737  -5.795  11.331  1.00  0.00    -0.248 NA
ATOM     55  C   UNL     1      -2.996  -5.324  12.816  1.00  0.00     0.031 C 
ATOM     56  C   UNL     1      -9.019  -6.005  12.482  1.00  0.00     0.029 A 
ATOM     57  C   UNL     1      -7.676  -5.930  12.150  1.00  0.00     0.049 A 
ATOM     58  H   UNL     1      -6.759  -6.145  10.261  1.00  0.00     0.167 HD
ATOM     59  C   UNL     1      -5.259  -5.628  12.607  1.00  0.00     0.074 A 
ATOM     60  C   UNL     1      -4.137  -5.379  13.489  1.00  0.00     0.031 C 
ATOM     61  C   UNL     1      -6.551  -5.679  13.014  1.00  0.00     0.031 A 
BRANCH  48  62
ATOM     62  C   UNL     1     -10.582  -6.739   8.450  1.00  0.00    -0.014 A 
ATOM     63  C   UNL     1     -11.089  -7.965   7.990  1.00  0.00     0.009 A 
ATOM     64  C   UNL     1     -11.451  -5.641   8.548  1.00  0.00     0.009 A 
ATOM     65  C   UNL     1     -12.426  -8.078   7.600  1.00  0.00     0.001 A 
ATOM     66  C   UNL     1     -12.795  -5.765   8.190  1.00  0.00     0.001 A 
ATOM     67  C   UNL     1     -13.278  -6.980   7.706  1.00  0.00     0.000 A 
ENDBRANCH  48  62
BRANCH  49  68
ATOM     68  C   UNL     1      -0.938  -5.555  10.755  1.00  0.00    -0.014 A 
ATOM     69  C   UNL     1      -0.272  -6.482  11.570  1.00  0.00     0.009 A 
ATOM     70  C   UNL     1      -0.233  -4.436  10.285  1.00  0.00     0.009 A 
ATOM     71  C   UNL     1       1.061  -6.276  11.935  1.00  0.00     0.001 A 
ATOM     72  C   UNL     1       1.109  -4.250  10.624  1.00  0.00     0.001 A 
ATOM     73  C   UNL     1       1.751  -5.163  11.458  1.00  0.00     0.000 A 
ENDBRANCH  49  68
BRANCH  61  74
ATOM     74  C   UNL     1      -6.816  -5.498  14.483  1.00  0.00    -0.014 A 
ATOM     75  C   UNL     1      -6.641  -4.257  15.114  1.00  0.00     0.009 A 
ATOM     76  C   UNL     1      -7.279  -6.586  15.242  1.00  0.00     0.009 A 
ATOM     77  C   UNL     1      -6.882  -4.120  16.483  1.00  0.00     0.001 A 
ATOM     78  C   UNL     1      -7.553  -6.437  16.602  1.00  0.00     0.001 A 
ATOM     79  C   UNL     1      -7.343  -5.208  17.224  1.00  0.00     0.000 A 
ENDBRANCH  61  74
ENDBRANCH  35  36
ENDBRANCH  27  30
ENDBRANCH  25  26
ENDBRANCH  24  25
ENDBRANCH  23  24
ENDBRANCH   3  23
TORSDOF 17
