REMARK SMILES COc1ccc([C@@H]2C(C#N)=C(N)N3C(=O)[C@H](CC(=O)NCCCNC(=O)c4ccc(-c5c6nc(c(-c7ccccc7)c7ccc([nH]7)c(-c7ccccc7)c7nc(c(-c8ccccc8)c8ccc5[nH]8)C=C7)C=C6)cc4)SC3=C2C#N)cc1
REMARK SMILES IDX 21 1 20 2 18 3 19 4 17 6 16 7 7 8 8 9 77 10 11 11 76 12
REMARK SMILES IDX 13 13 75 14 14 15 15 16 6 17 3 18 4 19 81 20 5 21 80 22 2 23
REMARK SMILES IDX 1 24 9 25 10 26 78 27 79 28 12 29 22 32 23 33 24 34 25 35
REMARK SMILES IDX 26 37 27 38 28 39 74 40 29 41 73 42 30 43 31 44 32 45 67 46
REMARK SMILES IDX 33 47 72 48 66 49 68 50 34 51 71 52 65 53 64 54 35 56 57 57
REMARK SMILES IDX 42 58 56 59 43 60 46 61 55 62 69 63 44 64 45 65 54 67 70 68
REMARK SMILES IDX 47 69 36 70 37 71 41 72 38 73 40 74 39 75 58 76 59 77 63 78
REMARK SMILES IDX 60 79 62 80 61 81 48 82 49 83 53 84 50 85 52 86 51 87
REMARK H PARENT 20 5 12 30 12 31 24 36 68 55 46 66
REMARK Flexibility Score: inf
ROOT
ATOM      1  C   UNL     1       7.678   0.583  10.398  1.00  0.00     0.117 C 
ENDROOT
BRANCH   1   2
ATOM      2  N   UNL     1       7.304  -0.460  11.340  1.00  0.00    -0.356 N 
ATOM      3  C   UNL     1       6.503  -1.548  11.194  1.00  0.00     0.221 C 
ATOM      4  O   UNL     1       6.298  -2.267  12.171  1.00  0.00    -0.275 OA
ATOM      5  H   UNL     1       7.699  -0.362  12.236  1.00  0.00     0.163 HD
BRANCH   3   6
ATOM      6  C   UNL     1       5.867  -1.858   9.865  1.00  0.00     0.125 C 
BRANCH   6   7
ATOM      7  C   UNL     1       4.412  -1.419   9.888  1.00  0.00     0.152 C 
ATOM      8  C   UNL     1       1.975   0.945   6.323  1.00  0.00     0.107 C 
ATOM      9  C   UNL     1       3.035   1.948   6.730  1.00  0.00     0.083 C 
ATOM     10  C   UNL     1       2.340  -0.442   6.791  1.00  0.00     0.073 C 
ATOM     11  C   UNL     1       3.890   1.667   7.754  1.00  0.00     0.126 C 
ATOM     12  C   UNL     1       3.224  -0.638   7.757  1.00  0.00     0.099 C 
ATOM     13  N   UNL     1       3.843   0.404   8.386  1.00  0.00    -0.258 N 
ATOM     14  S   UNL     1       3.563  -2.170   8.469  1.00  0.00    -0.093 SA
ATOM     15  C   UNL     1       4.250   0.085   9.678  1.00  0.00     0.247 C 
ATOM     16  O   UNL     1       4.376   0.890  10.595  1.00  0.00    -0.273 OA
BRANCH   8  17
ATOM     17  C   UNL     1       1.603   0.992   4.846  1.00  0.00    -0.034 A 
ATOM     18  C   UNL     1       0.818   0.983   2.145  1.00  0.00     0.118 A 
ATOM     19  C   UNL     1      -0.098   1.319   3.138  1.00  0.00     0.047 A 
ATOM     20  C   UNL     1       2.136   0.688   2.493  1.00  0.00     0.047 A 
ATOM     21  C   UNL     1       0.285   1.315   4.479  1.00  0.00     0.008 A 
ATOM     22  C   UNL     1       2.529   0.690   3.836  1.00  0.00     0.008 A 
BRANCH  18  23
ATOM     23  O   UNL     1       0.338   1.015   0.866  1.00  0.00    -0.497 OA
ATOM     24  C   UNL     1       0.891   0.030  -0.002  1.00  0.00     0.278 C 
ENDBRANCH  18  23
ENDBRANCH   8  17
BRANCH   9  25
ATOM     25  C   UNL     1       2.995   3.300   6.035  1.00  0.00     0.100 C 
ATOM     26  N   UNL     1       2.962   4.421   5.458  1.00  0.00    -0.193 NA
ENDBRANCH   9  25
BRANCH  10  27
ATOM     27  C   UNL     1       1.624  -1.629   6.167  1.00  0.00     0.098 C 
ATOM     28  N   UNL     1       1.030  -2.613   5.649  1.00  0.00    -0.193 NA
ENDBRANCH  10  27
BRANCH  11  29
ATOM     29  N   UNL     1       4.832   2.577   8.145  1.00  0.00    -0.384 N 
ATOM     30  H   UNL     1       4.873   3.459   7.712  1.00  0.00     0.158 HD
ATOM     31  H   UNL     1       5.468   2.349   8.861  1.00  0.00     0.158 HD
ENDBRANCH  11  29
ENDBRANCH   6   7
ENDBRANCH   3   6
ENDBRANCH   1   2
BRANCH   1  32
ATOM     32  C   UNL     1       7.157   1.956  10.805  1.00  0.00     0.042 C 
BRANCH  32  33
ATOM     33  C   UNL     1       7.718   2.490  12.107  1.00  0.00     0.118 C 
BRANCH  33  34
ATOM     34  N   UNL     1       8.846   3.355  11.845  1.00  0.00    -0.352 N 
ATOM     35  C   UNL     1       8.877   4.689  11.511  1.00  0.00     0.251 C 
ATOM     36  H   UNL     1       9.727   2.923  11.917  1.00  0.00     0.163 HD
ATOM     37  O   UNL     1       9.879   5.122  10.957  1.00  0.00    -0.269 OA
BRANCH  35  38
ATOM     38  C   UNL     1       7.736   5.607  11.786  1.00  0.00     0.039 A 
ATOM     39  C   UNL     1       7.580   6.726  10.959  1.00  0.00     0.014 A 
ATOM     40  C   UNL     1       6.891   5.464  12.888  1.00  0.00     0.014 A 
ATOM     41  C   UNL     1       6.589   7.678  11.231  1.00  0.00     0.010 A 
ATOM     42  C   UNL     1       5.833   6.352  13.095  1.00  0.00     0.010 A 
ATOM     43  C   UNL     1       5.693   7.493  12.294  1.00  0.00    -0.014 A 
BRANCH  43  44
ATOM     44  C   UNL     1       4.647   8.505  12.611  1.00  0.00     0.031 A 
ATOM     45  C   UNL     1       4.643   9.211  13.945  1.00  0.00     0.074 A 
ATOM     46  C   UNL     1       3.677   8.773  11.715  1.00  0.00     0.049 A 
ATOM     47  N   UNL     1       3.799  10.100  14.409  1.00  0.00    -0.248 NA
ATOM     48  C   UNL     1       5.710   8.854  14.895  1.00  0.00     0.031 C 
ATOM     49  C   UNL     1       3.535   8.139  10.403  1.00  0.00     0.029 A 
ATOM     50  N   UNL     1       2.626   9.655  11.773  1.00  0.00    -0.354 N 
ATOM     51  C   UNL     1       4.218  10.384  15.704  1.00  0.00     0.074 A 
ATOM     52  C   UNL     1       5.358   9.537  15.973  1.00  0.00     0.031 C 
ATOM     53  C   UNL     1       2.485   8.679   9.765  1.00  0.00     0.029 A 
ATOM     54  C   UNL     1       1.853   9.665  10.637  1.00  0.00     0.049 A 
ATOM     55  H   UNL     1       2.443  10.225  12.554  1.00  0.00     0.167 HD
ATOM     56  C   UNL     1       3.717  11.283  16.586  1.00  0.00     0.031 A 
ATOM     57  C   UNL     1       0.758  10.384  10.329  1.00  0.00     0.031 A 
ATOM     58  C   UNL     1       2.599  12.147  16.317  1.00  0.00     0.049 A 
ATOM     59  C   UNL     1       0.221  11.376  11.322  1.00  0.00     0.074 A 
ATOM     60  C   UNL     1       2.060  13.136  17.122  1.00  0.00     0.029 A 
ATOM     61  N   UNL     1       1.848  12.124  15.153  1.00  0.00    -0.354 N 
ATOM     62  N   UNL     1       0.672  11.677  12.515  1.00  0.00    -0.248 NA
ATOM     63  C   UNL     1      -0.972  12.134  10.918  1.00  0.00     0.031 C 
ATOM     64  C   UNL     1       0.951  13.679  16.464  1.00  0.00     0.029 A 
ATOM     65  C   UNL     1       0.834  13.065  15.227  1.00  0.00     0.049 A 
ATOM     66  H   UNL     1       2.011  11.528  14.386  1.00  0.00     0.167 HD
ATOM     67  C   UNL     1      -0.166  12.675  12.995  1.00  0.00     0.074 A 
ATOM     68  C   UNL     1      -1.141  12.941  11.957  1.00  0.00     0.031 C 
ATOM     69  C   UNL     1      -0.132  13.314  14.190  1.00  0.00     0.031 A 
BRANCH  56  70
ATOM     70  C   UNL     1       4.378  11.373  17.936  1.00  0.00    -0.014 A 
ATOM     71  C   UNL     1       5.670  11.905  18.082  1.00  0.00     0.009 A 
ATOM     72  C   UNL     1       3.688  10.948  19.082  1.00  0.00     0.009 A 
ATOM     73  C   UNL     1       6.271  11.971  19.341  1.00  0.00     0.001 A 
ATOM     74  C   UNL     1       4.279  11.043  20.343  1.00  0.00     0.001 A 
ATOM     75  C   UNL     1       5.574  11.544  20.471  1.00  0.00     0.000 A 
ENDBRANCH  56  70
BRANCH  57  76
ATOM     76  C   UNL     1       0.104  10.207   9.006  1.00  0.00    -0.014 A 
ATOM     77  C   UNL     1       0.187  11.213   8.031  1.00  0.00     0.009 A 
ATOM     78  C   UNL     1      -0.603   9.031   8.710  1.00  0.00     0.009 A 
ATOM     79  C   UNL     1      -0.443  11.054   6.794  1.00  0.00     0.001 A 
ATOM     80  C   UNL     1      -1.207   8.863   7.462  1.00  0.00     0.001 A 
ATOM     81  C   UNL     1      -1.134   9.877   6.509  1.00  0.00     0.000 A 
ENDBRANCH  57  76
BRANCH  69  82
ATOM     82  C   UNL     1      -1.164  14.380  14.428  1.00  0.00    -0.014 A 
ATOM     83  C   UNL     1      -2.510  14.054  14.655  1.00  0.00     0.009 A 
ATOM     84  C   UNL     1      -0.775  15.729  14.458  1.00  0.00     0.009 A 
ATOM     85  C   UNL     1      -3.453  15.060  14.873  1.00  0.00     0.001 A 
ATOM     86  C   UNL     1      -1.715  16.731  14.705  1.00  0.00     0.001 A 
ATOM     87  C   UNL     1      -3.054  16.396  14.902  1.00  0.00     0.000 A 
ENDBRANCH  69  82
ENDBRANCH  43  44
ENDBRANCH  35  38
ENDBRANCH  33  34
ENDBRANCH  32  33
ENDBRANCH   1  32
TORSDOF 16
