REMARK SMILES O=C(NCCCNC(=O)c1ccc(-c2c3nc(c(-c4ccccc4)c4ccc([nH]4)c(-c4ccccc4)c4nc(c(-c5ccccc5)c5ccc2[nH]5)C=C4)C=C3)cc1)C1=Cc2cc(Cl)c(Cl)c(Cl)c2O[C@@H]1C(F)(F)F
REMARK SMILES IDX 5 1 4 2 3 3 1 4 2 5 58 7 59 8 70 9 60 10 69 11 61 12 68 13
REMARK SMILES IDX 62 14 66 15 63 16 64 17 67 18 65 19 71 20 72 21 73 22 74 23
REMARK SMILES IDX 6 24 7 25 8 26 9 28 10 29 11 30 57 31 12 32 56 33 13 34
REMARK SMILES IDX 14 35 15 36 50 37 16 38 55 39 49 40 51 41 17 42 54 43 48 44
REMARK SMILES IDX 47 45 18 47 40 48 25 49 39 50 26 51 29 52 38 53 52 54 27 55
REMARK SMILES IDX 28 56 37 58 53 59 30 60 19 61 20 62 24 63 21 64 23 65 22 66
REMARK SMILES IDX 41 67 42 68 46 69 43 70 45 71 44 72 31 73 32 74 36 75 33 76
REMARK SMILES IDX 35 77 34 78
REMARK H PARENT 3 6 7 27 51 46 29 57
REMARK Flexibility Score: inf
ROOT
ATOM      1  C   UNL     1       4.149  -0.919  -2.927  1.00  0.00     0.042 C 
ENDROOT
BRANCH   1   2
ATOM      2  C   UNL     1       3.527  -0.097  -1.803  1.00  0.00     0.118 C 
BRANCH   2   3
ATOM      3  N   UNL     1       2.492  -0.813  -1.051  1.00  0.00    -0.352 N 
ATOM      4  O   UNL     1       1.260  -1.385   0.764  1.00  0.00    -0.270 OA
ATOM      5  C   UNL     1       2.297  -0.928   0.306  1.00  0.00     0.251 C 
ATOM      6  H   UNL     1       1.832  -1.288  -1.606  1.00  0.00     0.163 HD
BRANCH   5   7
ATOM      7  C   UNL     1       3.352  -0.401   1.193  1.00  0.00     0.067 C 
ATOM      8  C   UNL     1       4.533  -1.031   1.232  1.00  0.00     0.025 C 
ATOM      9  C   UNL     1       3.179   0.992   1.707  1.00  0.00     0.314 C 
ATOM     10  C   UNL     1       5.656  -0.111   0.982  1.00  0.00     0.020 A 
ATOM     11  O   UNL     1       4.245   1.865   1.268  1.00  0.00    -0.474 OA
ATOM     12  C   UNL     1       6.811  -0.664   0.421  1.00  0.00     0.034 A 
ATOM     13  C   UNL     1       5.428   1.278   0.870  1.00  0.00     0.148 A 
ATOM     14  C   UNL     1       7.682   0.134  -0.327  1.00  0.00     0.062 A 
ATOM     15  C   UNL     1       6.325   2.086   0.146  1.00  0.00     0.103 A 
ATOM     16  Cl  UNL     1       8.976  -0.682  -1.137  1.00  0.00    -0.083 Cl
ATOM     17  C   UNL     1       7.440   1.508  -0.483  1.00  0.00     0.082 A 
ATOM     18  Cl  UNL     1       5.931   3.764  -0.091  1.00  0.00    -0.079 Cl
ATOM     19  Cl  UNL     1       8.460   2.457  -1.521  1.00  0.00    -0.081 Cl
BRANCH   9  20
ATOM     20  C   UNL     1       3.063   1.003   3.241  1.00  0.00     0.429 C 
ATOM     21  F   UNL     1       2.768   2.242   3.701  1.00  0.00    -0.167 F 
ATOM     22  F   UNL     1       2.086   0.177   3.680  1.00  0.00    -0.167 F 
ATOM     23  F   UNL     1       4.216   0.618   3.841  1.00  0.00    -0.167 F 
ENDBRANCH   9  20
ENDBRANCH   5   7
ENDBRANCH   2   3
ENDBRANCH   1   2
BRANCH   1  24
ATOM     24  C   UNL     1       3.802  -0.379  -4.311  1.00  0.00     0.118 C 
BRANCH  24  25
ATOM     25  N   UNL     1       4.441   0.899  -4.616  1.00  0.00    -0.352 N 
ATOM     26  C   UNL     1       5.442   1.241  -5.504  1.00  0.00     0.251 C 
ATOM     27  H   UNL     1       4.094   1.657  -4.091  1.00  0.00     0.163 HD
ATOM     28  O   UNL     1       5.891   2.375  -5.497  1.00  0.00    -0.269 OA
BRANCH  26  29
ATOM     29  C   UNL     1       6.007   0.235  -6.434  1.00  0.00     0.039 A 
ATOM     30  C   UNL     1       7.389   0.207  -6.649  1.00  0.00     0.014 A 
ATOM     31  C   UNL     1       5.190  -0.684  -7.088  1.00  0.00     0.014 A 
ATOM     32  C   UNL     1       7.956  -0.823  -7.407  1.00  0.00     0.010 A 
ATOM     33  C   UNL     1       5.759  -1.769  -7.743  1.00  0.00     0.010 A 
ATOM     34  C   UNL     1       7.151  -1.863  -7.895  1.00  0.00    -0.014 A 
BRANCH  34  35
ATOM     35  C   UNL     1       7.721  -3.081  -8.531  1.00  0.00     0.031 A 
ATOM     36  C   UNL     1       7.285  -3.486  -9.914  1.00  0.00     0.074 A 
ATOM     37  C   UNL     1       8.525  -3.894  -7.816  1.00  0.00     0.049 A 
ATOM     38  N   UNL     1       7.504  -4.606 -10.556  1.00  0.00    -0.248 NA
ATOM     39  C   UNL     1       6.457  -2.521 -10.656  1.00  0.00     0.031 C 
ATOM     40  C   UNL     1       8.991  -3.648  -6.448  1.00  0.00     0.029 A 
ATOM     41  N   UNL     1       9.078  -5.111  -8.136  1.00  0.00    -0.354 N 
ATOM     42  C   UNL     1       6.810  -4.494 -11.755  1.00  0.00     0.074 A 
ATOM     43  C   UNL     1       6.127  -3.219 -11.732  1.00  0.00     0.031 C 
ATOM     44  C   UNL     1       9.777  -4.665  -6.059  1.00  0.00     0.029 A 
ATOM     45  C   UNL     1       9.825  -5.661  -7.122  1.00  0.00     0.049 A 
ATOM     46  H   UNL     1       8.951  -5.546  -9.010  1.00  0.00     0.167 HD
ATOM     47  C   UNL     1       6.758  -5.366 -12.790  1.00  0.00     0.031 A 
ATOM     48  C   UNL     1      10.460  -6.846  -7.044  1.00  0.00     0.031 A 
ATOM     49  C   UNL     1       7.468  -6.616 -12.830  1.00  0.00     0.049 A 
ATOM     50  C   UNL     1      10.385  -7.796  -8.205  1.00  0.00     0.074 A 
ATOM     51  C   UNL     1       7.545  -7.530 -13.866  1.00  0.00     0.029 A 
ATOM     52  N   UNL     1       8.229  -7.123 -11.789  1.00  0.00    -0.354 N 
ATOM     53  N   UNL     1       9.767  -7.652  -9.351  1.00  0.00    -0.248 NA
ATOM     54  C   UNL     1      11.093  -9.077  -8.057  1.00  0.00     0.031 C 
ATOM     55  C   UNL     1       8.317  -8.614 -13.434  1.00  0.00     0.029 A 
ATOM     56  C   UNL     1       8.758  -8.351 -12.147  1.00  0.00     0.049 A 
ATOM     57  H   UNL     1       8.372  -6.676 -10.923  1.00  0.00     0.167 HD
ATOM     58  C   UNL     1      10.023  -8.813 -10.067  1.00  0.00     0.074 A 
ATOM     59  C   UNL     1      10.870  -9.643  -9.235  1.00  0.00     0.031 C 
ATOM     60  C   UNL     1       9.592  -9.164 -11.303  1.00  0.00     0.031 A 
BRANCH  47  61
ATOM     61  C   UNL     1       5.903  -4.993 -13.968  1.00  0.00    -0.014 A 
ATOM     62  C   UNL     1       6.275  -3.955 -14.838  1.00  0.00     0.009 A 
ATOM     63  C   UNL     1       4.726  -5.711 -14.233  1.00  0.00     0.009 A 
ATOM     64  C   UNL     1       5.466  -3.619 -15.925  1.00  0.00     0.001 A 
ATOM     65  C   UNL     1       3.934  -5.391 -15.338  1.00  0.00     0.001 A 
ATOM     66  C   UNL     1       4.300  -4.340 -16.177  1.00  0.00     0.000 A 
ENDBRANCH  47  61
BRANCH  48  67
ATOM     67  C   UNL     1      11.220  -7.208  -5.819  1.00  0.00    -0.014 A 
ATOM     68  C   UNL     1      12.623  -7.248  -5.843  1.00  0.00     0.009 A 
ATOM     69  C   UNL     1      10.553  -7.523  -4.625  1.00  0.00     0.009 A 
ATOM     70  C   UNL     1      13.341  -7.621  -4.705  1.00  0.00     0.001 A 
ATOM     71  C   UNL     1      11.274  -7.869  -3.481  1.00  0.00     0.001 A 
ATOM     72  C   UNL     1      12.666  -7.927  -3.524  1.00  0.00     0.000 A 
ENDBRANCH  48  67
BRANCH  60  73
ATOM     73  C   UNL     1      10.041 -10.495 -11.831  1.00  0.00    -0.014 A 
ATOM     74  C   UNL     1       9.486 -11.689 -11.345  1.00  0.00     0.009 A 
ATOM     75  C   UNL     1      10.998 -10.553 -12.856  1.00  0.00     0.009 A 
ATOM     76  C   UNL     1       9.900 -12.918 -11.860  1.00  0.00     0.001 A 
ATOM     77  C   UNL     1      11.391 -11.782 -13.386  1.00  0.00     0.001 A 
ATOM     78  C   UNL     1      10.848 -12.964 -12.883  1.00  0.00     0.000 A 
ENDBRANCH  60  73
ENDBRANCH  34  35
ENDBRANCH  26  29
ENDBRANCH  24  25
ENDBRANCH   1  24
TORSDOF 11
