REMARK SMILES Cn1cc(-c2cc(C(F)(F)F)c3c(C4CC4)nn(CC(=O)NCCCNC(=O)c4ccc(-c5c6nc(c(-c7ccccc7)c7ccc([nH]7)c(-c7ccccc7)c7nc(c(-c8ccccc8)c8ccc5[nH]8)C=C7)C=C6)cc4)c3n2)cn1
REMARK SMILES IDX 24 1 23 2 22 3 20 4 21 5 19 7 18 8 5 9 6 10 78 11 7 12 77 13
REMARK SMILES IDX 12 14 13 15 17 16 4 17 1 18 2 19 3 20 80 21 79 22 8 23 9 24
REMARK SMILES IDX 10 25 11 26 14 27 15 28 16 29 25 30 26 31 27 32 28 34 29 35
REMARK SMILES IDX 30 36 76 37 31 38 75 39 32 40 33 41 34 42 69 43 35 44 74 45
REMARK SMILES IDX 68 46 70 47 36 48 73 49 67 50 66 51 37 53 59 54 44 55 58 56
REMARK SMILES IDX 45 57 48 58 57 59 71 60 46 61 47 62 56 64 72 65 49 66 38 67
REMARK SMILES IDX 39 68 43 69 40 70 42 71 41 72 60 73 61 74 65 75 62 76 64 77
REMARK SMILES IDX 63 78 50 79 51 80 55 81 52 82 54 83 53 84
REMARK H PARENT 22 6 26 33 70 52 48 63
REMARK Flexibility Score: inf
ROOT
ATOM      1  C   UNL     1      -2.148  -3.162  -3.600  1.00  0.00     0.042 C 
ENDROOT
BRANCH   1   2
ATOM      2  C   UNL     1      -2.324  -1.661  -3.835  1.00  0.00     0.117 C 
BRANCH   2   3
ATOM      3  N   UNL     1      -3.359  -1.070  -3.003  1.00  0.00    -0.354 N 
ATOM      4  C   UNL     1      -3.199  -0.488  -1.776  1.00  0.00     0.241 C 
ATOM      5  O   UNL     1      -4.169   0.025  -1.216  1.00  0.00    -0.273 OA
ATOM      6  H   UNL     1      -4.275  -1.091  -3.361  1.00  0.00     0.163 HD
BRANCH   4   7
ATOM      7  C   UNL     1      -1.822  -0.423  -1.194  1.00  0.00     0.246 C 
BRANCH   7   8
ATOM      8  N   UNL     1      -1.306  -1.720  -0.803  1.00  0.00    -0.237 N 
ATOM      9  C   UNL     1       1.994  -1.292  -0.300  1.00  0.00     0.077 A 
ATOM     10  C   UNL     1       2.420  -2.559   0.090  1.00  0.00     0.043 A 
ATOM     11  N   UNL     1       0.999  -1.194  -1.210  1.00  0.00    -0.228 NA
ATOM     12  C   UNL     1       1.534  -3.654  -0.081  1.00  0.00     0.071 A 
ATOM     13  C   UNL     1       0.015  -2.040  -0.858  1.00  0.00     0.159 A 
ATOM     14  C   UNL     1       0.193  -3.240  -0.188  1.00  0.00     0.055 A 
ATOM     15  C   UNL     1      -1.087  -3.468   0.388  1.00  0.00     0.076 A 
ATOM     16  N   UNL     1      -2.016  -2.603  -0.063  1.00  0.00    -0.175 NA
BRANCH   9  17
ATOM     17  C   UNL     1       1.754  -0.225   0.706  1.00  0.00     0.038 A 
ATOM     18  C   UNL     1      -1.289   0.876   2.212  1.00  0.00     0.173 C 
ATOM     19  N   UNL     1       0.097   0.762   1.797  1.00  0.00    -0.275 N 
ATOM     20  C   UNL     1       0.804  -0.411   1.710  1.00  0.00     0.118 A 
ATOM     21  N   UNL     1       0.687   1.773   1.135  1.00  0.00    -0.181 NA
ATOM     22  C   UNL     1       1.646   1.165   0.426  1.00  0.00     0.145 A 
ENDBRANCH   9  17
BRANCH  12  23
ATOM     23  C   UNL     1       2.030  -5.035  -0.410  1.00  0.00     0.417 C 
ATOM     24  F   UNL     1       1.623  -6.020   0.425  1.00  0.00    -0.166 F 
ATOM     25  F   UNL     1       1.620  -5.423  -1.653  1.00  0.00    -0.166 F 
ATOM     26  F   UNL     1       3.390  -5.117  -0.437  1.00  0.00    -0.166 F 
ENDBRANCH  12  23
BRANCH  15  27
ATOM     27  C   UNL     1      -1.458  -4.308   1.612  1.00  0.00     0.041 C 
ATOM     28  C   UNL     1      -0.571  -5.316   2.287  1.00  0.00     0.011 C 
ATOM     29  C   UNL     1      -0.756  -3.986   2.926  1.00  0.00     0.011 C 
ENDBRANCH  15  27
ENDBRANCH   7   8
ENDBRANCH   4   7
ENDBRANCH   2   3
ENDBRANCH   1   2
BRANCH   1  30
ATOM     30  C   UNL     1      -3.275  -3.949  -4.220  1.00  0.00     0.118 C 
BRANCH  30  31
ATOM     31  N   UNL     1      -3.282  -3.808  -5.672  1.00  0.00    -0.352 N 
ATOM     32  C   UNL     1      -4.114  -4.410  -6.589  1.00  0.00     0.251 C 
ATOM     33  H   UNL     1      -2.601  -3.202  -6.046  1.00  0.00     0.163 HD
ATOM     34  O   UNL     1      -3.845  -4.423  -7.773  1.00  0.00    -0.269 OA
BRANCH  32  35
ATOM     35  C   UNL     1      -5.342  -5.038  -6.085  1.00  0.00     0.039 A 
ATOM     36  C   UNL     1      -5.760  -6.273  -6.579  1.00  0.00     0.014 A 
ATOM     37  C   UNL     1      -6.056  -4.375  -5.086  1.00  0.00     0.014 A 
ATOM     38  C   UNL     1      -6.892  -6.853  -6.026  1.00  0.00     0.010 A 
ATOM     39  C   UNL     1      -7.053  -5.026  -4.419  1.00  0.00     0.010 A 
ATOM     40  C   UNL     1      -7.524  -6.217  -4.946  1.00  0.00    -0.014 A 
BRANCH  40  41
ATOM     41  C   UNL     1      -8.677  -6.811  -4.306  1.00  0.00     0.031 A 
ATOM     42  C   UNL     1      -8.419  -8.135  -3.708  1.00  0.00     0.074 A 
ATOM     43  C   UNL     1      -9.831  -6.140  -4.121  1.00  0.00     0.049 A 
ATOM     44  N   UNL     1      -8.768  -9.277  -4.191  1.00  0.00    -0.248 NA
ATOM     45  C   UNL     1      -7.550  -8.216  -2.523  1.00  0.00     0.031 C 
ATOM     46  C   UNL     1     -10.104  -4.715  -4.358  1.00  0.00     0.029 A 
ATOM     47  N   UNL     1     -10.996  -6.586  -3.586  1.00  0.00    -0.354 N 
ATOM     48  C   UNL     1      -8.359 -10.213  -3.253  1.00  0.00     0.074 A 
ATOM     49  C   UNL     1      -7.451  -9.537  -2.361  1.00  0.00     0.031 C 
ATOM     50  C   UNL     1     -11.270  -4.371  -3.764  1.00  0.00     0.029 A 
ATOM     51  C   UNL     1     -11.910  -5.583  -3.293  1.00  0.00     0.049 A 
ATOM     52  H   UNL     1     -11.178  -7.539  -3.421  1.00  0.00     0.167 HD
ATOM     53  C   UNL     1      -9.037 -11.382  -3.098  1.00  0.00     0.031 A 
ATOM     54  C   UNL     1     -13.120  -5.759  -2.715  1.00  0.00     0.031 A 
ATOM     55  C   UNL     1     -10.015 -11.574  -4.135  1.00  0.00     0.049 A 
ATOM     56  C   UNL     1     -13.527  -7.153  -2.993  1.00  0.00     0.074 A 
ATOM     57  C   UNL     1     -10.013 -11.990  -5.448  1.00  0.00     0.029 A 
ATOM     58  N   UNL     1     -11.178 -10.873  -3.930  1.00  0.00    -0.354 N 
ATOM     59  N   UNL     1     -13.753  -7.604  -4.194  1.00  0.00    -0.248 NA
ATOM     60  C   UNL     1     -13.366  -8.169  -1.959  1.00  0.00     0.031 C 
ATOM     61  C   UNL     1     -11.133 -11.358  -6.070  1.00  0.00     0.029 A 
ATOM     62  C   UNL     1     -11.814 -10.607  -5.116  1.00  0.00     0.049 A 
ATOM     63  H   UNL     1     -11.513 -10.598  -3.046  1.00  0.00     0.167 HD
ATOM     64  C   UNL     1     -13.346  -8.922  -4.142  1.00  0.00     0.074 A 
ATOM     65  C   UNL     1     -13.296  -9.260  -2.726  1.00  0.00     0.031 C 
ATOM     66  C   UNL     1     -12.774  -9.529  -5.219  1.00  0.00     0.031 A 
BRANCH  53  67
ATOM     67  C   UNL     1      -9.150 -12.086  -1.777  1.00  0.00    -0.014 A 
ATOM     68  C   UNL     1      -9.563 -13.426  -1.736  1.00  0.00     0.009 A 
ATOM     69  C   UNL     1      -9.098 -11.392  -0.550  1.00  0.00     0.009 A 
ATOM     70  C   UNL     1      -9.891 -14.043  -0.521  1.00  0.00     0.001 A 
ATOM     71  C   UNL     1      -9.389 -12.013   0.665  1.00  0.00     0.001 A 
ATOM     72  C   UNL     1      -9.796 -13.339   0.678  1.00  0.00     0.000 A 
ENDBRANCH  53  67
BRANCH  54  73
ATOM     73  C   UNL     1     -13.788  -4.943  -1.680  1.00  0.00    -0.014 A 
ATOM     74  C   UNL     1     -15.123  -5.222  -1.342  1.00  0.00     0.009 A 
ATOM     75  C   UNL     1     -13.035  -4.150  -0.797  1.00  0.00     0.009 A 
ATOM     76  C   UNL     1     -15.653  -4.815  -0.114  1.00  0.00     0.001 A 
ATOM     77  C   UNL     1     -13.571  -3.734   0.427  1.00  0.00     0.001 A 
ATOM     78  C   UNL     1     -14.869  -4.093   0.781  1.00  0.00     0.000 A 
ENDBRANCH  54  73
BRANCH  66  79
ATOM     79  C   UNL     1     -13.022  -8.931  -6.573  1.00  0.00    -0.014 A 
ATOM     80  C   UNL     1     -12.443  -7.730  -7.014  1.00  0.00     0.009 A 
ATOM     81  C   UNL     1     -13.799  -9.673  -7.474  1.00  0.00     0.009 A 
ATOM     82  C   UNL     1     -12.636  -7.291  -8.330  1.00  0.00     0.001 A 
ATOM     83  C   UNL     1     -13.980  -9.242  -8.788  1.00  0.00     0.001 A 
ATOM     84  C   UNL     1     -13.397  -8.053  -9.218  1.00  0.00     0.000 A 
ENDBRANCH  66  79
ENDBRANCH  40  41
ENDBRANCH  32  35
ENDBRANCH  30  31
ENDBRANCH   1  30
TORSDOF 14
