REMARK SMILES CCC1(CC)C[NH+](C2(C(=O)NCCCNC(=O)c3ccc(-c4c5nc(c(-c6ccccc6)c6ccc([nH]6)c(-c6ccccc6)c6nc(c(-c7ccccc7)c7ccc4[nH]7)C=C6)C=C5)cc3)CC2)C1
REMARK SMILES IDX 13 1 12 2 11 3 9 4 10 5 8 7 66 8 67 9 7 10 3 11 6 12 68 13
REMARK SMILES IDX 2 15 1 16 4 17 5 18 14 19 15 20 16 21 17 23 18 24 19 25
REMARK SMILES IDX 65 26 20 27 64 28 21 29 22 30 23 31 58 32 24 33 63 34 57 35
REMARK SMILES IDX 59 36 25 37 62 38 56 39 55 40 26 42 48 43 33 44 47 45 34 46
REMARK SMILES IDX 37 47 46 48 60 49 35 50 36 51 45 53 61 54 38 55 27 56 28 57
REMARK SMILES IDX 32 58 29 59 31 60 30 61 49 62 50 63 54 64 51 65 53 66 52 67
REMARK SMILES IDX 39 68 40 69 44 70 41 71 43 72 42 73
REMARK H PARENT 11 6 7 14 15 22 59 41 37 52
REMARK Flexibility Score: inf
ROOT
ATOM      1  C   UNL     1       5.257  -6.991   1.580  1.00  0.00     0.042 C 
ENDROOT
BRANCH   1   2
ATOM      2  C   UNL     1       4.507  -7.205   0.269  1.00  0.00     0.118 C 
BRANCH   2   3
ATOM      3  N   UNL     1       3.067  -7.101   0.427  1.00  0.00    -0.351 N 
ATOM      4  C   UNL     1       2.132  -6.123   0.166  1.00  0.00     0.281 C 
ATOM      5  O   UNL     1       0.969  -6.422   0.451  1.00  0.00    -0.268 OA
ATOM      6  H   UNL     1       2.667  -7.915   0.808  1.00  0.00     0.163 HD
BRANCH   4   7
ATOM      7  C   UNL     1       2.462  -4.740  -0.427  1.00  0.00     0.177 C 
ATOM      8  C   UNL     1       3.530  -4.612  -1.502  1.00  0.00     0.086 C 
ATOM      9  C   UNL     1       3.813  -4.122  -0.112  1.00  0.00     0.086 C 
BRANCH   7  10
ATOM     10  N   UNL     1       1.226  -3.891  -0.503  1.00  0.00    -0.321 N 
ATOM     11  C   UNL     1       1.191  -1.792  -0.957  1.00  0.00     0.068 C 
ATOM     12  C   UNL     1       1.172  -2.690   0.328  1.00  0.00     0.275 C 
ATOM     13  C   UNL     1       0.897  -3.130  -1.712  1.00  0.00     0.275 C 
ATOM     14  H   UNL     1       0.642  -4.699  -0.290  1.00  0.00     0.349 HD
BRANCH  11  15
ATOM     15  C   UNL     1       0.027  -0.783  -0.959  1.00  0.00     0.015 C 
ATOM     16  C   UNL     1       0.234   0.323   0.070  1.00  0.00     0.005 C 
ENDBRANCH  11  15
BRANCH  11  17
ATOM     17  C   UNL     1       2.547  -1.150  -1.316  1.00  0.00     0.015 C 
ATOM     18  C   UNL     1       2.544  -0.416  -2.647  1.00  0.00     0.005 C 
ENDBRANCH  11  17
ENDBRANCH   7  10
ENDBRANCH   4   7
ENDBRANCH   2   3
ENDBRANCH   1   2
BRANCH   1  19
ATOM     19  C   UNL     1       5.096  -8.137   2.567  1.00  0.00     0.118 C 
BRANCH  19  20
ATOM     20  N   UNL     1       5.642  -9.384   2.052  1.00  0.00    -0.352 N 
ATOM     21  C   UNL     1       6.711 -10.133   2.473  1.00  0.00     0.251 C 
ATOM     22  H   UNL     1       5.165  -9.751   1.273  1.00  0.00     0.163 HD
ATOM     23  O   UNL     1       7.151 -11.017   1.746  1.00  0.00    -0.269 OA
BRANCH  21  24
ATOM     24  C   UNL     1       7.337  -9.884   3.789  1.00  0.00     0.039 A 
ATOM     25  C   UNL     1       8.721 -10.033   3.914  1.00  0.00     0.014 A 
ATOM     26  C   UNL     1       6.566  -9.564   4.909  1.00  0.00     0.014 A 
ATOM     27  C   UNL     1       9.334  -9.818   5.150  1.00  0.00     0.010 A 
ATOM     28  C   UNL     1       7.186  -9.259   6.116  1.00  0.00     0.010 A 
ATOM     29  C   UNL     1       8.573  -9.403   6.254  1.00  0.00    -0.014 A 
BRANCH  29  30
ATOM     30  C   UNL     1       9.207  -9.136   7.568  1.00  0.00     0.031 A 
ATOM     31  C   UNL     1       8.842  -9.968   8.767  1.00  0.00     0.074 A 
ATOM     32  C   UNL     1      10.059  -8.101   7.697  1.00  0.00     0.049 A 
ATOM     33  N   UNL     1       9.249  -9.855  10.005  1.00  0.00    -0.248 NA
ATOM     34  C   UNL     1       7.866 -11.050   8.553  1.00  0.00     0.031 C 
ATOM     35  C   UNL     1      10.449  -7.186   6.623  1.00  0.00     0.029 A 
ATOM     36  N   UNL     1      10.742  -7.640   8.793  1.00  0.00    -0.354 N 
ATOM     37  C   UNL     1       8.560 -10.827  10.719  1.00  0.00     0.074 A 
ATOM     38  C   UNL     1       7.674 -11.489   9.788  1.00  0.00     0.031 C 
ATOM     39  C   UNL     1      11.320  -6.287   7.108  1.00  0.00     0.029 A 
ATOM     40  C   UNL     1      11.521  -6.540   8.531  1.00  0.00     0.049 A 
ATOM     41  H   UNL     1      10.680  -8.058   9.682  1.00  0.00     0.167 HD
ATOM     42  C   UNL     1       8.668 -11.153  12.029  1.00  0.00     0.031 A 
ATOM     43  C   UNL     1      12.306  -5.813   9.346  1.00  0.00     0.031 A 
ATOM     44  C   UNL     1       9.565 -10.508  12.949  1.00  0.00     0.049 A 
ATOM     45  C   UNL     1      12.429  -6.207  10.790  1.00  0.00     0.074 A 
ATOM     46  C   UNL     1       9.809 -10.816  14.276  1.00  0.00     0.029 A 
ATOM     47  N   UNL     1      10.362  -9.417  12.637  1.00  0.00    -0.354 N 
ATOM     48  N   UNL     1      11.838  -7.187  11.431  1.00  0.00    -0.248 NA
ATOM     49  C   UNL     1      13.340  -5.407  11.619  1.00  0.00     0.031 C 
ATOM     50  C   UNL     1      10.716  -9.878  14.781  1.00  0.00     0.029 A 
ATOM     51  C   UNL     1      11.079  -9.022  13.754  1.00  0.00     0.049 A 
ATOM     52  H   UNL     1      10.411  -8.987  11.753  1.00  0.00     0.167 HD
ATOM     53  C   UNL     1      12.321  -7.134  12.732  1.00  0.00     0.074 A 
ATOM     54  C   UNL     1      13.268  -6.038  12.782  1.00  0.00     0.031 C 
ATOM     55  C   UNL     1      12.010  -7.923  13.789  1.00  0.00     0.031 A 
BRANCH  42  56
ATOM     56  C   UNL     1       7.778 -12.252  12.544  1.00  0.00    -0.014 A 
ATOM     57  C   UNL     1       7.962 -13.588  12.153  1.00  0.00     0.009 A 
ATOM     58  C   UNL     1       6.750 -11.947  13.450  1.00  0.00     0.009 A 
ATOM     59  C   UNL     1       7.107 -14.588  12.622  1.00  0.00     0.001 A 
ATOM     60  C   UNL     1       5.916 -12.953  13.942  1.00  0.00     0.001 A 
ATOM     61  C   UNL     1       6.088 -14.270  13.519  1.00  0.00     0.000 A 
ENDBRANCH  42  56
BRANCH  43  62
ATOM     62  C   UNL     1      13.052  -4.648   8.804  1.00  0.00    -0.014 A 
ATOM     63  C   UNL     1      14.442  -4.710   8.629  1.00  0.00     0.009 A 
ATOM     64  C   UNL     1      12.372  -3.474   8.441  1.00  0.00     0.009 A 
ATOM     65  C   UNL     1      15.140  -3.612   8.120  1.00  0.00     0.001 A 
ATOM     66  C   UNL     1      13.069  -2.389   7.906  1.00  0.00     0.001 A 
ATOM     67  C   UNL     1      14.453  -2.455   7.754  1.00  0.00     0.000 A 
ENDBRANCH  43  62
BRANCH  55  68
ATOM     68  C   UNL     1      12.719  -7.644  15.084  1.00  0.00    -0.014 A 
ATOM     69  C   UNL     1      12.414  -6.511  15.853  1.00  0.00     0.009 A 
ATOM     70  C   UNL     1      13.679  -8.552  15.559  1.00  0.00     0.009 A 
ATOM     71  C   UNL     1      13.083  -6.274  17.055  1.00  0.00     0.001 A 
ATOM     72  C   UNL     1      14.324  -8.327  16.775  1.00  0.00     0.001 A 
ATOM     73  C   UNL     1      14.033  -7.184  17.517  1.00  0.00     0.000 A 
ENDBRANCH  55  68
ENDBRANCH  29  30
ENDBRANCH  21  24
ENDBRANCH  19  20
ENDBRANCH   1  19
TORSDOF 13
