REMARK SMILES C[C@@H](Oc1cncc(C(=O)NCCCNC(=O)c2ccc(-c3c4nc(c(-c5ccccc5)c5ccc([nH]5)c(-c5ccccc5)c5nc(c(-c6ccccc6)c6ccc3[nH]6)C=C5)C=C4)cc2)n1)C(F)(F)F
REMARK SMILES IDX 12 1 11 2 9 3 10 4 8 6 4 7 5 8 66 9 6 10 7 11 3 12 2 13 1 14
REMARK SMILES IDX 67 15 68 16 69 17 70 18 13 19 14 20 15 21 16 22 17 24 18 25
REMARK SMILES IDX 19 26 65 27 20 28 64 29 21 30 22 31 23 32 58 33 24 34 63 35
REMARK SMILES IDX 57 36 59 37 25 38 62 39 56 40 55 41 26 43 48 44 33 45 47 46
REMARK SMILES IDX 34 47 37 48 46 49 60 50 35 51 36 52 45 54 61 55 38 56 27 57
REMARK SMILES IDX 28 58 32 59 29 60 31 61 30 62 49 63 50 64 54 65 51 66 53 67
REMARK SMILES IDX 52 68 39 69 40 70 44 71 41 72 43 73 42 74
REMARK H PARENT 11 5 15 23 59 42 37 53
REMARK Flexibility Score: inf
ROOT
ATOM      1  C   UNL     1       2.432   3.495   5.178  1.00  0.00     0.118 C 
ENDROOT
BRANCH   1   2
ATOM      2  N   UNL     1       3.879   3.410   5.089  1.00  0.00    -0.351 N 
ATOM      3  C   UNL     1       4.708   2.861   4.142  1.00  0.00     0.271 C 
ATOM      4  O   UNL     1       5.920   2.908   4.364  1.00  0.00    -0.267 OA
ATOM      5  H   UNL     1       4.353   3.821   5.848  1.00  0.00     0.163 HD
BRANCH   3   6
ATOM      6  C   UNL     1       4.230   2.267   2.860  1.00  0.00     0.150 A 
ATOM      7  C   UNL     1       2.591   1.616   1.403  1.00  0.00     0.233 A 
ATOM      8  C   UNL     1       3.540   1.454   0.401  1.00  0.00     0.179 A 
ATOM      9  N   UNL     1       2.908   2.019   2.652  1.00  0.00    -0.205 NA
ATOM     10  N   UNL     1       4.862   1.628   0.616  1.00  0.00    -0.257 NA
ATOM     11  C   UNL     1       5.183   2.049   1.866  1.00  0.00     0.145 A 
BRANCH   7  12
ATOM     12  O   UNL     1       1.256   1.559   1.100  1.00  0.00    -0.464 OA
BRANCH  12  13
ATOM     13  C   UNL     1       0.728   0.219   1.179  1.00  0.00     0.277 C 
ATOM     14  C   UNL     1       0.838  -0.445  -0.196  1.00  0.00     0.063 C 
BRANCH  13  15
ATOM     15  C   UNL     1      -0.745   0.288   1.594  1.00  0.00     0.425 C 
ATOM     16  F   UNL     1      -1.293  -0.951   1.628  1.00  0.00    -0.167 F 
ATOM     17  F   UNL     1      -0.891   0.820   2.828  1.00  0.00    -0.167 F 
ATOM     18  F   UNL     1      -1.478   1.027   0.732  1.00  0.00    -0.167 F 
ENDBRANCH  13  15
ENDBRANCH  12  13
ENDBRANCH   7  12
ENDBRANCH   3   6
ENDBRANCH   1   2
BRANCH   1  19
ATOM     19  C   UNL     1       1.881   2.499   6.196  1.00  0.00     0.042 C 
BRANCH  19  20
ATOM     20  C   UNL     1       2.295   2.796   7.639  1.00  0.00     0.118 C 
BRANCH  20  21
ATOM     21  N   UNL     1       1.782   4.072   8.117  1.00  0.00    -0.352 N 
ATOM     22  C   UNL     1       1.007   4.375   9.204  1.00  0.00     0.251 C 
ATOM     23  H   UNL     1       2.035   4.848   7.565  1.00  0.00     0.163 HD
ATOM     24  O   UNL     1       0.531   5.507   9.303  1.00  0.00    -0.269 OA
BRANCH  22  25
ATOM     25  C   UNL     1       0.727   3.377  10.259  1.00  0.00     0.039 A 
ATOM     26  C   UNL     1      -0.540   3.376  10.852  1.00  0.00     0.014 A 
ATOM     27  C   UNL     1       1.714   2.505  10.728  1.00  0.00     0.014 A 
ATOM     28  C   UNL     1      -0.827   2.485  11.888  1.00  0.00     0.010 A 
ATOM     29  C   UNL     1       1.407   1.570  11.717  1.00  0.00     0.010 A 
ATOM     30  C   UNL     1       0.140   1.563  12.320  1.00  0.00    -0.014 A 
BRANCH  30  31
ATOM     31  C   UNL     1      -0.163   0.608  13.415  1.00  0.00     0.031 A 
ATOM     32  C   UNL     1       0.550   0.707  14.735  1.00  0.00     0.074 A 
ATOM     33  C   UNL     1      -1.061  -0.375  13.210  1.00  0.00     0.049 A 
ATOM     34  N   UNL     1       0.408  -0.032  15.808  1.00  0.00    -0.248 NA
ATOM     35  C   UNL     1       1.574   1.756  14.860  1.00  0.00     0.031 C 
ATOM     36  C   UNL     1      -1.784  -0.615  11.960  1.00  0.00     0.029 A 
ATOM     37  N   UNL     1      -1.516  -1.357  14.054  1.00  0.00    -0.354 N 
ATOM     38  C   UNL     1       1.337   0.449  16.723  1.00  0.00     0.074 A 
ATOM     39  C   UNL     1       2.065   1.512  16.066  1.00  0.00     0.031 C 
ATOM     40  C   UNL     1      -2.615  -1.657  12.128  1.00  0.00     0.029 A 
ATOM     41  C   UNL     1      -2.464  -2.171  13.486  1.00  0.00     0.049 A 
ATOM     42  H   UNL     1      -1.194  -1.466  14.978  1.00  0.00     0.167 HD
ATOM     43  C   UNL     1       1.554   0.054  18.001  1.00  0.00     0.031 A 
ATOM     44  C   UNL     1      -3.145  -3.211  14.003  1.00  0.00     0.031 A 
ATOM     45  C   UNL     1       0.820  -0.991  18.664  1.00  0.00     0.049 A 
ATOM     46  C   UNL     1      -2.917  -3.604  15.434  1.00  0.00     0.074 A 
ATOM     47  C   UNL     1       0.922  -1.419  19.977  1.00  0.00     0.029 A 
ATOM     48  N   UNL     1      -0.154  -1.771  18.064  1.00  0.00    -0.354 N 
ATOM     49  N   UNL     1      -2.089  -3.090  16.310  1.00  0.00    -0.248 NA
ATOM     50  C   UNL     1      -3.735  -4.710  15.952  1.00  0.00     0.031 C 
ATOM     51  C   UNL     1       0.035  -2.486  20.159  1.00  0.00     0.029 A 
ATOM     52  C   UNL     1      -0.651  -2.690  18.973  1.00  0.00     0.049 A 
ATOM     53  H   UNL     1      -0.450  -1.686  17.128  1.00  0.00     0.167 HD
ATOM     54  C   UNL     1      -2.303  -3.791  17.489  1.00  0.00     0.074 A 
ATOM     55  C   UNL     1      -3.350  -4.755  17.220  1.00  0.00     0.031 C 
ATOM     56  C   UNL     1      -1.687  -3.648  18.688  1.00  0.00     0.031 A 
BRANCH  43  57
ATOM     57  C   UNL     1       2.645   0.757  18.761  1.00  0.00    -0.014 A 
ATOM     58  C   UNL     1       2.499   2.089  19.180  1.00  0.00     0.009 A 
ATOM     59  C   UNL     1       3.830   0.073  19.075  1.00  0.00     0.009 A 
ATOM     60  C   UNL     1       3.534   2.735  19.859  1.00  0.00     0.001 A 
ATOM     61  C   UNL     1       4.851   0.713  19.779  1.00  0.00     0.001 A 
ATOM     62  C   UNL     1       4.707   2.046  20.161  1.00  0.00     0.000 A 
ENDBRANCH  43  57
BRANCH  44  63
ATOM     63  C   UNL     1      -4.141  -3.928  13.167  1.00  0.00    -0.014 A 
ATOM     64  C   UNL     1      -5.514  -3.746  13.386  1.00  0.00     0.009 A 
ATOM     65  C   UNL     1      -3.722  -4.788  12.140  1.00  0.00     0.009 A 
ATOM     66  C   UNL     1      -6.451  -4.428  12.607  1.00  0.00     0.001 A 
ATOM     67  C   UNL     1      -4.661  -5.449  11.346  1.00  0.00     0.001 A 
ATOM     68  C   UNL     1      -6.024  -5.275  11.585  1.00  0.00     0.000 A 
ENDBRANCH  44  63
BRANCH  56  69
ATOM     69  C   UNL     1      -2.154  -4.541  19.803  1.00  0.00    -0.014 A 
ATOM     70  C   UNL     1      -1.840  -5.908  19.821  1.00  0.00     0.009 A 
ATOM     71  C   UNL     1      -2.906  -4.000  20.857  1.00  0.00     0.009 A 
ATOM     72  C   UNL     1      -2.304  -6.725  20.855  1.00  0.00     0.001 A 
ATOM     73  C   UNL     1      -3.347  -4.814  21.902  1.00  0.00     0.001 A 
ATOM     74  C   UNL     1      -3.055  -6.177  21.894  1.00  0.00     0.000 A 
ENDBRANCH  56  69
ENDBRANCH  30  31
ENDBRANCH  22  25
ENDBRANCH  20  21
ENDBRANCH  19  20
ENDBRANCH   1  19
TORSDOF 13
