REMARK SMILES CC(C)CCOc1ccc(/C=C2\SC(=S)N(CC(=O)NCCCNC(=O)c3ccc(-c4c5nc(c(-c6ccccc6)c6ccc([nH]6)c(-c6ccccc6)c6nc(c(-c7ccccc7)c7ccc4[nH]7)C=C6)C=C5)cc3)C2=O)cc1
REMARK SMILES IDX 18 1 19 2 20 3 17 5 16 6 11 7 12 8 13 9 75 10 14 11 76 12
REMARK SMILES IDX 15 13 10 14 7 15 8 16 78 17 9 18 77 19 6 20 5 21 4 22 2 23
REMARK SMILES IDX 1 24 3 25 21 26 22 27 23 28 24 29 25 30 26 32 27 33 28 34
REMARK SMILES IDX 74 35 29 36 73 37 30 38 31 39 32 40 67 41 33 42 72 43 66 44
REMARK SMILES IDX 68 45 34 46 71 47 65 48 64 49 35 51 57 52 42 53 56 54 43 55
REMARK SMILES IDX 46 56 55 57 69 58 44 59 45 60 54 62 70 63 47 64 36 65 37 66
REMARK SMILES IDX 41 67 38 68 40 69 39 70 58 71 59 72 63 73 60 74 62 75 61 76
REMARK SMILES IDX 48 77 49 78 53 79 50 80 52 81 51 82
REMARK H PARENT 20 4 24 31 68 50 46 61
REMARK Flexibility Score: inf
ROOT
ATOM      1  C   UNL     1       9.105   4.736  -4.695  1.00  0.00     0.240 C 
ATOM      2  O   UNL     1      10.150   5.027  -4.106  1.00  0.00    -0.273 OA
ATOM      3  N   UNL     1       8.514   5.729  -5.419  1.00  0.00    -0.354 N 
ATOM      4  H   UNL     1       8.834   6.636  -5.208  1.00  0.00     0.163 HD
ENDROOT
BRANCH   1   5
ATOM      5  C   UNL     1       8.618   3.284  -4.741  1.00  0.00     0.227 C 
BRANCH   5   6
ATOM      6  N   UNL     1       7.177   3.151  -4.563  1.00  0.00    -0.283 N 
ATOM      7  C   UNL     1       4.393   3.549  -2.272  1.00  0.00     0.029 C 
ATOM      8  C   UNL     1       5.158   3.341  -3.358  1.00  0.00     0.081 C 
ATOM      9  S   UNL     1       4.671   2.873  -4.942  1.00  0.00    -0.054 SA
ATOM     10  C   UNL     1       6.638   3.497  -3.333  1.00  0.00     0.266 C 
ATOM     11  C   UNL     1       6.311   2.604  -5.479  1.00  0.00     0.148 C 
ATOM     12  O   UNL     1       7.266   3.868  -2.350  1.00  0.00    -0.268 OA
ATOM     13  S   UNL     1       6.648   1.798  -6.899  1.00  0.00    -0.052 S 
BRANCH   7  14
ATOM     14  C   UNL     1       2.931   3.383  -2.154  1.00  0.00    -0.024 A 
ATOM     15  C   UNL     1       0.189   2.925  -1.788  1.00  0.00     0.119 A 
ATOM     16  C   UNL     1       0.830   3.897  -1.026  1.00  0.00     0.047 A 
ATOM     17  C   UNL     1       0.868   2.265  -2.796  1.00  0.00     0.047 A 
ATOM     18  C   UNL     1       2.201   4.133  -1.218  1.00  0.00     0.012 A 
ATOM     19  C   UNL     1       2.242   2.425  -2.907  1.00  0.00     0.012 A 
BRANCH  15  20
ATOM     20  O   UNL     1      -1.110   2.576  -1.559  1.00  0.00    -0.494 OA
BRANCH  20  21
ATOM     21  C   UNL     1      -1.210   1.482  -0.621  1.00  0.00     0.230 C 
BRANCH  21  22
ATOM     22  C   UNL     1      -0.880   0.094  -1.211  1.00  0.00     0.044 C 
BRANCH  22  23
ATOM     23  C   UNL     1       0.575  -0.393  -1.002  1.00  0.00    -0.014 C 
ATOM     24  C   UNL     1       0.888  -0.725   0.455  1.00  0.00     0.007 C 
ATOM     25  C   UNL     1       0.874  -1.599  -1.897  1.00  0.00     0.007 C 
ENDBRANCH  22  23
ENDBRANCH  21  22
ENDBRANCH  20  21
ENDBRANCH  15  20
ENDBRANCH   7  14
ENDBRANCH   5   6
ENDBRANCH   1   5
BRANCH   3  26
ATOM     26  C   UNL     1       7.493   5.675  -6.447  1.00  0.00     0.117 C 
BRANCH  26  27
ATOM     27  C   UNL     1       6.163   6.259  -5.987  1.00  0.00     0.042 C 
BRANCH  27  28
ATOM     28  C   UNL     1       6.188   7.769  -5.782  1.00  0.00     0.118 C 
BRANCH  28  29
ATOM     29  N   UNL     1       6.441   8.498  -7.016  1.00  0.00    -0.352 N 
ATOM     30  C   UNL     1       5.712   9.483  -7.634  1.00  0.00     0.251 C 
ATOM     31  H   UNL     1       7.269   8.243  -7.484  1.00  0.00     0.163 HD
ATOM     32  O   UNL     1       6.017   9.836  -8.769  1.00  0.00    -0.269 OA
BRANCH  30  33
ATOM     33  C   UNL     1       4.558  10.110  -6.955  1.00  0.00     0.039 A 
ATOM     34  C   UNL     1       3.418  10.408  -7.708  1.00  0.00     0.014 A 
ATOM     35  C   UNL     1       4.601  10.439  -5.598  1.00  0.00     0.014 A 
ATOM     36  C   UNL     1       2.305  10.980  -7.089  1.00  0.00     0.010 A 
ATOM     37  C   UNL     1       3.463  10.931  -4.965  1.00  0.00     0.010 A 
ATOM     38  C   UNL     1       2.305  11.213  -5.704  1.00  0.00    -0.014 A 
BRANCH  38  39
ATOM     39  C   UNL     1       1.103  11.748  -5.015  1.00  0.00     0.031 A 
ATOM     40  C   UNL     1       1.153  13.083  -4.322  1.00  0.00     0.074 A 
ATOM     41  C   UNL     1      -0.019  11.005  -4.964  1.00  0.00     0.049 A 
ATOM     42  N   UNL     1       0.223  13.688  -3.627  1.00  0.00    -0.248 NA
ATOM     43  C   UNL     1       2.422  13.825  -4.399  1.00  0.00     0.031 C 
ATOM     44  C   UNL     1      -0.187   9.679  -5.564  1.00  0.00     0.029 A 
ATOM     45  N   UNL     1      -1.233  11.258  -4.374  1.00  0.00    -0.354 N 
ATOM     46  C   UNL     1       0.797  14.869  -3.174  1.00  0.00     0.074 A 
ATOM     47  C   UNL     1       2.171  14.871  -3.626  1.00  0.00     0.031 C 
ATOM     48  C   UNL     1      -1.439   9.250  -5.338  1.00  0.00     0.029 A 
ATOM     49  C   UNL     1      -2.147  10.245  -4.540  1.00  0.00     0.049 A 
ATOM     50  H   UNL     1      -1.430  12.086  -3.880  1.00  0.00     0.167 HD
ATOM     51  C   UNL     1       0.228  15.872  -2.462  1.00  0.00     0.031 A 
ATOM     52  C   UNL     1      -3.411  10.125  -4.092  1.00  0.00     0.031 A 
ATOM     53  C   UNL     1      -1.139  15.870  -2.014  1.00  0.00     0.049 A 
ATOM     54  C   UNL     1      -4.010  11.240  -3.280  1.00  0.00     0.074 A 
ATOM     55  C   UNL     1      -1.823  16.860  -1.330  1.00  0.00     0.029 A 
ATOM     56  N   UNL     1      -2.030  14.825  -2.201  1.00  0.00    -0.354 N 
ATOM     57  N   UNL     1      -3.474  12.380  -2.917  1.00  0.00    -0.248 NA
ATOM     58  C   UNL     1      -5.395  11.054  -2.826  1.00  0.00     0.031 C 
ATOM     59  C   UNL     1      -3.109  16.389  -1.049  1.00  0.00     0.029 A 
ATOM     60  C   UNL     1      -3.249  15.134  -1.620  1.00  0.00     0.049 A 
ATOM     61  H   UNL     1      -1.827  13.987  -2.677  1.00  0.00     0.167 HD
ATOM     62  C   UNL     1      -4.465  13.061  -2.223  1.00  0.00     0.074 A 
ATOM     63  C   UNL     1      -5.639  12.212  -2.230  1.00  0.00     0.031 C 
ATOM     64  C   UNL     1      -4.410  14.281  -1.634  1.00  0.00     0.031 A 
BRANCH  51  65
ATOM     65  C   UNL     1       1.094  17.052  -2.113  1.00  0.00    -0.014 A 
ATOM     66  C   UNL     1       1.547  17.944  -3.099  1.00  0.00     0.009 A 
ATOM     67  C   UNL     1       1.431  17.299  -0.772  1.00  0.00     0.009 A 
ATOM     68  C   UNL     1       2.352  19.032  -2.755  1.00  0.00     0.001 A 
ATOM     69  C   UNL     1       2.208  18.406  -0.428  1.00  0.00     0.001 A 
ATOM     70  C   UNL     1       2.677  19.265  -1.420  1.00  0.00     0.000 A 
ENDBRANCH  51  65
BRANCH  52  71
ATOM     71  C   UNL     1      -4.203   8.908  -4.411  1.00  0.00    -0.014 A 
ATOM     72  C   UNL     1      -5.305   8.981  -5.278  1.00  0.00     0.009 A 
ATOM     73  C   UNL     1      -3.869   7.668  -3.844  1.00  0.00     0.009 A 
ATOM     74  C   UNL     1      -6.074   7.845  -5.544  1.00  0.00     0.001 A 
ATOM     75  C   UNL     1      -4.619   6.527  -4.138  1.00  0.00     0.001 A 
ATOM     76  C   UNL     1      -5.728   6.619  -4.978  1.00  0.00     0.000 A 
ENDBRANCH  52  71
BRANCH  64  77
ATOM     77  C   UNL     1      -5.668  14.792  -0.987  1.00  0.00    -0.014 A 
ATOM     78  C   UNL     1      -6.168  14.227   0.196  1.00  0.00     0.009 A 
ATOM     79  C   UNL     1      -6.343  15.883  -1.557  1.00  0.00     0.009 A 
ATOM     80  C   UNL     1      -7.340  14.720   0.773  1.00  0.00     0.001 A 
ATOM     81  C   UNL     1      -7.495  16.396  -0.960  1.00  0.00     0.001 A 
ATOM     82  C   UNL     1      -7.999  15.807   0.199  1.00  0.00     0.000 A 
ENDBRANCH  64  77
ENDBRANCH  38  39
ENDBRANCH  30  33
ENDBRANCH  28  29
ENDBRANCH  27  28
ENDBRANCH  26  27
ENDBRANCH   3  26
TORSDOF 16
