REMARK SMILES N#CCCNC(=O)COc1ccc(C(=O)NCCCNC(=O)c2ccc(-c3c4nc(c(-c5ccccc5)c5ccc([nH]5)c(-c5ccccc5)c5nc(c(-c6ccccc6)c6ccc3[nH]6)C=C5)C=C4)cc2)nc1
REMARK SMILES IDX 14 1 15 2 16 3 13 5 10 6 11 7 72 8 12 9 71 10 9 11 8 12 6 13
REMARK SMILES IDX 5 14 7 16 4 17 3 18 2 19 1 20 17 21 18 22 19 23 20 24 21 25
REMARK SMILES IDX 22 27 23 28 24 29 70 30 25 31 69 32 26 33 27 34 28 35 63 36
REMARK SMILES IDX 29 37 68 38 62 39 64 40 30 41 67 42 61 43 60 44 31 46 53 47
REMARK SMILES IDX 38 48 52 49 39 50 42 51 51 52 65 53 40 54 41 55 50 57 66 58
REMARK SMILES IDX 43 59 32 60 33 61 37 62 34 63 36 64 35 65 54 66 55 67 59 68
REMARK SMILES IDX 56 69 58 70 57 71 44 72 45 73 49 74 46 75 48 76 47 77
REMARK H PARENT 16 4 5 15 20 26 64 45 42 56
REMARK Flexibility Score: inf
ROOT
ATOM      1  C   UNL     1       5.875  -6.504  -1.526  1.00  0.00     0.269 C 
ATOM      2  O   UNL     1       6.706  -6.831  -2.374  1.00  0.00    -0.268 OA
ATOM      3  N   UNL     1       4.817  -7.367  -1.326  1.00  0.00    -0.351 N 
ATOM      4  H   UNL     1       4.804  -8.134  -1.942  1.00  0.00     0.163 HD
ENDROOT
BRANCH   1   5
ATOM      5  C   UNL     1       6.041  -5.223  -0.759  1.00  0.00     0.128 A 
ATOM      6  C   UNL     1       6.481  -2.877   0.620  1.00  0.00     0.138 A 
ATOM      7  C   UNL     1       5.187  -3.341   0.448  1.00  0.00     0.050 A 
ATOM      8  C   UNL     1       7.507  -3.612   0.051  1.00  0.00     0.158 A 
ATOM      9  C   UNL     1       4.961  -4.498  -0.284  1.00  0.00     0.038 A 
ATOM     10  N   UNL     1       7.319  -4.782  -0.609  1.00  0.00    -0.247 NA
BRANCH   6  11
ATOM     11  O   UNL     1       6.742  -1.667   1.190  1.00  0.00    -0.482 OA
BRANCH  11  12
ATOM     12  C   UNL     1       6.428  -1.621   2.578  1.00  0.00     0.329 C 
BRANCH  12  13
ATOM     13  C   UNL     1       4.952  -1.536   2.987  1.00  0.00     0.257 C 
ATOM     14  N   UNL     1       4.122  -0.627   2.391  1.00  0.00    -0.352 N 
ATOM     15  H   UNL     1       3.188  -0.644   2.700  1.00  0.00     0.163 HD
ATOM     16  O   UNL     1       4.485  -2.269   3.860  1.00  0.00    -0.271 OA
BRANCH  14  17
ATOM     17  C   UNL     1       4.421   0.362   1.365  1.00  0.00     0.131 C 
BRANCH  17  18
ATOM     18  C   UNL     1       3.879  -0.002  -0.020  1.00  0.00     0.141 C 
BRANCH  18  19
ATOM     19  C   UNL     1       2.359  -0.002  -0.020  1.00  0.00     0.064 C 
ATOM     20  N   UNL     1       1.098  -0.002  -0.020  1.00  0.00    -0.198 NA
ENDBRANCH  18  19
ENDBRANCH  17  18
ENDBRANCH  14  17
ENDBRANCH  12  13
ENDBRANCH  11  12
ENDBRANCH   6  11
ENDBRANCH   1   5
BRANCH   3  21
ATOM     21  C   UNL     1       3.716  -7.355  -0.376  1.00  0.00     0.118 C 
BRANCH  21  22
ATOM     22  C   UNL     1       2.423  -6.855  -1.022  1.00  0.00     0.042 C 
BRANCH  22  23
ATOM     23  C   UNL     1       1.744  -7.894  -1.908  1.00  0.00     0.118 C 
BRANCH  23  24
ATOM     24  N   UNL     1       1.179  -8.984  -1.128  1.00  0.00    -0.352 N 
ATOM     25  C   UNL     1      -0.116  -9.427  -1.034  1.00  0.00     0.251 C 
ATOM     26  H   UNL     1       1.829  -9.483  -0.581  1.00  0.00     0.163 HD
ATOM     27  O   UNL     1      -0.421 -10.216  -0.145  1.00  0.00    -0.269 OA
BRANCH  25  28
ATOM     28  C   UNL     1      -1.148  -8.958  -1.984  1.00  0.00     0.039 A 
ATOM     29  C   UNL     1      -2.434  -8.693  -1.501  1.00  0.00     0.014 A 
ATOM     30  C   UNL     1      -0.876  -8.828  -3.349  1.00  0.00     0.014 A 
ATOM     31  C   UNL     1      -3.428  -8.246  -2.375  1.00  0.00     0.010 A 
ATOM     32  C   UNL     1      -1.847  -8.316  -4.206  1.00  0.00     0.010 A 
ATOM     33  C   UNL     1      -3.133  -8.023  -3.729  1.00  0.00    -0.014 A 
BRANCH  33  34
ATOM     34  C   UNL     1      -4.151  -7.476  -4.660  1.00  0.00     0.031 A 
ATOM     35  C   UNL     1      -4.642  -8.299  -5.818  1.00  0.00     0.074 A 
ATOM     36  C   UNL     1      -4.576  -6.207  -4.505  1.00  0.00     0.049 A 
ATOM     37  N   UNL     1      -5.459  -7.960  -6.784  1.00  0.00    -0.248 NA
ATOM     38  C   UNL     1      -4.131  -9.676  -5.918  1.00  0.00     0.031 C 
ATOM     39  C   UNL     1      -4.151  -5.294  -3.442  1.00  0.00     0.029 A 
ATOM     40  N   UNL     1      -5.453  -5.462  -5.252  1.00  0.00    -0.354 N 
ATOM     41  C   UNL     1      -5.543  -9.071  -7.615  1.00  0.00     0.074 A 
ATOM     42  C   UNL     1      -4.663 -10.079  -7.063  1.00  0.00     0.031 C 
ATOM     43  C   UNL     1      -4.781  -4.119  -3.594  1.00  0.00     0.029 A 
ATOM     44  C   UNL     1      -5.620  -4.180  -4.786  1.00  0.00     0.049 A 
ATOM     45  H   UNL     1      -5.919  -5.812  -6.045  1.00  0.00     0.167 HD
ATOM     46  C   UNL     1      -6.295  -9.242  -8.728  1.00  0.00     0.031 A 
ATOM     47  C   UNL     1      -6.354  -3.162  -5.272  1.00  0.00     0.031 A 
ATOM     48  C   UNL     1      -7.177  -8.243  -9.270  1.00  0.00     0.049 A 
ATOM     49  C   UNL     1      -7.164  -3.370  -6.520  1.00  0.00     0.074 A 
ATOM     50  C   UNL     1      -8.027  -8.342 -10.358  1.00  0.00     0.029 A 
ATOM     51  N   UNL     1      -7.320  -6.960  -8.765  1.00  0.00    -0.354 N 
ATOM     52  N   UNL     1      -7.282  -4.448  -7.257  1.00  0.00    -0.248 NA
ATOM     53  C   UNL     1      -7.946  -2.222  -7.000  1.00  0.00     0.031 C 
ATOM     54  C   UNL     1      -8.646  -7.102 -10.543  1.00  0.00     0.029 A 
ATOM     55  C   UNL     1      -8.223  -6.248  -9.537  1.00  0.00     0.049 A 
ATOM     56  H   UNL     1      -6.850  -6.608  -7.975  1.00  0.00     0.167 HD
ATOM     57  C   UNL     1      -8.167  -4.116  -8.274  1.00  0.00     0.074 A 
ATOM     58  C   UNL     1      -8.569  -2.743  -8.049  1.00  0.00     0.031 C 
ATOM     59  C   UNL     1      -8.608  -4.881  -9.302  1.00  0.00     0.031 A 
BRANCH  46  60
ATOM     60  C   UNL     1      -6.186 -10.561  -9.442  1.00  0.00    -0.014 A 
ATOM     61  C   UNL     1      -6.713 -11.737  -8.885  1.00  0.00     0.009 A 
ATOM     62  C   UNL     1      -5.581 -10.622 -10.707  1.00  0.00     0.009 A 
ATOM     63  C   UNL     1      -6.603 -12.953  -9.563  1.00  0.00     0.001 A 
ATOM     64  C   UNL     1      -5.498 -11.834 -11.396  1.00  0.00     0.001 A 
ATOM     65  C   UNL     1      -6.000 -13.000 -10.819  1.00  0.00     0.000 A 
ENDBRANCH  46  60
BRANCH  47  66
ATOM     66  C   UNL     1      -6.360  -1.851  -4.572  1.00  0.00    -0.014 A 
ATOM     67  C   UNL     1      -7.503  -1.420  -3.880  1.00  0.00     0.009 A 
ATOM     68  C   UNL     1      -5.225  -1.025  -4.590  1.00  0.00     0.009 A 
ATOM     69  C   UNL     1      -7.516  -0.179  -3.240  1.00  0.00     0.001 A 
ATOM     70  C   UNL     1      -5.232   0.202  -3.924  1.00  0.00     0.001 A 
ATOM     71  C   UNL     1      -6.379   0.628  -3.257  1.00  0.00     0.000 A 
ENDBRANCH  47  66
BRANCH  59  72
ATOM     72  C   UNL     1      -9.594  -4.257 -10.247  1.00  0.00    -0.014 A 
ATOM     73  C   UNL     1      -9.194  -3.287 -11.179  1.00  0.00     0.009 A 
ATOM     74  C   UNL     1     -10.933  -4.678 -10.234  1.00  0.00     0.009 A 
ATOM     75  C   UNL     1     -10.123  -2.731 -12.061  1.00  0.00     0.001 A 
ATOM     76  C   UNL     1     -11.853  -4.141 -11.135  1.00  0.00     0.001 A 
ATOM     77  C   UNL     1     -11.449  -3.162 -12.042  1.00  0.00     0.000 A 
ENDBRANCH  59  72
ENDBRANCH  33  34
ENDBRANCH  25  28
ENDBRANCH  23  24
ENDBRANCH  22  23
ENDBRANCH  21  22
ENDBRANCH   3  21
TORSDOF 16
