REMARK SMILES O=C(NCCCNC(=O)[C@@H]1C[NH2+]CCN1C(=O)N[C@@H]1CCOC1)c1ccc(-c2c3nc(c(-c4ccccc4)c4ccc([nH]4)c(-c4ccccc4)c4nc(c(-c5ccccc5)c5ccc2[nH]5)C=C4)C=C3)cc1
REMARK SMILES IDX 5 1 4 2 3 3 1 4 2 5 24 7 25 8 71 9 26 10 70 11 27 12 28 13
REMARK SMILES IDX 29 14 64 15 30 16 69 17 63 18 65 19 31 20 68 21 62 22 61 23
REMARK SMILES IDX 32 25 54 26 39 27 53 28 40 29 43 30 52 31 66 32 41 33 42 34
REMARK SMILES IDX 51 36 67 37 44 38 33 39 34 40 38 41 35 42 37 43 36 44 55 45
REMARK SMILES IDX 56 46 60 47 57 48 59 49 58 50 45 51 46 52 50 53 47 54 49 55
REMARK SMILES IDX 48 56 6 57 7 58 8 59 9 61 10 62 11 63 15 64 12 65 14 66
REMARK SMILES IDX 13 67 16 70 17 71 18 72 19 74 20 75 23 76 21 77 22 78
REMARK H PARENT 3 6 65 24 43 35 7 60 12 68 12 69 18 73
REMARK Flexibility Score: inf
ROOT
ATOM      1  C   UNL     1       4.642  -2.587   0.670  1.00  0.00     0.042 C 
ENDROOT
BRANCH   1   2
ATOM      2  C   UNL     1       4.382  -1.348  -0.182  1.00  0.00     0.118 C 
BRANCH   2   3
ATOM      3  N   UNL     1       2.971  -1.050  -0.363  1.00  0.00    -0.352 N 
ATOM      4  O   UNL     1       1.038   0.090  -0.095  1.00  0.00    -0.269 OA
ATOM      5  C   UNL     1       2.254   0.044   0.065  1.00  0.00     0.251 C 
ATOM      6  H   UNL     1       2.456  -1.726  -0.861  1.00  0.00     0.163 HD
BRANCH   5   7
ATOM      7  C   UNL     1       2.948   1.144   0.770  1.00  0.00     0.039 A 
ATOM      8  C   UNL     1       4.117   1.704   0.251  1.00  0.00     0.014 A 
ATOM      9  C   UNL     1       2.445   1.584   1.997  1.00  0.00     0.014 A 
ATOM     10  C   UNL     1       4.881   2.555   1.043  1.00  0.00     0.010 A 
ATOM     11  C   UNL     1       3.168   2.515   2.749  1.00  0.00     0.010 A 
ATOM     12  C   UNL     1       4.421   2.966   2.306  1.00  0.00    -0.014 A 
BRANCH  12  13
ATOM     13  C   UNL     1       5.261   3.869   3.136  1.00  0.00     0.031 A 
ATOM     14  C   UNL     1       5.804   3.423   4.470  1.00  0.00     0.074 A 
ATOM     15  C   UNL     1       5.570   5.093   2.667  1.00  0.00     0.049 A 
ATOM     16  N   UNL     1       6.577   4.074   5.304  1.00  0.00    -0.248 NA
ATOM     17  C   UNL     1       5.426   2.078   4.933  1.00  0.00     0.031 C 
ATOM     18  C   UNL     1       5.110   5.650   1.392  1.00  0.00     0.029 A 
ATOM     19  N   UNL     1       6.364   6.080   3.193  1.00  0.00    -0.354 N 
ATOM     20  C   UNL     1       6.750   3.237   6.400  1.00  0.00     0.074 A 
ATOM     21  C   UNL     1       5.988   2.035   6.134  1.00  0.00     0.031 C 
ATOM     22  C   UNL     1       5.678   6.851   1.207  1.00  0.00     0.029 A 
ATOM     23  C   UNL     1       6.488   7.176   2.375  1.00  0.00     0.049 A 
ATOM     24  H   UNL     1       6.802   6.010   4.072  1.00  0.00     0.167 HD
ATOM     25  C   UNL     1       7.477   3.445   7.525  1.00  0.00     0.031 A 
ATOM     26  C   UNL     1       7.172   8.322   2.543  1.00  0.00     0.031 A 
ATOM     27  C   UNL     1       8.252   4.630   7.787  1.00  0.00     0.049 A 
ATOM     28  C   UNL     1       7.962   8.530   3.801  1.00  0.00     0.074 A 
ATOM     29  C   UNL     1       9.052   4.913   8.881  1.00  0.00     0.029 A 
ATOM     30  N   UNL     1       8.324   5.729   6.946  1.00  0.00    -0.354 N 
ATOM     31  N   UNL     1       8.135   7.714   4.811  1.00  0.00    -0.248 NA
ATOM     32  C   UNL     1       8.653   9.819   3.938  1.00  0.00     0.031 C 
ATOM     33  C   UNL     1       9.574   6.202   8.722  1.00  0.00     0.029 A 
ATOM     34  C   UNL     1       9.139   6.700   7.505  1.00  0.00     0.049 A 
ATOM     35  H   UNL     1       7.864   5.809   6.079  1.00  0.00     0.167 HD
ATOM     36  C   UNL     1       8.973   8.381   5.694  1.00  0.00     0.074 A 
ATOM     37  C   UNL     1       9.286   9.661   5.091  1.00  0.00     0.031 C 
ATOM     38  C   UNL     1       9.442   7.968   6.896  1.00  0.00     0.031 A 
BRANCH  25  39
ATOM     39  C   UNL     1       7.446   2.375   8.582  1.00  0.00    -0.014 A 
ATOM     40  C   UNL     1       8.122   1.157   8.412  1.00  0.00     0.009 A 
ATOM     41  C   UNL     1       6.764   2.610   9.786  1.00  0.00     0.009 A 
ATOM     42  C   UNL     1       8.088   0.184   9.415  1.00  0.00     0.001 A 
ATOM     43  C   UNL     1       6.753   1.647  10.797  1.00  0.00     0.001 A 
ATOM     44  C   UNL     1       7.407   0.431  10.607  1.00  0.00     0.000 A 
ENDBRANCH  25  39
BRANCH  26  45
ATOM     45  C   UNL     1       7.143   9.360   1.482  1.00  0.00    -0.014 A 
ATOM     46  C   UNL     1       8.282   9.611   0.703  1.00  0.00     0.009 A 
ATOM     47  C   UNL     1       5.973  10.095   1.235  1.00  0.00     0.009 A 
ATOM     48  C   UNL     1       8.255  10.592  -0.291  1.00  0.00     0.001 A 
ATOM     49  C   UNL     1       5.941  11.054   0.222  1.00  0.00     0.001 A 
ATOM     50  C   UNL     1       7.083  11.307  -0.535  1.00  0.00     0.000 A 
ENDBRANCH  26  45
BRANCH  38  51
ATOM     51  C   UNL     1      10.377   8.896   7.617  1.00  0.00    -0.014 A 
ATOM     52  C   UNL     1       9.912  10.071   8.229  1.00  0.00     0.009 A 
ATOM     53  C   UNL     1      11.743   8.581   7.694  1.00  0.00     0.009 A 
ATOM     54  C   UNL     1      10.805  10.931   8.872  1.00  0.00     0.001 A 
ATOM     55  C   UNL     1      12.628   9.429   8.361  1.00  0.00     0.001 A 
ATOM     56  C   UNL     1      12.160  10.608   8.940  1.00  0.00     0.000 A 
ENDBRANCH  38  51
ENDBRANCH  12  13
ENDBRANCH   5   7
ENDBRANCH   2   3
ENDBRANCH   1   2
BRANCH   1  57
ATOM     57  C   UNL     1       4.985  -3.827  -0.146  1.00  0.00     0.117 C 
BRANCH  57  58
ATOM     58  N   UNL     1       6.160  -3.620  -0.979  1.00  0.00    -0.354 N 
ATOM     59  C   UNL     1       6.848  -4.527  -1.732  1.00  0.00     0.248 C 
ATOM     60  H   UNL     1       6.507  -2.699  -1.002  1.00  0.00     0.163 HD
ATOM     61  O   UNL     1       7.712  -4.084  -2.491  1.00  0.00    -0.272 OA
BRANCH  59  62
ATOM     62  C   UNL     1       6.541  -6.022  -1.565  1.00  0.00     0.231 C 
ATOM     63  C   UNL     1       7.968  -6.670  -1.516  1.00  0.00     0.296 C 
ATOM     64  N   UNL     1       5.678  -6.866  -2.442  1.00  0.00    -0.302 N 
ATOM     65  N   UNL     1       7.978  -8.043  -0.978  1.00  0.00    -0.343 N 
ATOM     66  C   UNL     1       5.673  -8.267  -1.962  1.00  0.00     0.183 C 
ATOM     67  C   UNL     1       7.074  -8.872  -1.787  1.00  0.00     0.282 C 
ATOM     68  H   UNL     1       7.660  -8.034  -0.009  1.00  0.00     0.346 HD
ATOM     69  H   UNL     1       8.923  -8.423  -1.013  1.00  0.00     0.346 HD
BRANCH  64  70
ATOM     70  C   UNL     1       4.526  -6.529  -3.099  1.00  0.00     0.318 C 
ATOM     71  O   UNL     1       3.533  -7.266  -3.085  1.00  0.00    -0.249 OA
ATOM     72  N   UNL     1       4.403  -5.457  -3.893  1.00  0.00    -0.333 N 
ATOM     73  H   UNL     1       3.486  -5.362  -4.241  1.00  0.00     0.165 HD
BRANCH  72  74
ATOM     74  C   UNL     1       5.277  -4.396  -4.374  1.00  0.00     0.112 C 
ATOM     75  C   UNL     1       4.780  -3.072  -3.824  1.00  0.00     0.056 C 
ATOM     76  C   UNL     1       5.160  -4.159  -5.876  1.00  0.00     0.185 C 
ATOM     77  C   UNL     1       3.862  -2.516  -4.899  1.00  0.00     0.162 C 
ATOM     78  O   UNL     1       4.006  -3.330  -6.065  1.00  0.00    -0.379 OA
ENDBRANCH  72  74
ENDBRANCH  64  70
ENDBRANCH  59  62
ENDBRANCH  57  58
ENDBRANCH   1  57
TORSDOF 12
