REMARK SMILES [NH3+]Cc1c(-c2ccccc2)c(C(=O)NCCCNC(=O)c2ccc(-c3c4nc(c(-c5ccccc5)c5ccc([nH]5)c(-c5ccccc5)c5nc(c(-c6ccccc6)c6ccc3[nH]6)C=C5)C=C4)cc2)c2ccccn12
REMARK SMILES IDX 16 1 15 2 14 3 12 4 13 5 11 7 3 8 4 9 74 10 69 11 73 12
REMARK SMILES IDX 70 13 72 14 71 15 2 16 1 17 5 21 6 22 10 23 7 24 9 25 8 26
REMARK SMILES IDX 17 27 18 28 19 29 20 31 21 32 22 33 68 34 23 35 67 36 24 37
REMARK SMILES IDX 25 38 26 39 61 40 27 41 66 42 60 43 62 44 28 45 65 46 59 47
REMARK SMILES IDX 58 48 29 50 51 51 36 52 50 53 37 54 40 55 49 56 63 57 38 58
REMARK SMILES IDX 39 59 48 61 64 62 41 63 30 64 31 65 35 66 32 67 34 68 33 69
REMARK SMILES IDX 52 70 53 71 57 72 54 73 56 74 55 75 42 76 43 77 47 78 44 79
REMARK SMILES IDX 46 80 45 81
REMARK H PARENT 14 6 1 18 1 19 1 20 18 30 62 49 40 60
REMARK Flexibility Score: inf
ROOT
ATOM      1  C   UNL     1       4.437   0.283  -7.438  1.00  0.00     0.042 C 
ENDROOT
BRANCH   1   2
ATOM      2  C   UNL     1       3.057   0.589  -6.880  1.00  0.00     0.118 C 
BRANCH   2   3
ATOM      3  N   UNL     1       2.266  -0.570  -6.523  1.00  0.00    -0.352 N 
ATOM      4  C   UNL     1       1.401  -0.812  -5.480  1.00  0.00     0.254 C 
ATOM      5  O   UNL     1       0.819  -1.896  -5.521  1.00  0.00    -0.269 OA
ATOM      6  H   UNL     1       2.365  -1.328  -7.144  1.00  0.00     0.163 HD
BRANCH   4   7
ATOM      7  C   UNL     1       1.240   0.113  -4.354  1.00  0.00     0.073 A 
ATOM      8  C   UNL     1       0.902   0.856  -2.192  1.00  0.00     0.086 A 
ATOM      9  C   UNL     1       0.906  -0.277  -3.004  1.00  0.00     0.022 A 
ATOM     10  N   UNL     1       1.245   1.927  -3.002  1.00  0.00    -0.314 N 
ATOM     11  C   UNL     1       1.222   1.503  -4.334  1.00  0.00     0.059 A 
ATOM     12  C   UNL     1       1.554   3.247  -2.649  1.00  0.00     0.092 A 
ATOM     13  C   UNL     1       1.223   2.535  -5.325  1.00  0.00     0.027 A 
ATOM     14  C   UNL     1       1.740   4.173  -3.602  1.00  0.00     0.018 A 
ATOM     15  C   UNL     1       1.509   3.804  -4.983  1.00  0.00     0.004 A 
BRANCH   8  16
ATOM     16  C   UNL     1       0.531   1.029  -0.751  1.00  0.00     0.315 C 
BRANCH  16  17
ATOM     17  N   UNL     1       1.295   0.149   0.120  1.00  0.00    -0.353 N 
ATOM     18  H   UNL     1       1.011   0.300   1.089  1.00  0.00     0.344 HD
ATOM     19  H   UNL     1       2.289   0.352   0.022  1.00  0.00     0.344 HD
ATOM     20  H   UNL     1       1.118  -0.822  -0.138  1.00  0.00     0.344 HD
ENDBRANCH  16  17
ENDBRANCH   8  16
BRANCH   9  21
ATOM     21  C   UNL     1       0.553  -1.601  -2.510  1.00  0.00    -0.016 A 
ATOM     22  C   UNL     1       1.516  -2.611  -2.418  1.00  0.00     0.009 A 
ATOM     23  C   UNL     1      -0.770  -1.873  -2.137  1.00  0.00     0.009 A 
ATOM     24  C   UNL     1       1.155  -3.881  -1.958  1.00  0.00     0.001 A 
ATOM     25  C   UNL     1      -1.126  -3.140  -1.673  1.00  0.00     0.001 A 
ATOM     26  C   UNL     1      -0.164  -4.144  -1.586  1.00  0.00     0.000 A 
ENDBRANCH   9  21
ENDBRANCH   4   7
ENDBRANCH   2   3
ENDBRANCH   1   2
BRANCH   1  27
ATOM     27  C   UNL     1       4.473  -0.635  -8.650  1.00  0.00     0.118 C 
BRANCH  27  28
ATOM     28  N   UNL     1       3.840  -0.080  -9.839  1.00  0.00    -0.352 N 
ATOM     29  C   UNL     1       4.358   0.488 -10.982  1.00  0.00     0.251 C 
ATOM     30  H   UNL     1       2.856  -0.118  -9.822  1.00  0.00     0.163 HD
ATOM     31  O   UNL     1       3.594   0.986 -11.800  1.00  0.00    -0.269 OA
BRANCH  29  32
ATOM     32  C   UNL     1       5.820   0.553 -11.221  1.00  0.00     0.039 A 
ATOM     33  C   UNL     1       6.355   1.698 -11.824  1.00  0.00     0.014 A 
ATOM     34  C   UNL     1       6.670  -0.499 -10.886  1.00  0.00     0.014 A 
ATOM     35  C   UNL     1       7.738   1.821 -11.995  1.00  0.00     0.010 A 
ATOM     36  C   UNL     1       8.049  -0.327 -10.941  1.00  0.00     0.010 A 
ATOM     37  C   UNL     1       8.603   0.832 -11.503  1.00  0.00    -0.014 A 
BRANCH  37  38
ATOM     38  C   UNL     1      10.082   0.971 -11.575  1.00  0.00     0.031 A 
ATOM     39  C   UNL     1      10.903  -0.061 -12.304  1.00  0.00     0.074 A 
ATOM     40  C   UNL     1      10.697   1.971 -10.913  1.00  0.00     0.049 A 
ATOM     41  N   UNL     1      12.205  -0.182 -12.377  1.00  0.00    -0.248 NA
ATOM     42  C   UNL     1      10.164  -1.120 -13.012  1.00  0.00     0.031 C 
ATOM     43  C   UNL     1      10.029   3.009 -10.124  1.00  0.00     0.029 A 
ATOM     44  N   UNL     1      12.032   2.270 -10.788  1.00  0.00    -0.354 N 
ATOM     45  C   UNL     1      12.435  -1.341 -13.108  1.00  0.00     0.074 A 
ATOM     46  C   UNL     1      11.144  -1.919 -13.406  1.00  0.00     0.031 C 
ATOM     47  C   UNL     1      10.953   3.845  -9.624  1.00  0.00     0.029 A 
ATOM     48  C   UNL     1      12.278   3.381 -10.016  1.00  0.00     0.049 A 
ATOM     49  H   UNL     1      12.745   1.740 -11.211  1.00  0.00     0.167 HD
ATOM     50  C   UNL     1      13.613  -1.869 -13.520  1.00  0.00     0.031 A 
ATOM     51  C   UNL     1      13.441   3.957  -9.657  1.00  0.00     0.031 A 
ATOM     52  C   UNL     1      14.898  -1.282 -13.254  1.00  0.00     0.049 A 
ATOM     53  C   UNL     1      14.735   3.362 -10.137  1.00  0.00     0.074 A 
ATOM     54  C   UNL     1      16.145  -1.705 -13.680  1.00  0.00     0.029 A 
ATOM     55  N   UNL     1      15.098  -0.138 -12.497  1.00  0.00    -0.354 N 
ATOM     56  N   UNL     1      14.930   2.299 -10.878  1.00  0.00    -0.248 NA
ATOM     57  C   UNL     1      15.969   4.057  -9.741  1.00  0.00     0.031 C 
ATOM     58  C   UNL     1      17.105  -0.838 -13.146  1.00  0.00     0.029 A 
ATOM     59  C   UNL     1      16.450   0.152 -12.431  1.00  0.00     0.049 A 
ATOM     60  H   UNL     1      14.385   0.390 -12.070  1.00  0.00     0.167 HD
ATOM     61  C   UNL     1      16.304   2.210 -11.058  1.00  0.00     0.074 A 
ATOM     62  C   UNL     1      16.892   3.338 -10.364  1.00  0.00     0.031 C 
ATOM     63  C   UNL     1      17.016   1.279 -11.737  1.00  0.00     0.031 A 
BRANCH  50  64
ATOM     64  C   UNL     1      13.558  -3.147 -14.311  1.00  0.00    -0.014 A 
ATOM     65  C   UNL     1      13.043  -3.171 -15.618  1.00  0.00     0.009 A 
ATOM     66  C   UNL     1      14.046  -4.338 -13.753  1.00  0.00     0.009 A 
ATOM     67  C   UNL     1      12.978  -4.369 -16.332  1.00  0.00     0.001 A 
ATOM     68  C   UNL     1      14.009  -5.529 -14.482  1.00  0.00     0.001 A 
ATOM     69  C   UNL     1      13.465  -5.546 -15.765  1.00  0.00     0.000 A 
ENDBRANCH  50  64
BRANCH  51  70
ATOM     70  C   UNL     1      13.436   5.178  -8.809  1.00  0.00    -0.014 A 
ATOM     71  C   UNL     1      13.786   6.423  -9.355  1.00  0.00     0.009 A 
ATOM     72  C   UNL     1      13.086   5.107  -7.452  1.00  0.00     0.009 A 
ATOM     73  C   UNL     1      13.811   7.566  -8.553  1.00  0.00     0.001 A 
ATOM     74  C   UNL     1      13.085   6.257  -6.659  1.00  0.00     0.001 A 
ATOM     75  C   UNL     1      13.457   7.484  -7.208  1.00  0.00     0.000 A 
ENDBRANCH  51  70
BRANCH  63  76
ATOM     76  C   UNL     1      18.506   1.459 -11.793  1.00  0.00    -0.014 A 
ATOM     77  C   UNL     1      19.312   1.215 -10.670  1.00  0.00     0.009 A 
ATOM     78  C   UNL     1      19.114   1.838 -13.000  1.00  0.00     0.009 A 
ATOM     79  C   UNL     1      20.696   1.378 -10.749  1.00  0.00     0.001 A 
ATOM     80  C   UNL     1      20.500   1.972 -13.083  1.00  0.00     0.001 A 
ATOM     81  C   UNL     1      21.289   1.750 -11.955  1.00  0.00     0.000 A 
ENDBRANCH  63  76
ENDBRANCH  37  38
ENDBRANCH  29  32
ENDBRANCH  27  28
ENDBRANCH   1  27
TORSDOF 13
