REMARK SMILES O=C(NCCCNC(=O)[C@@H]1CN(S(=O)(=O)c2ccc3c(c2)OCCCO3)CC[NH2+]1)c1ccc(-c2c3nc(c(-c4ccccc4)c4ccc([nH]4)c(-c4ccccc4)c4nc(c(-c5ccccc5)c5ccc2[nH]5)C=C4)C=C3)cc1
REMARK SMILES IDX 7 1 8 2 9 3 6 5 5 6 4 7 3 8 1 9 2 10 30 12 31 13 77 14 32 15
REMARK SMILES IDX 76 16 33 17 34 18 35 19 70 20 36 21 75 22 69 23 71 24 37 25
REMARK SMILES IDX 74 26 68 27 67 28 38 30 60 31 45 32 59 33 46 34 49 35 58 36
REMARK SMILES IDX 72 37 47 38 48 39 57 41 73 42 50 43 39 44 40 45 44 46 41 47
REMARK SMILES IDX 43 48 42 49 61 50 62 51 66 52 63 53 65 54 64 55 51 56 52 57
REMARK SMILES IDX 56 58 53 59 55 60 54 61 10 62 11 63 29 64 12 65 28 66 27 69
REMARK SMILES IDX 13 70 14 71 15 72 16 73 17 74 21 75 18 76 20 77 19 78 22 79
REMARK SMILES IDX 23 80 26 82 25 83 24 84
REMARK H PARENT 7 4 3 11 71 29 49 40 29 67 29 68
REMARK Flexibility Score: 80.00
ROOT
ATOM      1  N   UNL     1       4.652   2.923   3.107  1.00  0.00    -0.351 N 
ATOM      2  C   UNL     1       5.264   3.762   3.990  1.00  0.00     0.279 C 
ATOM      3  O   UNL     1       5.378   3.351   5.150  1.00  0.00    -0.268 OA
ATOM      4  H   UNL     1       4.417   2.041   3.477  1.00  0.00     0.163 HD
ENDROOT
BRANCH   1   5
ATOM      5  C   UNL     1       4.290   3.111   1.713  1.00  0.00     0.118 C 
BRANCH   5   6
ATOM      6  C   UNL     1       4.936   2.091   0.788  1.00  0.00     0.042 C 
BRANCH   6   7
ATOM      7  C   UNL     1       4.547   0.648   1.079  1.00  0.00     0.118 C 
BRANCH   7   8
ATOM      8  N   UNL     1       3.107   0.439   1.007  1.00  0.00    -0.352 N 
ATOM      9  O   UNL     1       1.125   0.005   0.047  1.00  0.00    -0.269 OA
ATOM     10  C   UNL     1       2.340  -0.173   0.051  1.00  0.00     0.251 C 
ATOM     11  H   UNL     1       2.601   0.797   1.772  1.00  0.00     0.163 HD
BRANCH  10  12
ATOM     12  C   UNL     1       2.950  -1.059  -0.963  1.00  0.00     0.039 A 
ATOM     13  C   UNL     1       2.409  -1.088  -2.253  1.00  0.00     0.014 A 
ATOM     14  C   UNL     1       3.986  -1.931  -0.623  1.00  0.00     0.014 A 
ATOM     15  C   UNL     1       2.920  -1.973  -3.205  1.00  0.00     0.010 A 
ATOM     16  C   UNL     1       4.552  -2.751  -1.592  1.00  0.00     0.010 A 
ATOM     17  C   UNL     1       4.002  -2.804  -2.881  1.00  0.00    -0.014 A 
BRANCH  17  18
ATOM     18  C   UNL     1       4.538  -3.803  -3.834  1.00  0.00     0.031 A 
ATOM     19  C   UNL     1       4.424  -5.266  -3.510  1.00  0.00     0.074 A 
ATOM     20  C   UNL     1       5.198  -3.399  -4.935  1.00  0.00     0.049 A 
ATOM     21  N   UNL     1       4.954  -6.292  -4.123  1.00  0.00    -0.248 NA
ATOM     22  C   UNL     1       3.636  -5.621  -2.316  1.00  0.00     0.031 C 
ATOM     23  C   UNL     1       5.384  -2.008  -5.347  1.00  0.00     0.029 A 
ATOM     24  N   UNL     1       5.850  -4.127  -5.898  1.00  0.00    -0.354 N 
ATOM     25  C   UNL     1       4.599  -7.403  -3.369  1.00  0.00     0.074 A 
ATOM     26  C   UNL     1       3.841  -6.927  -2.235  1.00  0.00     0.031 C 
ATOM     27  C   UNL     1       6.088  -1.983  -6.490  1.00  0.00     0.029 A 
ATOM     28  C   UNL     1       6.444  -3.350  -6.862  1.00  0.00     0.049 A 
ATOM     29  H   UNL     1       5.888  -5.110  -5.899  1.00  0.00     0.167 HD
ATOM     30  C   UNL     1       4.870  -8.706  -3.612  1.00  0.00     0.031 A 
ATOM     31  C   UNL     1       7.207  -3.696  -7.917  1.00  0.00     0.031 A 
ATOM     32  C   UNL     1       5.584  -9.172  -4.768  1.00  0.00     0.049 A 
ATOM     33  C   UNL     1       7.511  -5.146  -8.161  1.00  0.00     0.074 A 
ATOM     34  C   UNL     1       5.815 -10.477  -5.162  1.00  0.00     0.029 A 
ATOM     35  N   UNL     1       6.179  -8.351  -5.713  1.00  0.00    -0.354 N 
ATOM     36  N   UNL     1       7.122  -6.193  -7.473  1.00  0.00    -0.248 NA
ATOM     37  C   UNL     1       8.361  -5.467  -9.316  1.00  0.00     0.031 C 
ATOM     38  C   UNL     1       6.607 -10.447  -6.312  1.00  0.00     0.029 A 
ATOM     39  C   UNL     1       6.818  -9.123  -6.667  1.00  0.00     0.049 A 
ATOM     40  H   UNL     1       6.152  -7.367  -5.705  1.00  0.00     0.167 HD
ATOM     41  C   UNL     1       7.669  -7.296  -8.115  1.00  0.00     0.074 A 
ATOM     42  C   UNL     1       8.408  -6.793  -9.255  1.00  0.00     0.031 C 
ATOM     43  C   UNL     1       7.563  -8.606  -7.786  1.00  0.00     0.031 A 
BRANCH  30  44
ATOM     44  C   UNL     1       4.401  -9.724  -2.610  1.00  0.00    -0.014 A 
ATOM     45  C   UNL     1       5.346 -10.439  -1.856  1.00  0.00     0.009 A 
ATOM     46  C   UNL     1       3.040 -10.026  -2.454  1.00  0.00     0.009 A 
ATOM     47  C   UNL     1       4.938 -11.436  -0.968  1.00  0.00     0.001 A 
ATOM     48  C   UNL     1       2.632 -11.003  -1.543  1.00  0.00     0.001 A 
ATOM     49  C   UNL     1       3.581 -11.712  -0.807  1.00  0.00     0.000 A 
ENDBRANCH  30  44
BRANCH  31  50
ATOM     50  C   UNL     1       7.708  -2.629  -8.819  1.00  0.00    -0.014 A 
ATOM     51  C   UNL     1       8.714  -1.745  -8.395  1.00  0.00     0.009 A 
ATOM     52  C   UNL     1       7.109  -2.426 -10.070  1.00  0.00     0.009 A 
ATOM     53  C   UNL     1       9.084  -0.658  -9.191  1.00  0.00     0.001 A 
ATOM     54  C   UNL     1       7.497  -1.351 -10.874  1.00  0.00     0.001 A 
ATOM     55  C   UNL     1       8.475  -0.462 -10.429  1.00  0.00     0.000 A 
ENDBRANCH  31  50
BRANCH  43  56
ATOM     56  C   UNL     1       8.268  -9.611  -8.651  1.00  0.00    -0.014 A 
ATOM     57  C   UNL     1       7.521 -10.474  -9.469  1.00  0.00     0.009 A 
ATOM     58  C   UNL     1       9.653  -9.800  -8.545  1.00  0.00     0.009 A 
ATOM     59  C   UNL     1       8.143 -11.526 -10.142  1.00  0.00     0.001 A 
ATOM     60  C   UNL     1      10.277 -10.838  -9.239  1.00  0.00     0.001 A 
ATOM     61  C   UNL     1       9.521 -11.707 -10.026  1.00  0.00     0.000 A 
ENDBRANCH  43  56
ENDBRANCH  17  18
ENDBRANCH  10  12
ENDBRANCH   7   8
ENDBRANCH   6   7
ENDBRANCH   5   6
ENDBRANCH   1   5
BRANCH   2  62
ATOM     62  C   UNL     1       5.883   5.104   3.553  1.00  0.00     0.287 C 
ATOM     63  C   UNL     1       6.195   5.947   4.817  1.00  0.00     0.178 C 
ATOM     64  N   UNL     1       4.990   5.874   2.644  1.00  0.00    -0.334 N 
ATOM     65  N   UNL     1       6.832   7.270   4.487  1.00  0.00    -0.186 NA
ATOM     66  C   UNL     1       5.660   7.132   2.268  1.00  0.00     0.278 C 
ATOM     67  H   UNL     1       4.113   6.083   3.123  1.00  0.00     0.347 HD
ATOM     68  H   UNL     1       4.791   5.325   1.808  1.00  0.00     0.347 HD
ATOM     69  C   UNL     1       5.988   8.008   3.490  1.00  0.00     0.164 C 
BRANCH  65  70
ATOM     70  S   UNL     1       8.501   7.270   4.121  1.00  0.00     0.243 S 
ATOM     71  O   UNL     1       8.761   6.233   3.147  1.00  0.00    -0.207 OA
ATOM     72  O   UNL     1       8.882   8.642   3.849  1.00  0.00    -0.207 OA
BRANCH  70  73
ATOM     73  C   UNL     1       9.294   6.788   5.636  1.00  0.00     0.086 A 
ATOM     74  C   UNL     1       9.959   7.741   6.414  1.00  0.00     0.026 A 
ATOM     75  C   UNL     1       9.326   5.437   5.991  1.00  0.00     0.072 A 
ATOM     76  C   UNL     1      10.651   7.333   7.557  1.00  0.00     0.052 A 
ATOM     77  C   UNL     1       9.987   5.043   7.150  1.00  0.00     0.162 A 
ATOM     78  C   UNL     1      10.679   5.984   7.916  1.00  0.00     0.161 A 
BRANCH  77  79
ATOM     79  O   UNL     1       9.803   3.747   7.542  1.00  0.00    -0.490 OA
BRANCH  79  80
ATOM     80  C   UNL     1      11.017   3.003   7.566  1.00  0.00     0.233 CG0
ATOM     81  G   UNL     1      11.834   3.277   8.819  1.00  0.00     0.000 G0
ENDBRANCH  79  80
ENDBRANCH  77  79
BRANCH  78  82
ATOM     82  O   UNL     1      11.352   5.663   9.063  1.00  0.00    -0.490 OA
BRANCH  82  83
ATOM     83  C   UNL     1      12.379   4.697   8.821  1.00  0.00     0.233 C 
BRANCH  83  84
ATOM     84  C   UNL     1      11.834   3.277   8.819  1.00  0.00     0.083 CG0
ATOM     85  G   UNL     1      11.017   3.003   7.566  1.00  0.00     0.000 G0
ENDBRANCH  83  84
ENDBRANCH  82  83
ENDBRANCH  78  82
ENDBRANCH  70  73
ENDBRANCH  65  70
ENDBRANCH   2  62
TORSDOF 12
