REMARK SMILES O=C(C[C@@H](C(=O)N(c1ccccc1)c1ccccc1)[NH+]1CCOCC1)NCCCNC(=O)c1ccc(-c2c3nc(c(-c4ccccc4)c4ccc([nH]4)c(-c4ccccc4)c4nc(c(-c5ccccc5)c5ccc2[nH]5)C=C4)C=C3)cc1
REMARK SMILES IDX 27 1 26 2 1 3 2 4 3 6 4 7 5 8 6 9 7 10 8 11 9 12 13 13 10 14
REMARK SMILES IDX 12 15 11 16 14 17 15 18 19 19 16 20 18 21 17 22 20 23 21 24
REMARK SMILES IDX 25 25 22 27 24 28 23 29 28 30 29 31 30 32 31 33 32 35 33 36
REMARK SMILES IDX 34 37 80 38 35 39 79 40 36 41 37 42 38 43 73 44 39 45 78 46
REMARK SMILES IDX 72 47 74 48 40 49 77 50 71 51 70 52 41 54 63 55 48 56 62 57
REMARK SMILES IDX 49 58 52 59 61 60 75 61 50 62 51 63 60 65 76 66 53 67 42 68
REMARK SMILES IDX 43 69 47 70 44 71 46 72 45 73 64 74 65 75 69 76 66 77 68 78
REMARK SMILES IDX 67 79 54 80 55 81 59 82 56 83 58 84 57 85
REMARK H PARENT 26 5 20 26 30 34 74 53 52 64
REMARK Flexibility Score: inf
ROOT
ATOM      1  C   UNL     1       1.992   2.192  -0.997  1.00  0.00     0.117 C 
ENDROOT
BRANCH   1   2
ATOM      2  N   UNL     1       2.909   1.600  -0.030  1.00  0.00    -0.356 N 
ATOM      3  O   UNL     1       1.291   0.343   1.011  1.00  0.00    -0.275 OA
ATOM      4  C   UNL     1       2.477   0.610   0.836  1.00  0.00     0.226 C 
ATOM      5  H   UNL     1       3.843   1.907   0.007  1.00  0.00     0.163 HD
BRANCH   4   6
ATOM      6  C   UNL     1       3.567  -0.231   1.477  1.00  0.00     0.175 C 
BRANCH   6   7
ATOM      7  C   UNL     1       4.003  -1.375   0.528  1.00  0.00     0.284 C 
BRANCH   7   8
ATOM      8  C   UNL     1       4.737  -0.713  -0.648  1.00  0.00     0.290 C 
ATOM      9  O   UNL     1       5.723  -0.007  -0.353  1.00  0.00    -0.267 OA
ATOM     10  N   UNL     1       4.347  -0.832  -1.994  1.00  0.00    -0.276 N 
BRANCH  10  11
ATOM     11  C   UNL     1       3.006  -0.904  -2.577  1.00  0.00     0.049 A 
ATOM     12  C   UNL     1       2.808  -0.585  -3.944  1.00  0.00     0.027 A 
ATOM     13  C   UNL     1       1.825  -1.134  -1.859  1.00  0.00     0.027 A 
ATOM     14  C   UNL     1       1.535  -0.393  -4.506  1.00  0.00     0.002 A 
ATOM     15  C   UNL     1       0.545  -0.952  -2.416  1.00  0.00     0.002 A 
ATOM     16  C   UNL     1       0.399  -0.555  -3.733  1.00  0.00     0.000 A 
ENDBRANCH  10  11
BRANCH  10  17
ATOM     17  C   UNL     1       5.380  -0.423  -2.908  1.00  0.00     0.049 A 
ATOM     18  C   UNL     1       5.676   0.939  -3.058  1.00  0.00     0.027 A 
ATOM     19  C   UNL     1       6.183  -1.376  -3.539  1.00  0.00     0.027 A 
ATOM     20  C   UNL     1       6.749   1.351  -3.843  1.00  0.00     0.002 A 
ATOM     21  C   UNL     1       7.268  -0.960  -4.316  1.00  0.00     0.002 A 
ATOM     22  C   UNL     1       7.548   0.400  -4.469  1.00  0.00     0.000 A 
ENDBRANCH  10  17
ENDBRANCH   7   8
BRANCH   7  23
ATOM     23  N   UNL     1       4.815  -2.363   1.318  1.00  0.00    -0.320 N 
ATOM     24  C   UNL     1       6.287  -2.241   1.306  1.00  0.00     0.291 C 
ATOM     25  C   UNL     1       4.460  -3.771   1.045  1.00  0.00     0.291 C 
ATOM     26  H   UNL     1       4.533  -2.084   2.257  1.00  0.00     0.348 HD
ATOM     27  C   UNL     1       6.980  -2.895   0.091  1.00  0.00     0.221 C 
ATOM     28  C   UNL     1       5.136  -4.340  -0.208  1.00  0.00     0.221 C 
ATOM     29  O   UNL     1       6.561  -4.254  -0.099  1.00  0.00    -0.370 OA
ENDBRANCH   7  23
ENDBRANCH   6   7
ENDBRANCH   4   6
ENDBRANCH   1   2
BRANCH   1  30
ATOM     30  C   UNL     1       2.157   3.685  -1.242  1.00  0.00     0.042 C 
BRANCH  30  31
ATOM     31  C   UNL     1       3.424   4.077  -1.993  1.00  0.00     0.118 C 
BRANCH  31  32
ATOM     32  N   UNL     1       3.520   3.571  -3.358  1.00  0.00    -0.352 N 
ATOM     33  C   UNL     1       4.301   4.018  -4.403  1.00  0.00     0.251 C 
ATOM     34  H   UNL     1       2.944   2.799  -3.562  1.00  0.00     0.163 HD
ATOM     35  O   UNL     1       4.246   3.449  -5.491  1.00  0.00    -0.269 OA
BRANCH  33  36
ATOM     36  C   UNL     1       5.149   5.227  -4.252  1.00  0.00     0.039 A 
ATOM     37  C   UNL     1       5.182   6.146  -5.306  1.00  0.00     0.014 A 
ATOM     38  C   UNL     1       5.845   5.505  -3.075  1.00  0.00     0.014 A 
ATOM     39  C   UNL     1       5.777   7.396  -5.122  1.00  0.00     0.010 A 
ATOM     40  C   UNL     1       6.355   6.782  -2.857  1.00  0.00     0.010 A 
ATOM     41  C   UNL     1       6.291   7.752  -3.865  1.00  0.00    -0.014 A 
BRANCH  41  42
ATOM     42  C   UNL     1       6.660   9.157  -3.558  1.00  0.00     0.031 A 
ATOM     43  C   UNL     1       8.062   9.522  -3.163  1.00  0.00     0.074 A 
ATOM     44  C   UNL     1       5.689  10.093  -3.538  1.00  0.00     0.049 A 
ATOM     45  N   UNL     1       8.544  10.692  -2.828  1.00  0.00    -0.248 NA
ATOM     46  C   UNL     1       9.044   8.428  -3.107  1.00  0.00     0.031 C 
ATOM     47  C   UNL     1       4.270   9.850  -3.820  1.00  0.00     0.029 A 
ATOM     48  N   UNL     1       5.743  11.436  -3.265  1.00  0.00    -0.354 N 
ATOM     49  C   UNL     1       9.877  10.474  -2.508  1.00  0.00     0.074 A 
ATOM     50  C   UNL     1      10.116   9.053  -2.640  1.00  0.00     0.031 C 
ATOM     51  C   UNL     1       3.600  11.009  -3.746  1.00  0.00     0.029 A 
ATOM     52  C   UNL     1       4.529  12.070  -3.377  1.00  0.00     0.049 A 
ATOM     53  H   UNL     1       6.573  11.902  -3.013  1.00  0.00     0.167 HD
ATOM     54  C   UNL     1      10.823  11.377  -2.155  1.00  0.00     0.031 A 
ATOM     55  C   UNL     1       4.199  13.364  -3.208  1.00  0.00     0.031 A 
ATOM     56  C   UNL     1      10.586  12.791  -2.032  1.00  0.00     0.049 A 
ATOM     57  C   UNL     1       5.271  14.350  -2.846  1.00  0.00     0.074 A 
ATOM     58  C   UNL     1      11.492  13.796  -1.742  1.00  0.00     0.029 A 
ATOM     59  N   UNL     1       9.350  13.398  -2.189  1.00  0.00    -0.354 N 
ATOM     60  N   UNL     1       6.547  14.139  -2.636  1.00  0.00    -0.248 NA
ATOM     61  C   UNL     1       4.859  15.754  -2.714  1.00  0.00     0.031 C 
ATOM     62  C   UNL     1      10.796  15.009  -1.687  1.00  0.00     0.029 A 
ATOM     63  C   UNL     1       9.466  14.763  -1.989  1.00  0.00     0.049 A 
ATOM     64  H   UNL     1       8.514  12.929  -2.412  1.00  0.00     0.167 HD
ATOM     65  C   UNL     1       7.097  15.386  -2.375  1.00  0.00     0.074 A 
ATOM     66  C   UNL     1       6.018  16.349  -2.467  1.00  0.00     0.031 C 
ATOM     67  C   UNL     1       8.382  15.706  -2.086  1.00  0.00     0.031 A 
BRANCH  54  68
ATOM     68  C   UNL     1      12.205  10.854  -1.883  1.00  0.00    -0.014 A 
ATOM     69  C   UNL     1      13.015  10.371  -2.924  1.00  0.00     0.009 A 
ATOM     70  C   UNL     1      12.714  10.863  -0.575  1.00  0.00     0.009 A 
ATOM     71  C   UNL     1      14.290   9.869  -2.655  1.00  0.00     0.001 A 
ATOM     72  C   UNL     1      14.001  10.386  -0.313  1.00  0.00     0.001 A 
ATOM     73  C   UNL     1      14.783   9.880  -1.351  1.00  0.00     0.000 A 
ENDBRANCH  54  68
BRANCH  55  74
ATOM     74  C   UNL     1       2.797  13.808  -3.424  1.00  0.00    -0.014 A 
ATOM     75  C   UNL     1       2.461  14.555  -4.564  1.00  0.00     0.009 A 
ATOM     76  C   UNL     1       1.791  13.486  -2.502  1.00  0.00     0.009 A 
ATOM     77  C   UNL     1       1.149  14.993  -4.762  1.00  0.00     0.001 A 
ATOM     78  C   UNL     1       0.475  13.903  -2.716  1.00  0.00     0.001 A 
ATOM     79  C   UNL     1       0.157  14.663  -3.841  1.00  0.00     0.000 A 
ENDBRANCH  55  74
BRANCH  67  80
ATOM     80  C   UNL     1       8.694  17.160  -1.884  1.00  0.00    -0.014 A 
ATOM     81  C   UNL     1       8.301  17.833  -0.716  1.00  0.00     0.009 A 
ATOM     82  C   UNL     1       9.420  17.855  -2.862  1.00  0.00     0.009 A 
ATOM     83  C   UNL     1       8.605  19.185  -0.548  1.00  0.00     0.001 A 
ATOM     84  C   UNL     1       9.744  19.200  -2.679  1.00  0.00     0.001 A 
ATOM     85  C   UNL     1       9.329  19.865  -1.526  1.00  0.00     0.000 A 
ENDBRANCH  67  80
ENDBRANCH  41  42
ENDBRANCH  33  36
ENDBRANCH  31  32
ENDBRANCH  30  31
ENDBRANCH   1  30
TORSDOF 15
