REMARK SMILES Cc1c(C#N)c2ccccc2n1CC(=O)N1CC[C@H](O)C[C@@H]1C(=O)NCCCNC(=O)c1ccc(-c2c3nc(c(-c4ccccc4)c4ccc([nH]4)c(-c4ccccc4)c4nc(c(-c5ccccc5)c5ccc2[nH]5)C=C4)C=C3)cc1
REMARK SMILES IDX 26 1 25 2 23 3 24 4 22 6 16 7 17 8 18 9 21 10 19 11 14 12
REMARK SMILES IDX 15 13 13 14 12 15 1 16 2 17 3 18 6 19 11 20 7 21 10 22 8 23
REMARK SMILES IDX 9 24 4 25 5 26 20 27 27 29 28 30 29 31 30 32 31 34 32 35
REMARK SMILES IDX 33 36 79 37 34 38 78 39 35 40 36 41 37 42 72 43 38 44 77 45
REMARK SMILES IDX 71 46 73 47 39 48 76 49 70 50 69 51 40 53 62 54 47 55 61 56
REMARK SMILES IDX 48 57 51 58 60 59 74 60 49 61 50 62 59 64 75 65 52 66 41 67
REMARK SMILES IDX 42 68 46 69 43 70 45 71 44 72 63 73 64 74 68 75 65 76 67 77
REMARK SMILES IDX 66 78 53 79 54 80 58 81 55 82 57 83 56 84
REMARK H PARENT 25 5 20 28 29 33 73 52 51 63
REMARK Flexibility Score: inf
ROOT
ATOM      1  C   UNL     1      -5.147   5.574   0.331  1.00  0.00     0.117 C 
ENDROOT
BRANCH   1   2
ATOM      2  N   UNL     1      -4.875   4.888  -0.915  1.00  0.00    -0.354 N 
ATOM      3  C   UNL     1      -3.941   3.956  -1.227  1.00  0.00     0.242 C 
ATOM      4  O   UNL     1      -3.874   3.637  -2.418  1.00  0.00    -0.273 OA
ATOM      5  H   UNL     1      -5.468   5.139  -1.659  1.00  0.00     0.163 HD
BRANCH   3   6
ATOM      6  C   UNL     1      -3.054   3.313  -0.130  1.00  0.00     0.177 C 
ATOM      7  N   UNL     1      -2.059   2.406  -0.754  1.00  0.00    -0.329 N 
ATOM      8  C   UNL     1      -2.619   1.180  -1.335  1.00  0.00     0.123 C 
ATOM      9  C   UNL     1      -3.448   0.403  -0.317  1.00  0.00     0.053 C 
ATOM     10  C   UNL     1      -3.852   2.551   0.931  1.00  0.00     0.067 C 
ATOM     11  C   UNL     1      -4.481   1.275   0.381  1.00  0.00     0.118 C 
BRANCH   7  12
ATOM     12  C   UNL     1      -0.726   2.783  -0.720  1.00  0.00     0.243 C 
ATOM     13  O   UNL     1      -0.345   3.608   0.124  1.00  0.00    -0.273 OA
BRANCH  12  14
ATOM     14  C   UNL     1       0.276   2.378  -1.794  1.00  0.00     0.222 C 
BRANCH  14  15
ATOM     15  N   UNL     1       0.331   0.985  -2.211  1.00  0.00    -0.334 N 
ATOM     16  C   UNL     1       1.196   0.046  -0.015  1.00  0.00     0.066 C 
ATOM     17  C   UNL     1       0.710  -0.086  -1.420  1.00  0.00     0.034 A 
ATOM     18  C   UNL     1       0.494  -1.232  -2.169  1.00  0.00     0.080 A 
ATOM     19  C   UNL     1       0.010  -0.854  -3.452  1.00  0.00     0.018 A 
ATOM     20  C   UNL     1      -0.051   0.542  -3.472  1.00  0.00     0.050 A 
ATOM     21  C   UNL     1      -0.413  -1.569  -4.594  1.00  0.00     0.012 A 
ATOM     22  C   UNL     1      -0.509   1.245  -4.601  1.00  0.00     0.027 A 
ATOM     23  C   UNL     1      -0.879  -0.876  -5.715  1.00  0.00     0.001 A 
ATOM     24  C   UNL     1      -0.922   0.513  -5.717  1.00  0.00     0.002 A 
BRANCH  18  25
ATOM     25  C   UNL     1       0.678  -2.577  -1.700  1.00  0.00     0.102 C 
ATOM     26  N   UNL     1       0.805  -3.656  -1.310  1.00  0.00    -0.192 NA
ENDBRANCH  18  25
ENDBRANCH  14  15
ENDBRANCH  12  14
ENDBRANCH   7  12
BRANCH  11  27
ATOM     27  O   UNL     1      -5.575   1.587  -0.477  1.00  0.00    -0.393 OA
ATOM     28  H   UNL     1      -5.256   2.103  -1.233  1.00  0.00     0.210 HD
ENDBRANCH  11  27
ENDBRANCH   3   6
ENDBRANCH   1   2
BRANCH   1  29
ATOM     29  C   UNL     1      -5.084   7.089   0.158  1.00  0.00     0.042 C 
BRANCH  29  30
ATOM     30  C   UNL     1      -5.979   7.624  -0.961  1.00  0.00     0.118 C 
BRANCH  30  31
ATOM     31  N   UNL     1      -7.381   7.307  -0.801  1.00  0.00    -0.352 N 
ATOM     32  C   UNL     1      -8.447   7.986  -0.285  1.00  0.00     0.251 C 
ATOM     33  H   UNL     1      -7.617   6.411  -1.136  1.00  0.00     0.163 HD
ATOM     34  O   UNL     1      -9.564   7.532  -0.545  1.00  0.00    -0.269 OA
BRANCH  32  35
ATOM     35  C   UNL     1      -8.340   9.118   0.669  1.00  0.00     0.039 A 
ATOM     36  C   UNL     1      -7.155   9.732   1.076  1.00  0.00     0.014 A 
ATOM     37  C   UNL     1      -9.539   9.463   1.317  1.00  0.00     0.014 A 
ATOM     38  C   UNL     1      -7.128  10.450   2.263  1.00  0.00     0.010 A 
ATOM     39  C   UNL     1      -9.527  10.231   2.465  1.00  0.00     0.010 A 
ATOM     40  C   UNL     1      -8.305  10.604   3.001  1.00  0.00    -0.014 A 
BRANCH  40  41
ATOM     41  C   UNL     1      -8.265  11.318   4.268  1.00  0.00     0.031 A 
ATOM     42  C   UNL     1      -7.852  12.734   4.080  1.00  0.00     0.074 A 
ATOM     43  C   UNL     1      -8.659  10.767   5.439  1.00  0.00     0.049 A 
ATOM     44  N   UNL     1      -6.748  13.277   4.469  1.00  0.00    -0.248 NA
ATOM     45  C   UNL     1      -8.640  13.579   3.163  1.00  0.00     0.031 C 
ATOM     46  C   UNL     1      -9.271   9.455   5.681  1.00  0.00     0.029 A 
ATOM     47  N   UNL     1      -8.656  11.307   6.691  1.00  0.00    -0.354 N 
ATOM     48  C   UNL     1      -6.805  14.600   4.043  1.00  0.00     0.074 A 
ATOM     49  C   UNL     1      -7.882  14.674   3.093  1.00  0.00     0.031 C 
ATOM     50  C   UNL     1      -9.804   9.418   6.929  1.00  0.00     0.029 A 
ATOM     51  C   UNL     1      -9.437  10.632   7.633  1.00  0.00     0.049 A 
ATOM     52  H   UNL     1      -8.140  12.115   6.915  1.00  0.00     0.167 HD
ATOM     53  C   UNL     1      -6.133  15.573   4.715  1.00  0.00     0.031 A 
ATOM     54  C   UNL     1      -9.755  11.058   8.889  1.00  0.00     0.031 A 
ATOM     55  C   UNL     1      -5.117  15.005   5.561  1.00  0.00     0.049 A 
ATOM     56  C   UNL     1      -8.762  12.098   9.250  1.00  0.00     0.074 A 
ATOM     57  C   UNL     1      -3.948  14.308   5.339  1.00  0.00     0.029 A 
ATOM     58  N   UNL     1      -5.484  14.749   6.859  1.00  0.00    -0.354 N 
ATOM     59  N   UNL     1      -7.499  11.838   9.425  1.00  0.00    -0.248 NA
ATOM     60  C   UNL     1      -9.091  13.469   8.895  1.00  0.00     0.031 C 
ATOM     61  C   UNL     1      -3.920  13.312   6.355  1.00  0.00     0.029 A 
ATOM     62  C   UNL     1      -5.000  13.520   7.217  1.00  0.00     0.049 A 
ATOM     63  H   UNL     1      -6.009  15.350   7.436  1.00  0.00     0.167 HD
ATOM     64  C   UNL     1      -6.844  12.865   8.764  1.00  0.00     0.074 A 
ATOM     65  C   UNL     1      -7.881  13.865   8.491  1.00  0.00     0.031 C 
ATOM     66  C   UNL     1      -5.606  12.675   8.223  1.00  0.00     0.031 A 
BRANCH  53  67
ATOM     67  C   UNL     1      -6.696  16.952   4.955  1.00  0.00    -0.014 A 
ATOM     68  C   UNL     1      -8.027  17.315   4.674  1.00  0.00     0.009 A 
ATOM     69  C   UNL     1      -5.956  17.849   5.748  1.00  0.00     0.009 A 
ATOM     70  C   UNL     1      -8.599  18.489   5.171  1.00  0.00     0.001 A 
ATOM     71  C   UNL     1      -6.535  19.009   6.277  1.00  0.00     0.001 A 
ATOM     72  C   UNL     1      -7.858  19.326   5.991  1.00  0.00     0.000 A 
ENDBRANCH  53  67
BRANCH  54  73
ATOM     73  C   UNL     1     -11.083  11.037   9.570  1.00  0.00    -0.014 A 
ATOM     74  C   UNL     1     -12.262  11.060   8.805  1.00  0.00     0.009 A 
ATOM     75  C   UNL     1     -11.199  11.351  10.940  1.00  0.00     0.009 A 
ATOM     76  C   UNL     1     -13.492  11.435   9.366  1.00  0.00     0.001 A 
ATOM     77  C   UNL     1     -12.433  11.721  11.504  1.00  0.00     0.001 A 
ATOM     78  C   UNL     1     -13.576  11.782  10.710  1.00  0.00     0.000 A 
ENDBRANCH  54  73
BRANCH  66  79
ATOM     79  C   UNL     1      -4.862  11.395   8.535  1.00  0.00    -0.014 A 
ATOM     80  C   UNL     1      -3.567  11.529   9.058  1.00  0.00     0.009 A 
ATOM     81  C   UNL     1      -5.287  10.114   8.132  1.00  0.00     0.009 A 
ATOM     82  C   UNL     1      -2.700  10.439   9.133  1.00  0.00     0.001 A 
ATOM     83  C   UNL     1      -4.425   9.012   8.236  1.00  0.00     0.001 A 
ATOM     84  C   UNL     1      -3.127   9.181   8.720  1.00  0.00     0.000 A 
ENDBRANCH  66  79
ENDBRANCH  40  41
ENDBRANCH  32  35
ENDBRANCH  30  31
ENDBRANCH  29  30
ENDBRANCH   1  29
TORSDOF 15
