REMARK SMILES O=C(NCCCNC(=O)[C@H]1CC2(CCN(C(=O)C3CC3)CC2)CN1C(=O)CCn1cccn1)c1ccc(-c2c3nc(c(-c4ccccc4)c4ccc([nH]4)c(-c4ccccc4)c4nc(c(-c5ccccc5)c5ccc2[nH]5)C=C4)C=C3)cc1
REMARK SMILES IDX 6 1 5 2 4 3 3 4 1 5 2 6 34 8 35 9 81 10 36 11 80 12 37 13
REMARK SMILES IDX 38 14 39 15 74 16 40 17 79 18 73 19 75 20 41 21 78 22 72 23
REMARK SMILES IDX 71 24 42 26 64 27 49 28 63 29 50 30 53 31 62 32 76 33 51 34
REMARK SMILES IDX 52 35 61 37 77 38 54 39 43 40 44 41 48 42 45 43 47 44 46 45
REMARK SMILES IDX 65 46 66 47 70 48 67 49 69 50 68 51 55 52 56 53 60 54 57 55
REMARK SMILES IDX 59 56 58 57 7 58 8 59 9 61 10 62 11 63 24 64 12 65 23 66
REMARK SMILES IDX 13 67 22 68 14 69 21 70 15 71 16 72 17 73 25 74 26 75 27 76
REMARK SMILES IDX 28 77 29 78 30 79 33 80 31 81 32 82 18 83 19 84 20 85
REMARK H PARENT 3 7 75 25 53 36 7 60
REMARK Flexibility Score: inf
ROOT
ATOM      1  C   UNL     1       7.640  -5.100   3.724  1.00  0.00     0.117 C 
ENDROOT
BRANCH   1   2
ATOM      2  C   UNL     1       8.179  -5.089   2.291  1.00  0.00     0.042 C 
BRANCH   2   3
ATOM      3  C   UNL     1       9.675  -4.771   2.169  1.00  0.00     0.118 C 
BRANCH   3   4
ATOM      4  N   UNL     1      10.572  -5.696   2.836  1.00  0.00    -0.352 N 
ATOM      5  O   UNL     1      11.944  -7.399   3.224  1.00  0.00    -0.269 OA
ATOM      6  C   UNL     1      11.035  -6.946   2.527  1.00  0.00     0.251 C 
ATOM      7  H   UNL     1      10.922  -5.352   3.689  1.00  0.00     0.163 HD
BRANCH   6   8
ATOM      8  C   UNL     1      10.429  -7.812   1.487  1.00  0.00     0.039 A 
ATOM      9  C   UNL     1       9.706  -7.358   0.385  1.00  0.00     0.014 A 
ATOM     10  C   UNL     1      10.580  -9.196   1.681  1.00  0.00     0.014 A 
ATOM     11  C   UNL     1       9.016  -8.258  -0.416  1.00  0.00     0.010 A 
ATOM     12  C   UNL     1       9.926 -10.104   0.861  1.00  0.00     0.010 A 
ATOM     13  C   UNL     1       9.104  -9.628  -0.155  1.00  0.00    -0.014 A 
BRANCH  13  14
ATOM     14  C   UNL     1       8.483 -10.546  -1.101  1.00  0.00     0.031 A 
ATOM     15  C   UNL     1       9.093 -10.505  -2.460  1.00  0.00     0.074 A 
ATOM     16  C   UNL     1       7.551 -11.458  -0.760  1.00  0.00     0.049 A 
ATOM     17  N   UNL     1       8.529 -10.169  -3.573  1.00  0.00    -0.248 NA
ATOM     18  C   UNL     1      10.543 -10.743  -2.571  1.00  0.00     0.031 C 
ATOM     19  C   UNL     1       7.071 -11.803   0.579  1.00  0.00     0.029 A 
ATOM     20  N   UNL     1       6.914 -12.364  -1.554  1.00  0.00    -0.354 N 
ATOM     21  C   UNL     1       9.503 -10.318  -4.558  1.00  0.00     0.074 A 
ATOM     22  C   UNL     1      10.751 -10.531  -3.870  1.00  0.00     0.031 C 
ATOM     23  C   UNL     1       6.423 -12.990   0.527  1.00  0.00     0.029 A 
ATOM     24  C   UNL     1       6.325 -13.415  -0.860  1.00  0.00     0.049 A 
ATOM     25  H   UNL     1       6.875 -12.282  -2.534  1.00  0.00     0.167 HD
ATOM     26  C   UNL     1       9.178 -10.482  -5.869  1.00  0.00     0.031 A 
ATOM     27  C   UNL     1       5.856 -14.575  -1.387  1.00  0.00     0.031 A 
ATOM     28  C   UNL     1       7.815 -10.112  -6.134  1.00  0.00     0.049 A 
ATOM     29  C   UNL     1       5.652 -14.361  -2.837  1.00  0.00     0.074 A 
ATOM     30  C   UNL     1       7.082  -8.947  -6.045  1.00  0.00     0.029 A 
ATOM     31  N   UNL     1       6.900 -11.133  -6.216  1.00  0.00    -0.354 N 
ATOM     32  N   UNL     1       4.732 -13.580  -3.323  1.00  0.00    -0.248 NA
ATOM     33  C   UNL     1       6.756 -14.663  -3.734  1.00  0.00     0.031 C 
ATOM     34  C   UNL     1       5.796  -9.361  -5.589  1.00  0.00     0.029 A 
ATOM     35  C   UNL     1       5.800 -10.754  -5.495  1.00  0.00     0.049 A 
ATOM     36  H   UNL     1       7.014 -11.981  -6.703  1.00  0.00     0.167 HD
ATOM     37  C   UNL     1       5.349 -12.934  -4.383  1.00  0.00     0.074 A 
ATOM     38  C   UNL     1       6.559 -13.711  -4.650  1.00  0.00     0.031 C 
ATOM     39  C   UNL     1       4.972 -11.674  -4.751  1.00  0.00     0.031 A 
BRANCH  26  40
ATOM     40  C   UNL     1       9.949 -11.371  -6.813  1.00  0.00    -0.014 A 
ATOM     41  C   UNL     1       9.540 -11.442  -8.157  1.00  0.00     0.009 A 
ATOM     42  C   UNL     1      10.848 -12.360  -6.371  1.00  0.00     0.009 A 
ATOM     43  C   UNL     1       9.942 -12.496  -8.986  1.00  0.00     0.001 A 
ATOM     44  C   UNL     1      11.284 -13.390  -7.208  1.00  0.00     0.001 A 
ATOM     45  C   UNL     1      10.806 -13.475  -8.507  1.00  0.00     0.000 A 
ENDBRANCH  26  40
BRANCH  27  46
ATOM     46  C   UNL     1       5.849 -15.934  -0.798  1.00  0.00    -0.014 A 
ATOM     47  C   UNL     1       5.052 -16.954  -1.345  1.00  0.00     0.009 A 
ATOM     48  C   UNL     1       6.844 -16.307   0.124  1.00  0.00     0.009 A 
ATOM     49  C   UNL     1       5.271 -18.299  -1.011  1.00  0.00     0.001 A 
ATOM     50  C   UNL     1       7.060 -17.649   0.459  1.00  0.00     0.001 A 
ATOM     51  C   UNL     1       6.284 -18.646  -0.121  1.00  0.00     0.000 A 
ENDBRANCH  27  46
BRANCH  39  52
ATOM     52  C   UNL     1       3.719 -11.102  -4.137  1.00  0.00    -0.014 A 
ATOM     53  C   UNL     1       3.560 -10.894  -2.755  1.00  0.00     0.009 A 
ATOM     54  C   UNL     1       2.728 -10.617  -5.002  1.00  0.00     0.009 A 
ATOM     55  C   UNL     1       2.426 -10.244  -2.256  1.00  0.00     0.001 A 
ATOM     56  C   UNL     1       1.607  -9.949  -4.505  1.00  0.00     0.001 A 
ATOM     57  C   UNL     1       1.454  -9.768  -3.133  1.00  0.00     0.000 A 
ENDBRANCH  39  52
ENDBRANCH  13  14
ENDBRANCH   6   8
ENDBRANCH   3   4
ENDBRANCH   2   3
ENDBRANCH   1   2
BRANCH   1  58
ATOM     58  N   UNL     1       7.949  -3.867   4.415  1.00  0.00    -0.354 N 
ATOM     59  C   UNL     1       7.220  -2.724   4.221  1.00  0.00     0.242 C 
ATOM     60  H   UNL     1       8.707  -3.849   5.044  1.00  0.00     0.163 HD
ATOM     61  O   UNL     1       7.688  -1.881   3.459  1.00  0.00    -0.273 OA
BRANCH  59  62
ATOM     62  C   UNL     1       5.820  -2.663   4.855  1.00  0.00     0.175 C 
ATOM     63  C   UNL     1       5.587  -3.543   6.086  1.00  0.00     0.044 C 
ATOM     64  N   UNL     1       5.107  -1.445   5.265  1.00  0.00    -0.330 N 
ATOM     65  C   UNL     1       4.111  -3.255   6.478  1.00  0.00    -0.006 C 
ATOM     66  C   UNL     1       3.808  -1.901   5.769  1.00  0.00     0.127 C 
ATOM     67  C   UNL     1       3.915  -3.103   8.000  1.00  0.00     0.030 C 
ATOM     68  C   UNL     1       3.202  -4.396   5.981  1.00  0.00     0.030 C 
ATOM     69  C   UNL     1       4.072  -4.412   8.771  1.00  0.00     0.120 C 
ATOM     70  C   UNL     1       3.418  -5.688   6.779  1.00  0.00     0.120 C 
ATOM     71  N   UNL     1       3.234  -5.472   8.215  1.00  0.00    -0.342 N 
ATOM     72  C   UNL     1       2.390  -6.358   8.888  1.00  0.00     0.225 C 
ATOM     73  O   UNL     1       1.832  -7.275   8.270  1.00  0.00    -0.275 OA
BRANCH  64  74
ATOM     74  C   UNL     1       5.606  -0.264   5.802  1.00  0.00     0.225 C 
ATOM     75  O   UNL     1       4.905   0.459   6.521  1.00  0.00    -0.275 OA
BRANCH  74  76
ATOM     76  C   UNL     1       6.977   0.262   5.435  1.00  0.00     0.124 C 
BRANCH  76  77
ATOM     77  C   UNL     1       8.017   0.161   6.542  1.00  0.00     0.154 C 
BRANCH  77  78
ATOM     78  N   UNL     1       8.424  -1.171   6.938  1.00  0.00    -0.272 N 
ATOM     79  C   UNL     1       9.449  -1.913   6.416  1.00  0.00     0.108 A 
ATOM     80  N   UNL     1       7.868  -1.745   8.022  1.00  0.00    -0.182 NA
ATOM     81  C   UNL     1       9.508  -3.069   7.162  1.00  0.00     0.042 A 
ATOM     82  C   UNL     1       8.526  -2.900   8.151  1.00  0.00     0.135 A 
ENDBRANCH  77  78
ENDBRANCH  76  77
ENDBRANCH  74  76
ENDBRANCH  64  74
BRANCH  72  83
ATOM     83  C   UNL     1       2.041  -6.295  10.338  1.00  0.00     0.079 C 
ATOM     84  C   UNL     1       2.780  -5.718  11.509  1.00  0.00     0.014 C 
ATOM     85  C   UNL     1       1.561  -5.013  10.972  1.00  0.00     0.014 C 
ENDBRANCH  72  83
ENDBRANCH  59  62
ENDBRANCH   1  58
TORSDOF 15
