REMARK SMILES O=C(NCCCNC(=O)c1cccc(N2CCCCC2)n1)c1ccc(-c2c3nc(c(-c4ccccc4)c4ccc([nH]4)c(-c4ccccc4)c4nc(c(-c5ccccc5)c5ccc2[nH]5)C=C4)C=C3)cc1
REMARK SMILES IDX 4 1 3 2 1 3 2 4 22 6 23 7 69 8 24 9 68 10 25 11 26 12 27 13
REMARK SMILES IDX 62 14 28 15 67 16 61 17 63 18 29 19 66 20 60 21 59 22 30 24
REMARK SMILES IDX 52 25 37 26 51 27 38 28 41 29 50 30 64 31 39 32 40 33 49 35
REMARK SMILES IDX 65 36 42 37 31 38 32 39 36 40 33 41 35 42 34 43 53 44 54 45
REMARK SMILES IDX 58 46 55 47 57 48 56 49 43 50 44 51 48 52 45 53 47 54 46 55
REMARK SMILES IDX 5 56 6 57 7 58 8 59 9 61 10 62 11 63 21 64 12 65 14 66 13 67
REMARK SMILES IDX 15 68 16 69 20 70 17 71 19 72 18 73
REMARK H PARENT 3 5 63 23 41 34 7 60
REMARK Flexibility Score: inf
ROOT
ATOM      1  C   UNL     1       4.490   1.237   0.483  1.00  0.00     0.118 C 
ENDROOT
BRANCH   1   2
ATOM      2  N   UNL     1       3.056   0.970   0.471  1.00  0.00    -0.352 N 
ATOM      3  O   UNL     1       1.135  -0.035  -0.142  1.00  0.00    -0.269 OA
ATOM      4  C   UNL     1       2.360  -0.087  -0.061  1.00  0.00     0.251 C 
ATOM      5  H   UNL     1       2.502   1.653   0.914  1.00  0.00     0.163 HD
BRANCH   4   6
ATOM      6  C   UNL     1       3.080  -1.281  -0.549  1.00  0.00     0.039 A 
ATOM      7  C   UNL     1       4.156  -1.801   0.171  1.00  0.00     0.014 A 
ATOM      8  C   UNL     1       2.656  -1.910  -1.724  1.00  0.00     0.014 A 
ATOM      9  C   UNL     1       4.904  -2.842  -0.358  1.00  0.00     0.010 A 
ATOM     10  C   UNL     1       3.343  -3.032  -2.199  1.00  0.00     0.010 A 
ATOM     11  C   UNL     1       4.485  -3.494  -1.528  1.00  0.00    -0.014 A 
BRANCH  11  12
ATOM     12  C   UNL     1       5.196  -4.726  -1.950  1.00  0.00     0.031 A 
ATOM     13  C   UNL     1       5.939  -4.801  -3.253  1.00  0.00     0.074 A 
ATOM     14  C   UNL     1       5.182  -5.781  -1.111  1.00  0.00     0.049 A 
ATOM     15  N   UNL     1       6.627  -5.800  -3.745  1.00  0.00    -0.248 NA
ATOM     16  C   UNL     1       5.905  -3.612  -4.120  1.00  0.00     0.031 C 
ATOM     17  C   UNL     1       4.485  -5.825   0.179  1.00  0.00     0.029 A 
ATOM     18  N   UNL     1       5.785  -7.009  -1.200  1.00  0.00    -0.354 N 
ATOM     19  C   UNL     1       7.091  -5.373  -4.983  1.00  0.00     0.074 A 
ATOM     20  C   UNL     1       6.592  -4.028  -5.177  1.00  0.00     0.031 C 
ATOM     21  C   UNL     1       4.742  -6.993   0.781  1.00  0.00     0.029 A 
ATOM     22  C   UNL     1       5.554  -7.811  -0.109  1.00  0.00     0.049 A 
ATOM     23  H   UNL     1       6.330  -7.288  -1.970  1.00  0.00     0.167 HD
ATOM     24  C   UNL     1       7.861  -6.045  -5.871  1.00  0.00     0.031 A 
ATOM     25  C   UNL     1       5.928  -9.079   0.140  1.00  0.00     0.031 A 
ATOM     26  C   UNL     1       8.357  -7.383  -5.667  1.00  0.00     0.049 A 
ATOM     27  C   UNL     1       6.746  -9.805  -0.885  1.00  0.00     0.074 A 
ATOM     28  C   UNL     1       9.183  -8.128  -6.491  1.00  0.00     0.029 A 
ATOM     29  N   UNL     1       8.066  -8.177  -4.569  1.00  0.00    -0.354 N 
ATOM     30  N   UNL     1       7.219  -9.365  -2.025  1.00  0.00    -0.248 NA
ATOM     31  C   UNL     1       7.080 -11.204  -0.589  1.00  0.00     0.031 C 
ATOM     32  C   UNL     1       9.340  -9.396  -5.922  1.00  0.00     0.029 A 
ATOM     33  C   UNL     1       8.665  -9.418  -4.713  1.00  0.00     0.049 A 
ATOM     34  H   UNL     1       7.516  -7.900  -3.800  1.00  0.00     0.167 HD
ATOM     35  C   UNL     1       7.919 -10.428  -2.576  1.00  0.00     0.074 A 
ATOM     36  C   UNL     1       7.835 -11.522  -1.630  1.00  0.00     0.031 C 
ATOM     37  C   UNL     1       8.566 -10.496  -3.764  1.00  0.00     0.031 A 
BRANCH  24  38
ATOM     38  C   UNL     1       8.204  -5.366  -7.168  1.00  0.00    -0.014 A 
ATOM     39  C   UNL     1       9.143  -4.325  -7.224  1.00  0.00     0.009 A 
ATOM     40  C   UNL     1       7.646  -5.843  -8.367  1.00  0.00     0.009 A 
ATOM     41  C   UNL     1       9.506  -3.767  -8.453  1.00  0.00     0.001 A 
ATOM     42  C   UNL     1       8.029  -5.300  -9.594  1.00  0.00     0.001 A 
ATOM     43  C   UNL     1       8.956  -4.260  -9.636  1.00  0.00     0.000 A 
ENDBRANCH  24  38
BRANCH  25  44
ATOM     44  C   UNL     1       5.491  -9.754   1.390  1.00  0.00    -0.014 A 
ATOM     45  C   UNL     1       6.423 -10.131   2.368  1.00  0.00     0.009 A 
ATOM     46  C   UNL     1       4.132 -10.042   1.600  1.00  0.00     0.009 A 
ATOM     47  C   UNL     1       6.006 -10.814   3.513  1.00  0.00     0.001 A 
ATOM     48  C   UNL     1       3.715 -10.691   2.762  1.00  0.00     0.001 A 
ATOM     49  C   UNL     1       4.654 -11.089   3.711  1.00  0.00     0.000 A 
ENDBRANCH  25  44
BRANCH  37  50
ATOM     50  C   UNL     1       9.254 -11.791  -4.088  1.00  0.00    -0.014 A 
ATOM     51  C   UNL     1       8.519 -12.943  -4.410  1.00  0.00     0.009 A 
ATOM     52  C   UNL     1      10.656 -11.854  -4.089  1.00  0.00     0.009 A 
ATOM     53  C   UNL     1       9.176 -14.143  -4.688  1.00  0.00     0.001 A 
ATOM     54  C   UNL     1      11.310 -13.046  -4.399  1.00  0.00     0.001 A 
ATOM     55  C   UNL     1      10.570 -14.192  -4.687  1.00  0.00     0.000 A 
ENDBRANCH  37  50
ENDBRANCH  11  12
ENDBRANCH   4   6
ENDBRANCH   1   2
BRANCH   1  56
ATOM     56  C   UNL     1       4.869   2.430  -0.380  1.00  0.00     0.042 C 
BRANCH  56  57
ATOM     57  C   UNL     1       4.333   3.749   0.150  1.00  0.00     0.118 C 
BRANCH  57  58
ATOM     58  N   UNL     1       4.920   4.096   1.435  1.00  0.00    -0.351 N 
ATOM     59  C   UNL     1       5.856   5.066   1.725  1.00  0.00     0.269 C 
ATOM     60  H   UNL     1       4.606   3.566   2.203  1.00  0.00     0.163 HD
ATOM     61  O   UNL     1       6.366   5.091   2.842  1.00  0.00    -0.268 OA
BRANCH  59  62
ATOM     62  C   UNL     1       6.190   6.091   0.699  1.00  0.00     0.130 A 
ATOM     63  C   UNL     1       5.159   6.838   0.140  1.00  0.00     0.034 A 
ATOM     64  N   UNL     1       7.501   6.230   0.376  1.00  0.00    -0.226 NA
ATOM     65  C   UNL     1       5.484   7.739  -0.855  1.00  0.00     0.006 A 
ATOM     66  C   UNL     1       7.821   7.168  -0.536  1.00  0.00     0.129 A 
ATOM     67  C   UNL     1       6.824   7.904  -1.188  1.00  0.00     0.047 A 
BRANCH  66  68
ATOM     68  N   UNL     1       9.149   7.397  -0.850  1.00  0.00    -0.357 N 
ATOM     69  C   UNL     1      10.114   6.306  -0.759  1.00  0.00     0.118 C 
ATOM     70  C   UNL     1       9.659   8.765  -0.799  1.00  0.00     0.118 C 
ATOM     71  C   UNL     1      11.067   6.494   0.419  1.00  0.00     0.022 C 
ATOM     72  C   UNL     1      10.573   8.948   0.413  1.00  0.00     0.022 C 
ATOM     73  C   UNL     1      11.676   7.894   0.427  1.00  0.00     0.004 C 
ENDBRANCH  66  68
ENDBRANCH  59  62
ENDBRANCH  57  58
ENDBRANCH  56  57
ENDBRANCH   1  56
TORSDOF 11
