REMARK SMILES CC1(C)[C@H](C(=O)Nc2ccc(NC(=O)C[NH+]3CCCCC3)cc2)[C@@H]1C(=O)NCCCNC(=O)c1ccc(-c2c3nc(c(-c4ccccc4)c4ccc([nH]4)c(-c4ccccc4)c4nc(c(-c5ccccc5)c5ccc2[nH]5)C=C4)C=C3)cc1
REMARK SMILES IDX 25 1 26 2 27 3 24 5 1 6 2 7 3 8 4 9 5 10 6 11 7 12 8 14 9 15
REMARK SMILES IDX 23 16 10 17 22 18 11 19 12 20 13 21 14 23 15 24 16 25 17 26
REMARK SMILES IDX 21 27 18 29 20 30 19 31 28 32 29 33 30 34 31 35 32 36 33 38
REMARK SMILES IDX 34 39 35 40 81 41 36 42 80 43 37 44 38 45 39 46 74 47 40 48
REMARK SMILES IDX 79 49 73 50 75 51 41 52 78 53 72 54 71 55 42 57 64 58 49 59
REMARK SMILES IDX 63 60 50 61 53 62 62 63 76 64 51 65 52 66 61 68 77 69 54 70
REMARK SMILES IDX 43 71 44 72 48 73 45 74 47 75 46 76 65 77 66 78 70 79 67 80
REMARK SMILES IDX 69 81 68 82 55 83 56 84 60 85 57 86 59 87 58 88
REMARK H PARENT 27 4 7 13 12 22 16 28 31 37 75 56 53 67
REMARK Flexibility Score: inf
ROOT
ATOM      1  C   UNL     1      -1.562   0.640   1.292  1.00  0.00     0.224 C 
ATOM      2  O   UNL     1      -0.937   0.954   2.293  1.00  0.00    -0.275 OA
ATOM      3  N   UNL     1      -2.823   1.135   1.095  1.00  0.00    -0.356 N 
ATOM      4  H   UNL     1      -3.165   1.730   1.802  1.00  0.00     0.163 HD
ENDROOT
BRANCH   1   5
ATOM      5  C   UNL     1      -1.063  -0.389   0.360  1.00  0.00     0.098 C 
ATOM      6  C   UNL     1       0.973  -1.920  -0.177  1.00  0.00     0.013 C 
ATOM      7  C   UNL     1       0.406  -0.516  -0.064  1.00  0.00    -0.011 C 
ATOM      8  C   UNL     1       1.444   0.454   0.408  1.00  0.00     0.013 C 
ATOM      9  C   UNL     1      -0.666  -0.179  -1.077  1.00  0.00     0.098 C 
BRANCH   9  10
ATOM     10  C   UNL     1      -0.945   0.988  -1.967  1.00  0.00     0.228 C 
ATOM     11  O   UNL     1      -1.299   0.703  -3.116  1.00  0.00    -0.274 OA
ATOM     12  N   UNL     1      -1.097   2.307  -1.628  1.00  0.00    -0.326 N 
ATOM     13  H   UNL     1      -1.717   2.795  -2.217  1.00  0.00     0.169 HD
BRANCH  12  14
ATOM     14  C   UNL     1      -0.553   3.092  -0.624  1.00  0.00     0.041 A 
ATOM     15  C   UNL     1      -1.420   3.802   0.194  1.00  0.00     0.028 A 
ATOM     16  C   UNL     1       0.815   3.285  -0.502  1.00  0.00     0.028 A 
ATOM     17  C   UNL     1      -0.922   4.503   1.289  1.00  0.00     0.028 A 
ATOM     18  C   UNL     1       1.315   4.042   0.566  1.00  0.00     0.028 A 
ATOM     19  C   UNL     1       0.448   4.639   1.487  1.00  0.00     0.041 A 
BRANCH  19  20
ATOM     20  N   UNL     1       1.025   5.302   2.583  1.00  0.00    -0.321 N 
ATOM     21  C   UNL     1       0.546   6.251   3.449  1.00  0.00     0.279 C 
ATOM     22  H   UNL     1       1.954   5.033   2.765  1.00  0.00     0.170 HD
ATOM     23  O   UNL     1       1.235   6.523   4.441  1.00  0.00    -0.268 OA
BRANCH  21  24
ATOM     24  C   UNL     1      -0.772   7.001   3.204  1.00  0.00     0.363 C 
BRANCH  24  25
ATOM     25  N   UNL     1      -0.846   7.486   1.817  1.00  0.00    -0.327 N 
ATOM     26  C   UNL     1      -2.212   7.733   1.359  1.00  0.00     0.262 C 
ATOM     27  C   UNL     1       0.021   8.643   1.578  1.00  0.00     0.262 C 
ATOM     28  H   UNL     1      -0.489   6.718   1.247  1.00  0.00     0.348 HD
ATOM     29  C   UNL     1      -2.199   7.943  -0.156  1.00  0.00     0.062 C 
ATOM     30  C   UNL     1       0.099   8.938   0.079  1.00  0.00     0.062 C 
ATOM     31  C   UNL     1      -1.286   9.102  -0.541  1.00  0.00     0.012 C 
ENDBRANCH  24  25
ENDBRANCH  21  24
ENDBRANCH  19  20
ENDBRANCH  12  14
ENDBRANCH   9  10
ENDBRANCH   1   5
BRANCH   3  32
ATOM     32  C   UNL     1      -3.721   0.900  -0.018  1.00  0.00     0.117 C 
BRANCH  32  33
ATOM     33  C   UNL     1      -5.178   0.834   0.407  1.00  0.00     0.042 C 
BRANCH  33  34
ATOM     34  C   UNL     1      -5.701   2.092   1.089  1.00  0.00     0.118 C 
BRANCH  34  35
ATOM     35  N   UNL     1      -5.712   3.272   0.233  1.00  0.00    -0.352 N 
ATOM     36  C   UNL     1      -6.757   4.025  -0.248  1.00  0.00     0.251 C 
ATOM     37  H   UNL     1      -4.821   3.582  -0.049  1.00  0.00     0.163 HD
ATOM     38  O   UNL     1      -6.535   4.934  -1.043  1.00  0.00    -0.269 OA
BRANCH  36  39
ATOM     39  C   UNL     1      -8.148   3.720   0.151  1.00  0.00     0.039 A 
ATOM     40  C   UNL     1      -9.144   3.704  -0.830  1.00  0.00     0.014 A 
ATOM     41  C   UNL     1      -8.472   3.424   1.475  1.00  0.00     0.014 A 
ATOM     42  C   UNL     1     -10.436   3.289  -0.500  1.00  0.00     0.010 A 
ATOM     43  C   UNL     1      -9.726   2.907   1.780  1.00  0.00     0.010 A 
ATOM     44  C   UNL     1     -10.722   2.830   0.796  1.00  0.00    -0.014 A 
BRANCH  44  45
ATOM     45  C   UNL     1     -12.045   2.249   1.141  1.00  0.00     0.031 A 
ATOM     46  C   UNL     1     -12.890   2.867   2.222  1.00  0.00     0.074 A 
ATOM     47  C   UNL     1     -12.445   1.105   0.551  1.00  0.00     0.049 A 
ATOM     48  N   UNL     1     -14.030   2.455   2.717  1.00  0.00    -0.248 NA
ATOM     49  C   UNL     1     -12.366   4.087   2.857  1.00  0.00     0.031 C 
ATOM     50  C   UNL     1     -11.691   0.363  -0.463  1.00  0.00     0.029 A 
ATOM     51  N   UNL     1     -13.584   0.359   0.728  1.00  0.00    -0.354 N 
ATOM     52  C   UNL     1     -14.339   3.342   3.740  1.00  0.00     0.074 A 
ATOM     53  C   UNL     1     -13.244   4.283   3.829  1.00  0.00     0.031 C 
ATOM     54  C   UNL     1     -12.400  -0.713  -0.838  1.00  0.00     0.029 A 
ATOM     55  C   UNL     1     -13.637  -0.760  -0.066  1.00  0.00     0.049 A 
ATOM     56  H   UNL     1     -14.294   0.604   1.364  1.00  0.00     0.167 HD
ATOM     57  C   UNL     1     -15.443   3.386   4.523  1.00  0.00     0.031 A 
ATOM     58  C   UNL     1     -14.574  -1.722  -0.162  1.00  0.00     0.031 A 
ATOM     59  C   UNL     1     -16.545   2.468   4.418  1.00  0.00     0.049 A 
ATOM     60  C   UNL     1     -15.806  -1.638   0.693  1.00  0.00     0.074 A 
ATOM     61  C   UNL     1     -17.748   2.482   5.102  1.00  0.00     0.029 A 
ATOM     62  N   UNL     1     -16.576   1.368   3.575  1.00  0.00    -0.354 N 
ATOM     63  N   UNL     1     -16.124  -0.741   1.594  1.00  0.00    -0.248 NA
ATOM     64  C   UNL     1     -16.812  -2.693   0.508  1.00  0.00     0.031 C 
ATOM     65  C   UNL     1     -18.487   1.361   4.709  1.00  0.00     0.029 A 
ATOM     66  C   UNL     1     -17.766   0.679   3.741  1.00  0.00     0.049 A 
ATOM     67  H   UNL     1     -15.858   1.114   2.951  1.00  0.00     0.167 HD
ATOM     68  C   UNL     1     -17.375  -1.110   2.070  1.00  0.00     0.074 A 
ATOM     69  C   UNL     1     -17.764  -2.303   1.345  1.00  0.00     0.031 C 
ATOM     70  C   UNL     1     -18.133  -0.514   3.022  1.00  0.00     0.031 A 
BRANCH  57  71
ATOM     71  C   UNL     1     -15.500   4.464   5.571  1.00  0.00    -0.014 A 
ATOM     72  C   UNL     1     -15.631   5.818   5.221  1.00  0.00     0.009 A 
ATOM     73  C   UNL     1     -15.425   4.119   6.929  1.00  0.00     0.009 A 
ATOM     74  C   UNL     1     -15.635   6.807   6.207  1.00  0.00     0.001 A 
ATOM     75  C   UNL     1     -15.462   5.108   7.914  1.00  0.00     0.001 A 
ATOM     76  C   UNL     1     -15.553   6.451   7.552  1.00  0.00     0.000 A 
ENDBRANCH  57  71
BRANCH  58  77
ATOM     77  C   UNL     1     -14.389  -2.835  -1.129  1.00  0.00    -0.014 A 
ATOM     78  C   UNL     1     -15.143  -2.880  -2.311  1.00  0.00     0.009 A 
ATOM     79  C   UNL     1     -13.440  -3.841  -0.889  1.00  0.00     0.009 A 
ATOM     80  C   UNL     1     -14.961  -3.919  -3.226  1.00  0.00     0.001 A 
ATOM     81  C   UNL     1     -13.242  -4.864  -1.818  1.00  0.00     0.001 A 
ATOM     82  C   UNL     1     -14.007  -4.906  -2.983  1.00  0.00     0.000 A 
ENDBRANCH  58  77
BRANCH  70  83
ATOM     83  C   UNL     1     -19.469  -1.133   3.321  1.00  0.00    -0.014 A 
ATOM     84  C   UNL     1     -19.568  -2.341   4.029  1.00  0.00     0.009 A 
ATOM     85  C   UNL     1     -20.645  -0.477   2.924  1.00  0.00     0.009 A 
ATOM     86  C   UNL     1     -20.820  -2.895   4.304  1.00  0.00     0.001 A 
ATOM     87  C   UNL     1     -21.894  -1.020   3.224  1.00  0.00     0.001 A 
ATOM     88  C   UNL     1     -21.981  -2.233   3.906  1.00  0.00     0.000 A 
ENDBRANCH  70  83
ENDBRANCH  44  45
ENDBRANCH  36  39
ENDBRANCH  34  35
ENDBRANCH  33  34
ENDBRANCH  32  33
ENDBRANCH   3  32
TORSDOF 15
