REMARK SMILES Cc1ccc2nc(C(=O)N3CCC4(CC3)[C@H](C(=O)NCCCNC(=O)c3ccc(-c5c6nc(c(-c7ccccc7)c7ccc([nH]7)c(-c7ccccc7)c7nc(c(-c8ccccc8)c8ccc5[nH]8)C=C7)C=C6)cc3)CC(=O)N4C)cn2c1
REMARK SMILES IDX 21 1 20 2 19 3 17 4 18 5 16 7 8 8 9 9 10 10 11 11 15 12
REMARK SMILES IDX 12 13 14 14 13 15 77 16 74 17 75 18 78 19 76 20 7 21 1 22
REMARK SMILES IDX 2 23 3 24 81 25 4 26 80 27 5 28 79 29 6 30 22 31 23 32 24 33
REMARK SMILES IDX 25 35 26 36 27 37 73 38 28 39 72 40 29 41 30 42 31 43 66 44
REMARK SMILES IDX 32 45 71 46 65 47 67 48 33 49 70 50 64 51 63 52 34 54 56 55
REMARK SMILES IDX 41 56 55 57 42 58 45 59 54 60 68 61 43 62 44 63 53 65 69 66
REMARK SMILES IDX 46 67 35 68 36 69 40 70 37 71 39 72 38 73 57 74 58 75 62 76
REMARK SMILES IDX 59 77 61 78 60 79 47 80 48 81 52 82 49 83 51 84 50 85
REMARK H PARENT 19 6 23 34 67 53 45 64
REMARK Flexibility Score: inf
ROOT
ATOM      1  C   UNL     1      -4.971   6.953   9.205  1.00  0.00     0.042 C 
ENDROOT
BRANCH   1   2
ATOM      2  C   UNL     1      -5.170   5.606   9.915  1.00  0.00     0.117 C 
BRANCH   2   3
ATOM      3  N   UNL     1      -5.387   4.462   9.039  1.00  0.00    -0.356 N 
ATOM      4  C   UNL     1      -4.700   3.321   8.777  1.00  0.00     0.226 C 
ATOM      5  O   UNL     1      -5.271   2.511   8.035  1.00  0.00    -0.275 OA
ATOM      6  H   UNL     1      -6.221   4.533   8.519  1.00  0.00     0.163 HD
BRANCH   4   7
ATOM      7  C   UNL     1      -3.303   2.977   9.302  1.00  0.00     0.113 C 
ATOM      8  C   UNL     1       0.044   4.941   5.347  1.00  0.00     0.274 C 
ATOM      9  O   UNL     1       0.086   6.049   4.841  1.00  0.00    -0.267 OA
ATOM     10  N   UNL     1      -0.363   4.756   6.671  1.00  0.00    -0.337 N 
ATOM     11  C   UNL     1      -1.395   5.636   7.142  1.00  0.00     0.122 C 
ATOM     12  C   UNL     1       0.174   3.770   7.605  1.00  0.00     0.122 C 
ATOM     13  C   UNL     1      -2.512   4.779   7.693  1.00  0.00     0.051 C 
ATOM     14  C   UNL     1      -0.911   3.007   8.388  1.00  0.00     0.051 C 
ATOM     15  C   UNL     1      -2.107   3.885   8.875  1.00  0.00     0.058 C 
ATOM     16  N   UNL     1      -1.786   4.559  10.151  1.00  0.00    -0.339 N 
ATOM     17  C   UNL     1      -3.267   2.856  10.819  1.00  0.00     0.116 C 
ATOM     18  C   UNL     1      -2.411   3.999  11.259  1.00  0.00     0.223 C 
ATOM     19  C   UNL     1      -0.877   5.672  10.345  1.00  0.00     0.147 C 
ATOM     20  O   UNL     1      -2.302   4.370  12.417  1.00  0.00    -0.275 OA
BRANCH   8  21
ATOM     21  C   UNL     1       0.223   3.730   4.547  1.00  0.00     0.147 A 
ATOM     22  C   UNL     1       0.845  -0.082   0.027  1.00  0.00     0.046 C 
ATOM     23  C   UNL     1       0.560   0.583   1.335  1.00  0.00    -0.034 A 
ATOM     24  C   UNL     1       0.059  -0.225   2.447  1.00  0.00     0.009 A 
ATOM     25  C   UNL     1       0.738   1.903   1.537  1.00  0.00     0.096 A 
ATOM     26  C   UNL     1      -0.199   0.311   3.656  1.00  0.00     0.048 A 
ATOM     27  N   UNL     1       0.482   2.440   2.792  1.00  0.00    -0.306 N 
ATOM     28  C   UNL     1       0.028   1.698   3.874  1.00  0.00     0.137 A 
ATOM     29  C   UNL     1       0.605   3.731   3.219  1.00  0.00     0.127 A 
ATOM     30  N   UNL     1      -0.129   2.448   4.942  1.00  0.00    -0.223 NA
ENDBRANCH   8  21
ENDBRANCH   4   7
ENDBRANCH   2   3
ENDBRANCH   1   2
BRANCH   1  31
ATOM     31  C   UNL     1      -6.053   7.330   8.196  1.00  0.00     0.118 C 
BRANCH  31  32
ATOM     32  N   UNL     1      -7.289   7.754   8.816  1.00  0.00    -0.352 N 
ATOM     33  C   UNL     1      -7.689   8.901   9.450  1.00  0.00     0.251 C 
ATOM     34  H   UNL     1      -7.997   7.071   8.772  1.00  0.00     0.163 HD
ATOM     35  O   UNL     1      -8.871   8.941   9.799  1.00  0.00    -0.269 OA
BRANCH  33  36
ATOM     36  C   UNL     1      -6.807  10.060   9.784  1.00  0.00     0.039 A 
ATOM     37  C   UNL     1      -5.495  10.245   9.351  1.00  0.00     0.014 A 
ATOM     38  C   UNL     1      -7.367  11.045  10.623  1.00  0.00     0.014 A 
ATOM     39  C   UNL     1      -4.744  11.328   9.807  1.00  0.00     0.010 A 
ATOM     40  C   UNL     1      -6.633  12.154  11.049  1.00  0.00     0.010 A 
ATOM     41  C   UNL     1      -5.304  12.284  10.664  1.00  0.00    -0.014 A 
BRANCH  41  42
ATOM     42  C   UNL     1      -4.482  13.457  10.982  1.00  0.00     0.031 A 
ATOM     43  C   UNL     1      -3.971  14.193   9.794  1.00  0.00     0.074 A 
ATOM     44  C   UNL     1      -4.240  13.980  12.201  1.00  0.00     0.049 A 
ATOM     45  N   UNL     1      -2.741  14.331   9.420  1.00  0.00    -0.248 NA
ATOM     46  C   UNL     1      -4.955  14.780   8.873  1.00  0.00     0.031 C 
ATOM     47  C   UNL     1      -4.908  13.650  13.460  1.00  0.00     0.029 A 
ATOM     48  N   UNL     1      -3.394  15.002  12.552  1.00  0.00    -0.354 N 
ATOM     49  C   UNL     1      -2.776  15.185   8.322  1.00  0.00     0.074 A 
ATOM     50  C   UNL     1      -4.160  15.317   7.947  1.00  0.00     0.031 C 
ATOM     51  C   UNL     1      -4.617  14.601  14.378  1.00  0.00     0.029 A 
ATOM     52  C   UNL     1      -3.614  15.499  13.826  1.00  0.00     0.049 A 
ATOM     53  H   UNL     1      -2.694  15.351  11.952  1.00  0.00     0.167 HD
ATOM     54  C   UNL     1      -1.689  15.928   7.978  1.00  0.00     0.031 A 
ATOM     55  C   UNL     1      -3.044  16.585  14.398  1.00  0.00     0.031 A 
ATOM     56  C   UNL     1      -0.485  15.459   8.609  1.00  0.00     0.049 A 
ATOM     57  C   UNL     1      -1.745  16.865  13.751  1.00  0.00     0.074 A 
ATOM     58  C   UNL     1       0.463  14.481   8.412  1.00  0.00     0.029 A 
ATOM     59  N   UNL     1      -0.302  15.953   9.868  1.00  0.00    -0.354 N 
ATOM     60  N   UNL     1      -0.709  16.082  13.840  1.00  0.00    -0.248 NA
ATOM     61  C   UNL     1      -1.624  17.958  12.792  1.00  0.00     0.031 C 
ATOM     62  C   UNL     1       1.151  14.327   9.656  1.00  0.00     0.029 A 
ATOM     63  C   UNL     1       0.615  15.224  10.576  1.00  0.00     0.049 A 
ATOM     64  H   UNL     1      -0.773  16.741  10.224  1.00  0.00     0.167 HD
ATOM     65  C   UNL     1      -0.001  16.323  12.682  1.00  0.00     0.074 A 
ATOM     66  C   UNL     1      -0.492  17.600  12.184  1.00  0.00     0.031 C 
ATOM     67  C   UNL     1       0.633  15.313  12.022  1.00  0.00     0.031 A 
BRANCH  54  68
ATOM     68  C   UNL     1      -1.779  17.364   7.497  1.00  0.00    -0.014 A 
ATOM     69  C   UNL     1      -2.942  18.150   7.604  1.00  0.00     0.009 A 
ATOM     70  C   UNL     1      -0.582  18.052   7.216  1.00  0.00     0.009 A 
ATOM     71  C   UNL     1      -2.915  19.542   7.459  1.00  0.00     0.001 A 
ATOM     72  C   UNL     1      -0.545  19.449   7.107  1.00  0.00     0.001 A 
ATOM     73  C   UNL     1      -1.712  20.194   7.233  1.00  0.00     0.000 A 
ENDBRANCH  54  68
BRANCH  55  74
ATOM     74  C   UNL     1      -3.640  17.543  15.354  1.00  0.00    -0.014 A 
ATOM     75  C   UNL     1      -5.019  17.812  15.310  1.00  0.00     0.009 A 
ATOM     76  C   UNL     1      -2.824  18.408  16.100  1.00  0.00     0.009 A 
ATOM     77  C   UNL     1      -5.556  18.937  15.944  1.00  0.00     0.001 A 
ATOM     78  C   UNL     1      -3.360  19.539  16.728  1.00  0.00     0.001 A 
ATOM     79  C   UNL     1      -4.723  19.811  16.634  1.00  0.00     0.000 A 
ENDBRANCH  55  74
BRANCH  67  80
ATOM     80  C   UNL     1       1.144  14.146  12.813  1.00  0.00    -0.014 A 
ATOM     81  C   UNL     1       2.510  13.836  12.715  1.00  0.00     0.009 A 
ATOM     82  C   UNL     1       0.328  13.316  13.597  1.00  0.00     0.009 A 
ATOM     83  C   UNL     1       3.047  12.730  13.376  1.00  0.00     0.001 A 
ATOM     84  C   UNL     1       0.870  12.223  14.282  1.00  0.00     0.001 A 
ATOM     85  C   UNL     1       2.227  11.927  14.165  1.00  0.00     0.000 A 
ENDBRANCH  67  80
ENDBRANCH  41  42
ENDBRANCH  33  36
ENDBRANCH  31  32
ENDBRANCH   1  31
TORSDOF 11
