REMARK SMILES Cc1ccccc1-c1nc(CC(=O)NCCCNC(=O)c2ccc(-c3c4nc(c(-c5ccccc5)c5ccc([nH]5)c(-c5ccccc5)c5nc(c(-c6ccccc6)c6ccc3[nH]6)C=C5)C=C4)cc2)cs1
REMARK SMILES IDX 16 1 15 2 14 3 12 4 13 5 11 7 10 8 8 9 9 10 70 11 69 12 7 13
REMARK SMILES IDX 1 14 2 15 3 16 4 17 6 18 5 19 17 20 18 21 19 22 20 24 21 25
REMARK SMILES IDX 22 26 68 27 23 28 67 29 24 30 25 31 26 32 61 33 27 34 66 35
REMARK SMILES IDX 60 36 62 37 28 38 65 39 59 40 58 41 29 43 51 44 36 45 50 46
REMARK SMILES IDX 37 47 40 48 49 49 63 50 38 51 39 52 48 54 64 55 41 56 30 57
REMARK SMILES IDX 31 58 35 59 32 60 34 61 33 62 52 63 53 64 57 65 54 66 56 67
REMARK SMILES IDX 55 68 42 69 43 70 47 71 44 72 46 73 45 74
REMARK H PARENT 14 6 18 23 62 42 40 53
REMARK Flexibility Score: inf
ROOT
ATOM      1  C   UNL     1       0.066   4.083  -2.946  1.00  0.00     0.042 C 
ENDROOT
BRANCH   1   2
ATOM      2  C   UNL     1       1.326   4.496  -3.698  1.00  0.00     0.117 C 
BRANCH   2   3
ATOM      3  N   UNL     1       1.894   5.739  -3.191  1.00  0.00    -0.356 N 
ATOM      4  C   UNL     1       2.822   5.914  -2.200  1.00  0.00     0.226 C 
ATOM      5  O   UNL     1       3.128   7.066  -1.881  1.00  0.00    -0.275 OA
ATOM      6  H   UNL     1       1.565   6.563  -3.618  1.00  0.00     0.163 HD
BRANCH   4   7
ATOM      7  C   UNL     1       3.463   4.716  -1.522  1.00  0.00     0.157 C 
BRANCH   7   8
ATOM      8  C   UNL     1       2.547   4.095  -0.522  1.00  0.00     0.061 A 
ATOM      9  C   UNL     1       1.192   2.464   0.150  1.00  0.00     0.123 A 
ATOM     10  N   UNL     1       2.049   2.826  -0.785  1.00  0.00    -0.241 NA
ATOM     11  S   UNL     1       0.996   3.594   1.433  1.00  0.00    -0.122 S 
ATOM     12  C   UNL     1       2.100   4.653   0.660  1.00  0.00     0.091 A 
BRANCH   9  13
ATOM     13  C   UNL     1       0.431   1.209   0.137  1.00  0.00     0.013 A 
ATOM     14  C   UNL     1       2.571  -0.204   0.079  1.00  0.00     0.045 C 
ATOM     15  C   UNL     1       1.074  -0.046   0.095  1.00  0.00    -0.041 A 
ATOM     16  C   UNL     1       0.293  -1.215   0.031  1.00  0.00     0.004 A 
ATOM     17  C   UNL     1      -1.099  -1.150   0.018  1.00  0.00     0.000 A 
ATOM     18  C   UNL     1      -0.977   1.256   0.116  1.00  0.00     0.011 A 
ATOM     19  C   UNL     1      -1.736   0.086   0.060  1.00  0.00     0.001 A 
ENDBRANCH   9  13
ENDBRANCH   7   8
ENDBRANCH   4   7
ENDBRANCH   2   3
ENDBRANCH   1   2
BRANCH   1  20
ATOM     20  C   UNL     1      -1.180   4.853  -3.346  1.00  0.00     0.118 C 
BRANCH  20  21
ATOM     21  N   UNL     1      -1.938   4.266  -4.442  1.00  0.00    -0.352 N 
ATOM     22  C   UNL     1      -3.073   4.737  -5.083  1.00  0.00     0.251 C 
ATOM     23  H   UNL     1      -1.593   3.408  -4.778  1.00  0.00     0.163 HD
ATOM     24  O   UNL     1      -3.596   4.068  -5.960  1.00  0.00    -0.269 OA
BRANCH  22  25
ATOM     25  C   UNL     1      -3.576   6.108  -4.800  1.00  0.00     0.039 A 
ATOM     26  C   UNL     1      -4.009   6.890  -5.881  1.00  0.00     0.014 A 
ATOM     27  C   UNL     1      -3.452   6.682  -3.541  1.00  0.00     0.014 A 
ATOM     28  C   UNL     1      -4.067   8.277  -5.749  1.00  0.00     0.010 A 
ATOM     29  C   UNL     1      -3.387   8.053  -3.439  1.00  0.00     0.010 A 
ATOM     30  C   UNL     1      -3.642   8.853  -4.557  1.00  0.00    -0.014 A 
BRANCH  30  31
ATOM     31  C   UNL     1      -3.298  10.259  -4.392  1.00  0.00     0.031 A 
ATOM     32  C   UNL     1      -4.072  11.123  -3.478  1.00  0.00     0.074 A 
ATOM     33  C   UNL     1      -2.125  10.691  -4.904  1.00  0.00     0.049 A 
ATOM     34  N   UNL     1      -3.976  12.409  -3.438  1.00  0.00    -0.248 NA
ATOM     35  C   UNL     1      -5.072  10.597  -2.554  1.00  0.00     0.031 C 
ATOM     36  C   UNL     1      -1.348  11.858  -4.498  1.00  0.00     0.029 A 
ATOM     37  N   UNL     1      -1.488  10.237  -6.057  1.00  0.00    -0.354 N 
ATOM     38  C   UNL     1      -4.627  12.836  -2.304  1.00  0.00     0.074 A 
ATOM     39  C   UNL     1      -5.375  11.689  -1.847  1.00  0.00     0.031 C 
ATOM     40  C   UNL     1      -0.490  12.175  -5.481  1.00  0.00     0.029 A 
ATOM     41  C   UNL     1      -0.820  11.337  -6.623  1.00  0.00     0.049 A 
ATOM     42  H   UNL     1      -1.502   9.318  -6.410  1.00  0.00     0.167 HD
ATOM     43  C   UNL     1      -4.338  14.067  -1.797  1.00  0.00     0.031 A 
ATOM     44  C   UNL     1      -1.185  11.823  -7.847  1.00  0.00     0.031 A 
ATOM     45  C   UNL     1      -3.441  14.815  -2.677  1.00  0.00     0.049 A 
ATOM     46  C   UNL     1      -1.673  13.256  -7.816  1.00  0.00     0.074 A 
ATOM     47  C   UNL     1      -2.083  15.085  -2.635  1.00  0.00     0.029 A 
ATOM     48  N   UNL     1      -3.873  15.158  -3.953  1.00  0.00    -0.354 N 
ATOM     49  N   UNL     1      -2.105  13.857  -6.743  1.00  0.00    -0.248 NA
ATOM     50  C   UNL     1      -1.744  14.111  -8.998  1.00  0.00     0.031 C 
ATOM     51  C   UNL     1      -1.687  15.536  -3.921  1.00  0.00     0.029 A 
ATOM     52  C   UNL     1      -2.808  15.566  -4.731  1.00  0.00     0.049 A 
ATOM     53  H   UNL     1      -4.808  15.116  -4.259  1.00  0.00     0.167 HD
ATOM     54  C   UNL     1      -2.505  15.129  -7.057  1.00  0.00     0.074 A 
ATOM     55  C   UNL     1      -2.253  15.244  -8.481  1.00  0.00     0.031 C 
ATOM     56  C   UNL     1      -3.021  15.971  -6.114  1.00  0.00     0.031 A 
BRANCH  43  57
ATOM     57  C   UNL     1      -4.639  14.491  -0.376  1.00  0.00    -0.014 A 
ATOM     58  C   UNL     1      -3.885  15.527   0.209  1.00  0.00     0.009 A 
ATOM     59  C   UNL     1      -5.590  13.886   0.462  1.00  0.00     0.009 A 
ATOM     60  C   UNL     1      -4.011  15.874   1.562  1.00  0.00     0.001 A 
ATOM     61  C   UNL     1      -5.705  14.206   1.822  1.00  0.00     0.001 A 
ATOM     62  C   UNL     1      -4.906  15.194   2.376  1.00  0.00     0.000 A 
ENDBRANCH  43  57
BRANCH  44  63
ATOM     63  C   UNL     1      -1.717  10.777  -8.765  1.00  0.00    -0.014 A 
ATOM     64  C   UNL     1      -0.831   9.791  -9.242  1.00  0.00     0.009 A 
ATOM     65  C   UNL     1      -3.097  10.535  -8.844  1.00  0.00     0.009 A 
ATOM     66  C   UNL     1      -1.309   8.552  -9.678  1.00  0.00     0.001 A 
ATOM     67  C   UNL     1      -3.571   9.296  -9.293  1.00  0.00     0.001 A 
ATOM     68  C   UNL     1      -2.678   8.295  -9.675  1.00  0.00     0.000 A 
ENDBRANCH  44  63
BRANCH  56  69
ATOM     69  C   UNL     1      -3.725  17.284  -6.369  1.00  0.00    -0.014 A 
ATOM     70  C   UNL     1      -4.283  17.661  -7.597  1.00  0.00     0.009 A 
ATOM     71  C   UNL     1      -3.972  18.147  -5.275  1.00  0.00     0.009 A 
ATOM     72  C   UNL     1      -5.011  18.853  -7.733  1.00  0.00     0.001 A 
ATOM     73  C   UNL     1      -4.736  19.309  -5.395  1.00  0.00     0.001 A 
ATOM     74  C   UNL     1      -5.247  19.669  -6.631  1.00  0.00     0.000 A 
ENDBRANCH  56  69
ENDBRANCH  30  31
ENDBRANCH  22  25
ENDBRANCH  20  21
ENDBRANCH   1  20
TORSDOF 12
