REMARK SMILES O=C(COCCNC(=O)Nc1cccc(F)c1)NCCCNC(=O)c1ccc(-c2c3nc(c(-c4ccccc4)c4ccc([nH]4)c(-c4ccccc4)c4nc(c(-c5ccccc5)c5ccc2[nH]5)C=C4)C=C3)cc1
REMARK SMILES IDX 1 1 2 2 18 3 3 5 4 6 5 7 6 8 7 9 8 10 9 12 10 13 11 15 12 16
REMARK SMILES IDX 17 17 13 18 15 19 14 20 16 21 19 22 20 23 21 24 22 25 23 26
REMARK SMILES IDX 24 28 25 29 26 30 72 31 27 32 71 33 28 34 29 35 30 36 65 37
REMARK SMILES IDX 31 38 70 39 64 40 66 41 32 42 69 43 63 44 62 45 33 47 55 48
REMARK SMILES IDX 40 49 54 50 41 51 44 52 53 53 67 54 42 55 43 56 52 58 68 59
REMARK SMILES IDX 45 60 34 61 35 62 39 63 36 64 38 65 37 66 56 67 57 68 61 69
REMARK SMILES IDX 58 70 60 71 59 72 46 73 47 74 51 75 48 76 50 77 49 78
REMARK H PARENT 18 4 7 11 10 14 22 27 66 46 44 57
REMARK Flexibility Score: inf
ROOT
ATOM      1  O   UNL     1       1.395  -0.090   1.344  1.00  0.00    -0.272 OA
ATOM      2  C   UNL     1       2.417   0.071   0.686  1.00  0.00     0.245 C 
ATOM      3  N   UNL     1       2.909   1.305   0.316  1.00  0.00    -0.354 N 
ATOM      4  H   UNL     1       3.788   1.351  -0.124  1.00  0.00     0.163 HD
ENDROOT
BRANCH   2   5
ATOM      5  C   UNL     1       3.303  -1.089   0.224  1.00  0.00     0.260 C 
BRANCH   5   6
ATOM      6  O   UNL     1       3.985  -0.880  -1.006  1.00  0.00    -0.370 OA
BRANCH   6   7
ATOM      7  C   UNL     1       3.145  -0.615  -2.133  1.00  0.00     0.182 C 
BRANCH   7   8
ATOM      8  C   UNL     1       2.446  -1.847  -2.707  1.00  0.00     0.146 C 
BRANCH   8   9
ATOM      9  N   UNL     1       1.198  -2.223  -2.044  1.00  0.00    -0.336 N 
ATOM     10  C   UNL     1      -0.101  -1.920  -2.244  1.00  0.00     0.319 C 
ATOM     11  H   UNL     1       1.337  -2.832  -1.284  1.00  0.00     0.165 HD
ATOM     12  O   UNL     1      -0.897  -2.179  -1.339  1.00  0.00    -0.249 OA
ATOM     13  N   UNL     1      -0.547  -1.261  -3.333  1.00  0.00    -0.308 N 
ATOM     14  H   UNL     1      -1.365  -0.735  -3.181  1.00  0.00     0.171 HD
BRANCH  13  15
ATOM     15  C   UNL     1      -0.056  -1.192  -4.640  1.00  0.00     0.045 A 
ATOM     16  C   UNL     1       0.626  -2.254  -5.244  1.00  0.00     0.026 A 
ATOM     17  C   UNL     1      -0.248  -0.003  -5.341  1.00  0.00     0.065 A 
ATOM     18  C   UNL     1       1.258  -2.072  -6.476  1.00  0.00     0.005 A 
ATOM     19  C   UNL     1       0.390   0.170  -6.563  1.00  0.00     0.125 A 
ATOM     20  C   UNL     1       1.164  -0.842  -7.123  1.00  0.00     0.039 A 
ATOM     21  F   UNL     1       0.295   1.349  -7.190  1.00  0.00    -0.207 F 
ENDBRANCH  13  15
ENDBRANCH   8   9
ENDBRANCH   7   8
ENDBRANCH   6   7
ENDBRANCH   5   6
ENDBRANCH   2   5
BRANCH   3  22
ATOM     22  C   UNL     1       2.186   2.531   0.550  1.00  0.00     0.117 C 
BRANCH  22  23
ATOM     23  C   UNL     1       2.447   3.104   1.934  1.00  0.00     0.042 C 
BRANCH  23  24
ATOM     24  C   UNL     1       3.920   3.369   2.225  1.00  0.00     0.118 C 
BRANCH  24  25
ATOM     25  N   UNL     1       4.507   4.375   1.350  1.00  0.00    -0.352 N 
ATOM     26  C   UNL     1       5.247   5.488   1.664  1.00  0.00     0.251 C 
ATOM     27  H   UNL     1       4.350   4.235   0.388  1.00  0.00     0.163 HD
ATOM     28  O   UNL     1       5.551   6.286   0.781  1.00  0.00    -0.269 OA
BRANCH  26  29
ATOM     29  C   UNL     1       5.652   5.749   3.062  1.00  0.00     0.039 A 
ATOM     30  C   UNL     1       5.529   7.048   3.562  1.00  0.00     0.014 A 
ATOM     31  C   UNL     1       6.160   4.732   3.875  1.00  0.00     0.014 A 
ATOM     32  C   UNL     1       5.851   7.313   4.895  1.00  0.00     0.010 A 
ATOM     33  C   UNL     1       6.411   4.981   5.222  1.00  0.00     0.010 A 
ATOM     34  C   UNL     1       6.262   6.274   5.746  1.00  0.00    -0.014 A 
BRANCH  34  35
ATOM     35  C   UNL     1       6.533   6.524   7.184  1.00  0.00     0.031 A 
ATOM     36  C   UNL     1       7.918   6.339   7.741  1.00  0.00     0.074 A 
ATOM     37  C   UNL     1       5.520   6.866   8.004  1.00  0.00     0.049 A 
ATOM     38  N   UNL     1       8.335   6.472   8.975  1.00  0.00    -0.248 NA
ATOM     39  C   UNL     1       8.966   5.930   6.793  1.00  0.00     0.031 C 
ATOM     40  C   UNL     1       4.122   7.038   7.600  1.00  0.00     0.029 A 
ATOM     41  N   UNL     1       5.510   7.126   9.351  1.00  0.00    -0.354 N 
ATOM     42  C   UNL     1       9.686   6.148   8.954  1.00  0.00     0.074 A 
ATOM     43  C   UNL     1      10.007   5.766   7.596  1.00  0.00     0.031 C 
ATOM     44  C   UNL     1       3.398   7.403   8.670  1.00  0.00     0.029 A 
ATOM     45  C   UNL     1       4.269   7.454   9.840  1.00  0.00     0.049 A 
ATOM     46  H   UNL     1       6.317   7.082   9.914  1.00  0.00     0.167 HD
ATOM     47  C   UNL     1      10.584   6.181   9.967  1.00  0.00     0.031 A 
ATOM     48  C   UNL     1       3.874   7.759  11.090  1.00  0.00     0.031 A 
ATOM     49  C   UNL     1      10.271   6.570  11.317  1.00  0.00     0.049 A 
ATOM     50  C   UNL     1       4.888   7.784  12.198  1.00  0.00     0.074 A 
ATOM     51  C   UNL     1      11.124   6.687  12.400  1.00  0.00     0.029 A 
ATOM     52  N   UNL     1       9.004   6.904  11.768  1.00  0.00    -0.354 N 
ATOM     53  N   UNL     1       6.175   7.539  12.147  1.00  0.00    -0.248 NA
ATOM     54  C   UNL     1       4.395   8.142  13.536  1.00  0.00     0.031 C 
ATOM     55  C   UNL     1      10.365   7.047  13.519  1.00  0.00     0.029 A 
ATOM     56  C   UNL     1       9.048   7.207  13.119  1.00  0.00     0.049 A 
ATOM     57  H   UNL     1       8.192   6.922  11.211  1.00  0.00     0.167 HD
ATOM     58  C   UNL     1       6.650   7.741  13.436  1.00  0.00     0.074 A 
ATOM     59  C   UNL     1       5.516   8.144  14.243  1.00  0.00     0.031 C 
ATOM     60  C   UNL     1       7.913   7.606  13.909  1.00  0.00     0.031 A 
BRANCH  47  61
ATOM     61  C   UNL     1      11.997   5.778   9.651  1.00  0.00    -0.014 A 
ATOM     62  C   UNL     1      12.826   6.591   8.860  1.00  0.00     0.009 A 
ATOM     63  C   UNL     1      12.519   4.586  10.176  1.00  0.00     0.009 A 
ATOM     64  C   UNL     1      14.134   6.199   8.571  1.00  0.00     0.001 A 
ATOM     65  C   UNL     1      13.837   4.211   9.909  1.00  0.00     0.001 A 
ATOM     66  C   UNL     1      14.640   5.012   9.099  1.00  0.00     0.000 A 
ENDBRANCH  47  61
BRANCH  48  67
ATOM     67  C   UNL     1       2.451   8.089  11.361  1.00  0.00    -0.014 A 
ATOM     68  C   UNL     1       2.072   9.405  11.668  1.00  0.00     0.009 A 
ATOM     69  C   UNL     1       1.465   7.090  11.323  1.00  0.00     0.009 A 
ATOM     70  C   UNL     1       0.741   9.709  11.959  1.00  0.00     0.001 A 
ATOM     71  C   UNL     1       0.130   7.403  11.587  1.00  0.00     0.001 A 
ATOM     72  C   UNL     1      -0.229   8.709  11.914  1.00  0.00     0.000 A 
ENDBRANCH  48  67
BRANCH  60  73
ATOM     73  C   UNL     1       8.141   7.934  15.358  1.00  0.00    -0.014 A 
ATOM     74  C   UNL     1       7.678   7.091  16.380  1.00  0.00     0.009 A 
ATOM     75  C   UNL     1       8.854   9.094  15.702  1.00  0.00     0.009 A 
ATOM     76  C   UNL     1       7.894   7.423  17.719  1.00  0.00     0.001 A 
ATOM     77  C   UNL     1       9.093   9.407  17.040  1.00  0.00     0.001 A 
ATOM     78  C   UNL     1       8.604   8.578  18.048  1.00  0.00     0.000 A 
ENDBRANCH  60  73
ENDBRANCH  34  35
ENDBRANCH  26  29
ENDBRANCH  24  25
ENDBRANCH  23  24
ENDBRANCH  22  23
ENDBRANCH   3  22
TORSDOF 15
