REMARK SMILES COC(=O)c1c(-c2ccccc2Cl)csc1NC(=O)[C@@H]1[C@@H]2CC[C@@H](C2)[C@@H]1C(=O)NCCCNC(=O)c1ccc(-c2c3nc(c(-c4ccccc4)c4ccc([nH]4)c(-c4ccccc4)c4nc(c(-c5ccccc5)c5ccc2[nH]5)C=C4)C=C3)cc1
REMARK SMILES IDX 30 1 29 2 27 3 28 4 26 6 20 7 21 8 22 9 25 10 24 11 23 12
REMARK SMILES IDX 18 13 17 14 19 16 16 17 5 18 6 19 14 20 15 21 3 22 4 23 2 24
REMARK SMILES IDX 1 25 7 26 8 27 12 28 9 29 11 30 13 31 10 32 31 33 32 34
REMARK SMILES IDX 33 35 34 36 35 38 36 39 37 40 83 41 38 42 82 43 39 44 40 45
REMARK SMILES IDX 41 46 76 47 42 48 81 49 75 50 77 51 43 52 80 53 74 54 73 55
REMARK SMILES IDX 44 57 66 58 51 59 65 60 52 61 55 62 64 63 78 64 53 65 54 66
REMARK SMILES IDX 63 68 79 69 56 70 45 71 46 72 50 73 47 74 49 75 48 76 67 77
REMARK SMILES IDX 68 78 72 79 69 80 71 81 70 82 57 83 58 84 62 85 59 86 61 87
REMARK SMILES IDX 60 88
REMARK H PARENT 29 5 17 15 33 37 77 56 55 67
REMARK Flexibility Score: inf
ROOT
ATOM      1  C   UNL     1       1.948  -7.672  -8.661  1.00  0.00     0.117 C 
ENDROOT
BRANCH   1   2
ATOM      2  N   UNL     1       1.766  -6.561  -7.746  1.00  0.00    -0.356 N 
ATOM      3  C   UNL     1       2.773  -6.293  -6.862  1.00  0.00     0.224 C 
ATOM      4  O   UNL     1       3.373  -7.194  -6.272  1.00  0.00    -0.275 OA
ATOM      5  H   UNL     1       0.945  -6.019  -7.762  1.00  0.00     0.163 HD
BRANCH   3   6
ATOM      6  C   UNL     1       3.321  -4.880  -6.861  1.00  0.00     0.094 C 
ATOM      7  C   UNL     1       2.560  -3.544  -6.717  1.00  0.00     0.094 C 
ATOM      8  C   UNL     1       3.257  -2.679  -7.843  1.00  0.00     0.002 C 
ATOM      9  C   UNL     1       2.771  -3.075  -9.251  1.00  0.00     0.005 C 
ATOM     10  C   UNL     1       4.679  -3.251  -7.895  1.00  0.00     0.009 C 
ATOM     11  C   UNL     1       4.185  -4.673  -8.139  1.00  0.00     0.002 C 
ATOM     12  C   UNL     1       3.335  -4.482  -9.414  1.00  0.00     0.005 C 
BRANCH   7  13
ATOM     13  C   UNL     1       1.040  -3.383  -6.764  1.00  0.00     0.229 C 
ATOM     14  N   UNL     1       0.124  -4.123  -6.101  1.00  0.00    -0.317 N 
ATOM     15  H   UNL     1      -0.797  -3.936  -6.395  1.00  0.00     0.170 HD
ATOM     16  O   UNL     1       0.547  -2.469  -7.443  1.00  0.00    -0.274 OA
BRANCH  14  17
ATOM     17  C   UNL     1       0.177  -5.076  -5.111  1.00  0.00     0.110 A 
ATOM     18  C   UNL     1      -0.857  -5.934  -4.747  1.00  0.00     0.102 A 
ATOM     19  C   UNL     1      -0.356  -6.991  -3.879  1.00  0.00     0.011 A 
ATOM     20  C   UNL     1       0.948  -6.717  -3.500  1.00  0.00     0.076 A 
ATOM     21  S   UNL     1       1.507  -5.214  -4.081  1.00  0.00    -0.125 S 
BRANCH  18  22
ATOM     22  C   UNL     1      -2.200  -5.793  -5.310  1.00  0.00     0.341 C 
ATOM     23  O   UNL     1      -2.416  -5.189  -6.360  1.00  0.00    -0.246 OA
BRANCH  22  24
ATOM     24  O   UNL     1      -3.172  -6.352  -4.541  1.00  0.00    -0.465 OA
ATOM     25  C   UNL     1      -4.496  -6.199  -5.057  1.00  0.00     0.282 C 
ENDBRANCH  22  24
ENDBRANCH  18  22
BRANCH  19  26
ATOM     26  C   UNL     1      -0.976  -8.295  -3.564  1.00  0.00     0.002 A 
ATOM     27  C   UNL     1      -1.655  -8.973  -4.598  1.00  0.00     0.010 A 
ATOM     28  C   UNL     1      -0.874  -8.949  -2.322  1.00  0.00     0.048 A 
ATOM     29  C   UNL     1      -2.181 -10.255  -4.422  1.00  0.00     0.001 A 
ATOM     30  C   UNL     1      -1.377 -10.250  -2.158  1.00  0.00     0.021 A 
ATOM     31  Cl  UNL     1      -0.187  -8.216  -0.911  1.00  0.00    -0.084 Cl
ATOM     32  C   UNL     1      -2.023 -10.903  -3.206  1.00  0.00     0.002 A 
ENDBRANCH  19  26
ENDBRANCH  14  17
ENDBRANCH   7  13
ENDBRANCH   3   6
ENDBRANCH   1   2
BRANCH   1  33
ATOM     33  C   UNL     1       1.563  -9.030  -8.107  1.00  0.00     0.042 C 
BRANCH  33  34
ATOM     34  C   UNL     1       0.091  -9.085  -7.750  1.00  0.00     0.118 C 
BRANCH  34  35
ATOM     35  N   UNL     1      -0.775  -8.918  -8.911  1.00  0.00    -0.352 N 
ATOM     36  C   UNL     1      -1.214  -9.825  -9.843  1.00  0.00     0.251 C 
ATOM     37  H   UNL     1      -1.101  -7.999  -9.050  1.00  0.00     0.163 HD
ATOM     38  O   UNL     1      -1.705  -9.424 -10.895  1.00  0.00    -0.269 OA
BRANCH  36  39
ATOM     39  C   UNL     1      -1.091 -11.278  -9.601  1.00  0.00     0.039 A 
ATOM     40  C   UNL     1      -0.778 -12.125 -10.668  1.00  0.00     0.014 A 
ATOM     41  C   UNL     1      -1.345 -11.818  -8.341  1.00  0.00     0.014 A 
ATOM     42  C   UNL     1      -0.667 -13.501 -10.454  1.00  0.00     0.010 A 
ATOM     43  C   UNL     1      -1.130 -13.170  -8.103  1.00  0.00     0.010 A 
ATOM     44  C   UNL     1      -0.813 -14.031  -9.161  1.00  0.00    -0.014 A 
BRANCH  44  45
ATOM     45  C   UNL     1      -0.679 -15.484  -8.896  1.00  0.00     0.031 A 
ATOM     46  C   UNL     1      -1.848 -16.264  -8.356  1.00  0.00     0.074 A 
ATOM     47  C   UNL     1       0.510 -16.089  -9.075  1.00  0.00     0.049 A 
ATOM     48  N   UNL     1      -1.910 -17.523  -8.002  1.00  0.00    -0.248 NA
ATOM     49  C   UNL     1      -3.104 -15.523  -8.153  1.00  0.00     0.031 C 
ATOM     50  C   UNL     1       1.735 -15.435  -9.542  1.00  0.00     0.029 A 
ATOM     51  N   UNL     1       0.883 -17.394  -8.881  1.00  0.00    -0.354 N 
ATOM     52  C   UNL     1      -3.194 -17.712  -7.506  1.00  0.00     0.074 A 
ATOM     53  C   UNL     1      -3.860 -16.429  -7.553  1.00  0.00     0.031 C 
ATOM     54  C   UNL     1       2.711 -16.352  -9.641  1.00  0.00     0.029 A 
ATOM     55  C   UNL     1       2.192 -17.645  -9.210  1.00  0.00     0.049 A 
ATOM     56  H   UNL     1       0.270 -18.085  -8.540  1.00  0.00     0.167 HD
ATOM     57  C   UNL     1      -3.778 -18.854  -7.072  1.00  0.00     0.031 A 
ATOM     58  C   UNL     1       2.893 -18.793  -9.176  1.00  0.00     0.031 A 
ATOM     59  C   UNL     1      -3.129 -20.136  -7.057  1.00  0.00     0.049 A 
ATOM     60  C   UNL     1       2.217 -20.054  -8.721  1.00  0.00     0.074 A 
ATOM     61  C   UNL     1      -3.653 -21.366  -6.701  1.00  0.00     0.029 A 
ATOM     62  N   UNL     1      -1.809 -20.352  -7.422  1.00  0.00    -0.354 N 
ATOM     63  N   UNL     1       0.984 -20.229  -8.313  1.00  0.00    -0.248 NA
ATOM     64  C   UNL     1       3.028 -21.279  -8.739  1.00  0.00     0.031 C 
ATOM     65  C   UNL     1      -2.638 -22.323  -6.818  1.00  0.00     0.029 A 
ATOM     66  C   UNL     1      -1.496 -21.694  -7.289  1.00  0.00     0.049 A 
ATOM     67  H   UNL     1      -1.187 -19.655  -7.731  1.00  0.00     0.167 HD
ATOM     68  C   UNL     1       0.862 -21.587  -8.050  1.00  0.00     0.074 A 
ATOM     69  C   UNL     1       2.143 -22.190  -8.358  1.00  0.00     0.031 C 
ATOM     70  C   UNL     1      -0.215 -22.274  -7.598  1.00  0.00     0.031 A 
BRANCH  57  71
ATOM     71  C   UNL     1      -5.195 -18.753  -6.578  1.00  0.00    -0.014 A 
ATOM     72  C   UNL     1      -6.258 -18.497  -7.460  1.00  0.00     0.009 A 
ATOM     73  C   UNL     1      -5.471 -18.913  -5.212  1.00  0.00     0.009 A 
ATOM     74  C   UNL     1      -7.560 -18.354  -6.978  1.00  0.00     0.001 A 
ATOM     75  C   UNL     1      -6.779 -18.799  -4.736  1.00  0.00     0.001 A 
ATOM     76  C   UNL     1      -7.820 -18.507  -5.617  1.00  0.00     0.000 A 
ENDBRANCH  57  71
BRANCH  58  77
ATOM     77  C   UNL     1       4.304 -18.808  -9.637  1.00  0.00    -0.014 A 
ATOM     78  C   UNL     1       4.633 -19.378 -10.877  1.00  0.00     0.009 A 
ATOM     79  C   UNL     1       5.323 -18.241  -8.857  1.00  0.00     0.009 A 
ATOM     80  C   UNL     1       5.957 -19.397 -11.318  1.00  0.00     0.001 A 
ATOM     81  C   UNL     1       6.643 -18.241  -9.312  1.00  0.00     0.001 A 
ATOM     82  C   UNL     1       6.960 -18.824 -10.538  1.00  0.00     0.000 A 
ENDBRANCH  58  77
BRANCH  70  83
ATOM     83  C   UNL     1      -0.060 -23.759  -7.443  1.00  0.00    -0.014 A 
ATOM     84  C   UNL     1       0.688 -24.307  -6.390  1.00  0.00     0.009 A 
ATOM     85  C   UNL     1      -0.696 -24.621  -8.350  1.00  0.00     0.009 A 
ATOM     86  C   UNL     1       0.823 -25.691  -6.269  1.00  0.00     0.001 A 
ATOM     87  C   UNL     1      -0.580 -26.004  -8.211  1.00  0.00     0.001 A 
ATOM     88  C   UNL     1       0.187 -26.538  -7.176  1.00  0.00     0.000 A 
ENDBRANCH  70  83
ENDBRANCH  44  45
ENDBRANCH  36  39
ENDBRANCH  34  35
ENDBRANCH  33  34
ENDBRANCH   1  33
TORSDOF 15
