REMARK SMILES O=C(NCCCNC(=O)[C@@H]1CC=CC[C@H]1C(=O)Nc1ccc(S(=O)(=O)N2CCc3ccccc32)cc1)c1ccc(-c2c3nc(c(-c4ccccc4)c4ccc([nH]4)c(-c4ccccc4)c4nc(c(-c5ccccc5)c5ccc2[nH]5)C=C4)C=C3)cc1
REMARK SMILES IDX 6 1 5 2 4 3 3 4 1 5 2 6 37 8 38 9 84 10 39 11 83 12 40 13
REMARK SMILES IDX 41 14 42 15 77 16 43 17 82 18 76 19 78 20 44 21 81 22 75 23
REMARK SMILES IDX 74 24 45 26 67 27 52 28 66 29 53 30 56 31 65 32 79 33 54 34
REMARK SMILES IDX 55 35 64 37 80 38 57 39 46 40 47 41 51 42 48 43 50 44 49 45
REMARK SMILES IDX 68 46 69 47 73 48 70 49 72 50 71 51 58 52 59 53 63 54 60 55
REMARK SMILES IDX 62 56 61 57 7 58 8 59 9 61 10 62 11 63 15 64 12 65 14 66
REMARK SMILES IDX 13 67 16 68 17 69 18 70 19 72 20 73 36 74 21 75 35 76 22 77
REMARK SMILES IDX 23 78 24 79 25 80 26 81 27 82 34 83 28 84 29 85 33 86 30 87
REMARK SMILES IDX 32 88 31 89
REMARK H PARENT 3 7 78 25 56 36 7 60 18 71
REMARK Flexibility Score: inf
ROOT
ATOM      1  C   UNL     1       4.900  -2.250  -2.852  1.00  0.00     0.117 C 
ENDROOT
BRANCH   1   2
ATOM      2  C   UNL     1       4.710  -2.114  -1.355  1.00  0.00     0.042 C 
BRANCH   2   3
ATOM      3  C   UNL     1       4.399  -0.686  -0.948  1.00  0.00     0.118 C 
BRANCH   3   4
ATOM      4  N   UNL     1       2.971  -0.404  -0.954  1.00  0.00    -0.352 N 
ATOM      5  O   UNL     1       0.973   0.091  -0.012  1.00  0.00    -0.269 OA
ATOM      6  C   UNL     1       2.194   0.057   0.085  1.00  0.00     0.251 C 
ATOM      7  H   UNL     1       2.504  -0.560  -1.806  1.00  0.00     0.163 HD
BRANCH   6   8
ATOM      8  C   UNL     1       2.860   0.470   1.340  1.00  0.00     0.039 A 
ATOM      9  C   UNL     1       3.994   1.282   1.293  1.00  0.00     0.014 A 
ATOM     10  C   UNL     1       2.391  -0.020   2.561  1.00  0.00     0.014 A 
ATOM     11  C   UNL     1       4.762   1.452   2.436  1.00  0.00     0.010 A 
ATOM     12  C   UNL     1       3.107   0.249   3.731  1.00  0.00     0.010 A 
ATOM     13  C   UNL     1       4.320   0.952   3.672  1.00  0.00    -0.014 A 
BRANCH  13  14
ATOM     14  C   UNL     1       5.122   1.235   4.890  1.00  0.00     0.031 A 
ATOM     15  C   UNL     1       5.755   0.132   5.691  1.00  0.00     0.074 A 
ATOM     16  C   UNL     1       5.312   2.521   5.243  1.00  0.00     0.049 A 
ATOM     17  N   UNL     1       6.508   0.222   6.759  1.00  0.00    -0.248 NA
ATOM     18  C   UNL     1       5.509  -1.249   5.248  1.00  0.00     0.031 C 
ATOM     19  C   UNL     1       4.751   3.680   4.542  1.00  0.00     0.029 A 
ATOM     20  N   UNL     1       6.053   3.074   6.254  1.00  0.00    -0.354 N 
ATOM     21  C   UNL     1       6.801  -1.084   7.132  1.00  0.00     0.074 A 
ATOM     22  C   UNL     1       6.131  -1.951   6.186  1.00  0.00     0.031 C 
ATOM     23  C   UNL     1       5.225   4.803   5.098  1.00  0.00     0.029 A 
ATOM     24  C   UNL     1       6.059   4.447   6.239  1.00  0.00     0.049 A 
ATOM     25  H   UNL     1       6.535   2.538   6.926  1.00  0.00     0.167 HD
ATOM     26  C   UNL     1       7.559  -1.519   8.168  1.00  0.00     0.031 A 
ATOM     27  C   UNL     1       6.658   5.329   7.058  1.00  0.00     0.031 A 
ATOM     28  C   UNL     1       8.234  -0.654   9.102  1.00  0.00     0.049 A 
ATOM     29  C   UNL     1       7.470   4.818   8.207  1.00  0.00     0.074 A 
ATOM     30  C   UNL     1       9.049  -1.002  10.166  1.00  0.00     0.029 A 
ATOM     31  N   UNL     1       8.172   0.731   9.082  1.00  0.00    -0.354 N 
ATOM     32  N   UNL     1       7.747   3.579   8.535  1.00  0.00    -0.248 NA
ATOM     33  C   UNL     1       8.047   5.827   9.104  1.00  0.00     0.031 C 
ATOM     34  C   UNL     1       9.442   0.173  10.819  1.00  0.00     0.029 A 
ATOM     35  C   UNL     1       8.914   1.252  10.130  1.00  0.00     0.049 A 
ATOM     36  H   UNL     1       7.674   1.264   8.422  1.00  0.00     0.167 HD
ATOM     37  C   UNL     1       8.540   3.660   9.670  1.00  0.00     0.074 A 
ATOM     38  C   UNL     1       8.719   5.069   9.958  1.00  0.00     0.031 C 
ATOM     39  C   UNL     1       9.071   2.656  10.409  1.00  0.00     0.031 A 
BRANCH  26  40
ATOM     40  C   UNL     1       7.675  -3.006   8.369  1.00  0.00    -0.014 A 
ATOM     41  C   UNL     1       8.451  -3.803   7.512  1.00  0.00     0.009 A 
ATOM     42  C   UNL     1       7.032  -3.611   9.460  1.00  0.00     0.009 A 
ATOM     43  C   UNL     1       8.553  -5.180   7.728  1.00  0.00     0.001 A 
ATOM     44  C   UNL     1       7.156  -4.983   9.687  1.00  0.00     0.001 A 
ATOM     45  C   UNL     1       7.909  -5.767   8.816  1.00  0.00     0.000 A 
ENDBRANCH  26  40
BRANCH  27  46
ATOM     46  C   UNL     1       6.497   6.784   6.816  1.00  0.00    -0.014 A 
ATOM     47  C   UNL     1       7.575   7.553   6.355  1.00  0.00     0.009 A 
ATOM     48  C   UNL     1       5.254   7.406   7.019  1.00  0.00     0.009 A 
ATOM     49  C   UNL     1       7.417   8.920   6.119  1.00  0.00     0.001 A 
ATOM     50  C   UNL     1       5.091   8.766   6.753  1.00  0.00     0.001 A 
ATOM     51  C   UNL     1       6.174   9.523   6.311  1.00  0.00     0.000 A 
ENDBRANCH  27  46
BRANCH  39  52
ATOM     52  C   UNL     1       9.912   3.057  11.585  1.00  0.00    -0.014 A 
ATOM     53  C   UNL     1       9.328   3.574  12.752  1.00  0.00     0.009 A 
ATOM     54  C   UNL     1      11.306   2.907  11.527  1.00  0.00     0.009 A 
ATOM     55  C   UNL     1      10.130   3.967  13.825  1.00  0.00     0.001 A 
ATOM     56  C   UNL     1      12.102   3.277  12.611  1.00  0.00     0.001 A 
ATOM     57  C   UNL     1      11.514   3.816  13.755  1.00  0.00     0.000 A 
ENDBRANCH  39  52
ENDBRANCH  13  14
ENDBRANCH   6   8
ENDBRANCH   3   4
ENDBRANCH   2   3
ENDBRANCH   1   2
BRANCH   1  58
ATOM     58  N   UNL     1       6.172  -1.677  -3.272  1.00  0.00    -0.356 N 
ATOM     59  C   UNL     1       7.024  -2.116  -4.243  1.00  0.00     0.224 C 
ATOM     60  H   UNL     1       6.454  -0.865  -2.791  1.00  0.00     0.163 HD
ATOM     61  O   UNL     1       8.137  -1.607  -4.343  1.00  0.00    -0.275 OA
BRANCH  59  62
ATOM     62  C   UNL     1       6.541  -3.222  -5.156  1.00  0.00     0.095 C 
ATOM     63  C   UNL     1       7.308  -4.514  -4.877  1.00  0.00     0.041 C 
ATOM     64  C   UNL     1       6.617  -2.795  -6.628  1.00  0.00     0.095 C 
ATOM     65  C   UNL     1       6.927  -5.588  -5.852  1.00  0.00    -0.030 C 
ATOM     66  C   UNL     1       6.359  -3.922  -7.646  1.00  0.00     0.041 C 
ATOM     67  C   UNL     1       6.492  -5.316  -7.091  1.00  0.00    -0.030 C 
BRANCH  64  68
ATOM     68  C   UNL     1       5.790  -1.535  -6.888  1.00  0.00     0.228 C 
ATOM     69  O   UNL     1       6.391  -0.465  -7.066  1.00  0.00    -0.274 OA
ATOM     70  N   UNL     1       4.433  -1.438  -6.946  1.00  0.00    -0.326 N 
ATOM     71  H   UNL     1       4.144  -0.507  -7.081  1.00  0.00     0.169 HD
BRANCH  70  72
ATOM     72  C   UNL     1       3.332  -2.311  -6.867  1.00  0.00     0.041 A 
ATOM     73  C   UNL     1       2.094  -1.819  -7.316  1.00  0.00     0.027 A 
ATOM     74  C   UNL     1       3.384  -3.631  -6.446  1.00  0.00     0.027 A 
ATOM     75  C   UNL     1       0.981  -2.669  -7.457  1.00  0.00     0.024 A 
ATOM     76  C   UNL     1       2.288  -4.480  -6.559  1.00  0.00     0.024 A 
ATOM     77  C   UNL     1       1.096  -4.013  -7.100  1.00  0.00     0.088 A 
BRANCH  77  78
ATOM     78  S   UNL     1      -0.116  -5.230  -7.592  1.00  0.00     0.264 S 
ATOM     79  O   UNL     1      -0.851  -4.663  -8.706  1.00  0.00    -0.201 OA
ATOM     80  O   UNL     1       0.607  -6.476  -7.761  1.00  0.00    -0.201 OA
BRANCH  78  81
ATOM     81  N   UNL     1      -1.119  -5.410  -6.244  1.00  0.00    -0.266 N 
ATOM     82  C   UNL     1      -0.527  -5.992  -5.002  1.00  0.00     0.140 C 
ATOM     83  C   UNL     1      -1.993  -4.356  -5.865  1.00  0.00     0.055 A 
ATOM     84  C   UNL     1      -1.200  -5.278  -3.815  1.00  0.00     0.060 C 
ATOM     85  C   UNL     1      -2.043  -4.241  -4.480  1.00  0.00    -0.022 A 
ATOM     86  C   UNL     1      -2.829  -3.613  -6.677  1.00  0.00     0.027 A 
ATOM     87  C   UNL     1      -2.849  -3.289  -3.876  1.00  0.00     0.006 A 
ATOM     88  C   UNL     1      -3.657  -2.662  -6.082  1.00  0.00     0.002 A 
ATOM     89  C   UNL     1      -3.650  -2.486  -4.691  1.00  0.00     0.000 A 
ENDBRANCH  78  81
ENDBRANCH  77  78
ENDBRANCH  70  72
ENDBRANCH  64  68
ENDBRANCH  59  62
ENDBRANCH   1  58
TORSDOF 14
