REMARK SMILES C[C@H]1c2ccc(O)cc2OC(=O)[C@@H]1CC(=O)N[C@@H](CC1=c2ccccc2=NC1)C(=O)NCCCNC(=O)c1ccc(-c2c3nc(c(-c4ccccc4)c4ccc([nH]4)c(-c4ccccc4)c4nc(c(-c5ccccc5)c5ccc2[nH]5)C=C4)C=C3)cc1
REMARK SMILES IDX 32 1 31 2 29 3 30 4 18 6 17 7 15 8 16 9 14 11 13 12 1 13
REMARK SMILES IDX 2 14 3 15 4 16 9 17 11 18 5 19 8 20 10 21 12 22 6 23 7 24
REMARK SMILES IDX 19 26 20 27 21 28 28 29 22 30 26 31 27 32 23 33 25 34 24 35
REMARK SMILES IDX 33 36 34 37 35 38 36 39 37 41 38 42 39 43 85 44 40 45 84 46
REMARK SMILES IDX 41 47 42 48 43 49 78 50 44 51 83 52 77 53 79 54 45 55 82 56
REMARK SMILES IDX 76 57 75 58 46 60 68 61 53 62 67 63 54 64 57 65 66 66 80 67
REMARK SMILES IDX 55 68 56 69 65 71 81 72 58 73 47 74 48 75 52 76 49 77 51 78
REMARK SMILES IDX 50 79 69 80 70 81 74 82 71 83 73 84 72 85 59 86 60 87 64 88
REMARK SMILES IDX 61 89 63 90 62 91
REMARK H PARENT 31 5 17 10 7 25 35 40 79 59 57 70
REMARK Flexibility Score: inf
ROOT
ATOM      1  C   UNL     1       2.496  -8.132   1.324  1.00  0.00     0.117 C 
ENDROOT
BRANCH   1   2
ATOM      2  N   UNL     1       1.168  -7.707   0.987  1.00  0.00    -0.354 N 
ATOM      3  C   UNL     1       0.813  -6.463   0.561  1.00  0.00     0.242 C 
ATOM      4  O   UNL     1      -0.375  -6.272   0.287  1.00  0.00    -0.273 OA
ATOM      5  H   UNL     1       0.449  -8.374   1.072  1.00  0.00     0.163 HD
BRANCH   3   6
ATOM      6  C   UNL     1       1.862  -5.329   0.430  1.00  0.00     0.175 C 
BRANCH   6   7
ATOM      7  N   UNL     1       2.349  -4.811   1.721  1.00  0.00    -0.344 N 
ATOM      8  C   UNL     1       1.940  -3.756   2.479  1.00  0.00     0.221 C 
ATOM      9  O   UNL     1       2.535  -3.530   3.534  1.00  0.00    -0.275 OA
ATOM     10  H   UNL     1       3.102  -5.316   2.103  1.00  0.00     0.164 HD
BRANCH   8  11
ATOM     11  C   UNL     1       0.780  -2.880   2.051  1.00  0.00     0.116 C 
BRANCH  11  12
ATOM     12  C   UNL     1       1.217  -1.677   1.190  1.00  0.00     0.116 C 
ATOM     13  C   UNL     1       0.680   0.678   0.360  1.00  0.00     0.014 C 
ATOM     14  C   UNL     1       0.154  -0.560   1.099  1.00  0.00     0.034 C 
ATOM     15  C   UNL     1      -1.060  -1.111   0.395  1.00  0.00    -0.001 A 
ATOM     16  C   UNL     1      -2.356  -0.682   0.689  1.00  0.00     0.011 A 
ATOM     17  C   UNL     1      -0.887  -2.120  -0.557  1.00  0.00     0.138 A 
ATOM     18  C   UNL     1       1.506  -2.117  -0.222  1.00  0.00     0.315 C 
ATOM     19  C   UNL     1      -3.451  -1.303   0.080  1.00  0.00     0.047 A 
ATOM     20  C   UNL     1      -1.965  -2.768  -1.145  1.00  0.00     0.093 A 
ATOM     21  O   UNL     1       0.401  -2.502  -0.969  1.00  0.00    -0.426 OA
ATOM     22  O   UNL     1       2.641  -2.206  -0.673  1.00  0.00    -0.251 OA
ATOM     23  C   UNL     1      -3.246  -2.356  -0.812  1.00  0.00     0.119 A 
BRANCH  23  24
ATOM     24  O   UNL     1      -4.293  -3.009  -1.392  1.00  0.00    -0.508 OA
ATOM     25  H   UNL     1      -5.173  -2.757  -1.190  1.00  0.00     0.293 HD
ENDBRANCH  23  24
ENDBRANCH  11  12
ENDBRANCH   8  11
ENDBRANCH   6   7
BRANCH   6  26
ATOM     26  C   UNL     1       2.973  -5.619  -0.647  1.00  0.00     0.068 C 
BRANCH  26  27
ATOM     27  C   UNL     1       4.418  -5.432  -0.244  1.00  0.00    -0.037 C 
ATOM     28  C   UNL     1       5.253  -6.065   0.582  1.00  0.00     0.001 A 
ATOM     29  C   UNL     1       5.193  -4.269  -0.812  1.00  0.00     0.174 C 
ATOM     30  C   UNL     1       5.442  -7.328   1.217  1.00  0.00     0.010 A 
ATOM     31  C   UNL     1       6.046  -4.899   1.045  1.00  0.00     0.065 A 
ATOM     32  N   UNL     1       6.085  -3.850   0.284  1.00  0.00    -0.280 NA
ATOM     33  C   UNL     1       6.149  -7.396   2.357  1.00  0.00     0.001 A 
ATOM     34  C   UNL     1       6.590  -4.995   2.418  1.00  0.00     0.028 A 
ATOM     35  C   UNL     1       6.588  -6.189   3.030  1.00  0.00     0.002 A 
ENDBRANCH  26  27
ENDBRANCH   6  26
ENDBRANCH   3   6
ENDBRANCH   1   2
BRANCH   1  36
ATOM     36  C   UNL     1       2.560  -9.285   2.300  1.00  0.00     0.042 C 
BRANCH  36  37
ATOM     37  C   UNL     1       2.171 -10.598   1.647  1.00  0.00     0.118 C 
BRANCH  37  38
ATOM     38  N   UNL     1       3.200 -11.127   0.752  1.00  0.00    -0.352 N 
ATOM     39  C   UNL     1       4.288 -11.960   0.949  1.00  0.00     0.251 C 
ATOM     40  H   UNL     1       3.099 -10.831  -0.181  1.00  0.00     0.163 HD
ATOM     41  O   UNL     1       5.088 -12.117   0.047  1.00  0.00    -0.269 OA
BRANCH  39  42
ATOM     42  C   UNL     1       4.524 -12.606   2.265  1.00  0.00     0.039 A 
ATOM     43  C   UNL     1       3.466 -12.986   3.071  1.00  0.00     0.014 A 
ATOM     44  C   UNL     1       5.831 -12.828   2.715  1.00  0.00     0.014 A 
ATOM     45  C   UNL     1       3.684 -13.256   4.410  1.00  0.00     0.010 A 
ATOM     46  C   UNL     1       6.054 -13.306   4.016  1.00  0.00     0.010 A 
ATOM     47  C   UNL     1       4.981 -13.447   4.907  1.00  0.00    -0.014 A 
BRANCH  47  48
ATOM     48  C   UNL     1       5.144 -13.790   6.350  1.00  0.00     0.031 A 
ATOM     49  C   UNL     1       5.997 -12.946   7.265  1.00  0.00     0.074 A 
ATOM     50  C   UNL     1       4.414 -14.803   6.867  1.00  0.00     0.049 A 
ATOM     51  N   UNL     1       6.186 -13.074   8.556  1.00  0.00    -0.248 NA
ATOM     52  C   UNL     1       6.743 -11.827   6.667  1.00  0.00     0.031 C 
ATOM     53  C   UNL     1       3.539 -15.690   6.093  1.00  0.00     0.029 A 
ATOM     54  N   UNL     1       4.224 -15.211   8.163  1.00  0.00    -0.354 N 
ATOM     55  C   UNL     1       7.102 -12.090   8.909  1.00  0.00     0.074 A 
ATOM     56  C   UNL     1       7.446 -11.379   7.698  1.00  0.00     0.031 C 
ATOM     57  C   UNL     1       2.806 -16.430   6.933  1.00  0.00     0.029 A 
ATOM     58  C   UNL     1       3.246 -16.170   8.297  1.00  0.00     0.049 A 
ATOM     59  H   UNL     1       4.737 -14.853   8.924  1.00  0.00     0.167 HD
ATOM     60  C   UNL     1       7.607 -11.802  10.132  1.00  0.00     0.031 A 
ATOM     61  C   UNL     1       2.758 -16.792   9.387  1.00  0.00     0.031 A 
ATOM     62  C   UNL     1       7.232 -12.484  11.342  1.00  0.00     0.049 A 
ATOM     63  C   UNL     1       3.341 -16.462  10.727  1.00  0.00     0.074 A 
ATOM     64  C   UNL     1       7.684 -12.255  12.630  1.00  0.00     0.029 A 
ATOM     65  N   UNL     1       6.305 -13.511  11.419  1.00  0.00    -0.354 N 
ATOM     66  N   UNL     1       4.236 -15.554  11.030  1.00  0.00    -0.248 NA
ATOM     67  C   UNL     1       2.870 -17.256  11.869  1.00  0.00     0.031 C 
ATOM     68  C   UNL     1       7.070 -13.179  13.479  1.00  0.00     0.029 A 
ATOM     69  C   UNL     1       6.188 -13.941  12.730  1.00  0.00     0.049 A 
ATOM     70  H   UNL     1       5.805 -13.880  10.655  1.00  0.00     0.167 HD
ATOM     71  C   UNL     1       4.444 -15.672  12.396  1.00  0.00     0.074 A 
ATOM     72  C   UNL     1       3.554 -16.713  12.869  1.00  0.00     0.031 C 
ATOM     73  C   UNL     1       5.307 -14.986  13.183  1.00  0.00     0.031 A 
BRANCH  60  74
ATOM     74  C   UNL     1       8.644 -10.716  10.234  1.00  0.00    -0.014 A 
ATOM     75  C   UNL     1       9.970 -11.054  10.550  1.00  0.00     0.009 A 
ATOM     76  C   UNL     1       8.301  -9.361  10.111  1.00  0.00     0.009 A 
ATOM     77  C   UNL     1      10.929 -10.060  10.753  1.00  0.00     0.001 A 
ATOM     78  C   UNL     1       9.270  -8.369  10.287  1.00  0.00     0.001 A 
ATOM     79  C   UNL     1      10.579  -8.718  10.618  1.00  0.00     0.000 A 
ENDBRANCH  60  74
BRANCH  61  80
ATOM     80  C   UNL     1       1.676 -17.801   9.233  1.00  0.00    -0.014 A 
ATOM     81  C   UNL     1       1.914 -19.001   8.540  1.00  0.00     0.009 A 
ATOM     82  C   UNL     1       0.384 -17.543   9.712  1.00  0.00     0.009 A 
ATOM     83  C   UNL     1       0.874 -19.898   8.292  1.00  0.00     0.001 A 
ATOM     84  C   UNL     1      -0.648 -18.461   9.495  1.00  0.00     0.001 A 
ATOM     85  C   UNL     1      -0.406 -19.629   8.773  1.00  0.00     0.000 A 
ENDBRANCH  61  80
BRANCH  73  86
ATOM     86  C   UNL     1       5.339 -15.334  14.643  1.00  0.00    -0.014 A 
ATOM     87  C   UNL     1       4.844 -14.424  15.589  1.00  0.00     0.009 A 
ATOM     88  C   UNL     1       5.939 -16.522  15.086  1.00  0.00     0.009 A 
ATOM     89  C   UNL     1       4.958 -14.691  16.954  1.00  0.00     0.001 A 
ATOM     90  C   UNL     1       6.027 -16.800  16.451  1.00  0.00     0.001 A 
ATOM     91  C   UNL     1       5.545 -15.881  17.383  1.00  0.00     0.000 A 
ENDBRANCH  73  86
ENDBRANCH  47  48
ENDBRANCH  39  42
ENDBRANCH  37  38
ENDBRANCH  36  37
ENDBRANCH   1  36
TORSDOF 16
