REMARK SMILES C#CCN(CC(=O)NCCCNC(=O)c1ccc(-c2c3nc(c(-c4ccccc4)c4ccc([nH]4)c(-c4ccccc4)c4nc(c(-c5ccccc5)c5ccc2[nH]5)C=C4)C=C3)cc1)C(=O)N[C@@H]1CCOC1
REMARK SMILES IDX 9 1 8 2 6 3 7 4 5 6 4 7 3 8 2 9 1 10 63 11 64 12 65 13 66 15
REMARK SMILES IDX 67 16 70 17 68 18 69 19 10 20 11 21 12 22 13 23 14 25 15 26
REMARK SMILES IDX 16 27 62 28 17 29 61 30 18 31 19 32 20 33 55 34 21 35 60 36
REMARK SMILES IDX 54 37 56 38 22 39 59 40 53 41 52 42 23 44 45 45 30 46 44 47
REMARK SMILES IDX 31 48 34 49 43 50 57 51 32 52 33 53 42 55 58 56 35 57 24 58
REMARK SMILES IDX 25 59 29 60 26 61 28 62 27 63 46 64 47 65 51 66 48 67 50 68
REMARK SMILES IDX 49 69 36 70 37 71 41 72 38 73 40 74 39 75
REMARK H PARENT 8 5 65 14 12 24 56 43 34 54
REMARK Flexibility Score: inf
ROOT
ATOM      1  C   UNL     1      -5.012  -0.495   0.453  1.00  0.00     0.117 C 
ENDROOT
BRANCH   1   2
ATOM      2  N   UNL     1      -5.308  -0.270  -0.947  1.00  0.00    -0.354 N 
ATOM      3  C   UNL     1      -4.528  -0.428  -2.051  1.00  0.00     0.239 C 
ATOM      4  O   UNL     1      -5.103  -0.859  -3.060  1.00  0.00    -0.273 OA
ATOM      5  H   UNL     1      -6.221   0.048  -1.129  1.00  0.00     0.163 HD
BRANCH   3   6
ATOM      6  C   UNL     1      -2.995  -0.249  -2.082  1.00  0.00     0.222 C 
BRANCH   6   7
ATOM      7  N   UNL     1      -2.360   0.618  -1.107  1.00  0.00    -0.304 N 
BRANCH   7   8
ATOM      8  C   UNL     1      -1.753  -0.068   0.020  1.00  0.00     0.211 C 
BRANCH   8   9
ATOM      9  C   UNL     1      -0.233  -0.068   0.020  1.00  0.00    -0.085 C 
ATOM     10  C   UNL     1       1.071  -0.068   0.020  1.00  0.00     0.006 C 
ENDBRANCH   8   9
ENDBRANCH   7   8
BRANCH   7  11
ATOM     11  C   UNL     1      -2.273   1.964  -1.095  1.00  0.00     0.318 C 
ATOM     12  O   UNL     1      -1.757   2.552  -0.133  1.00  0.00    -0.249 OA
ATOM     13  N   UNL     1      -2.709   2.814  -2.013  1.00  0.00    -0.333 N 
ATOM     14  H   UNL     1      -2.584   3.709  -1.623  1.00  0.00     0.165 HD
BRANCH  13  15
ATOM     15  C   UNL     1      -3.296   3.046  -3.350  1.00  0.00     0.112 C 
ATOM     16  C   UNL     1      -4.190   4.280  -3.201  1.00  0.00     0.056 C 
ATOM     17  C   UNL     1      -4.337   2.130  -3.966  1.00  0.00     0.185 C 
ATOM     18  C   UNL     1      -5.475   3.661  -2.672  1.00  0.00     0.162 C 
ATOM     19  O   UNL     1      -5.558   2.350  -3.247  1.00  0.00    -0.379 OA
ENDBRANCH  13  15
ENDBRANCH   7  11
ENDBRANCH   6   7
ENDBRANCH   3   6
ENDBRANCH   1   2
BRANCH   1  20
ATOM     20  C   UNL     1      -4.927   0.765   1.308  1.00  0.00     0.042 C 
BRANCH  20  21
ATOM     21  C   UNL     1      -6.210   1.585   1.399  1.00  0.00     0.118 C 
BRANCH  21  22
ATOM     22  N   UNL     1      -7.338   0.827   1.916  1.00  0.00    -0.352 N 
ATOM     23  C   UNL     1      -7.988   0.821   3.122  1.00  0.00     0.251 C 
ATOM     24  H   UNL     1      -7.710   0.187   1.267  1.00  0.00     0.163 HD
ATOM     25  O   UNL     1      -8.796  -0.082   3.334  1.00  0.00    -0.269 OA
BRANCH  23  26
ATOM     26  C   UNL     1      -7.768   1.843   4.177  1.00  0.00     0.039 A 
ATOM     27  C   UNL     1      -7.929   1.444   5.512  1.00  0.00     0.014 A 
ATOM     28  C   UNL     1      -7.540   3.192   3.899  1.00  0.00     0.014 A 
ATOM     29  C   UNL     1      -7.838   2.375   6.552  1.00  0.00     0.010 A 
ATOM     30  C   UNL     1      -7.382   4.113   4.942  1.00  0.00     0.010 A 
ATOM     31  C   UNL     1      -7.548   3.719   6.278  1.00  0.00    -0.014 A 
BRANCH  31  32
ATOM     32  C   UNL     1      -7.453   4.716   7.377  1.00  0.00     0.031 A 
ATOM     33  C   UNL     1      -8.473   5.818   7.503  1.00  0.00     0.074 A 
ATOM     34  C   UNL     1      -6.437   4.651   8.259  1.00  0.00     0.049 A 
ATOM     35  N   UNL     1      -8.531   6.794   8.375  1.00  0.00    -0.248 NA
ATOM     36  C   UNL     1      -9.559   5.834   6.511  1.00  0.00     0.031 C 
ATOM     37  C   UNL     1      -5.368   3.651   8.249  1.00  0.00     0.029 A 
ATOM     38  N   UNL     1      -6.139   5.446   9.338  1.00  0.00    -0.354 N 
ATOM     39  C   UNL     1      -9.643   7.550   8.024  1.00  0.00     0.074 A 
ATOM     40  C   UNL     1     -10.213   6.938   6.843  1.00  0.00     0.031 C 
ATOM     41  C   UNL     1      -4.546   3.877   9.287  1.00  0.00     0.029 A 
ATOM     42  C   UNL     1      -5.011   5.054  10.016  1.00  0.00     0.049 A 
ATOM     43  H   UNL     1      -6.683   6.224   9.601  1.00  0.00     0.167 HD
ATOM     44  C   UNL     1     -10.155   8.647   8.634  1.00  0.00     0.031 A 
ATOM     45  C   UNL     1      -4.414   5.581  11.101  1.00  0.00     0.031 A 
ATOM     46  C   UNL     1      -9.615   9.250   9.823  1.00  0.00     0.049 A 
ATOM     47  C   UNL     1      -5.001   6.796  11.760  1.00  0.00     0.074 A 
ATOM     48  C   UNL     1     -10.099  10.333  10.538  1.00  0.00     0.029 A 
ATOM     49  N   UNL     1      -8.472   8.819  10.476  1.00  0.00    -0.354 N 
ATOM     50  N   UNL     1      -6.074   7.473  11.436  1.00  0.00    -0.248 NA
ATOM     51  C   UNL     1      -4.294   7.313  12.941  1.00  0.00     0.031 C 
ATOM     52  C   UNL     1      -9.230  10.576  11.608  1.00  0.00     0.029 A 
ATOM     53  C   UNL     1      -8.226   9.623  11.576  1.00  0.00     0.049 A 
ATOM     54  H   UNL     1      -7.916   8.055  10.199  1.00  0.00     0.167 HD
ATOM     55  C   UNL     1      -6.183   8.483  12.382  1.00  0.00     0.074 A 
ATOM     56  C   UNL     1      -5.074   8.324  13.299  1.00  0.00     0.031 C 
ATOM     57  C   UNL     1      -7.119   9.457  12.480  1.00  0.00     0.031 A 
BRANCH  44  58
ATOM     58  C   UNL     1     -11.370   9.274   8.014  1.00  0.00    -0.014 A 
ATOM     59  C   UNL     1     -12.635   8.678   8.139  1.00  0.00     0.009 A 
ATOM     60  C   UNL     1     -11.255  10.492   7.329  1.00  0.00     0.009 A 
ATOM     61  C   UNL     1     -13.756   9.276   7.559  1.00  0.00     0.001 A 
ATOM     62  C   UNL     1     -12.381  11.099   6.769  1.00  0.00     0.001 A 
ATOM     63  C   UNL     1     -13.629  10.487   6.878  1.00  0.00     0.000 A 
ENDBRANCH  44  58
BRANCH  45  64
ATOM     64  C   UNL     1      -3.190   4.948  11.651  1.00  0.00    -0.014 A 
ATOM     65  C   UNL     1      -3.253   4.191  12.830  1.00  0.00     0.009 A 
ATOM     66  C   UNL     1      -1.955   5.101  11.003  1.00  0.00     0.009 A 
ATOM     67  C   UNL     1      -2.098   3.615  13.362  1.00  0.00     0.001 A 
ATOM     68  C   UNL     1      -0.805   4.507  11.527  1.00  0.00     0.001 A 
ATOM     69  C   UNL     1      -0.876   3.771  12.709  1.00  0.00     0.000 A 
ENDBRANCH  45  64
BRANCH  57  70
ATOM     70  C   UNL     1      -6.997  10.409  13.633  1.00  0.00    -0.014 A 
ATOM     71  C   UNL     1      -6.046  11.440  13.620  1.00  0.00     0.009 A 
ATOM     72  C   UNL     1      -7.862  10.289  14.731  1.00  0.00     0.009 A 
ATOM     73  C   UNL     1      -5.946  12.318  14.701  1.00  0.00     0.001 A 
ATOM     74  C   UNL     1      -7.772  11.180  15.801  1.00  0.00     0.001 A 
ATOM     75  C   UNL     1      -6.810  12.189  15.788  1.00  0.00     0.000 A 
ENDBRANCH  57  70
ENDBRANCH  31  32
ENDBRANCH  23  26
ENDBRANCH  21  22
ENDBRANCH  20  21
ENDBRANCH   1  20
TORSDOF 15
