REMARK SMILES CC[C@H](C)[C@@H](NC(=O)c1csc(NC(C)=O)n1)C(=O)NCCCNC(=O)c1ccc(-c2c3nc(c(-c4ccccc4)c4ccc([nH]4)c(-c4ccccc4)c4nc(c(-c5ccccc5)c5ccc2[nH]5)C=C4)C=C3)cc1
REMARK SMILES IDX 21 1 20 2 18 3 19 4 5 6 3 7 4 8 2 9 1 10 6 11 7 12 8 14 9 15
REMARK SMILES IDX 10 16 17 17 11 18 12 19 13 20 14 21 15 23 16 24 22 25 23 26
REMARK SMILES IDX 24 27 25 28 26 30 27 31 28 32 74 33 29 34 73 35 30 36 31 37
REMARK SMILES IDX 32 38 67 39 33 40 72 41 66 42 68 43 34 44 71 45 65 46 64 47
REMARK SMILES IDX 35 49 57 50 42 51 56 52 43 53 46 54 55 55 69 56 44 57 45 58
REMARK SMILES IDX 54 60 70 61 47 62 36 63 37 64 41 65 38 66 40 67 39 68 58 69
REMARK SMILES IDX 59 70 63 71 60 72 62 73 61 74 48 75 49 76 53 77 50 78 52 79
REMARK SMILES IDX 51 80
REMARK H PARENT 20 5 6 13 13 22 24 29 68 48 46 59
REMARK Flexibility Score: inf
ROOT
ATOM      1  C   UNL     1       3.546  -4.162  -1.051  1.00  0.00     0.117 C 
ENDROOT
BRANCH   1   2
ATOM      2  N   UNL     1       2.542  -4.990  -0.411  1.00  0.00    -0.354 N 
ATOM      3  C   UNL     1       1.184  -4.935  -0.479  1.00  0.00     0.242 C 
ATOM      4  O   UNL     1       0.548  -5.726   0.228  1.00  0.00    -0.273 OA
ATOM      5  H   UNL     1       2.900  -5.706   0.162  1.00  0.00     0.163 HD
BRANCH   3   6
ATOM      6  C   UNL     1       0.471  -3.827  -1.285  1.00  0.00     0.174 C 
BRANCH   6   7
ATOM      7  C   UNL     1       0.619  -2.487  -0.467  1.00  0.00     0.018 C 
ATOM      8  C   UNL     1      -0.058  -1.286  -1.143  1.00  0.00     0.010 C 
BRANCH   7   9
ATOM      9  C   UNL     1       0.108  -2.590   0.995  1.00  0.00     0.002 C 
ATOM     10  C   UNL     1       1.002  -1.813   1.959  1.00  0.00     0.004 C 
ENDBRANCH   7   9
ENDBRANCH   6   7
BRANCH   6  11
ATOM     11  N   UNL     1       0.979  -3.644  -2.668  1.00  0.00    -0.339 N 
ATOM     12  C   UNL     1       1.355  -4.524  -3.660  1.00  0.00     0.271 C 
ATOM     13  H   UNL     1       1.063  -2.700  -2.932  1.00  0.00     0.164 HD
ATOM     14  O   UNL     1       1.553  -4.053  -4.781  1.00  0.00    -0.267 OA
BRANCH  12  15
ATOM     15  C   UNL     1       1.694  -5.912  -3.349  1.00  0.00     0.141 A 
ATOM     16  C   UNL     1       2.842  -6.518  -3.837  1.00  0.00     0.102 A 
ATOM     17  N   UNL     1       0.945  -6.723  -2.506  1.00  0.00    -0.215 NA
ATOM     18  S   UNL     1       3.072  -8.036  -3.079  1.00  0.00    -0.104 S 
ATOM     19  C   UNL     1       1.624  -7.810  -2.215  1.00  0.00     0.190 A 
BRANCH  19  20
ATOM     20  N   UNL     1       1.175  -8.687  -1.262  1.00  0.00    -0.302 N 
ATOM     21  C   UNL     1       1.880  -9.723  -0.698  1.00  0.00     0.223 C 
ATOM     22  H   UNL     1       0.250  -8.560  -0.948  1.00  0.00     0.172 HD
ATOM     23  C   UNL     1       1.052 -10.544   0.261  1.00  0.00     0.114 C 
ATOM     24  O   UNL     1       3.057 -10.009  -0.889  1.00  0.00    -0.275 OA
ENDBRANCH  19  20
ENDBRANCH  12  15
ENDBRANCH   6  11
ENDBRANCH   3   6
ENDBRANCH   1   2
BRANCH   1  25
ATOM     25  C   UNL     1       4.574  -3.682  -0.047  1.00  0.00     0.042 C 
BRANCH  25  26
ATOM     26  C   UNL     1       5.369  -4.822   0.566  1.00  0.00     0.118 C 
BRANCH  26  27
ATOM     27  N   UNL     1       6.162  -5.549  -0.418  1.00  0.00    -0.352 N 
ATOM     28  C   UNL     1       7.498  -5.858  -0.372  1.00  0.00     0.251 C 
ATOM     29  H   UNL     1       5.676  -5.857  -1.217  1.00  0.00     0.163 HD
ATOM     30  O   UNL     1       8.075  -6.302  -1.358  1.00  0.00    -0.269 OA
BRANCH  28  31
ATOM     31  C   UNL     1       8.233  -5.616   0.882  1.00  0.00     0.039 A 
ATOM     32  C   UNL     1       9.459  -4.952   0.836  1.00  0.00     0.014 A 
ATOM     33  C   UNL     1       7.672  -5.999   2.104  1.00  0.00     0.014 A 
ATOM     34  C   UNL     1      10.097  -4.619   2.030  1.00  0.00     0.010 A 
ATOM     35  C   UNL     1       8.257  -5.575   3.288  1.00  0.00     0.010 A 
ATOM     36  C   UNL     1       9.484  -4.899   3.263  1.00  0.00    -0.014 A 
BRANCH  36  37
ATOM     37  C   UNL     1      10.127  -4.524   4.544  1.00  0.00     0.031 A 
ATOM     38  C   UNL     1      10.526  -5.598   5.518  1.00  0.00     0.074 A 
ATOM     39  C   UNL     1      10.295  -3.225   4.854  1.00  0.00     0.049 A 
ATOM     40  N   UNL     1      11.061  -5.477   6.706  1.00  0.00    -0.248 NA
ATOM     41  C   UNL     1      10.258  -6.991   5.121  1.00  0.00     0.031 C 
ATOM     42  C   UNL     1       9.900  -2.091   4.015  1.00  0.00     0.029 A 
ATOM     43  N   UNL     1      10.846  -2.640   5.965  1.00  0.00    -0.354 N 
ATOM     44  C   UNL     1      11.165  -6.770   7.203  1.00  0.00     0.074 A 
ATOM     45  C   UNL     1      10.587  -7.655   6.217  1.00  0.00     0.031 C 
ATOM     46  C   UNL     1      10.261  -0.949   4.623  1.00  0.00     0.029 A 
ATOM     47  C   UNL     1      10.876  -1.268   5.907  1.00  0.00     0.049 A 
ATOM     48  H   UNL     1      11.188  -3.154   6.732  1.00  0.00     0.167 HD
ATOM     49  C   UNL     1      11.718  -7.189   8.365  1.00  0.00     0.031 A 
ATOM     50  C   UNL     1      11.353  -0.370   6.789  1.00  0.00     0.031 A 
ATOM     51  C   UNL     1      12.320  -6.311   9.329  1.00  0.00     0.049 A 
ATOM     52  C   UNL     1      11.976  -0.861   8.065  1.00  0.00     0.074 A 
ATOM     53  C   UNL     1      12.973  -6.638  10.504  1.00  0.00     0.029 A 
ATOM     54  N   UNL     1      12.345  -4.929   9.225  1.00  0.00    -0.354 N 
ATOM     55  N   UNL     1      12.138  -2.092   8.487  1.00  0.00    -0.248 NA
ATOM     56  C   UNL     1      12.496   0.164   8.981  1.00  0.00     0.031 C 
ATOM     57  C   UNL     1      13.354  -5.449  11.135  1.00  0.00     0.029 A 
ATOM     58  C   UNL     1      12.984  -4.386  10.326  1.00  0.00     0.049 A 
ATOM     59  H   UNL     1      11.965  -4.411   8.479  1.00  0.00     0.167 HD
ATOM     60  C   UNL     1      12.804  -1.992   9.701  1.00  0.00     0.074 A 
ATOM     61  C   UNL     1      13.029  -0.581   9.940  1.00  0.00     0.031 C 
ATOM     62  C   UNL     1      13.198  -2.979  10.542  1.00  0.00     0.031 A 
BRANCH  49  63
ATOM     63  C   UNL     1      11.690  -8.665   8.650  1.00  0.00    -0.014 A 
ATOM     64  C   UNL     1      12.471  -9.566   7.908  1.00  0.00     0.009 A 
ATOM     65  C   UNL     1      10.883  -9.160   9.685  1.00  0.00     0.009 A 
ATOM     66  C   UNL     1      12.412 -10.936   8.169  1.00  0.00     0.001 A 
ATOM     67  C   UNL     1      10.849 -10.527   9.964  1.00  0.00     0.001 A 
ATOM     68  C   UNL     1      11.604 -11.415   9.199  1.00  0.00     0.000 A 
ENDBRANCH  49  63
BRANCH  50  69
ATOM     69  C   UNL     1      11.296   1.082   6.481  1.00  0.00    -0.014 A 
ATOM     70  C   UNL     1      12.470   1.789   6.177  1.00  0.00     0.009 A 
ATOM     71  C   UNL     1      10.073   1.771   6.495  1.00  0.00     0.009 A 
ATOM     72  C   UNL     1      12.425   3.161   5.921  1.00  0.00     0.001 A 
ATOM     73  C   UNL     1      10.028   3.138   6.211  1.00  0.00     0.001 A 
ATOM     74  C   UNL     1      11.204   3.833   5.935  1.00  0.00     0.000 A 
ENDBRANCH  50  69
BRANCH  62  75
ATOM     75  C   UNL     1      13.943  -2.566  11.779  1.00  0.00    -0.014 A 
ATOM     76  C   UNL     1      13.289  -1.938  12.850  1.00  0.00     0.009 A 
ATOM     77  C   UNL     1      15.315  -2.845  11.886  1.00  0.00     0.009 A 
ATOM     78  C   UNL     1      14.003  -1.566  13.990  1.00  0.00     0.001 A 
ATOM     79  C   UNL     1      16.019  -2.498  13.038  1.00  0.00     0.001 A 
ATOM     80  C   UNL     1      15.365  -1.850  14.085  1.00  0.00     0.000 A 
ENDBRANCH  62  75
ENDBRANCH  36  37
ENDBRANCH  28  31
ENDBRANCH  26  27
ENDBRANCH  25  26
ENDBRANCH   1  25
TORSDOF 15
