REMARK SMILES O=C(N/N=C/c1ccc(C(=O)NCCCNC(=O)c2ccc(-c3c4nc(c(-c5ccccc5)c5ccc([nH]5)c(-c5ccccc5)c5nc(c(-c6ccccc6)c6ccc3[nH]6)C=C5)C=C4)cc2)cc1)C(=O)Nc1ccc2c(c1)OCO2
REMARK SMILES IDX 13 1 12 2 10 3 11 4 9 6 6 7 7 8 68 9 8 10 67 11 5 12 4 13
REMARK SMILES IDX 3 14 1 15 2 16 69 18 70 19 71 20 72 22 73 23 77 24 74 25
REMARK SMILES IDX 76 26 75 27 78 28 80 29 79 30 14 31 15 32 16 33 17 34 18 36
REMARK SMILES IDX 19 37 20 38 66 39 21 40 65 41 22 42 23 43 24 44 59 45 25 46
REMARK SMILES IDX 64 47 58 48 60 49 26 50 63 51 57 52 56 53 27 55 49 56 34 57
REMARK SMILES IDX 48 58 35 59 38 60 47 61 61 62 36 63 37 64 46 66 62 67 39 68
REMARK SMILES IDX 28 69 29 70 33 71 30 72 32 73 31 74 50 75 51 76 55 77 52 78
REMARK SMILES IDX 54 79 53 80 40 81 41 82 45 83 42 84 44 85 43 86
REMARK H PARENT 12 5 3 17 71 21 16 35 60 54 38 65
REMARK Flexibility Score: inf
ROOT
ATOM      1  C   UNL     1      11.476  -0.414  -2.311  1.00  0.00     0.118 C 
ENDROOT
BRANCH   1   2
ATOM      2  N   UNL     1      11.858   0.190  -1.044  1.00  0.00    -0.352 N 
ATOM      3  C   UNL     1      11.084   0.731  -0.045  1.00  0.00     0.251 C 
ATOM      4  O   UNL     1      11.629   1.174   0.962  1.00  0.00    -0.269 OA
ATOM      5  H   UNL     1      12.828   0.216  -0.875  1.00  0.00     0.163 HD
BRANCH   3   6
ATOM      6  C   UNL     1       9.605   0.681  -0.128  1.00  0.00     0.039 A 
ATOM      7  C   UNL     1       6.609  -0.120  -0.314  1.00  0.00    -0.005 A 
ATOM      8  C   UNL     1       7.473   0.177   0.911  1.00  0.00     0.010 A 
ATOM      9  C   UNL     1       7.540   0.374  -1.382  1.00  0.00     0.010 A 
ATOM     10  C   UNL     1       8.861   0.496   1.007  1.00  0.00     0.014 A 
ATOM     11  C   UNL     1       8.894   0.782  -1.293  1.00  0.00     0.014 A 
BRANCH   7  12
ATOM     12  C   UNL     1       4.643  -0.954  -0.429  1.00  0.00     0.141 C 
ATOM     13  N   UNL     1       3.479  -0.659  -1.101  1.00  0.00    -0.180 NA
BRANCH  13  14
ATOM     14  N   UNL     1       2.350  -0.975  -0.441  1.00  0.00    -0.239 N 
ATOM     15  O   UNL     1       0.564  -0.281   0.734  1.00  0.00    -0.262 OA
ATOM     16  C   UNL     1       1.758  -0.111   0.476  1.00  0.00     0.329 C 
ATOM     17  H   UNL     1       1.927  -1.848  -0.613  1.00  0.00     0.194 HD
BRANCH  16  18
ATOM     18  C   UNL     1       2.491   1.079   1.176  1.00  0.00     0.315 C 
ATOM     19  O   UNL     1       1.814   2.046   1.534  1.00  0.00    -0.263 OA
ATOM     20  N   UNL     1       3.816   1.036   1.604  1.00  0.00    -0.318 N 
ATOM     21  H   UNL     1       4.016   1.364   2.510  1.00  0.00     0.170 HD
BRANCH  20  22
ATOM     22  C   UNL     1       4.880   0.560   0.832  1.00  0.00     0.045 A 
ATOM     23  C   UNL     1       5.537  -1.082   1.362  1.00  0.00     0.030 A 
ATOM     24  C   UNL     1       4.896   1.045  -0.936  1.00  0.00     0.076 A 
ATOM     25  C   UNL     1       6.192  -2.232   0.089  1.00  0.00     0.053 A 
ATOM     26  C   UNL     1       5.397  -0.204  -2.161  1.00  0.00     0.167 A 
ATOM     27  C   UNL     1       6.048  -1.783  -1.642  1.00  0.00     0.165 A 
ATOM     28  O   UNL     1       5.180  -0.298  -3.500  1.00  0.00    -0.454 OA
ATOM     29  O   UNL     1       6.101  -2.554  -2.759  1.00  0.00    -0.454 OA
ATOM     30  C   UNL     1       5.286  -1.756  -3.700  1.00  0.00     0.468 C 
ENDBRANCH  20  22
ENDBRANCH  16  18
ENDBRANCH  13  14
ENDBRANCH   7  12
ENDBRANCH   3   6
ENDBRANCH   1   2
BRANCH   1  31
ATOM     31  C   UNL     1      11.511   0.622  -3.432  1.00  0.00     0.042 C 
BRANCH  31  32
ATOM     32  C   UNL     1      12.923   1.015  -3.811  1.00  0.00     0.118 C 
BRANCH  32  33
ATOM     33  N   UNL     1      13.641  -0.101  -4.396  1.00  0.00    -0.352 N 
ATOM     34  C   UNL     1      14.200  -0.211  -5.639  1.00  0.00     0.251 C 
ATOM     35  H   UNL     1      13.740  -0.891  -3.817  1.00  0.00     0.163 HD
ATOM     36  O   UNL     1      14.493  -1.318  -6.078  1.00  0.00    -0.269 OA
BRANCH  34  37
ATOM     37  C   UNL     1      14.448   1.002  -6.443  1.00  0.00     0.039 A 
ATOM     38  C   UNL     1      14.332   0.919  -7.830  1.00  0.00     0.014 A 
ATOM     39  C   UNL     1      14.834   2.203  -5.838  1.00  0.00     0.014 A 
ATOM     40  C   UNL     1      14.591   2.046  -8.606  1.00  0.00     0.010 A 
ATOM     41  C   UNL     1      14.968   3.353  -6.601  1.00  0.00     0.010 A 
ATOM     42  C   UNL     1      14.890   3.276  -7.995  1.00  0.00    -0.014 A 
BRANCH  42  43
ATOM     43  C   UNL     1      15.159   4.478  -8.814  1.00  0.00     0.031 A 
ATOM     44  C   UNL     1      16.507   5.143  -8.762  1.00  0.00     0.074 A 
ATOM     45  C   UNL     1      14.180   4.973  -9.592  1.00  0.00     0.049 A 
ATOM     46  N   UNL     1      16.946   6.167  -9.449  1.00  0.00    -0.248 NA
ATOM     47  C   UNL     1      17.482   4.607  -7.798  1.00  0.00     0.031 C 
ATOM     48  C   UNL     1      12.823   4.431  -9.693  1.00  0.00     0.029 A 
ATOM     49  N   UNL     1      14.183   6.029 -10.464  1.00  0.00    -0.354 N 
ATOM     50  C   UNL     1      18.237   6.400  -8.991  1.00  0.00     0.074 A 
ATOM     51  C   UNL     1      18.483   5.462  -7.920  1.00  0.00     0.031 C 
ATOM     52  C   UNL     1      12.149   5.113 -10.630  1.00  0.00     0.029 A 
ATOM     53  C   UNL     1      13.004   6.171 -11.153  1.00  0.00     0.049 A 
ATOM     54  H   UNL     1      14.956   6.628 -10.585  1.00  0.00     0.167 HD
ATOM     55  C   UNL     1      19.146   7.298  -9.439  1.00  0.00     0.031 A 
ATOM     56  C   UNL     1      12.657   7.053 -12.108  1.00  0.00     0.031 A 
ATOM     57  C   UNL     1      18.884   8.239 -10.495  1.00  0.00     0.049 A 
ATOM     58  C   UNL     1      13.666   8.073 -12.553  1.00  0.00     0.074 A 
ATOM     59  C   UNL     1      19.744   9.163 -11.060  1.00  0.00     0.029 A 
ATOM     60  N   UNL     1      17.661   8.385 -11.134  1.00  0.00    -0.354 N 
ATOM     61  N   UNL     1      14.911   8.230 -12.171  1.00  0.00    -0.248 NA
ATOM     62  C   UNL     1      13.221   9.030 -13.574  1.00  0.00     0.031 C 
ATOM     63  C   UNL     1      19.017   9.924 -11.982  1.00  0.00     0.029 A 
ATOM     64  C   UNL     1      17.731   9.413 -12.058  1.00  0.00     0.049 A 
ATOM     65  H   UNL     1      16.862   7.838 -10.956  1.00  0.00     0.167 HD
ATOM     66  C   UNL     1      15.411   9.279 -12.932  1.00  0.00     0.074 A 
ATOM     67  C   UNL     1      14.337   9.708 -13.806  1.00  0.00     0.031 C 
ATOM     68  C   UNL     1      16.649   9.833 -12.914  1.00  0.00     0.031 A 
BRANCH  55  69
ATOM     69  C   UNL     1      20.489   7.319  -8.756  1.00  0.00    -0.014 A 
ATOM     70  C   UNL     1      21.369   6.224  -8.822  1.00  0.00     0.009 A 
ATOM     71  C   UNL     1      20.881   8.452  -8.026  1.00  0.00     0.009 A 
ATOM     72  C   UNL     1      22.578   6.240  -8.122  1.00  0.00     0.001 A 
ATOM     73  C   UNL     1      22.108   8.483  -7.362  1.00  0.00     0.001 A 
ATOM     74  C   UNL     1      22.948   7.370  -7.396  1.00  0.00     0.000 A 
ENDBRANCH  55  69
BRANCH  56  75
ATOM     75  C   UNL     1      11.311   6.979 -12.733  1.00  0.00    -0.014 A 
ATOM     76  C   UNL     1      11.172   6.604 -14.078  1.00  0.00     0.009 A 
ATOM     77  C   UNL     1      10.157   7.276 -11.990  1.00  0.00     0.009 A 
ATOM     78  C   UNL     1       9.910   6.555 -14.673  1.00  0.00     0.001 A 
ATOM     79  C   UNL     1       8.894   7.192 -12.578  1.00  0.00     0.001 A 
ATOM     80  C   UNL     1       8.772   6.843 -13.922  1.00  0.00     0.000 A 
ENDBRANCH  56  75
BRANCH  68  81
ATOM     81  C   UNL     1      16.924  10.932 -13.905  1.00  0.00    -0.014 A 
ATOM     82  C   UNL     1      16.308  12.189 -13.805  1.00  0.00     0.009 A 
ATOM     83  C   UNL     1      17.847  10.710 -14.940  1.00  0.00     0.009 A 
ATOM     84  C   UNL     1      16.577  13.184 -14.747  1.00  0.00     0.001 A 
ATOM     85  C   UNL     1      18.145  11.719 -15.855  1.00  0.00     0.001 A 
ATOM     86  C   UNL     1      17.500  12.951 -15.766  1.00  0.00     0.000 A 
ENDBRANCH  68  81
ENDBRANCH  42  43
ENDBRANCH  34  37
ENDBRANCH  32  33
ENDBRANCH  31  32
ENDBRANCH   1  31
TORSDOF 14
