REMARK SMILES CCCC[C@@H](C)[NH2+]Cc1ccc(C(=O)NCCCNC(=O)c2ccc(-c3c4nc(c(-c5ccccc5)c5ccc([nH]5)c(-c5ccccc5)c5nc(c(-c6ccccc6)c6ccc3[nH]6)C=C5)C=C4)cc2)cn1
REMARK SMILES IDX 13 1 14 2 15 3 12 5 9 6 10 7 71 8 11 9 70 10 8 11 7 12 5 15
REMARK SMILES IDX 6 16 4 17 3 18 2 19 1 20 16 21 17 22 18 23 19 24 20 25 21 27
REMARK SMILES IDX 22 28 23 29 69 30 24 31 68 32 25 33 26 34 27 35 62 36 28 37
REMARK SMILES IDX 67 38 61 39 63 40 29 41 66 42 60 43 59 44 30 46 52 47 37 48
REMARK SMILES IDX 51 49 38 50 41 51 50 52 64 53 39 54 40 55 49 57 65 58 42 59
REMARK SMILES IDX 31 60 32 61 36 62 33 63 35 64 34 65 53 66 54 67 58 68 55 69
REMARK SMILES IDX 57 70 56 71 43 72 44 73 48 74 45 75 47 76 46 77
REMARK H PARENT 15 4 7 13 7 14 19 26 63 45 41 56
REMARK Flexibility Score: inf
ROOT
ATOM      1  C   UNL     1      -4.950   5.603  -4.604  1.00  0.00     0.252 C 
ATOM      2  O   UNL     1      -4.161   6.448  -4.193  1.00  0.00    -0.269 OA
ATOM      3  N   UNL     1      -6.166   5.993  -5.092  1.00  0.00    -0.352 N 
ATOM      4  H   UNL     1      -6.369   6.951  -4.993  1.00  0.00     0.163 HD
ENDROOT
BRANCH   1   5
ATOM      5  C   UNL     1      -4.556   4.187  -4.595  1.00  0.00     0.058 A 
ATOM      6  C   UNL     1      -3.501   1.666  -4.386  1.00  0.00     0.094 A 
ATOM      7  C   UNL     1      -4.807   1.882  -3.951  1.00  0.00     0.030 A 
ATOM      8  N   UNL     1      -2.765   2.630  -5.006  1.00  0.00    -0.255 NA
ATOM      9  C   UNL     1      -5.335   3.169  -4.044  1.00  0.00     0.017 A 
ATOM     10  C   UNL     1      -3.293   3.872  -5.065  1.00  0.00     0.125 A 
BRANCH   6  11
ATOM     11  C   UNL     1      -2.779   0.376  -4.031  1.00  0.00     0.318 C 
BRANCH  11  12
ATOM     12  N   UNL     1      -1.332   0.567  -3.829  1.00  0.00    -0.339 N 
ATOM     13  H   UNL     1      -0.876  -0.336  -3.961  1.00  0.00     0.346 HD
ATOM     14  H   UNL     1      -1.049   1.277  -4.504  1.00  0.00     0.346 HD
BRANCH  12  15
ATOM     15  C   UNL     1      -0.931   1.088  -2.505  1.00  0.00     0.179 C 
ATOM     16  C   UNL     1      -1.471   2.485  -2.173  1.00  0.00     0.075 C 
BRANCH  15  17
ATOM     17  C   UNL     1       0.616   1.075  -2.502  1.00  0.00     0.065 C 
BRANCH  17  18
ATOM     18  C   UNL     1       1.308   1.702  -1.284  1.00  0.00     0.006 C 
BRANCH  18  19
ATOM     19  C   UNL     1       0.863   1.180   0.083  1.00  0.00    -0.003 C 
ATOM     20  C   UNL     1       1.137  -0.300   0.282  1.00  0.00     0.004 C 
ENDBRANCH  18  19
ENDBRANCH  17  18
ENDBRANCH  15  17
ENDBRANCH  12  15
ENDBRANCH  11  12
ENDBRANCH   6  11
ENDBRANCH   1   5
BRANCH   3  21
ATOM     21  C   UNL     1      -7.200   5.206  -5.734  1.00  0.00     0.118 C 
BRANCH  21  22
ATOM     22  C   UNL     1      -8.438   5.100  -4.851  1.00  0.00     0.042 C 
BRANCH  22  23
ATOM     23  C   UNL     1      -9.170   6.427  -4.683  1.00  0.00     0.118 C 
BRANCH  23  24
ATOM     24  N   UNL     1      -9.762   6.882  -5.933  1.00  0.00    -0.352 N 
ATOM     25  C   UNL     1     -11.078   7.100  -6.250  1.00  0.00     0.251 C 
ATOM     26  H   UNL     1      -9.121   7.059  -6.659  1.00  0.00     0.163 HD
ATOM     27  O   UNL     1     -11.409   7.239  -7.422  1.00  0.00    -0.269 OA
BRANCH  25  28
ATOM     28  C   UNL     1     -12.098   7.165  -5.183  1.00  0.00     0.039 A 
ATOM     29  C   UNL     1     -13.337   6.556  -5.395  1.00  0.00     0.014 A 
ATOM     30  C   UNL     1     -11.852   7.864  -3.997  1.00  0.00     0.014 A 
ATOM     31  C   UNL     1     -14.314   6.608  -4.400  1.00  0.00     0.010 A 
ATOM     32  C   UNL     1     -12.798   7.854  -2.978  1.00  0.00     0.010 A 
ATOM     33  C   UNL     1     -14.043   7.238  -3.175  1.00  0.00    -0.014 A 
BRANCH  33  34
ATOM     34  C   UNL     1     -15.054   7.282  -2.092  1.00  0.00     0.031 A 
ATOM     35  C   UNL     1     -15.634   8.599  -1.656  1.00  0.00     0.074 A 
ATOM     36  C   UNL     1     -15.403   6.145  -1.461  1.00  0.00     0.049 A 
ATOM     37  N   UNL     1     -16.476   8.850  -0.686  1.00  0.00    -0.248 NA
ATOM     38  C   UNL     1     -15.187   9.796  -2.388  1.00  0.00     0.031 C 
ATOM     39  C   UNL     1     -14.883   4.811  -1.767  1.00  0.00     0.029 A 
ATOM     40  N   UNL     1     -16.274   5.933  -0.423  1.00  0.00    -0.354 N 
ATOM     41  C   UNL     1     -16.642  10.229  -0.678  1.00  0.00     0.074 A 
ATOM     42  C   UNL     1     -15.780  10.766  -1.709  1.00  0.00     0.031 C 
ATOM     43  C   UNL     1     -15.464   3.916  -0.951  1.00  0.00     0.029 A 
ATOM     44  C   UNL     1     -16.366   4.617  -0.043  1.00  0.00     0.049 A 
ATOM     45  H   UNL     1     -16.785   6.656   0.009  1.00  0.00     0.167 HD
ATOM     46  C   UNL     1     -17.452  10.981   0.104  1.00  0.00     0.031 A 
ATOM     47  C   UNL     1     -17.093   4.039   0.931  1.00  0.00     0.031 A 
ATOM     48  C   UNL     1     -18.322  10.445   1.116  1.00  0.00     0.049 A 
ATOM     49  C   UNL     1     -17.985   4.895   1.785  1.00  0.00     0.074 A 
ATOM     50  C   UNL     1     -19.224  11.116   1.923  1.00  0.00     0.029 A 
ATOM     51  N   UNL     1     -18.396   9.104   1.460  1.00  0.00    -0.354 N 
ATOM     52  N   UNL     1     -18.177   6.191   1.739  1.00  0.00    -0.248 NA
ATOM     53  C   UNL     1     -18.769   4.204   2.819  1.00  0.00     0.031 C 
ATOM     54  C   UNL     1     -19.815  10.185   2.784  1.00  0.00     0.029 A 
ATOM     55  C   UNL     1     -19.316   8.929   2.479  1.00  0.00     0.049 A 
ATOM     56  H   UNL     1     -17.873   8.383   1.040  1.00  0.00     0.167 HD
ATOM     57  C   UNL     1     -19.122   6.468   2.718  1.00  0.00     0.074 A 
ATOM     58  C   UNL     1     -19.474   5.204   3.331  1.00  0.00     0.031 C 
ATOM     59  C   UNL     1     -19.651   7.663   3.077  1.00  0.00     0.031 A 
BRANCH  46  60
ATOM     60  C   UNL     1     -17.428  12.469  -0.105  1.00  0.00    -0.014 A 
ATOM     61  C   UNL     1     -17.974  13.051  -1.261  1.00  0.00     0.009 A 
ATOM     62  C   UNL     1     -16.876  13.304   0.878  1.00  0.00     0.009 A 
ATOM     63  C   UNL     1     -17.933  14.435  -1.444  1.00  0.00     0.001 A 
ATOM     64  C   UNL     1     -16.861  14.690   0.705  1.00  0.00     0.001 A 
ATOM     65  C   UNL     1     -17.380  15.253  -0.460  1.00  0.00     0.000 A 
ENDBRANCH  46  60
BRANCH  47  66
ATOM     66  C   UNL     1     -17.024   2.570   1.137  1.00  0.00    -0.014 A 
ATOM     67  C   UNL     1     -18.107   1.752   0.780  1.00  0.00     0.009 A 
ATOM     68  C   UNL     1     -15.877   1.978   1.688  1.00  0.00     0.009 A 
ATOM     69  C   UNL     1     -18.052   0.373   0.993  1.00  0.00     0.001 A 
ATOM     70  C   UNL     1     -15.815   0.595   1.875  1.00  0.00     0.001 A 
ATOM     71  C   UNL     1     -16.905  -0.205   1.536  1.00  0.00     0.000 A 
ENDBRANCH  47  66
BRANCH  59  72
ATOM     72  C   UNL     1     -20.691   7.652   4.160  1.00  0.00    -0.014 A 
ATOM     73  C   UNL     1     -20.340   7.442   5.503  1.00  0.00     0.009 A 
ATOM     74  C   UNL     1     -22.034   7.894   3.835  1.00  0.00     0.009 A 
ATOM     75  C   UNL     1     -21.322   7.444   6.495  1.00  0.00     0.001 A 
ATOM     76  C   UNL     1     -23.009   7.921   4.833  1.00  0.00     0.001 A 
ATOM     77  C   UNL     1     -22.653   7.688   6.160  1.00  0.00     0.000 A 
ENDBRANCH  59  72
ENDBRANCH  33  34
ENDBRANCH  25  28
ENDBRANCH  23  24
ENDBRANCH  22  23
ENDBRANCH  21  22
ENDBRANCH   3  21
TORSDOF 16
