REMARK SMILES COC(=O)c1cc(F)cc(-c2ccccc2C(=O)NCCCNC(=O)c2ccc(-c3c4nc(c(-c5ccccc5)c5ccc([nH]5)c(-c5ccccc5)c5nc(c(-c6ccccc6)c6ccc3[nH]6)C=C5)C=C4)cc2)c1
REMARK SMILES IDX 20 1 19 2 17 3 18 4 16 6 11 7 12 8 13 9 15 10 14 11 10 12
REMARK SMILES IDX 5 13 6 14 74 15 7 16 8 17 9 18 3 19 4 20 2 21 1 22 21 23
REMARK SMILES IDX 22 24 23 25 24 26 25 28 26 29 27 30 73 31 28 32 72 33 29 34
REMARK SMILES IDX 30 35 31 36 66 37 32 38 71 39 65 40 67 41 33 42 70 43 64 44
REMARK SMILES IDX 63 45 34 47 56 48 41 49 55 50 42 51 45 52 54 53 68 54 43 55
REMARK SMILES IDX 44 56 53 58 69 59 46 60 35 61 36 62 40 63 37 64 39 65 38 66
REMARK SMILES IDX 57 67 58 68 62 69 59 70 61 71 60 72 47 73 48 74 52 75 49 76
REMARK SMILES IDX 51 77 50 78
REMARK H PARENT 19 5 23 27 67 46 45 57
REMARK Flexibility Score: inf
ROOT
ATOM      1  C   UNL     1       2.118  -1.435   4.494  1.00  0.00     0.118 C 
ENDROOT
BRANCH   1   2
ATOM      2  N   UNL     1       2.955  -1.901   5.569  1.00  0.00    -0.352 N 
ATOM      3  C   UNL     1       3.321  -3.093   6.116  1.00  0.00     0.251 C 
ATOM      4  O   UNL     1       4.464  -3.044   6.598  1.00  0.00    -0.269 OA
ATOM      5  H   UNL     1       3.382  -1.148   6.039  1.00  0.00     0.163 HD
BRANCH   3   6
ATOM      6  C   UNL     1       2.536  -4.363   6.328  1.00  0.00     0.047 A 
ATOM      7  C   UNL     1       1.439  -4.946   5.655  1.00  0.00    -0.005 A 
ATOM      8  C   UNL     1       0.956  -6.208   6.114  1.00  0.00     0.009 A 
ATOM      9  C   UNL     1       1.505  -6.883   7.200  1.00  0.00     0.001 A 
ATOM     10  C   UNL     1       3.059  -5.084   7.443  1.00  0.00     0.014 A 
ATOM     11  C   UNL     1       2.562  -6.314   7.874  1.00  0.00     0.001 A 
BRANCH   7  12
ATOM     12  C   UNL     1       0.713  -4.419   4.497  1.00  0.00    -0.014 A 
ATOM     13  C   UNL     1       0.559  -3.866   2.143  1.00  0.00     0.063 A 
ATOM     14  C   UNL     1      -0.741  -3.382   2.307  1.00  0.00     0.055 A 
ATOM     15  C   UNL     1       1.267  -4.437   3.210  1.00  0.00     0.024 A 
ATOM     16  C   UNL     1      -1.325  -3.469   3.559  1.00  0.00     0.124 A 
ATOM     17  F   UNL     1      -2.570  -3.010   3.743  1.00  0.00    -0.207 F 
ATOM     18  C   UNL     1      -0.615  -3.971   4.646  1.00  0.00     0.048 A 
BRANCH  13  19
ATOM     19  C   UNL     1       1.278  -3.620   0.885  1.00  0.00     0.337 C 
ATOM     20  O   UNL     1       1.750  -4.480   0.166  1.00  0.00    -0.246 OA
BRANCH  19  21
ATOM     21  O   UNL     1       1.404  -2.276   0.783  1.00  0.00    -0.465 OA
ATOM     22  C   UNL     1       2.089  -1.827  -0.387  1.00  0.00     0.282 C 
ENDBRANCH  19  21
ENDBRANCH  13  19
ENDBRANCH   7  12
ENDBRANCH   3   6
ENDBRANCH   1   2
BRANCH   1  23
ATOM     23  C   UNL     1       0.876  -0.699   4.952  1.00  0.00     0.042 C 
BRANCH  23  24
ATOM     24  C   UNL     1       0.477   0.426   4.002  1.00  0.00     0.118 C 
BRANCH  24  25
ATOM     25  N   UNL     1       0.433   0.079   2.588  1.00  0.00    -0.352 N 
ATOM     26  C   UNL     1      -0.303   0.624   1.562  1.00  0.00     0.251 C 
ATOM     27  H   UNL     1       1.024  -0.663   2.325  1.00  0.00     0.163 HD
ATOM     28  O   UNL     1      -0.136   0.221   0.413  1.00  0.00    -0.269 OA
BRANCH  26  29
ATOM     29  C   UNL     1      -1.353   1.631   1.810  1.00  0.00     0.039 A 
ATOM     30  C   UNL     1      -2.509   1.558   1.021  1.00  0.00     0.014 A 
ATOM     31  C   UNL     1      -1.244   2.615   2.791  1.00  0.00     0.014 A 
ATOM     32  C   UNL     1      -3.583   2.403   1.279  1.00  0.00     0.010 A 
ATOM     33  C   UNL     1      -2.352   3.385   3.119  1.00  0.00     0.010 A 
ATOM     34  C   UNL     1      -3.530   3.279   2.369  1.00  0.00    -0.014 A 
BRANCH  34  35
ATOM     35  C   UNL     1      -4.703   4.093   2.749  1.00  0.00     0.031 A 
ATOM     36  C   UNL     1      -4.610   5.589   2.710  1.00  0.00     0.074 A 
ATOM     37  C   UNL     1      -5.809   3.470   3.200  1.00  0.00     0.049 A 
ATOM     38  N   UNL     1      -5.475   6.480   3.116  1.00  0.00    -0.248 NA
ATOM     39  C   UNL     1      -3.359   6.160   2.181  1.00  0.00     0.031 C 
ATOM     40  C   UNL     1      -5.974   2.017   3.322  1.00  0.00     0.029 A 
ATOM     41  N   UNL     1      -7.002   3.975   3.641  1.00  0.00    -0.354 N 
ATOM     42  C   UNL     1      -4.854   7.710   2.939  1.00  0.00     0.074 A 
ATOM     43  C   UNL     1      -3.529   7.450   2.422  1.00  0.00     0.031 C 
ATOM     44  C   UNL     1      -7.212   1.750   3.764  1.00  0.00     0.029 A 
ATOM     45  C   UNL     1      -7.908   3.007   4.001  1.00  0.00     0.049 A 
ATOM     46  H   UNL     1      -7.193   4.940   3.695  1.00  0.00     0.167 HD
ATOM     47  C   UNL     1      -5.354   8.945   3.176  1.00  0.00     0.031 A 
ATOM     48  C   UNL     1      -9.162   3.129   4.473  1.00  0.00     0.031 A 
ATOM     49  C   UNL     1      -6.689   9.179   3.654  1.00  0.00     0.049 A 
ATOM     50  C   UNL     1      -9.718   4.510   4.661  1.00  0.00     0.074 A 
ATOM     51  C   UNL     1      -7.329  10.382   3.887  1.00  0.00     0.029 A 
ATOM     52  N   UNL     1      -7.596   8.173   3.958  1.00  0.00    -0.354 N 
ATOM     53  N   UNL     1      -9.132   5.667   4.459  1.00  0.00    -0.248 NA
ATOM     54  C   UNL     1     -11.104   4.606   5.134  1.00  0.00     0.031 C 
ATOM     55  C   UNL     1      -8.618  10.102   4.356  1.00  0.00     0.029 A 
ATOM     56  C   UNL     1      -8.791   8.726   4.378  1.00  0.00     0.049 A 
ATOM     57  H   UNL     1      -7.415   7.208   3.885  1.00  0.00     0.167 HD
ATOM     58  C   UNL     1     -10.079   6.630   4.769  1.00  0.00     0.074 A 
ATOM     59  C   UNL     1     -11.286   5.919   5.148  1.00  0.00     0.031 C 
ATOM     60  C   UNL     1      -9.966   7.980   4.750  1.00  0.00     0.031 A 
BRANCH  47  61
ATOM     61  C   UNL     1      -4.441  10.115   2.933  1.00  0.00    -0.014 A 
ATOM     62  C   UNL     1      -4.052  10.482   1.634  1.00  0.00     0.009 A 
ATOM     63  C   UNL     1      -3.946  10.852   4.020  1.00  0.00     0.009 A 
ATOM     64  C   UNL     1      -3.150  11.529   1.433  1.00  0.00     0.001 A 
ATOM     65  C   UNL     1      -3.067  11.918   3.814  1.00  0.00     0.001 A 
ATOM     66  C   UNL     1      -2.660  12.247   2.522  1.00  0.00     0.000 A 
ENDBRANCH  47  61
BRANCH  48  67
ATOM     67  C   UNL     1      -9.968   1.915   4.764  1.00  0.00    -0.014 A 
ATOM     68  C   UNL     1     -11.031   1.551   3.923  1.00  0.00     0.009 A 
ATOM     69  C   UNL     1      -9.659   1.092   5.858  1.00  0.00     0.009 A 
ATOM     70  C   UNL     1     -11.778   0.399   4.182  1.00  0.00     0.001 A 
ATOM     71  C   UNL     1     -10.390  -0.074   6.099  1.00  0.00     0.001 A 
ATOM     72  C   UNL     1     -11.453  -0.416   5.265  1.00  0.00     0.000 A 
ENDBRANCH  48  67
BRANCH  60  73
ATOM     73  C   UNL     1     -11.186   8.760   5.137  1.00  0.00    -0.014 A 
ATOM     74  C   UNL     1     -11.576   8.867   6.480  1.00  0.00     0.009 A 
ATOM     75  C   UNL     1     -11.931   9.420   4.148  1.00  0.00     0.009 A 
ATOM     76  C   UNL     1     -12.712   9.601   6.823  1.00  0.00     0.001 A 
ATOM     77  C   UNL     1     -13.052  10.171   4.497  1.00  0.00     0.001 A 
ATOM     78  C   UNL     1     -13.446  10.255   5.833  1.00  0.00     0.000 A 
ENDBRANCH  60  73
ENDBRANCH  34  35
ENDBRANCH  26  29
ENDBRANCH  24  25
ENDBRANCH  23  24
ENDBRANCH   1  23
TORSDOF 13
