REMARK SMILES COC(=O)C[C@H](NC(=O)N(C)C[C@@H]1CCC[N@H+]1C)C(=O)NCCCNC(=O)c1ccc(-c2c3nc(c(-c4ccccc4)c4ccc([nH]4)c(-c4ccccc4)c4nc(c(-c5ccccc5)c5ccc2[nH]5)C=C4)C=C3)cc1
REMARK SMILES IDX 22 1 21 2 19 3 20 4 6 6 5 7 3 8 4 9 2 10 1 11 7 12 8 13 9 15
REMARK SMILES IDX 10 16 11 17 12 18 13 19 14 20 17 21 15 22 16 23 18 24 23 26
REMARK SMILES IDX 24 27 25 28 26 29 27 31 28 32 29 33 75 34 30 35 74 36 31 37
REMARK SMILES IDX 32 38 33 39 68 40 34 41 73 42 67 43 69 44 35 45 72 46 66 47
REMARK SMILES IDX 65 48 36 50 58 51 43 52 57 53 44 54 47 55 56 56 70 57 45 58
REMARK SMILES IDX 46 59 55 61 71 62 48 63 37 64 38 65 42 66 39 67 41 68 40 69
REMARK SMILES IDX 59 70 60 71 64 72 61 73 63 74 62 75 49 76 50 77 54 78 51 79
REMARK SMILES IDX 53 80 52 81
REMARK H PARENT 21 5 7 14 17 25 25 30 69 49 47 60
REMARK Flexibility Score: inf
ROOT
ATOM      1  C   UNL     1       5.973   4.844   4.467  1.00  0.00     0.117 C 
ENDROOT
BRANCH   1   2
ATOM      2  N   UNL     1       5.750   5.986   5.341  1.00  0.00    -0.354 N 
ATOM      3  C   UNL     1       5.510   6.029   6.685  1.00  0.00     0.243 C 
ATOM      4  O   UNL     1       5.572   7.127   7.245  1.00  0.00    -0.273 OA
ATOM      5  H   UNL     1       5.777   6.863   4.894  1.00  0.00     0.163 HD
BRANCH   3   6
ATOM      6  C   UNL     1       5.294   4.742   7.498  1.00  0.00     0.184 C 
BRANCH   6   7
ATOM      7  C   UNL     1       6.649   4.032   7.628  1.00  0.00     0.157 C 
BRANCH   7   8
ATOM      8  C   UNL     1       6.544   2.541   7.674  1.00  0.00     0.308 C 
ATOM      9  O   UNL     1       6.737   1.825   6.698  1.00  0.00    -0.252 OA
BRANCH   8  10
ATOM     10  O   UNL     1       6.165   2.114   8.904  1.00  0.00    -0.469 OA
ATOM     11  C   UNL     1       6.001   0.698   9.000  1.00  0.00     0.282 C 
ENDBRANCH   8  10
ENDBRANCH   7   8
ENDBRANCH   6   7
BRANCH   6  12
ATOM     12  N   UNL     1       4.214   3.973   6.878  1.00  0.00    -0.326 N 
ATOM     13  C   UNL     1       2.884   4.104   6.752  1.00  0.00     0.318 C 
ATOM     14  H   UNL     1       4.547   3.154   6.444  1.00  0.00     0.166 HD
ATOM     15  O   UNL     1       2.357   3.165   6.144  1.00  0.00    -0.249 OA
BRANCH  13  16
ATOM     16  N   UNL     1       2.158   5.178   7.183  1.00  0.00    -0.322 N 
ATOM     17  C   UNL     1       2.576   6.309   7.997  1.00  0.00     0.149 C 
BRANCH  16  18
ATOM     18  C   UNL     1       0.720   5.180   6.829  1.00  0.00     0.185 C 
BRANCH  18  19
ATOM     19  C   UNL     1       0.424   5.367   5.317  1.00  0.00     0.203 C 
ATOM     20  C   UNL     1      -0.049   6.790   4.974  1.00  0.00     0.073 C 
ATOM     21  N   UNL     1      -0.711   4.555   4.822  1.00  0.00    -0.333 N 
ATOM     22  C   UNL     1      -1.039   6.627   3.820  1.00  0.00     0.068 C 
ATOM     23  C   UNL     1      -1.061   5.139   3.527  1.00  0.00     0.262 C 
ATOM     24  C   UNL     1      -0.365   3.141   4.682  1.00  0.00     0.333 C 
ATOM     25  H   UNL     1      -1.489   4.574   5.481  1.00  0.00     0.348 HD
ENDBRANCH  18  19
ENDBRANCH  16  18
ENDBRANCH  13  16
ENDBRANCH   6  12
ENDBRANCH   3   6
ENDBRANCH   1   2
BRANCH   1  26
ATOM     26  C   UNL     1       4.928   4.711   3.372  1.00  0.00     0.042 C 
BRANCH  26  27
ATOM     27  C   UNL     1       4.821   5.923   2.456  1.00  0.00     0.118 C 
BRANCH  27  28
ATOM     28  N   UNL     1       6.079   6.260   1.802  1.00  0.00    -0.352 N 
ATOM     29  C   UNL     1       6.415   6.293   0.471  1.00  0.00     0.251 C 
ATOM     30  H   UNL     1       6.809   6.505   2.416  1.00  0.00     0.163 HD
ATOM     31  O   UNL     1       7.590   6.445   0.146  1.00  0.00    -0.269 OA
BRANCH  29  32
ATOM     32  C   UNL     1       5.382   6.124  -0.572  1.00  0.00     0.039 A 
ATOM     33  C   UNL     1       5.678   5.344  -1.693  1.00  0.00     0.014 A 
ATOM     34  C   UNL     1       4.135   6.742  -0.462  1.00  0.00     0.014 A 
ATOM     35  C   UNL     1       4.697   5.124  -2.663  1.00  0.00     0.010 A 
ATOM     36  C   UNL     1       3.131   6.446  -1.378  1.00  0.00     0.010 A 
ATOM     37  C   UNL     1       3.402   5.637  -2.491  1.00  0.00    -0.014 A 
BRANCH  37  38
ATOM     38  C   UNL     1       2.318   5.337  -3.461  1.00  0.00     0.031 A 
ATOM     39  C   UNL     1       1.656   6.449  -4.229  1.00  0.00     0.074 A 
ATOM     40  C   UNL     1       1.884   4.069  -3.603  1.00  0.00     0.049 A 
ATOM     41  N   UNL     1       0.654   6.388  -5.070  1.00  0.00    -0.248 NA
ATOM     42  C   UNL     1       2.167   7.811  -4.002  1.00  0.00     0.031 C 
ATOM     43  C   UNL     1       2.413   2.906  -2.887  1.00  0.00     0.029 A 
ATOM     44  N   UNL     1       0.893   3.547  -4.396  1.00  0.00    -0.354 N 
ATOM     45  C   UNL     1       0.407   7.699  -5.458  1.00  0.00     0.074 A 
ATOM     46  C   UNL     1       1.325   8.539  -4.720  1.00  0.00     0.031 C 
ATOM     47  C   UNL     1       1.762   1.805  -3.295  1.00  0.00     0.029 A 
ATOM     48  C   UNL     1       0.740   2.188  -4.264  1.00  0.00     0.049 A 
ATOM     49  H   UNL     1       0.343   4.095  -5.003  1.00  0.00     0.167 HD
ATOM     50  C   UNL     1      -0.489   8.162  -6.362  1.00  0.00     0.031 A 
ATOM     51  C   UNL     1      -0.131   1.344  -4.849  1.00  0.00     0.031 A 
ATOM     52  C   UNL     1      -1.397   7.326  -7.101  1.00  0.00     0.049 A 
ATOM     53  C   UNL     1      -1.128   1.886  -5.834  1.00  0.00     0.074 A 
ATOM     54  C   UNL     1      -2.304   7.695  -8.079  1.00  0.00     0.029 A 
ATOM     55  N   UNL     1      -1.516   5.955  -6.941  1.00  0.00    -0.354 N 
ATOM     56  N   UNL     1      -1.302   3.120  -6.241  1.00  0.00    -0.248 NA
ATOM     57  C   UNL     1      -2.042   0.914  -6.451  1.00  0.00     0.031 C 
ATOM     58  C   UNL     1      -3.015   6.555  -8.467  1.00  0.00     0.029 A 
ATOM     59  C   UNL     1      -2.502   5.466  -7.782  1.00  0.00     0.049 A 
ATOM     60  H   UNL     1      -0.979   5.409  -6.322  1.00  0.00     0.167 HD
ATOM     61  C   UNL     1      -2.323   3.069  -7.181  1.00  0.00     0.074 A 
ATOM     62  C   UNL     1      -2.716   1.679  -7.297  1.00  0.00     0.031 C 
ATOM     63  C   UNL     1      -2.885   4.081  -7.886  1.00  0.00     0.031 A 
BRANCH  50  64
ATOM     64  C   UNL     1      -0.536   9.648  -6.595  1.00  0.00    -0.014 A 
ATOM     65  C   UNL     1       0.518  10.320  -7.234  1.00  0.00     0.009 A 
ATOM     66  C   UNL     1      -1.670  10.380  -6.209  1.00  0.00     0.009 A 
ATOM     67  C   UNL     1       0.454  11.699  -7.448  1.00  0.00     0.001 A 
ATOM     68  C   UNL     1      -1.746  11.752  -6.453  1.00  0.00     0.001 A 
ATOM     69  C   UNL     1      -0.680  12.412  -7.063  1.00  0.00     0.000 A 
ENDBRANCH  50  64
BRANCH  51  70
ATOM     70  C   UNL     1      -0.094  -0.107  -4.524  1.00  0.00    -0.014 A 
ATOM     71  C   UNL     1       0.323  -1.043  -5.483  1.00  0.00     0.009 A 
ATOM     72  C   UNL     1      -0.484  -0.565  -3.256  1.00  0.00     0.009 A 
ATOM     73  C   UNL     1       0.320  -2.409  -5.188  1.00  0.00     0.001 A 
ATOM     74  C   UNL     1      -0.455  -1.927  -2.953  1.00  0.00     0.001 A 
ATOM     75  C   UNL     1      -0.063  -2.849  -3.922  1.00  0.00     0.000 A 
ENDBRANCH  51  70
BRANCH  63  76
ATOM     76  C   UNL     1      -3.958   3.720  -8.876  1.00  0.00    -0.014 A 
ATOM     77  C   UNL     1      -5.228   3.295  -8.457  1.00  0.00     0.009 A 
ATOM     78  C   UNL     1      -3.703   3.849 -10.250  1.00  0.00     0.009 A 
ATOM     79  C   UNL     1      -6.208   2.969  -9.397  1.00  0.00     0.001 A 
ATOM     80  C   UNL     1      -4.695   3.555 -11.187  1.00  0.00     0.001 A 
ATOM     81  C   UNL     1      -5.943   3.106 -10.760  1.00  0.00     0.000 A 
ENDBRANCH  63  76
ENDBRANCH  37  38
ENDBRANCH  29  32
ENDBRANCH  27  28
ENDBRANCH  26  27
ENDBRANCH   1  26
TORSDOF 17
