REMARK SMILES CSc1cccc(N2C[C@@H](C(=O)NCCCNC(=O)c3ccc(-c4c5nc(c(-c6ccccc6)c6ccc([nH]6)c(-c6ccccc6)c6nc(c(-c7ccccc7)c7ccc4[nH]7)C=C6)C=C5)cc3)CC2=O)c1
REMARK SMILES IDX 15 1 14 2 13 3 11 4 12 5 10 7 8 8 9 9 69 10 68 11 70 12 7 13
REMARK SMILES IDX 3 14 4 15 71 16 5 17 6 18 2 19 1 20 16 21 17 22 18 23 19 25
REMARK SMILES IDX 20 26 21 27 67 28 22 29 66 30 23 31 24 32 25 33 60 34 26 35
REMARK SMILES IDX 65 36 59 37 61 38 27 39 64 40 58 41 57 42 28 44 50 45 35 46
REMARK SMILES IDX 49 47 36 48 39 49 48 50 62 51 37 52 38 53 47 55 63 56 40 57
REMARK SMILES IDX 29 58 30 59 34 60 31 61 33 62 32 63 51 64 52 65 56 66 53 67
REMARK SMILES IDX 55 68 54 69 41 70 42 71 46 72 43 73 45 74 44 75
REMARK H PARENT 13 6 17 24 61 43 39 54
REMARK Flexibility Score: inf
ROOT
ATOM      1  C   UNL     1       1.720   9.186  -1.622  1.00  0.00     0.042 C 
ENDROOT
BRANCH   1   2
ATOM      2  C   UNL     1       2.375   8.650  -0.352  1.00  0.00     0.117 C 
BRANCH   2   3
ATOM      3  N   UNL     1       2.371   9.623   0.728  1.00  0.00    -0.356 N 
ATOM      4  C   UNL     1       1.731   9.653   1.924  1.00  0.00     0.225 C 
ATOM      5  O   UNL     1       1.949  10.625   2.652  1.00  0.00    -0.275 OA
ATOM      6  H   UNL     1       2.940  10.408   0.561  1.00  0.00     0.163 HD
BRANCH   4   7
ATOM      7  C   UNL     1       0.792   8.561   2.392  1.00  0.00     0.107 C 
ATOM      8  N   UNL     1       0.614   6.241   2.006  1.00  0.00    -0.312 N 
ATOM      9  C   UNL     1       1.479   7.226   2.610  1.00  0.00     0.139 C 
ATOM     10  C   UNL     1      -0.435   6.816   1.292  1.00  0.00     0.227 C 
ATOM     11  C   UNL     1      -0.386   8.308   1.469  1.00  0.00     0.116 C 
ATOM     12  O   UNL     1      -1.311   6.260   0.643  1.00  0.00    -0.274 OA
BRANCH   8  13
ATOM     13  C   UNL     1       0.862   4.848   2.100  1.00  0.00     0.045 A 
ATOM     14  C   UNL     1       0.744   2.597   1.132  1.00  0.00     0.009 A 
ATOM     15  C   UNL     1       1.282   2.076   2.310  1.00  0.00     0.015 A 
ATOM     16  C   UNL     1       0.518   3.982   1.052  1.00  0.00     0.041 A 
ATOM     17  C   UNL     1       1.626   2.923   3.364  1.00  0.00     0.003 A 
ATOM     18  C   UNL     1       1.442   4.303   3.249  1.00  0.00     0.026 A 
BRANCH  14  19
ATOM     19  S   UNL     1       0.304   1.626  -0.307  1.00  0.00    -0.130 SA
ATOM     20  C   UNL     1       0.951  -0.021   0.079  1.00  0.00     0.091 C 
ENDBRANCH  14  19
ENDBRANCH   8  13
ENDBRANCH   4   7
ENDBRANCH   2   3
ENDBRANCH   1   2
BRANCH   1  21
ATOM     21  C   UNL     1       2.423  10.394  -2.233  1.00  0.00     0.118 C 
BRANCH  21  22
ATOM     22  N   UNL     1       3.769  10.092  -2.701  1.00  0.00    -0.352 N 
ATOM     23  C   UNL     1       4.291  10.103  -3.972  1.00  0.00     0.251 C 
ATOM     24  H   UNL     1       4.406   9.840  -1.994  1.00  0.00     0.163 HD
ATOM     25  O   UNL     1       5.410   9.639  -4.172  1.00  0.00    -0.269 OA
BRANCH  23  26
ATOM     26  C   UNL     1       3.508  10.645  -5.104  1.00  0.00     0.039 A 
ATOM     27  C   UNL     1       3.501   9.947  -6.314  1.00  0.00     0.014 A 
ATOM     28  C   UNL     1       2.792  11.838  -4.983  1.00  0.00     0.014 A 
ATOM     29  C   UNL     1       2.708  10.399  -7.372  1.00  0.00     0.010 A 
ATOM     30  C   UNL     1       1.938  12.241  -6.006  1.00  0.00     0.010 A 
ATOM     31  C   UNL     1       1.881  11.522  -7.209  1.00  0.00    -0.014 A 
BRANCH  31  32
ATOM     32  C   UNL     1       0.928  11.941  -8.270  1.00  0.00     0.031 A 
ATOM     33  C   UNL     1       1.057  13.289  -8.923  1.00  0.00     0.074 A 
ATOM     34  C   UNL     1      -0.102  11.133  -8.592  1.00  0.00     0.049 A 
ATOM     35  N   UNL     1       0.277  13.854  -9.810  1.00  0.00    -0.248 NA
ATOM     36  C   UNL     1       2.198  14.122  -8.509  1.00  0.00     0.031 C 
ATOM     37  C   UNL     1      -0.362   9.815  -8.009  1.00  0.00     0.029 A 
ATOM     38  N   UNL     1      -1.130  11.307  -9.485  1.00  0.00    -0.354 N 
ATOM     39  C   UNL     1       0.822  15.109 -10.048  1.00  0.00     0.074 A 
ATOM     40  C   UNL     1       1.969  15.243  -9.177  1.00  0.00     0.031 C 
ATOM     41  C   UNL     1      -1.458   9.290  -8.578  1.00  0.00     0.029 A 
ATOM     42  C   UNL     1      -2.009  10.252  -9.526  1.00  0.00     0.049 A 
ATOM     43  H   UNL     1      -1.229  12.113 -10.043  1.00  0.00     0.167 HD
ATOM     44  C   UNL     1       0.416  16.059 -10.925  1.00  0.00     0.031 A 
ATOM     45  C   UNL     1      -3.141  10.080 -10.235  1.00  0.00     0.031 A 
ATOM     46  C   UNL     1      -0.726  15.926 -11.790  1.00  0.00     0.049 A 
ATOM     47  C   UNL     1      -3.593  11.167 -11.170  1.00  0.00     0.074 A 
ATOM     48  C   UNL     1      -1.186  16.811 -12.751  1.00  0.00     0.029 A 
ATOM     49  N   UNL     1      -1.593  14.844 -11.795  1.00  0.00    -0.354 N 
ATOM     50  N   UNL     1      -3.025  12.318 -11.437  1.00  0.00    -0.248 NA
ATOM     51  C   UNL     1      -4.842  10.928 -11.908  1.00  0.00     0.031 C 
ATOM     52  C   UNL     1      -2.368  16.294 -13.290  1.00  0.00     0.029 A 
ATOM     53  C   UNL     1      -2.606  15.056 -12.715  1.00  0.00     0.049 A 
ATOM     54  H   UNL     1      -1.503  14.045 -11.227  1.00  0.00     0.167 HD
ATOM     55  C   UNL     1      -3.830  12.926 -12.391  1.00  0.00     0.074 A 
ATOM     56  C   UNL     1      -4.915  12.009 -12.671  1.00  0.00     0.031 C 
ATOM     57  C   UNL     1      -3.683  14.137 -12.983  1.00  0.00     0.031 A 
BRANCH  44  58
ATOM     58  C   UNL     1       1.207  17.338 -10.980  1.00  0.00    -0.014 A 
ATOM     59  C   UNL     1       2.515  17.365 -11.491  1.00  0.00     0.009 A 
ATOM     60  C   UNL     1       0.621  18.540 -10.556  1.00  0.00     0.009 A 
ATOM     61  C   UNL     1       3.232  18.563 -11.538  1.00  0.00     0.001 A 
ATOM     62  C   UNL     1       1.328  19.742 -10.635  1.00  0.00     0.001 A 
ATOM     63  C   UNL     1       2.636  19.750 -11.115  1.00  0.00     0.000 A 
ENDBRANCH  44  58
BRANCH  45  64
ATOM     64  C   UNL     1      -3.931   8.828 -10.090  1.00  0.00    -0.014 A 
ATOM     65  C   UNL     1      -4.015   7.911 -11.149  1.00  0.00     0.009 A 
ATOM     66  C   UNL     1      -4.614   8.548  -8.896  1.00  0.00     0.009 A 
ATOM     67  C   UNL     1      -4.789   6.755 -11.025  1.00  0.00     0.001 A 
ATOM     68  C   UNL     1      -5.359   7.375  -8.763  1.00  0.00     0.001 A 
ATOM     69  C   UNL     1      -5.456   6.485  -9.831  1.00  0.00     0.000 A 
ENDBRANCH  45  64
BRANCH  57  70
ATOM     70  C   UNL     1      -4.701  14.528 -14.018  1.00  0.00    -0.014 A 
ATOM     71  C   UNL     1      -6.017  14.860 -13.661  1.00  0.00     0.009 A 
ATOM     72  C   UNL     1      -4.322  14.612 -15.367  1.00  0.00     0.009 A 
ATOM     73  C   UNL     1      -6.940  15.236 -14.638  1.00  0.00     0.001 A 
ATOM     74  C   UNL     1      -5.237  15.020 -16.338  1.00  0.00     0.001 A 
ATOM     75  C   UNL     1      -6.548  15.323 -15.974  1.00  0.00     0.000 A 
ENDBRANCH  57  70
ENDBRANCH  31  32
ENDBRANCH  23  26
ENDBRANCH  21  22
ENDBRANCH   1  21
TORSDOF 12
