REMARK SMILES CC[NH2+][C@H](CC[N@H+](C)C1CCC(C)(C)CC1)C(=O)NCCCNC(=O)c1ccc(-c2c3nc(c(-c4ccccc4)c4ccc([nH]4)c(-c4ccccc4)c4nc(c(-c5ccccc5)c5ccc2[nH]5)C=C4)C=C3)cc1
REMARK SMILES IDX 20 1 19 2 17 3 18 4 4 6 3 7 2 10 1 11 5 12 6 13 7 14 8 15
REMARK SMILES IDX 9 17 10 18 16 19 11 20 15 21 12 22 13 23 14 24 21 25 22 26
REMARK SMILES IDX 23 27 24 28 25 30 26 31 27 32 73 33 28 34 72 35 29 36 30 37
REMARK SMILES IDX 31 38 66 39 32 40 71 41 65 42 67 43 33 44 70 45 64 46 63 47
REMARK SMILES IDX 34 49 56 50 41 51 55 52 42 53 45 54 54 55 68 56 43 57 44 58
REMARK SMILES IDX 53 60 69 61 46 62 35 63 36 64 40 65 37 66 39 67 38 68 57 69
REMARK SMILES IDX 58 70 62 71 59 72 61 73 60 74 47 75 48 76 52 77 49 78 51 79
REMARK SMILES IDX 50 80
REMARK H PARENT 19 5 3 8 3 9 7 16 23 29 67 48 45 59
REMARK Flexibility Score: inf
ROOT
ATOM      1  C   UNL     1       4.206  -0.462   3.594  1.00  0.00     0.118 C 
ENDROOT
BRANCH   1   2
ATOM      2  N   UNL     1       3.433   0.172   4.641  1.00  0.00    -0.351 N 
ATOM      3  C   UNL     1       2.095   0.130   4.909  1.00  0.00     0.278 C 
ATOM      4  O   UNL     1       1.769   0.221   6.098  1.00  0.00    -0.268 OA
ATOM      5  H   UNL     1       3.959   0.724   5.262  1.00  0.00     0.163 HD
BRANCH   3   6
ATOM      6  C   UNL     1       1.005  -0.060   3.835  1.00  0.00     0.278 C 
BRANCH   6   7
ATOM      7  N   UNL     1       1.041  -1.446   3.294  1.00  0.00    -0.336 N 
ATOM      8  H   UNL     1       0.220  -1.580   2.704  1.00  0.00     0.346 HD
ATOM      9  H   UNL     1       1.918  -1.536   2.781  1.00  0.00     0.346 HD
BRANCH   7  10
ATOM     10  C   UNL     1       1.046  -2.496   4.319  1.00  0.00     0.257 C 
ATOM     11  C   UNL     1       1.899  -3.680   3.877  1.00  0.00     0.071 C 
ENDBRANCH   7  10
ENDBRANCH   6   7
BRANCH   6  12
ATOM     12  C   UNL     1       1.099   0.986   2.702  1.00  0.00     0.137 C 
BRANCH  12  13
ATOM     13  C   UNL     1       0.237   2.273   2.824  1.00  0.00     0.269 C 
BRANCH  13  14
ATOM     14  N   UNL     1       0.537   3.465   3.643  1.00  0.00    -0.335 N 
ATOM     15  C   UNL     1       0.604   4.679   2.827  1.00  0.00     0.332 C 
ATOM     16  H   UNL     1      -0.289   3.497   4.241  1.00  0.00     0.348 HD
BRANCH  14  17
ATOM     17  C   UNL     1       1.523   3.403   4.727  1.00  0.00     0.183 C 
ATOM     18  C   UNL     1       2.959   3.616   4.267  1.00  0.00     0.065 C 
ATOM     19  C   UNL     1       1.183   4.372   5.893  1.00  0.00     0.065 C 
ATOM     20  C   UNL     1       3.989   3.460   5.387  1.00  0.00     0.012 C 
ATOM     21  C   UNL     1       2.389   4.822   6.747  1.00  0.00     0.012 C 
ATOM     22  C   UNL     1       3.537   3.804   6.817  1.00  0.00    -0.035 C 
ATOM     23  C   UNL     1       4.754   4.392   7.562  1.00  0.00     0.011 C 
ATOM     24  C   UNL     1       3.105   2.556   7.607  1.00  0.00     0.011 C 
ENDBRANCH  14  17
ENDBRANCH  13  14
ENDBRANCH  12  13
ENDBRANCH   6  12
ENDBRANCH   3   6
ENDBRANCH   1   2
BRANCH   1  25
ATOM     25  C   UNL     1       4.947   0.447   2.619  1.00  0.00     0.042 C 
BRANCH  25  26
ATOM     26  C   UNL     1       5.956   1.460   3.154  1.00  0.00     0.118 C 
BRANCH  26  27
ATOM     27  N   UNL     1       6.721   1.070   4.324  1.00  0.00    -0.352 N 
ATOM     28  C   UNL     1       7.829   1.715   4.829  1.00  0.00     0.251 C 
ATOM     29  H   UNL     1       6.419   0.265   4.803  1.00  0.00     0.163 HD
ATOM     30  O   UNL     1       8.391   1.320   5.844  1.00  0.00    -0.269 OA
BRANCH  28  31
ATOM     31  C   UNL     1       8.350   2.886   4.099  1.00  0.00     0.039 A 
ATOM     32  C   UNL     1       9.530   2.768   3.366  1.00  0.00     0.014 A 
ATOM     33  C   UNL     1       7.624   4.076   4.085  1.00  0.00     0.014 A 
ATOM     34  C   UNL     1       9.942   3.829   2.555  1.00  0.00     0.010 A 
ATOM     35  C   UNL     1       8.001   5.110   3.234  1.00  0.00     0.010 A 
ATOM     36  C   UNL     1       9.157   4.990   2.450  1.00  0.00    -0.014 A 
BRANCH  36  37
ATOM     37  C   UNL     1       9.495   6.070   1.492  1.00  0.00     0.031 A 
ATOM     38  C   UNL     1       9.888   7.432   1.983  1.00  0.00     0.074 A 
ATOM     39  C   UNL     1       9.344   5.848   0.172  1.00  0.00     0.049 A 
ATOM     40  N   UNL     1      10.134   8.518   1.295  1.00  0.00    -0.248 NA
ATOM     41  C   UNL     1       9.993   7.603   3.440  1.00  0.00     0.031 C 
ATOM     42  C   UNL     1       8.910   4.585  -0.430  1.00  0.00     0.029 A 
ATOM     43  N   UNL     1       9.515   6.687  -0.900  1.00  0.00    -0.354 N 
ATOM     44  C   UNL     1      10.403   9.505   2.233  1.00  0.00     0.074 A 
ATOM     45  C   UNL     1      10.253   8.899   3.539  1.00  0.00     0.031 C 
ATOM     46  C   UNL     1       8.857   4.731  -1.763  1.00  0.00     0.029 A 
ATOM     47  C   UNL     1       9.220   6.102  -2.107  1.00  0.00     0.049 A 
ATOM     48  H   UNL     1       9.821   7.619  -0.813  1.00  0.00     0.167 HD
ATOM     49  C   UNL     1      10.753  10.798   2.027  1.00  0.00     0.031 A 
ATOM     50  C   UNL     1       9.228   6.613  -3.353  1.00  0.00     0.031 A 
ATOM     51  C   UNL     1      10.902  11.401   0.730  1.00  0.00     0.049 A 
ATOM     52  C   UNL     1       9.632   8.043  -3.562  1.00  0.00     0.074 A 
ATOM     53  C   UNL     1      11.314  12.684   0.417  1.00  0.00     0.029 A 
ATOM     54  N   UNL     1      10.637  10.761  -0.471  1.00  0.00    -0.354 N 
ATOM     55  N   UNL     1       9.962   8.943  -2.668  1.00  0.00    -0.248 NA
ATOM     56  C   UNL     1       9.679   8.524  -4.950  1.00  0.00     0.031 C 
ATOM     57  C   UNL     1      11.259  12.834  -0.974  1.00  0.00     0.029 A 
ATOM     58  C   UNL     1      10.857  11.628  -1.527  1.00  0.00     0.049 A 
ATOM     59  H   UNL     1      10.337   9.827  -0.559  1.00  0.00     0.167 HD
ATOM     60  C   UNL     1      10.280  10.089  -3.384  1.00  0.00     0.074 A 
ATOM     61  C   UNL     1      10.108   9.769  -4.786  1.00  0.00     0.031 C 
ATOM     62  C   UNL     1      10.684  11.295  -2.917  1.00  0.00     0.031 A 
BRANCH  49  63
ATOM     63  C   UNL     1      10.981  11.647   3.247  1.00  0.00    -0.014 A 
ATOM     64  C   UNL     1      12.100  11.449   4.072  1.00  0.00     0.009 A 
ATOM     65  C   UNL     1      10.068  12.662   3.572  1.00  0.00     0.009 A 
ATOM     66  C   UNL     1      12.273  12.218   5.225  1.00  0.00     0.001 A 
ATOM     67  C   UNL     1      10.258  13.447   4.710  1.00  0.00     0.001 A 
ATOM     68  C   UNL     1      11.353  13.216   5.542  1.00  0.00     0.000 A 
ENDBRANCH  49  63
BRANCH  50  69
ATOM     69  C   UNL     1       8.855   5.745  -4.498  1.00  0.00    -0.014 A 
ATOM     70  C   UNL     1       9.842   5.235  -5.354  1.00  0.00     0.009 A 
ATOM     71  C   UNL     1       7.515   5.388  -4.714  1.00  0.00     0.009 A 
ATOM     72  C   UNL     1       9.493   4.392  -6.411  1.00  0.00     0.001 A 
ATOM     73  C   UNL     1       7.172   4.527  -5.759  1.00  0.00     0.001 A 
ATOM     74  C   UNL     1       8.161   4.034  -6.609  1.00  0.00     0.000 A 
ENDBRANCH  50  69
BRANCH  62  75
ATOM     75  C   UNL     1      11.003  12.355  -3.931  1.00  0.00    -0.014 A 
ATOM     76  C   UNL     1       9.986  13.054  -4.598  1.00  0.00     0.009 A 
ATOM     77  C   UNL     1      12.342  12.703  -4.171  1.00  0.00     0.009 A 
ATOM     78  C   UNL     1      10.305  14.072  -5.499  1.00  0.00     0.001 A 
ATOM     79  C   UNL     1      12.656  13.735  -5.056  1.00  0.00     0.001 A 
ATOM     80  C   UNL     1      11.638  14.415  -5.722  1.00  0.00     0.000 A 
ENDBRANCH  62  75
ENDBRANCH  36  37
ENDBRANCH  28  31
ENDBRANCH  26  27
ENDBRANCH  25  26
ENDBRANCH   1  25
TORSDOF 16
