REMARK SMILES O=C(CCCS(=O)(=O)Nc1ccc(Cl)cc1F)NCCCNC(=O)c1ccc(-c2c3nc(c(-c4ccccc4)c4ccc([nH]4)c(-c4ccccc4)c4nc(c(-c5ccccc5)c5ccc2[nH]5)C=C4)C=C3)cc1
REMARK SMILES IDX 1 1 2 2 18 3 3 5 4 6 5 7 6 8 7 9 8 10 9 11 10 13 11 14 16 15
REMARK SMILES IDX 12 16 15 17 17 18 13 19 14 20 19 21 20 22 21 23 22 24 23 25
REMARK SMILES IDX 24 27 25 28 26 29 72 30 27 31 71 32 28 33 29 34 30 35 65 36
REMARK SMILES IDX 31 37 70 38 64 39 66 40 32 41 69 42 63 43 62 44 33 46 55 47
REMARK SMILES IDX 40 48 54 49 41 50 44 51 53 52 67 53 42 54 43 55 52 57 68 58
REMARK SMILES IDX 45 59 34 60 35 61 39 62 36 63 38 64 37 65 56 66 57 67 61 68
REMARK SMILES IDX 58 69 60 70 59 71 46 72 47 73 51 74 48 75 50 76 49 77
REMARK H PARENT 18 4 9 12 22 26 66 45 44 56
REMARK Flexibility Score: inf
ROOT
ATOM      1  O   UNL     1       1.352   1.832  -1.756  1.00  0.00    -0.275 OA
ATOM      2  C   UNL     1       2.182   1.185  -1.128  1.00  0.00     0.220 C 
ATOM      3  N   UNL     1       2.585   1.523   0.145  1.00  0.00    -0.356 N 
ATOM      4  H   UNL     1       3.228   0.947   0.619  1.00  0.00     0.163 HD
ENDROOT
BRANCH   2   5
ATOM      5  C   UNL     1       2.814  -0.073  -1.692  1.00  0.00     0.101 C 
BRANCH   5   6
ATOM      6  C   UNL     1       4.275   0.037  -2.107  1.00  0.00     0.028 C 
BRANCH   6   7
ATOM      7  C   UNL     1       5.321   0.319  -1.029  1.00  0.00     0.160 C 
BRANCH   7   8
ATOM      8  S   UNL     1       5.842  -1.062   0.004  1.00  0.00     0.232 S 
ATOM      9  O   UNL     1       5.658  -2.308  -0.689  1.00  0.00    -0.207 OA
ATOM     10  O   UNL     1       7.161  -0.697   0.494  1.00  0.00    -0.207 OA
BRANCH   8  11
ATOM     11  N   UNL     1       4.918  -0.975   1.391  1.00  0.00    -0.281 N 
ATOM     12  H   UNL     1       5.360  -0.564   2.168  1.00  0.00     0.180 HD
BRANCH  11  13
ATOM     13  C   UNL     1       3.577  -1.413   1.611  1.00  0.00     0.084 A 
ATOM     14  C   UNL     1       2.902  -0.749   2.644  1.00  0.00     0.031 A 
ATOM     15  C   UNL     1       2.860  -2.349   0.861  1.00  0.00     0.148 A 
ATOM     16  C   UNL     1       1.514  -0.859   2.779  1.00  0.00     0.023 A 
ATOM     17  C   UNL     1       1.474  -2.463   0.986  1.00  0.00     0.062 A 
ATOM     18  F   UNL     1       3.442  -3.094  -0.081  1.00  0.00    -0.205 F 
ATOM     19  C   UNL     1       0.800  -1.679   1.912  1.00  0.00     0.044 A 
ATOM     20  Cl  UNL     1      -0.916  -1.688   1.962  1.00  0.00    -0.084 Cl
ENDBRANCH  11  13
ENDBRANCH   8  11
ENDBRANCH   7   8
ENDBRANCH   6   7
ENDBRANCH   5   6
ENDBRANCH   2   5
BRANCH   3  21
ATOM     21  C   UNL     1       2.077   2.713   0.797  1.00  0.00     0.117 C 
BRANCH  21  22
ATOM     22  C   UNL     1       2.477   2.842   2.265  1.00  0.00     0.042 C 
BRANCH  22  23
ATOM     23  C   UNL     1       3.978   2.857   2.537  1.00  0.00     0.118 C 
BRANCH  23  24
ATOM     24  N   UNL     1       4.635   4.041   2.018  1.00  0.00    -0.352 N 
ATOM     25  C   UNL     1       5.308   5.040   2.677  1.00  0.00     0.251 C 
ATOM     26  H   UNL     1       4.591   4.145   1.040  1.00  0.00     0.163 HD
ATOM     27  O   UNL     1       5.630   6.055   2.064  1.00  0.00    -0.269 OA
BRANCH  25  28
ATOM     28  C   UNL     1       5.632   4.926   4.118  1.00  0.00     0.039 A 
ATOM     29  C   UNL     1       5.463   6.053   4.928  1.00  0.00     0.014 A 
ATOM     30  C   UNL     1       6.146   3.749   4.669  1.00  0.00     0.014 A 
ATOM     31  C   UNL     1       5.757   5.985   6.293  1.00  0.00     0.010 A 
ATOM     32  C   UNL     1       6.372   3.661   6.045  1.00  0.00     0.010 A 
ATOM     33  C   UNL     1       6.184   4.779   6.872  1.00  0.00    -0.014 A 
BRANCH  33  34
ATOM     34  C   UNL     1       6.430   4.682   8.337  1.00  0.00     0.031 A 
ATOM     35  C   UNL     1       7.808   4.387   8.869  1.00  0.00     0.074 A 
ATOM     36  C   UNL     1       5.402   4.822   9.198  1.00  0.00     0.049 A 
ATOM     37  N   UNL     1       8.200   4.242  10.111  1.00  0.00    -0.248 NA
ATOM     38  C   UNL     1       8.882   4.215   7.878  1.00  0.00     0.031 C 
ATOM     39  C   UNL     1       4.011   5.082   8.820  1.00  0.00     0.029 A 
ATOM     40  N   UNL     1       5.366   4.764  10.569  1.00  0.00    -0.354 N 
ATOM     41  C   UNL     1       9.558   3.951  10.049  1.00  0.00     0.074 A 
ATOM     42  C   UNL     1       9.910   3.889   8.647  1.00  0.00     0.031 C 
ATOM     43  C   UNL     1       3.267   5.194   9.932  1.00  0.00     0.029 A 
ATOM     44  C   UNL     1       4.114   4.967  11.098  1.00  0.00     0.049 A 
ATOM     45  H   UNL     1       6.163   4.593  11.122  1.00  0.00     0.167 HD
ATOM     46  C   UNL     1      10.438   3.769  11.064  1.00  0.00     0.031 A 
ATOM     47  C   UNL     1       3.689   4.966  12.377  1.00  0.00     0.031 A 
ATOM     48  C   UNL     1      10.093   3.831  12.460  1.00  0.00     0.049 A 
ATOM     49  C   UNL     1       4.679   4.726  13.483  1.00  0.00     0.074 A 
ATOM     50  C   UNL     1      10.926   3.708  13.560  1.00  0.00     0.029 A 
ATOM     51  N   UNL     1       8.811   4.026  12.951  1.00  0.00    -0.354 N 
ATOM     52  N   UNL     1       5.971   4.518  13.407  1.00  0.00    -0.248 NA
ATOM     53  C   UNL     1       4.151   4.734  14.855  1.00  0.00     0.031 C 
ATOM     54  C   UNL     1      10.139   3.765  14.714  1.00  0.00     0.029 A 
ATOM     55  C   UNL     1       8.826   3.994  14.336  1.00  0.00     0.049 A 
ATOM     56  H   UNL     1       8.009   4.165  12.397  1.00  0.00     0.167 HD
ATOM     57  C   UNL     1       6.414   4.401  14.718  1.00  0.00     0.074 A 
ATOM     58  C   UNL     1       5.256   4.580  15.570  1.00  0.00     0.031 C 
ATOM     59  C   UNL     1       7.668   4.169  15.176  1.00  0.00     0.031 A 
BRANCH  46  60
ATOM     60  C   UNL     1      11.868   3.470  10.699  1.00  0.00    -0.014 A 
ATOM     61  C   UNL     1      12.689   4.443  10.106  1.00  0.00     0.009 A 
ATOM     62  C   UNL     1      12.415   2.211  10.992  1.00  0.00     0.009 A 
ATOM     63  C   UNL     1      14.014   4.147   9.778  1.00  0.00     0.001 A 
ATOM     64  C   UNL     1      13.749   1.929  10.693  1.00  0.00     0.001 A 
ATOM     65  C   UNL     1      14.544   2.893  10.076  1.00  0.00     0.000 A 
ENDBRANCH  46  60
BRANCH  47  66
ATOM     66  C   UNL     1       2.254   5.205  12.686  1.00  0.00    -0.014 A 
ATOM     67  C   UNL     1       1.850   6.381  13.338  1.00  0.00     0.009 A 
ATOM     68  C   UNL     1       1.282   4.252  12.346  1.00  0.00     0.009 A 
ATOM     69  C   UNL     1       0.508   6.582  13.669  1.00  0.00     0.001 A 
ATOM     70  C   UNL     1      -0.064   4.471  12.648  1.00  0.00     0.001 A 
ATOM     71  C   UNL     1      -0.448   5.629  13.320  1.00  0.00     0.000 A 
ENDBRANCH  47  66
BRANCH  59  72
ATOM     72  C   UNL     1       7.865   4.134  16.667  1.00  0.00    -0.014 A 
ATOM     73  C   UNL     1       7.369   3.078  17.448  1.00  0.00     0.009 A 
ATOM     74  C   UNL     1       8.590   5.159  17.295  1.00  0.00     0.009 A 
ATOM     75  C   UNL     1       7.563   3.071  18.831  1.00  0.00     0.001 A 
ATOM     76  C   UNL     1       8.812   5.132  18.672  1.00  0.00     0.001 A 
ATOM     77  C   UNL     1       8.289   4.093  19.441  1.00  0.00     0.000 A 
ENDBRANCH  59  72
ENDBRANCH  33  34
ENDBRANCH  25  28
ENDBRANCH  23  24
ENDBRANCH  22  23
ENDBRANCH  21  22
ENDBRANCH   3  21
TORSDOF 15
