REMARK SMILES O=C(CSc1nnnn1C1CC1)N[C@H](CO)C(=O)NCCCNC(=O)c1ccc(-c2c3nc(c(-c4ccccc4)c4ccc([nH]4)c(-c4ccccc4)c4nc(c(-c5ccccc5)c5ccc2[nH]5)C=C4)C=C3)cc1
REMARK SMILES IDX 17 1 18 2 19 3 14 5 13 6 1 7 2 8 3 10 4 11 5 12 6 13 9 14
REMARK SMILES IDX 7 15 8 16 10 17 11 18 12 19 15 20 16 21 20 23 21 24 22 25
REMARK SMILES IDX 23 26 24 27 25 29 26 30 27 31 73 32 28 33 72 34 29 35 30 36
REMARK SMILES IDX 31 37 66 38 32 39 71 40 65 41 67 42 33 43 70 44 64 45 63 46
REMARK SMILES IDX 34 48 56 49 41 50 55 51 42 52 45 53 54 54 68 55 43 56 44 57
REMARK SMILES IDX 53 59 69 60 46 61 35 62 36 63 40 64 37 65 39 66 38 67 57 68
REMARK SMILES IDX 58 69 62 70 59 71 61 72 60 73 47 74 48 75 52 76 49 77 51 78
REMARK SMILES IDX 50 79
REMARK H PARENT 19 4 13 9 16 22 23 28 67 47 45 58
REMARK Flexibility Score: inf
ROOT
ATOM      1  C   UNL     1       2.824  -1.641  -2.932  1.00  0.00     0.244 C 
ATOM      2  O   UNL     1       2.122  -2.523  -3.444  1.00  0.00    -0.273 OA
ATOM      3  N   UNL     1       4.148  -1.929  -2.780  1.00  0.00    -0.354 N 
ATOM      4  H   UNL     1       4.390  -2.879  -2.862  1.00  0.00     0.163 HD
ENDROOT
BRANCH   1   5
ATOM      5  C   UNL     1       2.208  -0.255  -2.635  1.00  0.00     0.197 C 
BRANCH   5   6
ATOM      6  N   UNL     1       2.295   0.629  -3.808  1.00  0.00    -0.342 N 
ATOM      7  O   UNL     1       4.354   1.527  -3.416  1.00  0.00    -0.274 OA
ATOM      8  C   UNL     1       3.389   1.372  -4.161  1.00  0.00     0.231 C 
ATOM      9  H   UNL     1       1.501   0.690  -4.388  1.00  0.00     0.164 HD
BRANCH   8  10
ATOM     10  C   UNL     1       3.392   2.063  -5.507  1.00  0.00     0.178 C 
BRANCH  10  11
ATOM     11  S   UNL     1       2.074   1.726  -6.634  1.00  0.00    -0.075 SA
BRANCH  11  12
ATOM     12  C   UNL     1       2.071   0.181  -7.407  1.00  0.00     0.210 A 
ATOM     13  N   UNL     1       0.903  -0.205  -7.897  1.00  0.00    -0.102 NA
ATOM     14  N   UNL     1       3.034  -0.657  -7.956  1.00  0.00    -0.217 N 
ATOM     15  N   UNL     1       1.147  -1.168  -8.825  1.00  0.00    -0.023 NA
ATOM     16  N   UNL     1       2.439  -1.411  -8.914  1.00  0.00    -0.044 NA
BRANCH  14  17
ATOM     17  C   UNL     1       4.355  -1.111  -7.566  1.00  0.00     0.112 C 
ATOM     18  C   UNL     1       5.500  -0.425  -6.880  1.00  0.00     0.029 C 
ATOM     19  C   UNL     1       4.652  -1.368  -6.104  1.00  0.00     0.029 C 
ENDBRANCH  14  17
ENDBRANCH  11  12
ENDBRANCH  10  11
ENDBRANCH   8  10
ENDBRANCH   5   6
BRANCH   5  20
ATOM     20  C   UNL     1       2.509   0.345  -1.251  1.00  0.00     0.191 C 
BRANCH  20  21
ATOM     21  O   UNL     1       2.653  -0.650  -0.235  1.00  0.00    -0.394 OA
ATOM     22  H   UNL     1       1.822  -1.144  -0.147  1.00  0.00     0.210 HD
ENDBRANCH  20  21
ENDBRANCH   5  20
ENDBRANCH   1   5
BRANCH   3  23
ATOM     23  C   UNL     1       5.249  -1.021  -2.514  1.00  0.00     0.117 C 
BRANCH  23  24
ATOM     24  C   UNL     1       6.386  -1.609  -1.691  1.00  0.00     0.042 C 
BRANCH  24  25
ATOM     25  C   UNL     1       7.202  -2.640  -2.442  1.00  0.00     0.118 C 
BRANCH  25  26
ATOM     26  N   UNL     1       7.957  -2.104  -3.583  1.00  0.00    -0.352 N 
ATOM     27  C   UNL     1       8.792  -2.804  -4.431  1.00  0.00     0.251 C 
ATOM     28  H   UNL     1       7.857  -1.141  -3.763  1.00  0.00     0.163 HD
ATOM     29  O   UNL     1       9.555  -2.256  -5.198  1.00  0.00    -0.269 OA
BRANCH  27  30
ATOM     30  C   UNL     1       8.726  -4.282  -4.355  1.00  0.00     0.039 A 
ATOM     31  C   UNL     1       9.848  -5.037  -4.012  1.00  0.00     0.014 A 
ATOM     32  C   UNL     1       7.461  -4.851  -4.422  1.00  0.00     0.014 A 
ATOM     33  C   UNL     1       9.666  -6.359  -3.606  1.00  0.00     0.010 A 
ATOM     34  C   UNL     1       7.275  -6.093  -3.868  1.00  0.00     0.010 A 
ATOM     35  C   UNL     1       8.369  -6.876  -3.484  1.00  0.00    -0.014 A 
BRANCH  35  36
ATOM     36  C   UNL     1       8.125  -8.170  -2.831  1.00  0.00     0.031 A 
ATOM     37  C   UNL     1       8.738  -8.379  -1.479  1.00  0.00     0.074 A 
ATOM     38  C   UNL     1       7.167  -9.022  -3.260  1.00  0.00     0.049 A 
ATOM     39  N   UNL     1       9.483  -9.360  -1.080  1.00  0.00    -0.248 NA
ATOM     40  C   UNL     1       8.518  -7.348  -0.449  1.00  0.00     0.031 C 
ATOM     41  C   UNL     1       6.240  -8.842  -4.386  1.00  0.00     0.029 A 
ATOM     42  N   UNL     1       6.702 -10.160  -2.671  1.00  0.00    -0.354 N 
ATOM     43  C   UNL     1       9.697  -9.166   0.286  1.00  0.00     0.074 A 
ATOM     44  C   UNL     1       9.182  -7.855   0.592  1.00  0.00     0.031 C 
ATOM     45  C   UNL     1       5.174  -9.652  -4.226  1.00  0.00     0.029 A 
ATOM     46  C   UNL     1       5.443 -10.543  -3.115  1.00  0.00     0.049 A 
ATOM     47  H   UNL     1       7.211 -10.663  -1.994  1.00  0.00     0.167 HD
ATOM     48  C   UNL     1      10.094 -10.177   1.113  1.00  0.00     0.031 A 
ATOM     49  C   UNL     1       4.650 -11.512  -2.607  1.00  0.00     0.031 A 
ATOM     50  C   UNL     1      10.620 -11.298   0.382  1.00  0.00     0.049 A 
ATOM     51  C   UNL     1       5.508 -12.423  -1.825  1.00  0.00     0.074 A 
ATOM     52  C   UNL     1      11.672 -11.504  -0.487  1.00  0.00     0.029 A 
ATOM     53  N   UNL     1       9.806 -12.395   0.249  1.00  0.00    -0.354 N 
ATOM     54  N   UNL     1       6.429 -13.174  -2.355  1.00  0.00    -0.248 NA
ATOM     55  C   UNL     1       5.610 -12.231  -0.388  1.00  0.00     0.031 C 
ATOM     56  C   UNL     1      11.186 -12.458  -1.431  1.00  0.00     0.029 A 
ATOM     57  C   UNL     1       9.886 -12.805  -1.054  1.00  0.00     0.049 A 
ATOM     58  H   UNL     1       9.265 -12.810   0.959  1.00  0.00     0.167 HD
ATOM     59  C   UNL     1       7.454 -13.184  -1.423  1.00  0.00     0.074 A 
ATOM     60  C   UNL     1       6.837 -12.717  -0.184  1.00  0.00     0.031 C 
ATOM     61  C   UNL     1       8.758 -13.295  -1.815  1.00  0.00     0.031 A 
BRANCH  48  62
ATOM     62  C   UNL     1       9.642 -10.325   2.552  1.00  0.00    -0.014 A 
ATOM     63  C   UNL     1      10.113 -11.422   3.303  1.00  0.00     0.009 A 
ATOM     64  C   UNL     1       8.557  -9.615   3.098  1.00  0.00     0.009 A 
ATOM     65  C   UNL     1       9.473 -11.837   4.479  1.00  0.00     0.001 A 
ATOM     66  C   UNL     1       7.945  -9.999   4.296  1.00  0.00     0.001 A 
ATOM     67  C   UNL     1       8.382 -11.130   4.969  1.00  0.00     0.000 A 
ENDBRANCH  48  62
BRANCH  49  68
ATOM     68  C   UNL     1       3.177 -11.589  -2.609  1.00  0.00    -0.014 A 
ATOM     69  C   UNL     1       2.518 -12.814  -2.439  1.00  0.00     0.009 A 
ATOM     70  C   UNL     1       2.406 -10.412  -2.543  1.00  0.00     0.009 A 
ATOM     71  C   UNL     1       1.142 -12.858  -2.179  1.00  0.00     0.001 A 
ATOM     72  C   UNL     1       1.032 -10.456  -2.289  1.00  0.00     0.001 A 
ATOM     73  C   UNL     1       0.403 -11.680  -2.092  1.00  0.00     0.000 A 
ENDBRANCH  49  68
BRANCH  61  74
ATOM     74  C   UNL     1       9.037 -13.661  -3.252  1.00  0.00    -0.014 A 
ATOM     75  C   UNL     1       8.665 -12.838  -4.330  1.00  0.00     0.009 A 
ATOM     76  C   UNL     1       9.843 -14.777  -3.517  1.00  0.00     0.009 A 
ATOM     77  C   UNL     1       9.067 -13.136  -5.635  1.00  0.00     0.001 A 
ATOM     78  C   UNL     1      10.261 -15.064  -4.819  1.00  0.00     0.001 A 
ATOM     79  C   UNL     1       9.871 -14.246  -5.877  1.00  0.00     0.000 A 
ENDBRANCH  61  74
ENDBRANCH  35  36
ENDBRANCH  27  30
ENDBRANCH  25  26
ENDBRANCH  24  25
ENDBRANCH  23  24
ENDBRANCH   3  23
TORSDOF 17
