REMARK SMILES CC[C@H](C)[N@@H+]1[C@@H](C(=O)NCCCNC(=O)c2ccc(-c3c4nc(c(-c5ccccc5)c5ccc([nH]5)c(-c5ccccc5)c5nc(c(-c6ccccc6)c6ccc3[nH]6)C=C5)C=C4)cc2)CC[C@H]2CCCC[C@H]21
REMARK SMILES IDX 11 1 10 2 9 3 7 4 8 5 6 7 5 8 71 9 64 11 66 12 70 13 65 14
REMARK SMILES IDX 67 15 69 16 68 17 3 18 4 19 2 20 1 21 12 22 13 23 14 24
REMARK SMILES IDX 15 26 16 27 17 28 63 29 18 30 62 31 19 32 20 33 21 34 56 35
REMARK SMILES IDX 22 36 61 37 55 38 57 39 23 40 60 41 54 42 53 43 24 45 46 46
REMARK SMILES IDX 31 47 45 48 32 49 35 50 44 51 58 52 33 53 34 54 43 56 59 57
REMARK SMILES IDX 36 58 25 59 26 60 30 61 27 62 29 63 28 64 47 65 48 66 52 67
REMARK SMILES IDX 49 68 51 69 50 70 37 71 38 72 42 73 39 74 41 75 40 76
REMARK H PARENT 9 6 5 10 13 25 57 44 35 55
REMARK Flexibility Score: inf
ROOT
ATOM      1  C   UNL     1      -3.604   0.641   4.765  1.00  0.00     0.042 C 
ENDROOT
BRANCH   1   2
ATOM      2  C   UNL     1      -2.481   0.724   3.740  1.00  0.00     0.118 C 
BRANCH   2   3
ATOM      3  N   UNL     1      -2.163   2.102   3.431  1.00  0.00    -0.351 N 
ATOM      4  C   UNL     1      -1.062   2.830   3.757  1.00  0.00     0.278 C 
ATOM      5  O   UNL     1      -1.145   4.057   3.621  1.00  0.00    -0.268 OA
ATOM      6  H   UNL     1      -2.845   2.582   2.908  1.00  0.00     0.163 HD
BRANCH   4   7
ATOM      7  C   UNL     1       0.221   2.187   4.338  1.00  0.00     0.274 C 
ATOM      8  N   UNL     1       0.588   0.883   3.684  1.00  0.00    -0.320 N 
ATOM      9  C   UNL     1       1.580   0.128   4.526  1.00  0.00     0.187 C 
ATOM     10  H   UNL     1      -0.280   0.350   3.634  1.00  0.00     0.349 HD
ATOM     11  C   UNL     1      -0.045   2.158   5.857  1.00  0.00     0.076 C 
ATOM     12  C   UNL     1       1.204   0.009   6.028  1.00  0.00     0.048 C 
ATOM     13  C   UNL     1       1.873  -1.323   4.091  1.00  0.00     0.065 C 
ATOM     14  C   UNL     1       1.004   1.392   6.632  1.00  0.00     0.016 C 
ATOM     15  C   UNL     1       0.002  -0.916   6.306  1.00  0.00     0.010 C 
ATOM     16  C   UNL     1       0.635  -2.213   4.172  1.00  0.00     0.006 C 
ATOM     17  C   UNL     1       0.012  -2.249   5.560  1.00  0.00     0.001 C 
BRANCH   8  18
ATOM     18  C   UNL     1       1.032   0.989   2.232  1.00  0.00     0.181 C 
ATOM     19  C   UNL     1       0.454  -0.190   1.420  1.00  0.00     0.075 C 
BRANCH  18  20
ATOM     20  C   UNL     1       0.857   2.334   1.435  1.00  0.00     0.061 C 
ATOM     21  C   UNL     1       0.217   2.268   0.047  1.00  0.00     0.010 C 
ENDBRANCH  18  20
ENDBRANCH   8  18
ENDBRANCH   4   7
ENDBRANCH   2   3
ENDBRANCH   1   2
BRANCH   1  22
ATOM     22  C   UNL     1      -4.934   1.158   4.238  1.00  0.00     0.118 C 
BRANCH  22  23
ATOM     23  N   UNL     1      -5.461   0.331   3.162  1.00  0.00    -0.352 N 
ATOM     24  C   UNL     1      -6.677  -0.294   3.059  1.00  0.00     0.251 C 
ATOM     25  H   UNL     1      -4.855   0.202   2.396  1.00  0.00     0.163 HD
ATOM     26  O   UNL     1      -6.875  -1.113   2.168  1.00  0.00    -0.269 OA
BRANCH  24  27
ATOM     27  C   UNL     1      -7.742   0.005   4.038  1.00  0.00     0.039 A 
ATOM     28  C   UNL     1      -8.493  -1.051   4.559  1.00  0.00     0.014 A 
ATOM     29  C   UNL     1      -8.004   1.319   4.437  1.00  0.00     0.014 A 
ATOM     30  C   UNL     1      -9.469  -0.794   5.522  1.00  0.00     0.010 A 
ATOM     31  C   UNL     1      -8.918   1.564   5.457  1.00  0.00     0.010 A 
ATOM     32  C   UNL     1      -9.666   0.511   6.004  1.00  0.00    -0.014 A 
BRANCH  32  33
ATOM     33  C   UNL     1     -10.656   0.791   7.073  1.00  0.00     0.031 A 
ATOM     34  C   UNL     1     -11.847   1.666   6.790  1.00  0.00     0.074 A 
ATOM     35  C   UNL     1     -10.463   0.289   8.309  1.00  0.00     0.049 A 
ATOM     36  N   UNL     1     -12.796   2.055   7.603  1.00  0.00    -0.248 NA
ATOM     37  C   UNL     1     -11.980   2.189   5.420  1.00  0.00     0.031 C 
ATOM     38  C   UNL     1      -9.334  -0.549   8.720  1.00  0.00     0.029 A 
ATOM     39  N   UNL     1     -11.217   0.411   9.449  1.00  0.00    -0.354 N 
ATOM     40  C   UNL     1     -13.632   2.867   6.847  1.00  0.00     0.074 A 
ATOM     41  C   UNL     1     -13.048   2.965   5.528  1.00  0.00     0.031 C 
ATOM     42  C   UNL     1      -9.488  -0.893  10.009  1.00  0.00     0.029 A 
ATOM     43  C   UNL     1     -10.699  -0.267  10.527  1.00  0.00     0.049 A 
ATOM     44  H   UNL     1     -12.049   0.935   9.492  1.00  0.00     0.167 HD
ATOM     45  C   UNL     1     -14.795   3.458   7.208  1.00  0.00     0.031 A 
ATOM     46  C   UNL     1     -11.149  -0.368  11.792  1.00  0.00     0.031 A 
ATOM     47  C   UNL     1     -15.380   3.360   8.518  1.00  0.00     0.049 A 
ATOM     48  C   UNL     1     -12.422   0.335  12.175  1.00  0.00     0.074 A 
ATOM     49  C   UNL     1     -16.570   3.901   8.973  1.00  0.00     0.029 A 
ATOM     50  N   UNL     1     -14.819   2.672   9.582  1.00  0.00    -0.354 N 
ATOM     51  N   UNL     1     -13.227   1.054  11.431  1.00  0.00    -0.248 NA
ATOM     52  C   UNL     1     -12.853   0.201  13.574  1.00  0.00     0.031 C 
ATOM     53  C   UNL     1     -16.707   3.578  10.327  1.00  0.00     0.029 A 
ATOM     54  C   UNL     1     -15.631   2.788  10.698  1.00  0.00     0.049 A 
ATOM     55  H   UNL     1     -13.970   2.175   9.550  1.00  0.00     0.167 HD
ATOM     56  C   UNL     1     -14.277   1.426  12.262  1.00  0.00     0.074 A 
ATOM     57  C   UNL     1     -14.015   0.839  13.559  1.00  0.00     0.031 C 
ATOM     58  C   UNL     1     -15.361   2.188  11.977  1.00  0.00     0.031 A 
BRANCH  45  59
ATOM     59  C   UNL     1     -15.520   4.260   6.163  1.00  0.00    -0.014 A 
ATOM     60  C   UNL     1     -16.154   3.630   5.080  1.00  0.00     0.009 A 
ATOM     61  C   UNL     1     -15.617   5.654   6.288  1.00  0.00     0.009 A 
ATOM     62  C   UNL     1     -16.845   4.381   4.129  1.00  0.00     0.001 A 
ATOM     63  C   UNL     1     -16.334   6.401   5.351  1.00  0.00     0.001 A 
ATOM     64  C   UNL     1     -16.941   5.765   4.269  1.00  0.00     0.000 A 
ENDBRANCH  45  59
BRANCH  46  65
ATOM     65  C   UNL     1     -10.403  -1.171  12.798  1.00  0.00    -0.014 A 
ATOM     66  C   UNL     1     -10.957  -2.350  13.321  1.00  0.00     0.009 A 
ATOM     67  C   UNL     1      -9.155  -0.740  13.274  1.00  0.00     0.009 A 
ATOM     68  C   UNL     1     -10.298  -3.056  14.330  1.00  0.00     0.001 A 
ATOM     69  C   UNL     1      -8.483  -1.467  14.259  1.00  0.00     0.001 A 
ATOM     70  C   UNL     1      -9.061  -2.615  14.797  1.00  0.00     0.000 A 
ENDBRANCH  46  65
BRANCH  58  71
ATOM     71  C   UNL     1     -16.369   2.384  13.075  1.00  0.00    -0.014 A 
ATOM     72  C   UNL     1     -16.091   3.192  14.188  1.00  0.00     0.009 A 
ATOM     73  C   UNL     1     -17.628   1.772  12.975  1.00  0.00     0.009 A 
ATOM     74  C   UNL     1     -17.041   3.351  15.198  1.00  0.00     0.001 A 
ATOM     75  C   UNL     1     -18.588   1.959  13.970  1.00  0.00     0.001 A 
ATOM     76  C   UNL     1     -18.290   2.739  15.086  1.00  0.00     0.000 A 
ENDBRANCH  58  71
ENDBRANCH  32  33
ENDBRANCH  24  27
ENDBRANCH  22  23
ENDBRANCH   1  22
TORSDOF 12
