REMARK SMILES C[C@@H]1CCC[C@@]1(C[NH3+])C(=O)NCCCNC(=O)c1ccc(-c2c3nc(c(-c4ccccc4)c4ccc([nH]4)c(-c4ccccc4)c4nc(c(-c5ccccc5)c5ccc2[nH]5)C=C4)C=C3)cc1
REMARK SMILES IDX 13 1 12 2 11 3 9 4 10 5 6 7 1 8 2 9 3 10 4 11 5 12 7 13 8 14
REMARK SMILES IDX 14 18 15 19 16 20 17 22 18 23 19 24 65 25 20 26 64 27 21 28
REMARK SMILES IDX 22 29 23 30 58 31 24 32 63 33 57 34 59 35 25 36 62 37 56 38
REMARK SMILES IDX 55 39 26 41 48 42 33 43 47 44 34 45 37 46 46 47 60 48 35 49
REMARK SMILES IDX 36 50 45 52 61 53 38 54 27 55 28 56 32 57 29 58 31 59 30 60
REMARK SMILES IDX 49 61 50 62 54 63 51 64 53 65 52 66 39 67 40 68 44 69 41 70
REMARK SMILES IDX 43 71 42 72
REMARK H PARENT 11 6 8 15 8 16 8 17 15 21 59 40 37 51
REMARK Flexibility Score: inf
ROOT
ATOM      1  C   UNL     1       1.659   3.992   2.642  1.00  0.00     0.042 C 
ENDROOT
BRANCH   1   2
ATOM      2  C   UNL     1       1.578   2.468   2.732  1.00  0.00     0.117 C 
BRANCH   2   3
ATOM      3  N   UNL     1       0.202   2.004   2.716  1.00  0.00    -0.355 N 
ATOM      4  C   UNL     1      -0.594   1.496   1.735  1.00  0.00     0.232 C 
ATOM      5  O   UNL     1      -1.759   1.269   2.076  1.00  0.00    -0.274 OA
ATOM      6  H   UNL     1      -0.245   2.069   3.591  1.00  0.00     0.163 HD
BRANCH   4   7
ATOM      7  C   UNL     1      -0.071   1.161   0.306  1.00  0.00     0.100 C 
ATOM      8  C   UNL     1       1.851  -0.282  -0.744  1.00  0.00     0.009 C 
ATOM      9  C   UNL     1       0.891  -0.058   0.421  1.00  0.00     0.007 C 
ATOM     10  C   UNL     1      -0.071  -1.246   0.564  1.00  0.00     0.005 C 
ATOM     11  C   UNL     1      -1.249  -0.926  -0.342  1.00  0.00     0.002 C 
ATOM     12  C   UNL     1      -1.252   0.591  -0.535  1.00  0.00     0.023 C 
BRANCH   7  13
ATOM     13  C   UNL     1       0.484   2.462  -0.333  1.00  0.00     0.276 C 
BRANCH  13  14
ATOM     14  N   UNL     1       0.613   2.505  -1.791  1.00  0.00    -0.357 N 
ATOM     15  H   UNL     1       1.301   1.815  -2.092  1.00  0.00     0.344 HD
ATOM     16  H   UNL     1       0.917   3.436  -2.078  1.00  0.00     0.344 HD
ATOM     17  H   UNL     1      -0.289   2.295  -2.219  1.00  0.00     0.344 HD
ENDBRANCH  13  14
ENDBRANCH   7  13
ENDBRANCH   4   7
ENDBRANCH   2   3
ENDBRANCH   1   2
BRANCH   1  18
ATOM     18  C   UNL     1       1.168   4.714   3.897  1.00  0.00     0.118 C 
BRANCH  18  19
ATOM     19  N   UNL     1       2.083   4.551   5.017  1.00  0.00    -0.352 N 
ATOM     20  C   UNL     1       2.738   5.494   5.766  1.00  0.00     0.251 C 
ATOM     21  H   UNL     1       2.259   3.618   5.278  1.00  0.00     0.163 HD
ATOM     22  O   UNL     1       3.632   5.138   6.535  1.00  0.00    -0.269 OA
BRANCH  20  23
ATOM     23  C   UNL     1       2.400   6.931   5.663  1.00  0.00     0.039 A 
ATOM     24  C   UNL     1       3.439   7.868   5.685  1.00  0.00     0.014 A 
ATOM     25  C   UNL     1       1.073   7.369   5.613  1.00  0.00     0.014 A 
ATOM     26  C   UNL     1       3.154   9.234   5.609  1.00  0.00     0.010 A 
ATOM     27  C   UNL     1       0.791   8.730   5.482  1.00  0.00     0.010 A 
ATOM     28  C   UNL     1       1.828   9.676   5.484  1.00  0.00    -0.014 A 
BRANCH  28  29
ATOM     29  C   UNL     1       1.510  11.121   5.349  1.00  0.00     0.031 A 
ATOM     30  C   UNL     1       0.754  11.840   6.433  1.00  0.00     0.074 A 
ATOM     31  C   UNL     1       1.842  11.772   4.217  1.00  0.00     0.049 A 
ATOM     32  N   UNL     1       0.327  13.078   6.458  1.00  0.00    -0.248 NA
ATOM     33  C   UNL     1       0.415  11.063   7.636  1.00  0.00     0.031 C 
ATOM     34  C   UNL     1       2.541  11.183   3.073  1.00  0.00     0.029 A 
ATOM     35  N   UNL     1       1.620  13.072   3.837  1.00  0.00    -0.354 N 
ATOM     36  C   UNL     1      -0.355  13.219   7.661  1.00  0.00     0.074 A 
ATOM     37  C   UNL     1      -0.306  11.935   8.327  1.00  0.00     0.031 C 
ATOM     38  C   UNL     1       2.699  12.121   2.125  1.00  0.00     0.029 A 
ATOM     39  C   UNL     1       2.084  13.365   2.578  1.00  0.00     0.049 A 
ATOM     40  H   UNL     1       1.171  13.733   4.413  1.00  0.00     0.167 HD
ATOM     41  C   UNL     1      -0.960  14.319   8.168  1.00  0.00     0.031 A 
ATOM     42  C   UNL     1       2.014  14.502   1.861  1.00  0.00     0.031 A 
ATOM     43  C   UNL     1      -0.984  15.605   7.524  1.00  0.00     0.049 A 
ATOM     44  C   UNL     1       1.349  15.711   2.456  1.00  0.00     0.074 A 
ATOM     45  C   UNL     1      -1.497  16.799   8.004  1.00  0.00     0.029 A 
ATOM     46  N   UNL     1      -0.476  15.866   6.263  1.00  0.00    -0.354 N 
ATOM     47  N   UNL     1       0.783  15.848   3.630  1.00  0.00    -0.248 NA
ATOM     48  C   UNL     1       1.323  16.927   1.629  1.00  0.00     0.031 C 
ATOM     49  C   UNL     1      -1.338  17.773   7.013  1.00  0.00     0.029 A 
ATOM     50  C   UNL     1      -0.688  17.194   5.936  1.00  0.00     0.049 A 
ATOM     51  H   UNL     1      -0.032  15.204   5.684  1.00  0.00     0.167 HD
ATOM     52  C   UNL     1       0.357  17.169   3.692  1.00  0.00     0.074 A 
ATOM     53  C   UNL     1       0.743  17.795   2.445  1.00  0.00     0.031 C 
ATOM     54  C   UNL     1      -0.295  17.805   4.694  1.00  0.00     0.031 A 
BRANCH  41  55
ATOM     55  C   UNL     1      -1.659  14.184   9.491  1.00  0.00    -0.014 A 
ATOM     56  C   UNL     1      -0.938  14.083  10.690  1.00  0.00     0.009 A 
ATOM     57  C   UNL     1      -3.062  14.220   9.541  1.00  0.00     0.009 A 
ATOM     58  C   UNL     1      -1.609  13.995  11.912  1.00  0.00     0.001 A 
ATOM     59  C   UNL     1      -3.729  14.154  10.765  1.00  0.00     0.001 A 
ATOM     60  C   UNL     1      -3.002  14.036  11.949  1.00  0.00     0.000 A 
ENDBRANCH  41  55
BRANCH  42  61
ATOM     61  C   UNL     1       2.590  14.559   0.493  1.00  0.00    -0.014 A 
ATOM     62  C   UNL     1       3.762  15.288   0.244  1.00  0.00     0.009 A 
ATOM     63  C   UNL     1       1.958  13.901  -0.573  1.00  0.00     0.009 A 
ATOM     64  C   UNL     1       4.274  15.382  -1.052  1.00  0.00     0.001 A 
ATOM     65  C   UNL     1       2.487  13.975  -1.863  1.00  0.00     0.001 A 
ATOM     66  C   UNL     1       3.638  14.724  -2.103  1.00  0.00     0.000 A 
ENDBRANCH  42  61
BRANCH  54  67
ATOM     67  C   UNL     1      -0.605  19.260   4.495  1.00  0.00    -0.014 A 
ATOM     68  C   UNL     1      -1.633  19.672   3.633  1.00  0.00     0.009 A 
ATOM     69  C   UNL     1       0.119  20.229   5.206  1.00  0.00     0.009 A 
ATOM     70  C   UNL     1      -1.910  21.030   3.467  1.00  0.00     0.001 A 
ATOM     71  C   UNL     1      -0.176  21.584   5.056  1.00  0.00     0.001 A 
ATOM     72  C   UNL     1      -1.185  21.984   4.181  1.00  0.00     0.000 A 
ENDBRANCH  54  67
ENDBRANCH  28  29
ENDBRANCH  20  23
ENDBRANCH  18  19
ENDBRANCH   1  18
TORSDOF 12
