REMARK SMILES Cn1c(C(=O)N2CCC[C@@H](C(=O)NCCCNC(=O)c3ccc(-c4c5nc(c(-c6ccccc6)c6ccc([nH]6)c(-c6ccccc6)c6nc(c(-c7ccccc7)c7ccc4[nH]7)C=C6)C=C5)cc3)C2)cc2sccc21
REMARK SMILES IDX 15 1 14 2 13 3 11 4 12 5 10 7 6 8 7 9 68 10 8 11 9 12 4 13
REMARK SMILES IDX 5 14 3 15 1 16 2 17 74 18 69 19 70 20 73 21 71 22 72 23
REMARK SMILES IDX 16 24 17 25 18 26 19 28 20 29 21 30 67 31 22 32 66 33 23 34
REMARK SMILES IDX 24 35 25 36 60 37 26 38 65 39 59 40 61 41 27 42 64 43 58 44
REMARK SMILES IDX 57 45 28 47 50 48 35 49 49 50 36 51 39 52 48 53 62 54 37 55
REMARK SMILES IDX 38 56 47 58 63 59 40 60 29 61 30 62 34 63 31 64 33 65 32 66
REMARK SMILES IDX 51 67 52 68 56 69 53 70 55 71 54 72 41 73 42 74 46 75 43 76
REMARK SMILES IDX 45 77 44 78
REMARK H PARENT 13 6 17 27 61 46 39 57
REMARK Flexibility Score: inf
ROOT
ATOM      1  C   UNL     1       4.232   5.358   4.624  1.00  0.00     0.042 C 
ENDROOT
BRANCH   1   2
ATOM      2  C   UNL     1       3.544   4.026   4.938  1.00  0.00     0.117 C 
BRANCH   2   3
ATOM      3  N   UNL     1       2.627   4.126   6.066  1.00  0.00    -0.356 N 
ATOM      4  C   UNL     1       1.272   4.292   6.071  1.00  0.00     0.224 C 
ATOM      5  O   UNL     1       0.697   4.416   7.152  1.00  0.00    -0.275 OA
ATOM      6  H   UNL     1       3.046   4.066   6.954  1.00  0.00     0.163 HD
BRANCH   4   7
ATOM      7  C   UNL     1       0.523   4.248   4.755  1.00  0.00     0.098 C 
ATOM      8  N   UNL     1      -0.692   2.719   3.258  1.00  0.00    -0.337 N 
ATOM      9  C   UNL     1      -1.821   3.633   3.134  1.00  0.00     0.120 C 
ATOM     10  C   UNL     1       0.082   2.800   4.497  1.00  0.00     0.133 C 
ATOM     11  C   UNL     1      -1.422   5.076   3.414  1.00  0.00     0.022 C 
ATOM     12  C   UNL     1      -0.692   5.185   4.753  1.00  0.00     0.017 C 
BRANCH   8  13
ATOM     13  C   UNL     1      -0.296   1.984   2.146  1.00  0.00     0.270 C 
ATOM     14  O   UNL     1      -0.362   2.490   1.027  1.00  0.00    -0.267 OA
BRANCH  13  15
ATOM     15  C   UNL     1       0.067   0.580   2.363  1.00  0.00     0.108 A 
ATOM     16  C   UNL     1       1.083   0.041   0.074  1.00  0.00     0.150 C 
ATOM     17  N   UNL     1       0.623  -0.260   1.409  1.00  0.00    -0.339 N 
ATOM     18  C   UNL     1       0.663  -1.547   1.909  1.00  0.00     0.059 A 
ATOM     19  C   UNL     1      -0.197  -0.198   3.490  1.00  0.00     0.053 A 
ATOM     20  C   UNL     1       0.183  -1.529   3.180  1.00  0.00     0.053 A 
ATOM     21  C   UNL     1       1.037  -2.846   1.462  1.00  0.00     0.038 A 
ATOM     22  S   UNL     1       0.179  -3.098   3.912  1.00  0.00    -0.142 S 
ATOM     23  C   UNL     1       0.804  -3.771   2.458  1.00  0.00     0.068 A 
ENDBRANCH  13  15
ENDBRANCH   8  13
ENDBRANCH   4   7
ENDBRANCH   2   3
ENDBRANCH   1   2
BRANCH   1  24
ATOM     24  C   UNL     1       5.248   5.746   5.689  1.00  0.00     0.118 C 
BRANCH  24  25
ATOM     25  N   UNL     1       6.409   4.853   5.733  1.00  0.00    -0.352 N 
ATOM     26  C   UNL     1       7.542   4.944   6.527  1.00  0.00     0.251 C 
ATOM     27  H   UNL     1       6.381   4.086   5.117  1.00  0.00     0.163 HD
ATOM     28  O   UNL     1       8.549   4.315   6.257  1.00  0.00    -0.269 OA
BRANCH  26  29
ATOM     29  C   UNL     1       7.505   5.826   7.709  1.00  0.00     0.039 A 
ATOM     30  C   UNL     1       8.599   6.619   8.067  1.00  0.00     0.014 A 
ATOM     31  C   UNL     1       6.327   5.872   8.444  1.00  0.00     0.014 A 
ATOM     32  C   UNL     1       8.458   7.521   9.121  1.00  0.00     0.010 A 
ATOM     33  C   UNL     1       6.128   6.882   9.344  1.00  0.00     0.010 A 
ATOM     34  C   UNL     1       7.208   7.661   9.741  1.00  0.00    -0.014 A 
BRANCH  34  35
ATOM     35  C   UNL     1       6.963   8.687  10.748  1.00  0.00     0.031 A 
ATOM     36  C   UNL     1       7.270  10.075  10.311  1.00  0.00     0.074 A 
ATOM     37  C   UNL     1       6.278   8.432  11.886  1.00  0.00     0.049 A 
ATOM     38  N   UNL     1       8.166  10.871  10.792  1.00  0.00    -0.248 NA
ATOM     39  C   UNL     1       6.580  10.604   9.122  1.00  0.00     0.031 C 
ATOM     40  C   UNL     1       5.636   7.175  12.300  1.00  0.00     0.029 A 
ATOM     41  N   UNL     1       5.886   9.294  12.862  1.00  0.00    -0.354 N 
ATOM     42  C   UNL     1       8.027  12.072  10.102  1.00  0.00     0.074 A 
ATOM     43  C   UNL     1       7.162  11.796   8.982  1.00  0.00     0.031 C 
ATOM     44  C   UNL     1       4.740   7.422  13.279  1.00  0.00     0.029 A 
ATOM     45  C   UNL     1       4.881   8.805  13.689  1.00  0.00     0.049 A 
ATOM     46  H   UNL     1       6.281  10.188  12.973  1.00  0.00     0.167 HD
ATOM     47  C   UNL     1       8.428  13.252  10.650  1.00  0.00     0.031 A 
ATOM     48  C   UNL     1       4.195   9.494  14.633  1.00  0.00     0.031 A 
ATOM     49  C   UNL     1       9.274  13.043  11.797  1.00  0.00     0.049 A 
ATOM     50  C   UNL     1       4.994  10.692  14.966  1.00  0.00     0.074 A 
ATOM     51  C   UNL     1      10.495  12.439  12.016  1.00  0.00     0.029 A 
ATOM     52  N   UNL     1       8.677  13.153  13.030  1.00  0.00    -0.354 N 
ATOM     53  N   UNL     1       6.153  10.636  15.556  1.00  0.00    -0.248 NA
ATOM     54  C   UNL     1       4.722  11.920  14.238  1.00  0.00     0.031 C 
ATOM     55  C   UNL     1      10.359  11.790  13.280  1.00  0.00     0.029 A 
ATOM     56  C   UNL     1       9.096  12.095  13.792  1.00  0.00     0.049 A 
ATOM     57  H   UNL     1       8.059  13.864  13.315  1.00  0.00     0.167 HD
ATOM     58  C   UNL     1       6.921  11.592  14.910  1.00  0.00     0.074 A 
ATOM     59  C   UNL     1       5.958  12.426  14.191  1.00  0.00     0.031 C 
ATOM     60  C   UNL     1       8.274  11.440  14.786  1.00  0.00     0.031 A 
BRANCH  47  61
ATOM     61  C   UNL     1       7.710  14.564  10.436  1.00  0.00    -0.014 A 
ATOM     62  C   UNL     1       8.226  15.720  11.052  1.00  0.00     0.009 A 
ATOM     63  C   UNL     1       6.405  14.655   9.918  1.00  0.00     0.009 A 
ATOM     64  C   UNL     1       7.444  16.868  11.221  1.00  0.00     0.001 A 
ATOM     65  C   UNL     1       5.635  15.815  10.048  1.00  0.00     0.001 A 
ATOM     66  C   UNL     1       6.144  16.911  10.728  1.00  0.00     0.000 A 
ENDBRANCH  47  61
BRANCH  48  67
ATOM     67  C   UNL     1       2.795   9.326  15.077  1.00  0.00    -0.014 A 
ATOM     68  C   UNL     1       2.359   9.846  16.305  1.00  0.00     0.009 A 
ATOM     69  C   UNL     1       1.815   8.895  14.163  1.00  0.00     0.009 A 
ATOM     70  C   UNL     1       0.992   9.965  16.592  1.00  0.00     0.001 A 
ATOM     71  C   UNL     1       0.451   9.014  14.449  1.00  0.00     0.001 A 
ATOM     72  C   UNL     1       0.039   9.564  15.658  1.00  0.00     0.000 A 
ENDBRANCH  48  67
BRANCH  60  73
ATOM     73  C   UNL     1       8.932  10.327  15.567  1.00  0.00    -0.014 A 
ATOM     74  C   UNL     1       8.655   8.964  15.350  1.00  0.00     0.009 A 
ATOM     75  C   UNL     1       9.981  10.660  16.435  1.00  0.00     0.009 A 
ATOM     76  C   UNL     1       9.392   7.969  16.001  1.00  0.00     0.001 A 
ATOM     77  C   UNL     1      10.730   9.667  17.069  1.00  0.00     0.001 A 
ATOM     78  C   UNL     1      10.434   8.322  16.856  1.00  0.00     0.000 A 
ENDBRANCH  60  73
ENDBRANCH  34  35
ENDBRANCH  26  29
ENDBRANCH  24  25
ENDBRANCH   1  24
TORSDOF 12
