REMARK SMILES Nc1ccc(C(=O)NC[C@@H]2CC[C@@H](C(=O)NCCCNC(=O)c3ccc(-c4c5nc(c(-c6ccccc6)c6ccc([nH]6)c(-c6ccccc6)c6nc(c(-c7ccccc7)c7ccc4[nH]7)C=C6)C=C5)cc3)O2)cc1Cl
REMARK SMILES IDX 17 1 16 2 14 3 15 4 13 6 10 7 11 8 71 9 12 10 9 11 8 12 6 13
REMARK SMILES IDX 7 14 5 16 2 17 3 18 73 19 4 20 72 21 74 22 1 23 18 26 19 27
REMARK SMILES IDX 20 28 21 29 22 31 23 32 24 33 70 34 25 35 69 36 26 37 27 38
REMARK SMILES IDX 28 39 63 40 29 41 68 42 62 43 64 44 30 45 67 46 61 47 60 48
REMARK SMILES IDX 31 50 53 51 38 52 52 53 39 54 42 55 51 56 65 57 40 58 41 59
REMARK SMILES IDX 50 61 66 62 43 63 32 64 33 65 37 66 34 67 36 68 35 69 54 70
REMARK SMILES IDX 55 71 59 72 56 73 58 74 57 75 44 76 45 77 49 78 46 79 48 80
REMARK SMILES IDX 47 81
REMARK H PARENT 16 5 8 15 1 24 1 25 20 30 64 49 42 60
REMARK Flexibility Score: inf
ROOT
ATOM      1  C   UNL     1       5.648  -2.905  -2.172  1.00  0.00     0.117 C 
ENDROOT
BRANCH   1   2
ATOM      2  N   UNL     1       6.295  -2.318  -3.331  1.00  0.00    -0.354 N 
ATOM      3  C   UNL     1       6.238  -1.042  -3.812  1.00  0.00     0.249 C 
ATOM      4  O   UNL     1       6.890  -0.794  -4.829  1.00  0.00    -0.272 OA
ATOM      5  H   UNL     1       6.862  -2.934  -3.849  1.00  0.00     0.163 HD
BRANCH   3   6
ATOM      6  C   UNL     1       5.324   0.004  -3.143  1.00  0.00     0.207 C 
ATOM      7  C   UNL     1       5.768   1.348  -1.279  1.00  0.00     0.138 C 
ATOM      8  C   UNL     1       5.337   2.263  -2.410  1.00  0.00     0.037 C 
ATOM      9  O   UNL     1       5.393   0.031  -1.708  1.00  0.00    -0.363 OA
ATOM     10  C   UNL     1       5.661   1.417  -3.616  1.00  0.00     0.045 C 
BRANCH   7  11
ATOM     11  C   UNL     1       5.208   1.648   0.123  1.00  0.00     0.148 C 
BRANCH  11  12
ATOM     12  N   UNL     1       4.078   2.563   0.143  1.00  0.00    -0.349 N 
ATOM     13  C   UNL     1       2.719   2.462   0.066  1.00  0.00     0.251 C 
ATOM     14  O   UNL     1       2.115   3.539   0.063  1.00  0.00    -0.269 OA
ATOM     15  H   UNL     1       4.369   3.498   0.237  1.00  0.00     0.163 HD
BRANCH  13  16
ATOM     16  C   UNL     1       1.919   1.204  -0.001  1.00  0.00     0.041 A 
ATOM     17  C   UNL     1       0.168  -1.044  -0.038  1.00  0.00     0.050 A 
ATOM     18  C   UNL     1       1.554  -1.202  -0.120  1.00  0.00     0.028 A 
ATOM     19  C   UNL     1      -0.338   0.263  -0.001  1.00  0.00     0.064 A 
ATOM     20  C   UNL     1       2.420  -0.094  -0.097  1.00  0.00     0.016 A 
ATOM     21  C   UNL     1       0.521   1.364   0.032  1.00  0.00     0.036 A 
ATOM     22  Cl  UNL     1      -2.045   0.548   0.032  1.00  0.00    -0.082 Cl
BRANCH  17  23
ATOM     23  N   UNL     1      -0.661  -2.157  -0.131  1.00  0.00    -0.398 N 
ATOM     24  H   UNL     1      -0.272  -3.061  -0.154  1.00  0.00     0.156 HD
ATOM     25  H   UNL     1      -1.638  -2.041  -0.172  1.00  0.00     0.156 HD
ENDBRANCH  17  23
ENDBRANCH  13  16
ENDBRANCH  11  12
ENDBRANCH   7  11
ENDBRANCH   3   6
ENDBRANCH   1   2
BRANCH   1  26
ATOM     26  C   UNL     1       4.714  -4.048  -2.547  1.00  0.00     0.042 C 
BRANCH  26  27
ATOM     27  C   UNL     1       5.395  -5.219  -3.245  1.00  0.00     0.118 C 
BRANCH  27  28
ATOM     28  N   UNL     1       6.384  -5.886  -2.409  1.00  0.00    -0.352 N 
ATOM     29  C   UNL     1       6.405  -7.160  -1.890  1.00  0.00     0.251 C 
ATOM     30  H   UNL     1       7.166  -5.335  -2.178  1.00  0.00     0.163 HD
ATOM     31  O   UNL     1       7.263  -7.469  -1.072  1.00  0.00    -0.269 OA
BRANCH  29  32
ATOM     32  C   UNL     1       5.375  -8.147  -2.282  1.00  0.00     0.039 A 
ATOM     33  C   UNL     1       4.787  -8.933  -1.286  1.00  0.00     0.014 A 
ATOM     34  C   UNL     1       4.986  -8.303  -3.614  1.00  0.00     0.014 A 
ATOM     35  C   UNL     1       3.738  -9.796  -1.612  1.00  0.00     0.010 A 
ATOM     36  C   UNL     1       3.889  -9.103  -3.925  1.00  0.00     0.010 A 
ATOM     37  C   UNL     1       3.241  -9.842  -2.924  1.00  0.00    -0.014 A 
BRANCH  37  38
ATOM     38  C   UNL     1       2.012 -10.605  -3.258  1.00  0.00     0.031 A 
ATOM     39  C   UNL     1       2.060 -11.754  -4.225  1.00  0.00     0.074 A 
ATOM     40  C   UNL     1       0.829 -10.202  -2.752  1.00  0.00     0.049 A 
ATOM     41  N   UNL     1       1.074 -12.470  -4.704  1.00  0.00    -0.248 NA
ATOM     42  C   UNL     1       3.386 -12.137  -4.736  1.00  0.00     0.031 C 
ATOM     43  C   UNL     1       0.640  -9.081  -1.828  1.00  0.00     0.029 A 
ATOM     44  N   UNL     1      -0.442 -10.680  -2.956  1.00  0.00    -0.354 N 
ATOM     45  C   UNL     1       1.657 -13.377  -5.581  1.00  0.00     0.074 A 
ATOM     46  C   UNL     1       3.076 -13.093  -5.600  1.00  0.00     0.031 C 
ATOM     47  C   UNL     1      -0.664  -8.971  -1.530  1.00  0.00     0.029 A 
ATOM     48  C   UNL     1      -1.409  -9.975  -2.281  1.00  0.00     0.049 A 
ATOM     49  H   UNL     1      -0.641 -11.454  -3.531  1.00  0.00     0.167 HD
ATOM     50  C   UNL     1       1.065 -14.364  -6.295  1.00  0.00     0.031 A 
ATOM     51  C   UNL     1      -2.750 -10.105  -2.280  1.00  0.00     0.031 A 
ATOM     52  C   UNL     1      -0.347 -14.643  -6.280  1.00  0.00     0.049 A 
ATOM     53  C   UNL     1      -3.385 -11.176  -3.122  1.00  0.00     0.074 A 
ATOM     54  C   UNL     1      -1.031 -15.658  -6.927  1.00  0.00     0.029 A 
ATOM     55  N   UNL     1      -1.293 -13.898  -5.594  1.00  0.00    -0.354 N 
ATOM     56  N   UNL     1      -2.812 -12.071  -3.889  1.00  0.00    -0.248 NA
ATOM     57  C   UNL     1      -4.852 -11.254  -3.095  1.00  0.00     0.031 C 
ATOM     58  C   UNL     1      -2.398 -15.488  -6.685  1.00  0.00     0.029 A 
ATOM     59  C   UNL     1      -2.560 -14.406  -5.835  1.00  0.00     0.049 A 
ATOM     60  H   UNL     1      -1.095 -13.123  -5.020  1.00  0.00     0.167 HD
ATOM     61  C   UNL     1      -3.846 -12.831  -4.420  1.00  0.00     0.074 A 
ATOM     62  C   UNL     1      -5.078 -12.307  -3.869  1.00  0.00     0.031 C 
ATOM     63  C   UNL     1      -3.780 -13.868  -5.290  1.00  0.00     0.031 A 
BRANCH  50  64
ATOM     64  C   UNL     1       1.946 -15.211  -7.172  1.00  0.00    -0.014 A 
ATOM     65  C   UNL     1       2.863 -16.122  -6.623  1.00  0.00     0.009 A 
ATOM     66  C   UNL     1       1.824 -15.130  -8.569  1.00  0.00     0.009 A 
ATOM     67  C   UNL     1       3.663 -16.909  -7.455  1.00  0.00     0.001 A 
ATOM     68  C   UNL     1       2.604 -15.940  -9.397  1.00  0.00     0.001 A 
ATOM     69  C   UNL     1       3.529 -16.821  -8.840  1.00  0.00     0.000 A 
ENDBRANCH  50  64
BRANCH  51  70
ATOM     70  C   UNL     1      -3.587  -9.186  -1.465  1.00  0.00    -0.014 A 
ATOM     71  C   UNL     1      -4.284  -9.662  -0.344  1.00  0.00     0.009 A 
ATOM     72  C   UNL     1      -3.704  -7.830  -1.810  1.00  0.00     0.009 A 
ATOM     73  C   UNL     1      -5.100  -8.805   0.399  1.00  0.00     0.001 A 
ATOM     74  C   UNL     1      -4.496  -6.969  -1.048  1.00  0.00     0.001 A 
ATOM     75  C   UNL     1      -5.202  -7.459   0.049  1.00  0.00     0.000 A 
ENDBRANCH  51  70
BRANCH  63  76
ATOM     76  C   UNL     1      -5.077 -14.517  -5.685  1.00  0.00    -0.014 A 
ATOM     77  C   UNL     1      -5.988 -13.865  -6.530  1.00  0.00     0.009 A 
ATOM     78  C   UNL     1      -5.372 -15.815  -5.239  1.00  0.00     0.009 A 
ATOM     79  C   UNL     1      -7.184 -14.487  -6.894  1.00  0.00     0.001 A 
ATOM     80  C   UNL     1      -6.554 -16.447  -5.630  1.00  0.00     0.001 A 
ATOM     81  C   UNL     1      -7.463 -15.779  -6.449  1.00  0.00     0.000 A 
ENDBRANCH  63  76
ENDBRANCH  37  38
ENDBRANCH  29  32
ENDBRANCH  27  28
ENDBRANCH  26  27
ENDBRANCH   1  26
TORSDOF 14
