REMARK SMILES Cc1ccnc(C(=O)c2[nH]c3ccc(F)cc3c2CC(=O)NCCCNC(=O)c2ccc(-c3c4nc(c(-c5ccccc5)c5ccc([nH]5)c(-c5ccccc5)c5nc(c(-c6ccccc6)c6ccc3[nH]6)C=C5)C=C4)cc2)c1
REMARK SMILES IDX 23 1 22 2 20 3 21 4 19 6 18 7 9 8 10 9 11 10 17 12 12 13
REMARK SMILES IDX 16 14 13 15 14 16 15 17 7 18 8 19 6 20 1 21 2 22 3 23 77 24
REMARK SMILES IDX 4 25 5 26 24 27 25 28 26 29 27 30 28 32 29 33 30 34 76 35
REMARK SMILES IDX 31 36 75 37 32 38 33 39 34 40 69 41 35 42 74 43 68 44 70 45
REMARK SMILES IDX 36 46 73 47 67 48 66 49 37 51 59 52 44 53 58 54 45 55 48 56
REMARK SMILES IDX 57 57 71 58 46 59 47 60 56 62 72 63 49 64 38 65 39 66 43 67
REMARK SMILES IDX 40 68 42 69 41 70 60 71 61 72 65 73 62 74 64 75 63 76 50 77
REMARK SMILES IDX 51 78 55 79 52 80 54 81 53 82
REMARK H PARENT 22 5 10 11 26 31 70 50 48 61
REMARK Flexibility Score: inf
ROOT
ATOM      1  C   UNL     1      -3.100  -3.662  -0.903  1.00  0.00     0.117 C 
ENDROOT
BRANCH   1   2
ATOM      2  N   UNL     1      -2.441  -2.504  -1.473  1.00  0.00    -0.356 N 
ATOM      3  C   UNL     1      -1.253  -2.391  -2.134  1.00  0.00     0.224 C 
ATOM      4  O   UNL     1      -1.035  -1.319  -2.707  1.00  0.00    -0.275 OA
ATOM      5  H   UNL     1      -2.933  -1.658  -1.365  1.00  0.00     0.163 HD
BRANCH   3   6
ATOM      6  C   UNL     1      -0.252  -3.526  -2.228  1.00  0.00     0.138 C 
BRANCH   6   7
ATOM      7  C   UNL     1       0.194  -4.139  -0.929  1.00  0.00    -0.002 A 
ATOM      8  C   UNL     1       1.048  -3.627   0.052  1.00  0.00     0.093 A 
ATOM      9  N   UNL     1       1.257  -4.645   0.963  1.00  0.00    -0.352 N 
ATOM     10  C   UNL     1       0.485  -5.741   0.686  1.00  0.00     0.046 A 
ATOM     11  H   UNL     1       1.885  -4.588   1.719  1.00  0.00     0.167 HD
ATOM     12  C   UNL     1      -0.138  -5.490  -0.532  1.00  0.00     0.007 A 
ATOM     13  C   UNL     1       0.320  -6.934   1.402  1.00  0.00     0.030 A 
ATOM     14  C   UNL     1      -0.931  -6.515  -1.093  1.00  0.00     0.049 A 
ATOM     15  C   UNL     1      -0.521  -7.905   0.855  1.00  0.00     0.041 A 
ATOM     16  C   UNL     1      -1.125  -7.695  -0.376  1.00  0.00     0.123 A 
ATOM     17  F   UNL     1      -1.929  -8.640  -0.883  1.00  0.00    -0.207 F 
BRANCH   8  18
ATOM     18  C   UNL     1       1.798  -2.385   0.226  1.00  0.00     0.227 C 
ATOM     19  O   UNL     1       2.974  -2.443   0.589  1.00  0.00    -0.285 OA
BRANCH  18  20
ATOM     20  C   UNL     1       1.150  -1.030   0.128  1.00  0.00     0.113 A 
ATOM     21  C   UNL     1      -2.231   0.703   0.275  1.00  0.00     0.044 C 
ATOM     22  C   UNL     1      -0.756   0.443   0.202  1.00  0.00    -0.047 A 
ATOM     23  C   UNL     1       0.114   1.510  -0.014  1.00  0.00     0.023 A 
ATOM     24  C   UNL     1      -0.214  -0.842   0.336  1.00  0.00     0.036 A 
ATOM     25  C   UNL     1       1.467   1.247  -0.137  1.00  0.00     0.112 A 
ATOM     26  N   UNL     1       2.000   0.009  -0.082  1.00  0.00    -0.253 NA
ENDBRANCH  18  20
ENDBRANCH   8  18
ENDBRANCH   6   7
ENDBRANCH   3   6
ENDBRANCH   1   2
BRANCH   1  27
ATOM     27  C   UNL     1      -2.934  -3.836   0.608  1.00  0.00     0.042 C 
BRANCH  27  28
ATOM     28  C   UNL     1      -3.567  -2.785   1.515  1.00  0.00     0.118 C 
BRANCH  28  29
ATOM     29  N   UNL     1      -4.960  -2.509   1.230  1.00  0.00    -0.352 N 
ATOM     30  C   UNL     1      -6.010  -2.350   2.100  1.00  0.00     0.251 C 
ATOM     31  H   UNL     1      -5.186  -2.424   0.275  1.00  0.00     0.163 HD
ATOM     32  O   UNL     1      -7.151  -2.243   1.665  1.00  0.00    -0.269 OA
BRANCH  30  33
ATOM     33  C   UNL     1      -5.774  -2.327   3.560  1.00  0.00     0.039 A 
ATOM     34  C   UNL     1      -6.587  -3.115   4.378  1.00  0.00     0.014 A 
ATOM     35  C   UNL     1      -4.787  -1.513   4.125  1.00  0.00     0.014 A 
ATOM     36  C   UNL     1      -6.380  -3.126   5.759  1.00  0.00     0.010 A 
ATOM     37  C   UNL     1      -4.548  -1.565   5.499  1.00  0.00     0.010 A 
ATOM     38  C   UNL     1      -5.341  -2.373   6.330  1.00  0.00    -0.014 A 
BRANCH  38  39
ATOM     39  C   UNL     1      -5.063  -2.442   7.788  1.00  0.00     0.031 A 
ATOM     40  C   UNL     1      -5.259  -1.237   8.666  1.00  0.00     0.074 A 
ATOM     41  C   UNL     1      -4.586  -3.586   8.318  1.00  0.00     0.049 A 
ATOM     42  N   UNL     1      -5.035  -1.106   9.950  1.00  0.00    -0.248 NA
ATOM     43  C   UNL     1      -5.753  -0.014   8.014  1.00  0.00     0.031 C 
ATOM     44  C   UNL     1      -4.325  -4.819   7.574  1.00  0.00     0.029 A 
ATOM     45  N   UNL     1      -4.232  -3.895   9.608  1.00  0.00    -0.354 N 
ATOM     46  C   UNL     1      -5.351   0.212  10.258  1.00  0.00     0.074 A 
ATOM     47  C   UNL     1      -5.736   0.852   9.018  1.00  0.00     0.031 C 
ATOM     48  C   UNL     1      -3.877  -5.758   8.423  1.00  0.00     0.029 A 
ATOM     49  C   UNL     1      -3.777  -5.183   9.760  1.00  0.00     0.049 A 
ATOM     50  H   UNL     1      -4.298  -3.255  10.353  1.00  0.00     0.167 HD
ATOM     51  C   UNL     1      -5.335   0.830  11.463  1.00  0.00     0.031 A 
ATOM     52  C   UNL     1      -3.321  -5.828  10.850  1.00  0.00     0.031 A 
ATOM     53  C   UNL     1      -4.948   0.196  12.697  1.00  0.00     0.049 A 
ATOM     54  C   UNL     1      -3.280  -5.109  12.170  1.00  0.00     0.074 A 
ATOM     55  C   UNL     1      -4.948   0.727  13.976  1.00  0.00     0.029 A 
ATOM     56  N   UNL     1      -4.484  -1.106  12.806  1.00  0.00    -0.354 N 
ATOM     57  N   UNL     1      -3.647  -3.883  12.455  1.00  0.00    -0.248 NA
ATOM     58  C   UNL     1      -2.773  -5.868  13.322  1.00  0.00     0.031 C 
ATOM     59  C   UNL     1      -4.425  -0.233  14.848  1.00  0.00     0.029 A 
ATOM     60  C   UNL     1      -4.165  -1.385  14.125  1.00  0.00     0.049 A 
ATOM     61  H   UNL     1      -4.395  -1.738  12.057  1.00  0.00     0.167 HD
ATOM     62  C   UNL     1      -3.444  -3.735  13.821  1.00  0.00     0.074 A 
ATOM     63  C   UNL     1      -2.938  -5.000  14.310  1.00  0.00     0.031 C 
ATOM     64  C   UNL     1      -3.660  -2.647  14.601  1.00  0.00     0.031 A 
BRANCH  51  65
ATOM     65  C   UNL     1      -5.737   2.280  11.506  1.00  0.00    -0.014 A 
ATOM     66  C   UNL     1      -7.065   2.676  11.280  1.00  0.00     0.009 A 
ATOM     67  C   UNL     1      -4.782   3.260  11.820  1.00  0.00     0.009 A 
ATOM     68  C   UNL     1      -7.420   4.027  11.329  1.00  0.00     0.001 A 
ATOM     69  C   UNL     1      -5.146   4.606  11.900  1.00  0.00     0.001 A 
ATOM     70  C   UNL     1      -6.461   4.989  11.644  1.00  0.00     0.000 A 
ENDBRANCH  51  65
BRANCH  52  71
ATOM     71  C   UNL     1      -2.868  -7.240  10.745  1.00  0.00    -0.014 A 
ATOM     72  C   UNL     1      -3.602  -8.273  11.349  1.00  0.00     0.009 A 
ATOM     73  C   UNL     1      -1.692  -7.563  10.049  1.00  0.00     0.009 A 
ATOM     74  C   UNL     1      -3.152  -9.594  11.283  1.00  0.00     0.001 A 
ATOM     75  C   UNL     1      -1.262  -8.888   9.957  1.00  0.00     0.001 A 
ATOM     76  C   UNL     1      -1.986  -9.901  10.584  1.00  0.00     0.000 A 
ENDBRANCH  52  71
BRANCH  64  77
ATOM     77  C   UNL     1      -3.386  -2.789  16.073  1.00  0.00    -0.014 A 
ATOM     78  C   UNL     1      -2.077  -2.895  16.569  1.00  0.00     0.009 A 
ATOM     79  C   UNL     1      -4.457  -2.777  16.981  1.00  0.00     0.009 A 
ATOM     80  C   UNL     1      -1.850  -3.024  17.942  1.00  0.00     0.001 A 
ATOM     81  C   UNL     1      -4.225  -2.873  18.354  1.00  0.00     0.001 A 
ATOM     82  C   UNL     1      -2.923  -3.007  18.832  1.00  0.00     0.000 A 
ENDBRANCH  64  77
ENDBRANCH  38  39
ENDBRANCH  30  33
ENDBRANCH  28  29
ENDBRANCH  27  28
ENDBRANCH   1  27
TORSDOF 13
