REMARK SMILES C[C@H]1[C@H](C)CC[C@@]2(C(=O)NCCCNC(=O)c3ccc(-c4c5nc(c(-c6ccccc6)c6ccc([nH]6)c(-c6ccccc6)c6nc(c(-c7ccccc7)c7ccc4[nH]7)C=C6)C=C5)cc3)CC[C@@]3(C)C(=CC[C@@H]4[C@@]5(C)CC[C@H](O)C(C)(C)[C@@H]5CC[C@]43C)[C@H]12
REMARK SMILES IDX 12 1 11 2 10 3 8 4 9 5 7 7 1 8 2 9 3 10 87 11 4 12 5 13
REMARK SMILES IDX 69 14 6 15 65 16 67 17 70 18 66 19 68 20 85 21 71 22 72 23
REMARK SMILES IDX 84 24 86 25 73 26 83 27 74 28 75 29 82 30 76 31 79 32 77 33
REMARK SMILES IDX 80 34 81 35 78 36 13 38 14 39 15 40 16 42 17 43 18 44 64 45
REMARK SMILES IDX 19 46 63 47 20 48 21 49 22 50 57 51 23 52 62 53 56 54 58 55
REMARK SMILES IDX 24 56 61 57 55 58 54 59 25 61 47 62 32 63 46 64 33 65 36 66
REMARK SMILES IDX 45 67 59 68 34 69 35 70 44 72 60 73 37 74 26 75 27 76 31 77
REMARK SMILES IDX 28 78 30 79 29 80 48 81 49 82 53 83 50 84 52 85 51 86 38 87
REMARK SMILES IDX 39 88 43 89 40 90 42 91 41 92
REMARK H PARENT 10 6 78 37 14 41 58 60 36 71
REMARK Flexibility Score: inf
ROOT
ATOM      1  C   UNL     1       3.432  -1.220  -2.715  1.00  0.00     0.042 C 
ENDROOT
BRANCH   1   2
ATOM      2  C   UNL     1       1.969  -1.191  -3.153  1.00  0.00     0.117 C 
BRANCH   2   3
ATOM      3  N   UNL     1       1.565   0.107  -3.649  1.00  0.00    -0.356 N 
ATOM      4  C   UNL     1       0.387   0.747  -3.824  1.00  0.00     0.226 C 
ATOM      5  O   UNL     1       0.504   1.712  -4.595  1.00  0.00    -0.274 OA
ATOM      6  H   UNL     1       2.333   0.657  -3.925  1.00  0.00     0.163 HD
BRANCH   4   7
ATOM      7  C   UNL     1      -1.000   0.400  -3.171  1.00  0.00     0.056 C 
ATOM      8  C   UNL     1      -0.703  -0.065   0.756  1.00  0.00     0.008 C 
ATOM      9  C   UNL     1      -0.470  -0.412  -0.734  1.00  0.00    -0.003 C 
ATOM     10  C   UNL     1      -1.038  -1.821  -1.066  1.00  0.00    -0.011 C 
ATOM     11  C   UNL     1      -1.108   0.669  -1.647  1.00  0.00     0.034 C 
ATOM     12  C   UNL     1      -0.239  -2.943  -0.374  1.00  0.00     0.008 C 
ATOM     13  C   UNL     1      -1.117  -2.158  -2.567  1.00  0.00     0.005 C 
ATOM     14  C   UNL     1      -0.718   2.133  -1.428  1.00  0.00    -0.063 C 
ATOM     15  C   UNL     1      -1.474  -1.026  -3.525  1.00  0.00     0.018 C 
ATOM     16  C   UNL     1      -2.051   1.387  -3.842  1.00  0.00     0.018 C 
ATOM     17  C   UNL     1      -1.732   3.186  -1.945  1.00  0.00    -0.006 C 
ATOM     18  C   UNL     1       0.515   2.462  -1.007  1.00  0.00    -0.027 C 
ATOM     19  C   UNL     1      -1.925   2.887  -3.464  1.00  0.00     0.013 C 
ATOM     20  C   UNL     1      -3.118   2.985  -1.262  1.00  0.00     0.017 C 
ATOM     21  C   UNL     1      -1.207   4.710  -1.659  1.00  0.00    -0.020 C 
ATOM     22  C   UNL     1       1.099   3.833  -1.068  1.00  0.00     0.032 C 
ATOM     23  C   UNL     1       0.328   4.782  -2.013  1.00  0.00     0.006 C 
ATOM     24  C   UNL     1      -1.966   5.763  -2.505  1.00  0.00     0.008 C 
ATOM     25  C   UNL     1      -1.465   5.062  -0.162  1.00  0.00     0.012 C 
ATOM     26  C   UNL     1       1.006   6.219  -2.161  1.00  0.00    -0.025 C 
ATOM     27  C   UNL     1      -1.386   7.177  -2.376  1.00  0.00     0.005 C 
ATOM     28  C   UNL     1       1.506   6.730  -0.790  1.00  0.00     0.012 C 
ATOM     29  C   UNL     1       2.256   6.083  -3.091  1.00  0.00     0.010 C 
ATOM     30  C   UNL     1       0.051   7.216  -2.916  1.00  0.00     0.003 C 
ATOM     31  C   UNL     1       2.945   7.415  -3.396  1.00  0.00     0.033 C 
ATOM     32  C   UNL     1       0.645   8.661  -3.153  1.00  0.00    -0.006 C 
ATOM     33  C   UNL     1       2.001   8.505  -3.915  1.00  0.00     0.120 C 
ATOM     34  C   UNL     1       0.779   9.521  -1.874  1.00  0.00     0.014 C 
ATOM     35  C   UNL     1      -0.299   9.479  -4.079  1.00  0.00     0.014 C 
BRANCH  33  36
ATOM     36  O   UNL     1       2.713   9.742  -3.966  1.00  0.00    -0.393 OA
ATOM     37  H   UNL     1       2.977  10.001  -3.069  1.00  0.00     0.210 HD
ENDBRANCH  33  36
ENDBRANCH   4   7
ENDBRANCH   2   3
ENDBRANCH   1   2
BRANCH   1  38
ATOM     38  C   UNL     1       3.691  -0.340  -1.492  1.00  0.00     0.118 C 
BRANCH  38  39
ATOM     39  N   UNL     1       3.495  -1.012  -0.212  1.00  0.00    -0.352 N 
ATOM     40  C   UNL     1       4.254  -1.923   0.488  1.00  0.00     0.251 C 
ATOM     41  H   UNL     1       2.657  -0.764   0.240  1.00  0.00     0.163 HD
ATOM     42  O   UNL     1       3.818  -2.369   1.542  1.00  0.00    -0.269 OA
BRANCH  40  43
ATOM     43  C   UNL     1       5.543  -2.439  -0.040  1.00  0.00     0.039 A 
ATOM     44  C   UNL     1       5.857  -3.787   0.174  1.00  0.00     0.014 A 
ATOM     45  C   UNL     1       6.447  -1.639  -0.731  1.00  0.00     0.014 A 
ATOM     46  C   UNL     1       7.005  -4.346  -0.402  1.00  0.00     0.010 A 
ATOM     47  C   UNL     1       7.525  -2.215  -1.399  1.00  0.00     0.010 A 
ATOM     48  C   UNL     1       7.810  -3.581  -1.259  1.00  0.00    -0.014 A 
BRANCH  48  49
ATOM     49  C   UNL     1       8.920  -4.176  -2.054  1.00  0.00     0.031 A 
ATOM     50  C   UNL     1      10.310  -3.600  -1.982  1.00  0.00     0.074 A 
ATOM     51  C   UNL     1       8.649  -5.145  -2.953  1.00  0.00     0.049 A 
ATOM     52  N   UNL     1      11.346  -3.839  -2.747  1.00  0.00    -0.248 NA
ATOM     53  C   UNL     1      10.553  -2.582  -0.947  1.00  0.00     0.031 C 
ATOM     54  C   UNL     1       7.336  -5.751  -3.186  1.00  0.00     0.029 A 
ATOM     55  N   UNL     1       9.467  -5.777  -3.858  1.00  0.00    -0.354 N 
ATOM     56  C   UNL     1      12.333  -2.952  -2.334  1.00  0.00     0.074 A 
ATOM     57  C   UNL     1      11.765  -2.155  -1.269  1.00  0.00     0.031 C 
ATOM     58  C   UNL     1       7.443  -6.685  -4.144  1.00  0.00     0.029 A 
ATOM     59  C   UNL     1       8.817  -6.709  -4.631  1.00  0.00     0.049 A 
ATOM     60  H   UNL     1      10.428  -5.580  -3.945  1.00  0.00     0.167 HD
ATOM     61  C   UNL     1      13.602  -2.819  -2.792  1.00  0.00     0.031 A 
ATOM     62  C   UNL     1       9.266  -7.488  -5.632  1.00  0.00     0.031 A 
ATOM     63  C   UNL     1      14.194  -3.660  -3.797  1.00  0.00     0.049 A 
ATOM     64  C   UNL     1      10.701  -7.388  -6.058  1.00  0.00     0.074 A 
ATOM     65  C   UNL     1      15.503  -3.677  -4.247  1.00  0.00     0.029 A 
ATOM     66  N   UNL     1      13.517  -4.647  -4.497  1.00  0.00    -0.354 N 
ATOM     67  N   UNL     1      11.636  -6.584  -5.617  1.00  0.00    -0.248 NA
ATOM     68  C   UNL     1      11.142  -8.307  -7.117  1.00  0.00     0.031 C 
ATOM     69  C   UNL     1      15.612  -4.657  -5.239  1.00  0.00     0.029 A 
ATOM     70  C   UNL     1      14.379  -5.273  -5.380  1.00  0.00     0.049 A 
ATOM     71  H   UNL     1      12.565  -4.869  -4.382  1.00  0.00     0.167 HD
ATOM     72  C   UNL     1      12.780  -6.909  -6.332  1.00  0.00     0.074 A 
ATOM     73  C   UNL     1      12.427  -7.996  -7.222  1.00  0.00     0.031 C 
ATOM     74  C   UNL     1      14.013  -6.353  -6.258  1.00  0.00     0.031 A 
BRANCH  61  75
ATOM     75  C   UNL     1      14.437  -1.714  -2.204  1.00  0.00    -0.014 A 
ATOM     76  C   UNL     1      14.902  -1.771  -0.881  1.00  0.00     0.009 A 
ATOM     77  C   UNL     1      14.781  -0.607  -2.996  1.00  0.00     0.009 A 
ATOM     78  C   UNL     1      15.650  -0.719  -0.348  1.00  0.00     0.001 A 
ATOM     79  C   UNL     1      15.555   0.429  -2.470  1.00  0.00     0.001 A 
ATOM     80  C   UNL     1      15.977   0.378  -1.143  1.00  0.00     0.000 A 
ENDBRANCH  61  75
BRANCH  62  81
ATOM     81  C   UNL     1       8.344  -8.450  -6.287  1.00  0.00    -0.014 A 
ATOM     82  C   UNL     1       8.440  -9.821  -6.003  1.00  0.00     0.009 A 
ATOM     83  C   UNL     1       7.355  -8.007  -7.178  1.00  0.00     0.009 A 
ATOM     84  C   UNL     1       7.575 -10.732  -6.614  1.00  0.00     0.001 A 
ATOM     85  C   UNL     1       6.476  -8.917  -7.769  1.00  0.00     0.001 A 
ATOM     86  C   UNL     1       6.592 -10.279  -7.492  1.00  0.00     0.000 A 
ENDBRANCH  62  81
BRANCH  74  87
ATOM     87  C   UNL     1      15.077  -6.927  -7.147  1.00  0.00    -0.014 A 
ATOM     88  C   UNL     1      15.106  -6.638  -8.519  1.00  0.00     0.009 A 
ATOM     89  C   UNL     1      16.085  -7.731  -6.595  1.00  0.00     0.009 A 
ATOM     90  C   UNL     1      16.116  -7.165  -9.327  1.00  0.00     0.001 A 
ATOM     91  C   UNL     1      17.105  -8.238  -7.401  1.00  0.00     0.001 A 
ATOM     92  C   UNL     1      17.116  -7.960  -8.767  1.00  0.00     0.000 A 
ENDBRANCH  74  87
ENDBRANCH  48  49
ENDBRANCH  40  43
ENDBRANCH  38  39
ENDBRANCH   1  38
TORSDOF 11
