REMARK SMILES Cc1ccccc1/C=C1\SC(=S)N(CCC(=O)N[C@@H](C)C(=O)NCCCNC(=O)c2ccc(-c3c4nc(c(-c5ccccc5)c5ccc([nH]5)c(-c5ccccc5)c5nc(c(-c6ccccc6)c6ccc3[nH]6)C=C5)C=C4)cc2)C1=O
REMARK SMILES IDX 21 1 22 2 23 3 19 5 20 6 18 7 16 8 17 9 15 11 14 12 13 13
REMARK SMILES IDX 8 14 9 15 10 16 78 17 11 18 79 19 12 20 7 21 1 22 2 23 3 24
REMARK SMILES IDX 4 25 6 26 5 27 24 28 25 29 26 30 27 31 28 32 29 34 30 35
REMARK SMILES IDX 31 36 77 37 32 38 76 39 33 40 34 41 35 42 70 43 36 44 75 45
REMARK SMILES IDX 69 46 71 47 37 48 74 49 68 50 67 51 38 53 60 54 45 55 59 56
REMARK SMILES IDX 46 57 49 58 58 59 72 60 47 61 48 62 57 64 73 65 50 66 39 67
REMARK SMILES IDX 40 68 44 69 41 70 43 71 42 72 61 73 62 74 66 75 63 76 65 77
REMARK SMILES IDX 64 78 51 79 52 80 56 81 53 82 55 83 54 84
REMARK H PARENT 23 4 18 10 27 33 71 52 49 63
REMARK Flexibility Score: inf
ROOT
ATOM      1  C   UNL     1      -0.579   5.481  -1.694  1.00  0.00     0.242 C 
ATOM      2  O   UNL     1      -1.119   6.058  -2.646  1.00  0.00    -0.273 OA
ATOM      3  N   UNL     1      -1.425   4.949  -0.765  1.00  0.00    -0.354 N 
ATOM      4  H   UNL     1      -2.365   4.939  -1.056  1.00  0.00     0.163 HD
ENDROOT
BRANCH   1   5
ATOM      5  C   UNL     1       0.972   5.415  -1.622  1.00  0.00     0.168 C 
ATOM      6  C   UNL     1       1.557   4.632  -0.476  1.00  0.00     0.041 C 
BRANCH   5   7
ATOM      7  N   UNL     1       1.623   6.724  -1.601  1.00  0.00    -0.345 N 
ATOM      8  C   UNL     1       2.949   6.956  -1.864  1.00  0.00     0.222 C 
ATOM      9  O   UNL     1       3.516   7.884  -1.289  1.00  0.00    -0.275 OA
ATOM     10  H   UNL     1       1.063   7.503  -1.379  1.00  0.00     0.164 HD
BRANCH   8  11
ATOM     11  C   UNL     1       3.672   6.109  -2.904  1.00  0.00     0.122 C 
BRANCH  11  12
ATOM     12  C   UNL     1       4.674   5.061  -2.379  1.00  0.00     0.137 C 
BRANCH  12  13
ATOM     13  N   UNL     1       4.162   3.671  -2.366  1.00  0.00    -0.292 N 
ATOM     14  C   UNL     1       2.582   1.282  -0.257  1.00  0.00     0.029 C 
ATOM     15  C   UNL     1       3.223   1.786  -1.321  1.00  0.00     0.081 C 
ATOM     16  S   UNL     1       2.975   1.457  -2.981  1.00  0.00    -0.054 SA
ATOM     17  C   UNL     1       4.122   2.964  -1.173  1.00  0.00     0.266 C 
ATOM     18  C   UNL     1       3.779   2.949  -3.480  1.00  0.00     0.148 C 
ATOM     19  O   UNL     1       4.652   3.283  -0.117  1.00  0.00    -0.268 OA
ATOM     20  S   UNL     1       3.974   3.347  -5.087  1.00  0.00    -0.052 S 
BRANCH  14  21
ATOM     21  C   UNL     1       1.471   0.317  -0.258  1.00  0.00    -0.021 A 
ATOM     22  C   UNL     1       3.053  -1.604   0.240  1.00  0.00     0.045 C 
ATOM     23  C   UNL     1       1.675  -1.039   0.038  1.00  0.00    -0.044 A 
ATOM     24  C   UNL     1       0.565  -1.900   0.095  1.00  0.00     0.004 A 
ATOM     25  C   UNL     1      -0.731  -1.421  -0.104  1.00  0.00     0.000 A 
ATOM     26  C   UNL     1       0.162   0.781  -0.480  1.00  0.00     0.008 A 
ATOM     27  C   UNL     1      -0.934  -0.078  -0.391  1.00  0.00     0.001 A 
ENDBRANCH  14  21
ENDBRANCH  12  13
ENDBRANCH  11  12
ENDBRANCH   8  11
ENDBRANCH   5   7
ENDBRANCH   1   5
BRANCH   3  28
ATOM     28  C   UNL     1      -1.227   4.392   0.571  1.00  0.00     0.117 C 
BRANCH  28  29
ATOM     29  C   UNL     1      -0.905   5.480   1.598  1.00  0.00     0.042 C 
BRANCH  29  30
ATOM     30  C   UNL     1      -2.168   6.037   2.220  1.00  0.00     0.118 C 
BRANCH  30  31
ATOM     31  N   UNL     1      -2.546   5.393   3.471  1.00  0.00    -0.352 N 
ATOM     32  C   UNL     1      -3.776   5.353   4.111  1.00  0.00     0.251 C 
ATOM     33  H   UNL     1      -1.819   4.914   3.932  1.00  0.00     0.163 HD
ATOM     34  O   UNL     1      -3.885   4.821   5.198  1.00  0.00    -0.269 OA
BRANCH  32  35
ATOM     35  C   UNL     1      -4.979   5.827   3.381  1.00  0.00     0.039 A 
ATOM     36  C   UNL     1      -6.089   4.976   3.359  1.00  0.00     0.014 A 
ATOM     37  C   UNL     1      -4.907   6.915   2.518  1.00  0.00     0.014 A 
ATOM     38  C   UNL     1      -6.971   5.046   2.287  1.00  0.00     0.010 A 
ATOM     39  C   UNL     1      -5.694   6.897   1.386  1.00  0.00     0.010 A 
ATOM     40  C   UNL     1      -6.682   5.920   1.241  1.00  0.00    -0.014 A 
BRANCH  40  41
ATOM     41  C   UNL     1      -7.298   5.816  -0.075  1.00  0.00     0.031 A 
ATOM     42  C   UNL     1      -8.283   6.827  -0.501  1.00  0.00     0.074 A 
ATOM     43  C   UNL     1      -6.950   4.812  -0.909  1.00  0.00     0.049 A 
ATOM     44  N   UNL     1      -9.210   6.620  -1.373  1.00  0.00    -0.248 NA
ATOM     45  C   UNL     1      -8.339   8.156   0.097  1.00  0.00     0.031 C 
ATOM     46  C   UNL     1      -7.269   4.678  -2.328  1.00  0.00     0.029 A 
ATOM     47  N   UNL     1      -6.399   3.583  -0.569  1.00  0.00    -0.354 N 
ATOM     48  C   UNL     1      -9.788   7.836  -1.655  1.00  0.00     0.074 A 
ATOM     49  C   UNL     1      -9.274   8.740  -0.654  1.00  0.00     0.031 C 
ATOM     50  C   UNL     1      -7.129   3.390  -2.685  1.00  0.00     0.029 A 
ATOM     51  C   UNL     1      -6.862   2.624  -1.478  1.00  0.00     0.049 A 
ATOM     52  H   UNL     1      -5.786   3.415   0.183  1.00  0.00     0.167 HD
ATOM     53  C   UNL     1     -10.528   7.981  -2.791  1.00  0.00     0.031 A 
ATOM     54  C   UNL     1      -7.618   1.569  -1.048  1.00  0.00     0.031 A 
ATOM     55  C   UNL     1     -10.699   6.706  -3.486  1.00  0.00     0.049 A 
ATOM     56  C   UNL     1      -9.040   1.582  -1.576  1.00  0.00     0.074 A 
ATOM     57  C   UNL     1     -10.059   6.131  -4.572  1.00  0.00     0.029 A 
ATOM     58  N   UNL     1     -11.422   5.690  -2.873  1.00  0.00    -0.354 N 
ATOM     59  N   UNL     1      -9.598   2.610  -2.155  1.00  0.00    -0.248 NA
ATOM     60  C   UNL     1      -9.962   0.455  -1.439  1.00  0.00     0.031 C 
ATOM     61  C   UNL     1     -10.323   4.735  -4.545  1.00  0.00     0.029 A 
ATOM     62  C   UNL     1     -11.152   4.473  -3.470  1.00  0.00     0.049 A 
ATOM     63  H   UNL     1     -12.041   5.820  -2.118  1.00  0.00     0.167 HD
ATOM     64  C   UNL     1     -10.912   2.330  -2.419  1.00  0.00     0.074 A 
ATOM     65  C   UNL     1     -11.087   0.958  -1.978  1.00  0.00     0.031 C 
ATOM     66  C   UNL     1     -11.760   3.256  -2.950  1.00  0.00     0.031 A 
BRANCH  53  67
ATOM     67  C   UNL     1     -10.826   9.326  -3.413  1.00  0.00    -0.014 A 
ATOM     68  C   UNL     1     -11.029   9.416  -4.802  1.00  0.00     0.009 A 
ATOM     69  C   UNL     1     -10.847  10.545  -2.714  1.00  0.00     0.009 A 
ATOM     70  C   UNL     1     -11.137  10.649  -5.461  1.00  0.00     0.001 A 
ATOM     71  C   UNL     1     -10.912  11.784  -3.367  1.00  0.00     0.001 A 
ATOM     72  C   UNL     1     -11.045  11.836  -4.745  1.00  0.00     0.000 A 
ENDBRANCH  53  67
BRANCH  54  73
ATOM     73  C   UNL     1      -7.228   1.072   0.302  1.00  0.00    -0.014 A 
ATOM     74  C   UNL     1      -5.976   0.440   0.446  1.00  0.00     0.009 A 
ATOM     75  C   UNL     1      -7.883   1.528   1.454  1.00  0.00     0.009 A 
ATOM     76  C   UNL     1      -5.347   0.371   1.693  1.00  0.00     0.001 A 
ATOM     77  C   UNL     1      -7.251   1.451   2.703  1.00  0.00     0.001 A 
ATOM     78  C   UNL     1      -5.972   0.906   2.816  1.00  0.00     0.000 A 
ENDBRANCH  54  73
BRANCH  66  79
ATOM     79  C   UNL     1     -13.252   3.098  -3.067  1.00  0.00    -0.014 A 
ATOM     80  C   UNL     1     -14.029   2.346  -2.175  1.00  0.00     0.009 A 
ATOM     81  C   UNL     1     -13.943   3.866  -4.029  1.00  0.00     0.009 A 
ATOM     82  C   UNL     1     -15.427   2.332  -2.267  1.00  0.00     0.001 A 
ATOM     83  C   UNL     1     -15.337   3.888  -4.096  1.00  0.00     0.001 A 
ATOM     84  C   UNL     1     -16.080   3.110  -3.219  1.00  0.00     0.000 A 
ENDBRANCH  66  79
ENDBRANCH  40  41
ENDBRANCH  32  35
ENDBRANCH  30  31
ENDBRANCH  29  30
ENDBRANCH  28  29
ENDBRANCH   3  28
TORSDOF 15
