REMARK SMILES O=C(NCCCNC(=O)[C@]1(NC(=O)C2CCN(C(=O)C3CC3)CC2)CCCc2ccccc21)c1ccc(-c2c3nc(c(-c4ccccc4)c4ccc([nH]4)c(-c4ccccc4)c4nc(c(-c5ccccc5)c5ccc2[nH]5)C=C4)C=C3)cc1
REMARK SMILES IDX 5 1 4 2 3 3 1 4 2 5 34 7 35 8 81 9 36 10 80 11 37 12 38 13
REMARK SMILES IDX 39 14 74 15 40 16 79 17 73 18 75 19 41 20 78 21 72 22 71 23
REMARK SMILES IDX 42 25 64 26 49 27 63 28 50 29 53 30 62 31 76 32 51 33 52 34
REMARK SMILES IDX 61 36 77 37 54 38 43 39 44 40 48 41 45 42 47 43 46 44 65 45
REMARK SMILES IDX 66 46 70 47 67 48 69 49 68 50 55 51 56 52 60 53 57 54 59 55
REMARK SMILES IDX 58 56 6 57 7 58 8 59 9 61 10 62 25 63 33 64 26 65 28 66
REMARK SMILES IDX 32 67 27 68 29 69 31 70 30 71 11 72 12 73 13 75 14 76 15 77
REMARK SMILES IDX 24 78 16 79 23 80 17 81 18 82 19 83 20 84 21 85 22 86
REMARK H PARENT 3 6 75 24 53 35 7 60 11 74
REMARK Flexibility Score: inf
ROOT
ATOM      1  C   UNL     1       3.223  -2.393   0.541  1.00  0.00     0.042 C 
ENDROOT
BRANCH   1   2
ATOM      2  C   UNL     1       3.121  -1.185  -0.394  1.00  0.00     0.118 C 
BRANCH   2   3
ATOM      3  N   UNL     1       1.778  -0.639  -0.484  1.00  0.00    -0.352 N 
ATOM      4  O   UNL     1       0.055   0.748  -0.082  1.00  0.00    -0.269 OA
ATOM      5  C   UNL     1       1.270   0.567  -0.048  1.00  0.00     0.251 C 
ATOM      6  H   UNL     1       1.124  -1.225  -0.929  1.00  0.00     0.163 HD
BRANCH   5   7
ATOM      7  C   UNL     1       2.140   1.654   0.479  1.00  0.00     0.039 A 
ATOM      8  C   UNL     1       3.252   2.113  -0.223  1.00  0.00     0.014 A 
ATOM      9  C   UNL     1       1.765   2.318   1.654  1.00  0.00     0.014 A 
ATOM     10  C   UNL     1       4.037   3.150   0.309  1.00  0.00     0.010 A 
ATOM     11  C   UNL     1       2.533   3.385   2.160  1.00  0.00     0.010 A 
ATOM     12  C   UNL     1       3.714   3.794   1.524  1.00  0.00    -0.014 A 
BRANCH  12  13
ATOM     13  C   UNL     1       4.622   4.848   2.109  1.00  0.00     0.031 A 
ATOM     14  C   UNL     1       5.215   4.721   3.506  1.00  0.00     0.074 A 
ATOM     15  C   UNL     1       5.010   5.910   1.367  1.00  0.00     0.049 A 
ATOM     16  N   UNL     1       6.092   5.497   4.107  1.00  0.00    -0.248 NA
ATOM     17  C   UNL     1       4.814   3.560   4.315  1.00  0.00     0.031 C 
ATOM     18  C   UNL     1       4.577   6.191  -0.001  1.00  0.00     0.029 A 
ATOM     19  N   UNL     1       5.880   6.941   1.653  1.00  0.00    -0.354 N 
ATOM     20  C   UNL     1       6.360   4.907   5.340  1.00  0.00     0.074 A 
ATOM     21  C   UNL     1       5.535   3.720   5.416  1.00  0.00     0.031 C 
ATOM     22  C   UNL     1       5.227   7.271  -0.457  1.00  0.00     0.029 A 
ATOM     23  C   UNL     1       6.050   7.825   0.614  1.00  0.00     0.049 A 
ATOM     24  H   UNL     1       6.336   7.035   2.520  1.00  0.00     0.167 HD
ATOM     25  C   UNL     1       7.210   5.296   6.325  1.00  0.00     0.031 A 
ATOM     26  C   UNL     1       6.747   8.976   0.521  1.00  0.00     0.031 A 
ATOM     27  C   UNL     1       8.003   6.500   6.314  1.00  0.00     0.049 A 
ATOM     28  C   UNL     1       7.527   9.487   1.698  1.00  0.00     0.074 A 
ATOM     29  C   UNL     1       8.863   6.972   7.295  1.00  0.00     0.029 A 
ATOM     30  N   UNL     1       8.018   7.436   5.295  1.00  0.00    -0.354 N 
ATOM     31  N   UNL     1       7.750   8.915   2.854  1.00  0.00    -0.248 NA
ATOM     32  C   UNL     1       8.140  10.818   1.557  1.00  0.00     0.031 C 
ATOM     33  C   UNL     1       9.326   8.235   6.909  1.00  0.00     0.029 A 
ATOM     34  C   UNL     1       8.822   8.510   5.649  1.00  0.00     0.049 A 
ATOM     35  H   UNL     1       7.529   7.352   4.445  1.00  0.00     0.167 HD
ATOM     36  C   UNL     1       8.547   9.801   3.568  1.00  0.00     0.074 A 
ATOM     37  C   UNL     1       8.779  10.945   2.712  1.00  0.00     0.031 C 
ATOM     38  C   UNL     1       9.045   9.667   4.821  1.00  0.00     0.031 A 
BRANCH  25  39
ATOM     39  C   UNL     1       7.283   4.436   7.561  1.00  0.00    -0.014 A 
ATOM     40  C   UNL     1       7.956   3.204   7.562  1.00  0.00     0.009 A 
ATOM     41  C   UNL     1       6.723   4.904   8.761  1.00  0.00     0.009 A 
ATOM     42  C   UNL     1       8.042   2.448   8.735  1.00  0.00     0.001 A 
ATOM     43  C   UNL     1       6.833   4.159   9.936  1.00  0.00     0.001 A 
ATOM     44  C   UNL     1       7.485   2.928   9.921  1.00  0.00     0.000 A 
ENDBRANCH  25  39
BRANCH  26  45
ATOM     45  C   UNL     1       6.682   9.772  -0.736  1.00  0.00    -0.014 A 
ATOM     46  C   UNL     1       7.814   9.941  -1.547  1.00  0.00     0.009 A 
ATOM     47  C   UNL     1       5.471  10.366  -1.130  1.00  0.00     0.009 A 
ATOM     48  C   UNL     1       7.733  10.689  -2.725  1.00  0.00     0.001 A 
ATOM     49  C   UNL     1       5.384  11.079  -2.326  1.00  0.00     0.001 A 
ATOM     50  C   UNL     1       6.516  11.245  -3.119  1.00  0.00     0.000 A 
ENDBRANCH  26  45
BRANCH  38  51
ATOM     51  C   UNL     1       9.926  10.772   5.340  1.00  0.00    -0.014 A 
ATOM     52  C   UNL     1       9.408  12.037   5.660  1.00  0.00     0.009 A 
ATOM     53  C   UNL     1      11.299  10.540   5.519  1.00  0.00     0.009 A 
ATOM     54  C   UNL     1      10.254  13.058   6.103  1.00  0.00     0.001 A 
ATOM     55  C   UNL     1      12.137  11.551   5.993  1.00  0.00     0.001 A 
ATOM     56  C   UNL     1      11.616  12.813   6.271  1.00  0.00     0.000 A 
ENDBRANCH  38  51
ENDBRANCH  12  13
ENDBRANCH   5   7
ENDBRANCH   2   3
ENDBRANCH   1   2
BRANCH   1  57
ATOM     57  C   UNL     1       3.242  -3.822  -0.047  1.00  0.00     0.117 C 
BRANCH  57  58
ATOM     58  N   UNL     1       3.931  -4.073  -1.311  1.00  0.00    -0.354 N 
ATOM     59  C   UNL     1       4.932  -4.931  -1.712  1.00  0.00     0.250 C 
ATOM     60  H   UNL     1       3.606  -3.499  -2.041  1.00  0.00     0.163 HD
ATOM     61  O   UNL     1       5.135  -4.931  -2.935  1.00  0.00    -0.272 OA
BRANCH  59  62
ATOM     62  C   UNL     1       5.771  -5.902  -0.752  1.00  0.00     0.145 C 
ATOM     63  C   UNL     1       7.028  -6.506  -1.470  1.00  0.00     0.044 C 
ATOM     64  C   UNL     1       4.849  -7.090  -0.336  1.00  0.00    -0.010 A 
ATOM     65  C   UNL     1       6.738  -7.546  -2.538  1.00  0.00     0.008 C 
ATOM     66  C   UNL     1       4.850  -8.307  -1.061  1.00  0.00    -0.042 A 
ATOM     67  C   UNL     1       3.894  -6.975   0.689  1.00  0.00     0.007 A 
ATOM     68  C   UNL     1       5.997  -8.720  -1.945  1.00  0.00     0.036 C 
ATOM     69  C   UNL     1       3.824  -9.253  -0.875  1.00  0.00     0.004 A 
ATOM     70  C   UNL     1       2.861  -7.905   0.848  1.00  0.00     0.000 A 
ATOM     71  C   UNL     1       2.805  -9.028   0.038  1.00  0.00     0.000 A 
BRANCH  62  72
ATOM     72  N   UNL     1       6.312  -5.149   0.409  1.00  0.00    -0.338 N 
ATOM     73  C   UNL     1       7.315  -4.204   0.397  1.00  0.00     0.224 C 
ATOM     74  H   UNL     1       5.909  -5.348   1.285  1.00  0.00     0.164 HD
ATOM     75  O   UNL     1       7.990  -4.080   1.421  1.00  0.00    -0.275 OA
BRANCH  73  76
ATOM     76  C   UNL     1       7.502  -3.258  -0.805  1.00  0.00     0.082 C 
ATOM     77  C   UNL     1       8.889  -2.607  -0.921  1.00  0.00     0.035 C 
ATOM     78  C   UNL     1       6.465  -2.153  -0.737  1.00  0.00     0.035 C 
ATOM     79  C   UNL     1       9.149  -1.472   0.074  1.00  0.00     0.120 C 
ATOM     80  C   UNL     1       6.723  -1.226   0.424  1.00  0.00     0.120 C 
ATOM     81  N   UNL     1       8.004  -0.589   0.264  1.00  0.00    -0.342 N 
ATOM     82  C   UNL     1       8.207   0.764   0.447  1.00  0.00     0.225 C 
ATOM     83  O   UNL     1       9.237   1.349   0.116  1.00  0.00    -0.275 OA
BRANCH  82  84
ATOM     84  C   UNL     1       7.126   1.566   1.083  1.00  0.00     0.079 C 
ATOM     85  C   UNL     1       6.250   1.132   2.243  1.00  0.00     0.014 C 
ATOM     86  C   UNL     1       7.395   2.055   2.489  1.00  0.00     0.014 C 
ENDBRANCH  82  84
ENDBRANCH  73  76
ENDBRANCH  62  72
ENDBRANCH  59  62
ENDBRANCH  57  58
ENDBRANCH   1  57
TORSDOF 13
