REMARK SMILES O=C(NCc1ccc(C(=O)NCCCNC(=O)c2ccc(-c3c4nc(c(-c5ccccc5)c5ccc([nH]5)c(-c5ccccc5)c5nc(c(-c6ccccc6)c6ccc3[nH]6)C=C5)C=C4)cc2)o1)Nc1ccc(F)c(Cl)c1
REMARK SMILES IDX 12 1 11 2 9 3 10 4 8 6 5 7 6 8 66 9 7 10 4 11 3 12 1 13 2 14
REMARK SMILES IDX 67 15 68 18 69 19 75 20 70 21 73 22 71 23 74 24 72 25 13 26
REMARK SMILES IDX 14 27 15 28 16 29 17 31 18 32 19 33 65 34 20 35 64 36 21 37
REMARK SMILES IDX 22 38 23 39 58 40 24 41 63 42 57 43 59 44 25 45 62 46 56 47
REMARK SMILES IDX 55 48 26 50 48 51 33 52 47 53 34 54 37 55 46 56 60 57 35 58
REMARK SMILES IDX 36 59 45 61 61 62 38 63 27 64 28 65 32 66 29 67 31 68 30 69
REMARK SMILES IDX 49 70 50 71 54 72 51 73 53 74 52 75 39 76 40 77 44 78 41 79
REMARK SMILES IDX 43 80 42 81
REMARK H PARENT 11 5 3 16 67 17 15 30 59 49 37 60
REMARK Flexibility Score: inf
ROOT
ATOM      1  C   UNL     1       6.993  -6.666  -0.984  1.00  0.00     0.118 C 
ENDROOT
BRANCH   1   2
ATOM      2  N   UNL     1       5.550  -6.554  -1.042  1.00  0.00    -0.349 N 
ATOM      3  C   UNL     1       4.731  -5.448  -1.051  1.00  0.00     0.286 C 
ATOM      4  O   UNL     1       3.542  -5.671  -1.288  1.00  0.00    -0.266 OA
ATOM      5  H   UNL     1       5.075  -7.415  -1.081  1.00  0.00     0.163 HD
BRANCH   3   6
ATOM      6  C   UNL     1       5.251  -4.114  -0.809  1.00  0.00     0.191 A 
ATOM      7  C   UNL     1       5.090  -1.902  -0.900  1.00  0.00     0.124 A 
ATOM      8  C   UNL     1       6.272  -2.177  -0.251  1.00  0.00     0.048 A 
ATOM      9  O   UNL     1       4.480  -3.068  -1.255  1.00  0.00    -0.454 OA
ATOM     10  C   UNL     1       6.366  -3.591  -0.177  1.00  0.00     0.056 A 
BRANCH   7  11
ATOM     11  C   UNL     1       4.392  -0.644  -1.273  1.00  0.00     0.193 C 
BRANCH  11  12
ATOM     12  N   UNL     1       2.987  -0.775  -0.951  1.00  0.00    -0.331 N 
ATOM     13  O   UNL     1       1.075  -0.662   0.152  1.00  0.00    -0.248 OA
ATOM     14  C   UNL     1       2.219  -0.236   0.028  1.00  0.00     0.319 C 
ATOM     15  N   UNL     1       2.788   0.750   0.785  1.00  0.00    -0.308 N 
ATOM     16  H   UNL     1       2.494  -1.370  -1.561  1.00  0.00     0.165 HD
ATOM     17  H   UNL     1       3.663   1.086   0.485  1.00  0.00     0.171 HD
BRANCH  15  18
ATOM     18  C   UNL     1       2.251   1.338   1.952  1.00  0.00     0.044 A 
ATOM     19  C   UNL     1       2.905   2.471   2.459  1.00  0.00     0.029 A 
ATOM     20  C   UNL     1       1.131   0.841   2.629  1.00  0.00     0.049 A 
ATOM     21  C   UNL     1       2.436   3.108   3.611  1.00  0.00     0.043 A 
ATOM     22  C   UNL     1       0.666   1.476   3.783  1.00  0.00     0.078 A 
ATOM     23  C   UNL     1       1.317   2.607   4.266  1.00  0.00     0.141 A 
ATOM     24  Cl  UNL     1      -0.710   0.844   4.605  1.00  0.00    -0.081 Cl
ATOM     25  F   UNL     1       0.884   3.232   5.371  1.00  0.00    -0.205 F 
ENDBRANCH  15  18
ENDBRANCH  11  12
ENDBRANCH   7  11
ENDBRANCH   3   6
ENDBRANCH   1   2
BRANCH   1  26
ATOM     26  C   UNL     1       7.483  -7.086   0.400  1.00  0.00     0.042 C 
BRANCH  26  27
ATOM     27  C   UNL     1       7.237  -8.561   0.722  1.00  0.00     0.118 C 
BRANCH  27  28
ATOM     28  N   UNL     1       8.043  -9.447  -0.106  1.00  0.00    -0.352 N 
ATOM     29  C   UNL     1       8.950 -10.418   0.236  1.00  0.00     0.251 C 
ATOM     30  H   UNL     1       7.917  -9.330  -1.075  1.00  0.00     0.163 HD
ATOM     31  O   UNL     1       9.664 -10.900  -0.640  1.00  0.00    -0.269 OA
BRANCH  29  32
ATOM     32  C   UNL     1       9.091 -10.894   1.632  1.00  0.00     0.039 A 
ATOM     33  C   UNL     1      10.371 -11.220   2.096  1.00  0.00     0.014 A 
ATOM     34  C   UNL     1       7.984 -11.102   2.458  1.00  0.00     0.014 A 
ATOM     35  C   UNL     1      10.544 -11.711   3.393  1.00  0.00     0.010 A 
ATOM     36  C   UNL     1       8.163 -11.534   3.773  1.00  0.00     0.010 A 
ATOM     37  C   UNL     1       9.443 -11.851   4.251  1.00  0.00    -0.014 A 
BRANCH  37  38
ATOM     38  C   UNL     1       9.618 -12.333   5.645  1.00  0.00     0.031 A 
ATOM     39  C   UNL     1       9.042 -13.655   6.075  1.00  0.00     0.074 A 
ATOM     40  C   UNL     1      10.252 -11.555   6.543  1.00  0.00     0.049 A 
ATOM     41  N   UNL     1       9.056 -14.216   7.258  1.00  0.00    -0.248 NA
ATOM     42  C   UNL     1       8.339 -14.439   5.047  1.00  0.00     0.031 C 
ATOM     43  C   UNL     1      10.822 -10.234   6.268  1.00  0.00     0.029 A 
ATOM     44  N   UNL     1      10.516 -11.761   7.874  1.00  0.00    -0.354 N 
ATOM     45  C   UNL     1       8.345 -15.402   7.124  1.00  0.00     0.074 A 
ATOM     46  C   UNL     1       7.884 -15.464   5.753  1.00  0.00     0.031 C 
ATOM     47  C   UNL     1      11.384  -9.757   7.390  1.00  0.00     0.029 A 
ATOM     48  C   UNL     1      11.189 -10.721   8.468  1.00  0.00     0.049 A 
ATOM     49  H   UNL     1      10.248 -12.576   8.357  1.00  0.00     0.167 HD
ATOM     50  C   UNL     1       8.107 -16.360   8.052  1.00  0.00     0.031 A 
ATOM     51  C   UNL     1      11.602 -10.560   9.739  1.00  0.00     0.031 A 
ATOM     52  C   UNL     1       8.580 -16.313   9.410  1.00  0.00     0.049 A 
ATOM     53  C   UNL     1      11.348 -11.648  10.742  1.00  0.00     0.074 A 
ATOM     54  C   UNL     1       8.440 -17.264  10.406  1.00  0.00     0.029 A 
ATOM     55  N   UNL     1       9.287 -15.257   9.962  1.00  0.00    -0.354 N 
ATOM     56  N   UNL     1      10.731 -12.792  10.580  1.00  0.00    -0.248 NA
ATOM     57  C   UNL     1      11.865 -11.427  12.101  1.00  0.00     0.031 C 
ATOM     58  C   UNL     1       9.032 -16.767  11.572  1.00  0.00     0.029 A 
ATOM     59  C   UNL     1       9.579 -15.526  11.289  1.00  0.00     0.049 A 
ATOM     60  H   UNL     1       9.544 -14.436   9.482  1.00  0.00     0.167 HD
ATOM     61  C   UNL     1      10.808 -13.439  11.806  1.00  0.00     0.074 A 
ATOM     62  C   UNL     1      11.544 -12.566  12.697  1.00  0.00     0.031 C 
ATOM     63  C   UNL     1      10.313 -14.650  12.162  1.00  0.00     0.031 A 
BRANCH  50  64
ATOM     64  C   UNL     1       7.285 -17.545   7.627  1.00  0.00    -0.014 A 
ATOM     65  C   UNL     1       7.808 -18.522   6.765  1.00  0.00     0.009 A 
ATOM     66  C   UNL     1       5.982 -17.705   8.125  1.00  0.00     0.009 A 
ATOM     67  C   UNL     1       7.029 -19.616   6.383  1.00  0.00     0.001 A 
ATOM     68  C   UNL     1       5.216 -18.813   7.761  1.00  0.00     0.001 A 
ATOM     69  C   UNL     1       5.736 -19.763   6.883  1.00  0.00     0.000 A 
ENDBRANCH  50  64
BRANCH  51  70
ATOM     70  C   UNL     1      12.325  -9.323  10.131  1.00  0.00    -0.014 A 
ATOM     71  C   UNL     1      13.704  -9.357  10.386  1.00  0.00     0.009 A 
ATOM     72  C   UNL     1      11.640  -8.105  10.255  1.00  0.00     0.009 A 
ATOM     73  C   UNL     1      14.379  -8.200  10.782  1.00  0.00     0.001 A 
ATOM     74  C   UNL     1      12.322  -6.945  10.626  1.00  0.00     0.001 A 
ATOM     75  C   UNL     1      13.688  -6.995  10.898  1.00  0.00     0.000 A 
ENDBRANCH  51  70
BRANCH  63  76
ATOM     76  C   UNL     1      10.587 -15.115  13.563  1.00  0.00    -0.014 A 
ATOM     77  C   UNL     1       9.915 -14.556  14.661  1.00  0.00     0.009 A 
ATOM     78  C   UNL     1      11.515 -16.145  13.783  1.00  0.00     0.009 A 
ATOM     79  C   UNL     1      10.193 -14.997  15.956  1.00  0.00     0.001 A 
ATOM     80  C   UNL     1      11.772 -16.601  15.077  1.00  0.00     0.001 A 
ATOM     81  C   UNL     1      11.118 -16.020  16.163  1.00  0.00     0.000 A 
ENDBRANCH  63  76
ENDBRANCH  37  38
ENDBRANCH  29  32
ENDBRANCH  27  28
ENDBRANCH  26  27
ENDBRANCH   1  26
TORSDOF 13
