REMARK SMILES C[C@H](NC(=O)CCN1C(=O)/C(=C/c2ccc([N+](=O)[O-])cc2)SC1=S)C(=O)NCCCNC(=O)c1ccc(-c2c3nc(c(-c4ccccc4)c4ccc([nH]4)c(-c4ccccc4)c4nc(c(-c5ccccc5)c5ccc2[nH]5)C=C4)C=C3)cc1
REMARK SMILES IDX 25 1 26 2 27 3 2 5 1 6 3 7 4 8 5 10 6 11 7 12 8 13 9 14
REMARK SMILES IDX 23 15 10 16 11 17 22 18 24 19 12 20 13 21 14 22 21 23 15 24
REMARK SMILES IDX 20 25 16 26 17 27 18 28 19 29 28 30 29 31 30 32 31 33 32 34
REMARK SMILES IDX 33 36 34 37 35 38 81 39 36 40 80 41 37 42 38 43 39 44 74 45
REMARK SMILES IDX 40 46 79 47 73 48 75 49 41 50 78 51 72 52 71 53 42 55 64 56
REMARK SMILES IDX 49 57 63 58 50 59 53 60 62 61 76 62 51 63 52 64 61 66 77 67
REMARK SMILES IDX 54 68 43 69 44 70 48 71 45 72 47 73 46 74 65 75 66 76 70 77
REMARK SMILES IDX 67 78 69 79 68 80 55 81 56 82 60 83 57 84 59 85 58 86
REMARK H PARENT 27 4 3 9 31 35 75 54 53 65
REMARK Flexibility Score: inf
ROOT
ATOM      1  C   UNL     1      -0.588  -0.443   0.555  1.00  0.00     0.242 C 
ATOM      2  O   UNL     1      -1.038  -0.090  -0.535  1.00  0.00    -0.273 OA
ATOM      3  N   UNL     1      -1.452  -0.591   1.598  1.00  0.00    -0.354 N 
ATOM      4  H   UNL     1      -2.279  -1.105   1.452  1.00  0.00     0.163 HD
ENDROOT
BRANCH   1   5
ATOM      5  C   UNL     1       0.826  -1.017   0.709  1.00  0.00     0.168 C 
ATOM      6  C   UNL     1       1.343  -1.446   2.075  1.00  0.00     0.041 C 
BRANCH   5   7
ATOM      7  N   UNL     1       1.877  -0.362  -0.015  1.00  0.00    -0.345 N 
ATOM      8  C   UNL     1       2.925  -0.993  -0.608  1.00  0.00     0.222 C 
ATOM      9  H   UNL     1       1.837   0.619  -0.088  1.00  0.00     0.164 HD
ATOM     10  O   UNL     1       3.948  -0.323  -0.784  1.00  0.00    -0.275 OA
BRANCH   8  11
ATOM     11  C   UNL     1       2.818  -2.406  -1.207  1.00  0.00     0.122 C 
BRANCH  11  12
ATOM     12  C   UNL     1       2.312  -3.687  -0.491  1.00  0.00     0.137 C 
BRANCH  12  13
ATOM     13  N   UNL     1       0.851  -3.970  -0.429  1.00  0.00    -0.292 N 
ATOM     14  C   UNL     1       0.271  -4.310   0.795  1.00  0.00     0.266 C 
ATOM     15  C   UNL     1      -0.018  -3.968  -1.503  1.00  0.00     0.148 C 
ATOM     16  O   UNL     1       0.872  -4.542   1.835  1.00  0.00    -0.268 OA
ATOM     17  C   UNL     1      -1.225  -4.280   0.709  1.00  0.00     0.081 C 
ATOM     18  S   UNL     1      -1.679  -4.043  -0.928  1.00  0.00    -0.054 SA
ATOM     19  S   UNL     1       0.324  -3.907  -3.131  1.00  0.00    -0.052 S 
ATOM     20  C   UNL     1      -2.016  -4.327   1.800  1.00  0.00     0.029 C 
BRANCH  20  21
ATOM     21  C   UNL     1      -3.489  -4.171   1.899  1.00  0.00    -0.024 A 
ATOM     22  C   UNL     1      -4.039  -3.541   3.033  1.00  0.00     0.015 A 
ATOM     23  C   UNL     1      -4.375  -4.653   0.926  1.00  0.00     0.015 A 
ATOM     24  C   UNL     1      -5.423  -3.326   3.149  1.00  0.00     0.086 A 
ATOM     25  C   UNL     1      -5.755  -4.428   1.018  1.00  0.00     0.086 A 
ATOM     26  C   UNL     1      -6.274  -3.751   2.124  1.00  0.00     0.269 A 
BRANCH  26  27
ATOM     27  N   UNL     1      -7.717  -3.484   2.199  1.00  0.00     0.062 N 
ATOM     28  O   UNL     1      -8.159  -2.994   3.247  1.00  0.00    -0.258 OA
ATOM     29  O   UNL     1      -8.404  -3.752   1.202  1.00  0.00    -0.258 OA
ENDBRANCH  26  27
ENDBRANCH  20  21
ENDBRANCH  12  13
ENDBRANCH  11  12
ENDBRANCH   8  11
ENDBRANCH   5   7
ENDBRANCH   1   5
BRANCH   3  30
ATOM     30  C   UNL     1      -1.212  -0.026   2.910  1.00  0.00     0.117 C 
BRANCH  30  31
ATOM     31  C   UNL     1      -1.823   1.357   2.994  1.00  0.00     0.042 C 
BRANCH  31  32
ATOM     32  C   UNL     1      -3.332   1.299   2.844  1.00  0.00     0.118 C 
BRANCH  32  33
ATOM     33  N   UNL     1      -3.933   0.503   3.910  1.00  0.00    -0.352 N 
ATOM     34  C   UNL     1      -4.406   0.932   5.129  1.00  0.00     0.251 C 
ATOM     35  H   UNL     1      -4.011  -0.463   3.735  1.00  0.00     0.163 HD
ATOM     36  O   UNL     1      -4.535   0.152   6.060  1.00  0.00    -0.269 OA
BRANCH  34  37
ATOM     37  C   UNL     1      -4.729   2.364   5.272  1.00  0.00     0.039 A 
ATOM     38  C   UNL     1      -4.317   3.075   6.397  1.00  0.00     0.014 A 
ATOM     39  C   UNL     1      -5.380   3.007   4.219  1.00  0.00     0.014 A 
ATOM     40  C   UNL     1      -4.495   4.459   6.422  1.00  0.00     0.010 A 
ATOM     41  C   UNL     1      -5.407   4.387   4.178  1.00  0.00     0.010 A 
ATOM     42  C   UNL     1      -4.999   5.129   5.293  1.00  0.00    -0.014 A 
BRANCH  42  43
ATOM     43  C   UNL     1      -5.165   6.600   5.253  1.00  0.00     0.031 A 
ATOM     44  C   UNL     1      -6.531   7.181   4.994  1.00  0.00     0.074 A 
ATOM     45  C   UNL     1      -4.089   7.403   5.359  1.00  0.00     0.049 A 
ATOM     46  N   UNL     1      -6.879   8.431   4.828  1.00  0.00    -0.248 NA
ATOM     47  C   UNL     1      -7.649   6.228   4.859  1.00  0.00     0.031 C 
ATOM     48  C   UNL     1      -2.707   6.957   5.550  1.00  0.00     0.029 A 
ATOM     49  N   UNL     1      -3.992   8.771   5.315  1.00  0.00    -0.354 N 
ATOM     50  C   UNL     1      -8.239   8.405   4.542  1.00  0.00     0.074 A 
ATOM     51  C   UNL     1      -8.638   7.019   4.479  1.00  0.00     0.031 C 
ATOM     52  C   UNL     1      -1.908   8.032   5.653  1.00  0.00     0.029 A 
ATOM     53  C   UNL     1      -2.712   9.238   5.485  1.00  0.00     0.049 A 
ATOM     54  H   UNL     1      -4.768   9.361   5.175  1.00  0.00     0.167 HD
ATOM     55  C   UNL     1      -9.091   9.442   4.381  1.00  0.00     0.031 A 
ATOM     56  C   UNL     1      -2.241  10.499   5.501  1.00  0.00     0.031 A 
ATOM     57  C   UNL     1      -8.695  10.819   4.472  1.00  0.00     0.049 A 
ATOM     58  C   UNL     1      -3.207  11.637   5.318  1.00  0.00     0.074 A 
ATOM     59  C   UNL     1      -9.486  11.950   4.392  1.00  0.00     0.029 A 
ATOM     60  N   UNL     1      -7.392  11.250   4.666  1.00  0.00    -0.354 N 
ATOM     61  N   UNL     1      -4.504  11.599   5.129  1.00  0.00    -0.248 NA
ATOM     62  C   UNL     1      -2.645  12.994   5.365  1.00  0.00     0.031 C 
ATOM     63  C   UNL     1      -8.652  13.068   4.480  1.00  0.00     0.029 A 
ATOM     64  C   UNL     1      -7.352  12.632   4.684  1.00  0.00     0.049 A 
ATOM     65  H   UNL     1      -6.611  10.660   4.774  1.00  0.00     0.167 HD
ATOM     66  C   UNL     1      -4.918  12.923   5.069  1.00  0.00     0.074 A 
ATOM     67  C   UNL     1      -3.735  13.739   5.256  1.00  0.00     0.031 C 
ATOM     68  C   UNL     1      -6.164  13.421   4.879  1.00  0.00     0.031 A 
BRANCH  55  69
ATOM     69  C   UNL     1     -10.532   9.119   4.094  1.00  0.00    -0.014 A 
ATOM     70  C   UNL     1     -11.349   8.504   5.058  1.00  0.00     0.009 A 
ATOM     71  C   UNL     1     -11.087   9.451   2.849  1.00  0.00     0.009 A 
ATOM     72  C   UNL     1     -12.678   8.191   4.765  1.00  0.00     0.001 A 
ATOM     73  C   UNL     1     -12.426   9.169   2.572  1.00  0.00     0.001 A 
ATOM     74  C   UNL     1     -13.217   8.530   3.525  1.00  0.00     0.000 A 
ENDBRANCH  55  69
BRANCH  56  75
ATOM     75  C   UNL     1      -0.793  10.754   5.722  1.00  0.00    -0.014 A 
ATOM     76  C   UNL     1      -0.349  11.352   6.912  1.00  0.00     0.009 A 
ATOM     77  C   UNL     1       0.154  10.409   4.745  1.00  0.00     0.009 A 
ATOM     78  C   UNL     1       1.007  11.627   7.105  1.00  0.00     0.001 A 
ATOM     79  C   UNL     1       1.513  10.655   4.955  1.00  0.00     0.001 A 
ATOM     80  C   UNL     1       1.937  11.274   6.129  1.00  0.00     0.000 A 
ENDBRANCH  56  75
BRANCH  68  81
ATOM     81  C   UNL     1      -6.323  14.915   4.915  1.00  0.00    -0.014 A 
ATOM     82  C   UNL     1      -5.846  15.728   3.876  1.00  0.00     0.009 A 
ATOM     83  C   UNL     1      -7.015  15.508   5.983  1.00  0.00     0.009 A 
ATOM     84  C   UNL     1      -6.030  17.111   3.924  1.00  0.00     0.001 A 
ATOM     85  C   UNL     1      -7.228  16.886   6.011  1.00  0.00     0.001 A 
ATOM     86  C   UNL     1      -6.727  17.688   4.987  1.00  0.00     0.000 A 
ENDBRANCH  68  81
ENDBRANCH  42  43
ENDBRANCH  34  37
ENDBRANCH  32  33
ENDBRANCH  31  32
ENDBRANCH  30  31
ENDBRANCH   3  30
TORSDOF 16
