REMARK SMILES O=C(NCCCNC(=O)[C@@]1([NH2+]C2CC2)CCC[C@@H]([NH+]2CCS(=O)(=O)CC2)C1)c1ccc(-c2c3nc(c(-c4ccccc4)c4ccc([nH]4)c(-c4ccccc4)c4nc(c(-c5ccccc5)c5ccc2[nH]5)C=C4)C=C3)cc1
REMARK SMILES IDX 5 1 4 2 3 3 1 4 2 5 28 7 29 8 75 9 30 10 74 11 31 12 32 13
REMARK SMILES IDX 33 14 68 15 34 16 73 17 67 18 69 19 35 20 72 21 66 22 65 23
REMARK SMILES IDX 36 25 58 26 43 27 57 28 44 29 47 30 56 31 70 32 45 33 46 34
REMARK SMILES IDX 55 36 71 37 48 38 37 39 38 40 42 41 39 42 41 43 40 44 59 45
REMARK SMILES IDX 60 46 64 47 61 48 63 49 62 50 49 51 50 52 54 53 51 54 53 55
REMARK SMILES IDX 52 56 6 57 7 58 8 59 9 61 10 62 15 63 27 64 16 65 18 66
REMARK SMILES IDX 17 67 11 68 12 71 13 72 14 73 19 74 20 75 26 76 21 78 25 79
REMARK SMILES IDX 22 80 23 81 24 82
REMARK H PARENT 3 6 69 24 47 35 7 60 11 69 11 70 19 77
REMARK Flexibility Score: inf
ROOT
ATOM      1  C   UNL     1       4.060  -2.296   0.596  1.00  0.00     0.042 C 
ENDROOT
BRANCH   1   2
ATOM      2  C   UNL     1       4.117  -1.258  -0.516  1.00  0.00     0.118 C 
BRANCH   2   3
ATOM      3  N   UNL     1       2.781  -0.788  -0.852  1.00  0.00    -0.352 N 
ATOM      4  O   UNL     1       0.934   0.461  -0.517  1.00  0.00    -0.269 OA
ATOM      5  C   UNL     1       2.156   0.367  -0.450  1.00  0.00     0.251 C 
ATOM      6  H   UNL     1       2.258  -1.374  -1.446  1.00  0.00     0.163 HD
BRANCH   5   7
ATOM      7  C   UNL     1       2.960   1.498   0.061  1.00  0.00     0.039 A 
ATOM      8  C   UNL     1       4.154   1.855  -0.571  1.00  0.00     0.014 A 
ATOM      9  C   UNL     1       2.487   2.248   1.140  1.00  0.00     0.014 A 
ATOM     10  C   UNL     1       4.932   2.883  -0.055  1.00  0.00     0.010 A 
ATOM     11  C   UNL     1       3.224   3.345   1.598  1.00  0.00     0.010 A 
ATOM     12  C   UNL     1       4.458   3.663   1.011  1.00  0.00    -0.014 A 
BRANCH  12  13
ATOM     13  C   UNL     1       5.224   4.866   1.420  1.00  0.00     0.031 A 
ATOM     14  C   UNL     1       5.837   4.977   2.785  1.00  0.00     0.074 A 
ATOM     15  C   UNL     1       5.376   5.863   0.526  1.00  0.00     0.049 A 
ATOM     16  N   UNL     1       6.556   5.950   3.285  1.00  0.00    -0.248 NA
ATOM     17  C   UNL     1       5.607   3.860   3.713  1.00  0.00     0.031 C 
ATOM     18  C   UNL     1       4.821   5.870  -0.831  1.00  0.00     0.029 A 
ATOM     19  N   UNL     1       6.058   7.048   0.610  1.00  0.00    -0.354 N 
ATOM     20  C   UNL     1       6.845   5.577   4.591  1.00  0.00     0.074 A 
ATOM     21  C   UNL     1       6.203   4.298   4.814  1.00  0.00     0.031 C 
ATOM     22  C   UNL     1       5.238   6.971  -1.471  1.00  0.00     0.029 A 
ATOM     23  C   UNL     1       6.026   7.780  -0.551  1.00  0.00     0.049 A 
ATOM     24  H   UNL     1       6.527   7.345   1.423  1.00  0.00     0.167 HD
ATOM     25  C   UNL     1       7.578   6.240   5.518  1.00  0.00     0.031 A 
ATOM     26  C   UNL     1       6.559   8.979  -0.845  1.00  0.00     0.031 A 
ATOM     27  C   UNL     1       8.208   7.516   5.292  1.00  0.00     0.049 A 
ATOM     28  C   UNL     1       7.335   9.707   0.211  1.00  0.00     0.074 A 
ATOM     29  C   UNL     1       8.999   8.253   6.157  1.00  0.00     0.029 A 
ATOM     30  N   UNL     1       8.111   8.249   4.119  1.00  0.00    -0.354 N 
ATOM     31  N   UNL     1       7.627   9.325   1.430  1.00  0.00    -0.248 NA
ATOM     32  C   UNL     1       7.853  11.033  -0.150  1.00  0.00     0.031 C 
ATOM     33  C   UNL     1       9.333   9.457   5.527  1.00  0.00     0.029 A 
ATOM     34  C   UNL     1       8.803   9.443   4.246  1.00  0.00     0.049 A 
ATOM     35  H   UNL     1       7.622   7.963   3.313  1.00  0.00     0.167 HD
ATOM     36  C   UNL     1       8.382  10.353   1.977  1.00  0.00     0.074 A 
ATOM     37  C   UNL     1       8.516  11.366   0.948  1.00  0.00     0.031 C 
ATOM     38  C   UNL     1       8.918  10.446   3.218  1.00  0.00     0.031 A 
BRANCH  25  39
ATOM     39  C   UNL     1       7.700   5.611   6.880  1.00  0.00    -0.014 A 
ATOM     40  C   UNL     1       8.456   4.446   7.087  1.00  0.00     0.009 A 
ATOM     41  C   UNL     1       7.059   6.206   7.979  1.00  0.00     0.009 A 
ATOM     42  C   UNL     1       8.530   3.866   8.356  1.00  0.00     0.001 A 
ATOM     43  C   UNL     1       7.159   5.641   9.252  1.00  0.00     0.001 A 
ATOM     44  C   UNL     1       7.884   4.465   9.437  1.00  0.00     0.000 A 
ENDBRANCH  25  39
BRANCH  26  45
ATOM     45  C   UNL     1       6.374   9.555  -2.201  1.00  0.00    -0.014 A 
ATOM     46  C   UNL     1       7.455   9.642  -3.090  1.00  0.00     0.009 A 
ATOM     47  C   UNL     1       5.107   9.988  -2.626  1.00  0.00     0.009 A 
ATOM     48  C   UNL     1       7.274  10.165  -4.373  1.00  0.00     0.001 A 
ATOM     49  C   UNL     1       4.923  10.482  -3.918  1.00  0.00     0.001 A 
ATOM     50  C   UNL     1       6.008  10.577  -4.788  1.00  0.00     0.000 A 
ENDBRANCH  26  45
BRANCH  38  51
ATOM     51  C   UNL     1       9.729  11.675   3.516  1.00  0.00    -0.014 A 
ATOM     52  C   UNL     1       9.122  12.928   3.690  1.00  0.00     0.009 A 
ATOM     53  C   UNL     1      11.123  11.570   3.644  1.00  0.00     0.009 A 
ATOM     54  C   UNL     1       9.899  14.059   3.950  1.00  0.00     0.001 A 
ATOM     55  C   UNL     1      11.895  12.696   3.934  1.00  0.00     0.001 A 
ATOM     56  C   UNL     1      11.283  13.941   4.076  1.00  0.00     0.000 A 
ENDBRANCH  38  51
ENDBRANCH  12  13
ENDBRANCH   5   7
ENDBRANCH   2   3
ENDBRANCH   1   2
BRANCH   1  57
ATOM     57  C   UNL     1       3.687  -3.678   0.078  1.00  0.00     0.118 C 
BRANCH  57  58
ATOM     58  N   UNL     1       4.704  -4.208  -0.819  1.00  0.00    -0.351 N 
ATOM     59  C   UNL     1       5.830  -4.954  -0.686  1.00  0.00     0.281 C 
ATOM     60  H   UNL     1       4.531  -3.966  -1.757  1.00  0.00     0.163 HD
ATOM     61  O   UNL     1       6.551  -4.947  -1.697  1.00  0.00    -0.268 OA
BRANCH  59  62
ATOM     62  C   UNL     1       6.200  -5.849   0.544  1.00  0.00     0.181 C 
ATOM     63  C   UNL     1       5.171  -5.946   1.675  1.00  0.00     0.079 C 
ATOM     64  C   UNL     1       6.298  -7.259  -0.139  1.00  0.00     0.144 C 
ATOM     65  C   UNL     1       5.397  -7.103   2.644  1.00  0.00     0.013 C 
ATOM     66  C   UNL     1       6.367  -8.499   0.767  1.00  0.00     0.190 C 
ATOM     67  C   UNL     1       5.322  -8.427   1.893  1.00  0.00     0.065 C 
BRANCH  62  68
ATOM     68  N   UNL     1       7.568  -5.581   1.045  1.00  0.00    -0.331 N 
ATOM     69  H   UNL     1       8.188  -6.013   0.360  1.00  0.00     0.347 HD
ATOM     70  H   UNL     1       7.460  -5.917   2.002  1.00  0.00     0.347 HD
BRANCH  68  71
ATOM     71  C   UNL     1       8.164  -4.280   1.321  1.00  0.00     0.183 C 
ATOM     72  C   UNL     1       7.786  -2.962   0.726  1.00  0.00     0.071 C 
ATOM     73  C   UNL     1       7.500  -3.245   2.175  1.00  0.00     0.071 C 
ENDBRANCH  68  71
ENDBRANCH  62  68
BRANCH  66  74
ATOM     74  N   UNL     1       6.339  -9.797   0.055  1.00  0.00    -0.331 N 
ATOM     75  C   UNL     1       7.409 -10.032  -0.922  1.00  0.00     0.278 C 
ATOM     76  C   UNL     1       5.065 -10.382  -0.365  1.00  0.00     0.278 C 
ATOM     77  H   UNL     1       6.554 -10.352   0.883  1.00  0.00     0.348 HD
ATOM     78  C   UNL     1       7.183  -9.510  -2.333  1.00  0.00     0.198 C 
ATOM     79  C   UNL     1       4.474  -9.813  -1.636  1.00  0.00     0.198 C 
ATOM     80  S   UNL     1       5.607  -9.989  -2.989  1.00  0.00     0.161 S 
ATOM     81  O   UNL     1       5.230  -9.012  -3.995  1.00  0.00    -0.228 OA
ATOM     82  O   UNL     1       5.674 -11.397  -3.329  1.00  0.00    -0.228 OA
ENDBRANCH  66  74
ENDBRANCH  59  62
ENDBRANCH  57  58
ENDBRANCH   1  57
TORSDOF 13
