REMARK SMILES CC(C)[C@H](CO)Nc1ccc(C(F)(F)F)cc1C(=O)NCCCNC(=O)c1ccc(-c2c3nc(c(-c4ccccc4)c4ccc([nH]4)c(-c4ccccc4)c4nc(c(-c5ccccc5)c5ccc2[nH]5)C=C4)C=C3)cc1
REMARK SMILES IDX 21 1 20 2 18 3 19 4 17 6 8 7 9 8 10 9 16 10 11 11 7 12 4 14
REMARK SMILES IDX 2 15 1 16 3 17 5 18 6 19 12 21 13 22 14 23 15 24 22 25 23 26
REMARK SMILES IDX 24 27 25 28 26 30 27 31 28 32 74 33 29 34 73 35 30 36 31 37
REMARK SMILES IDX 32 38 67 39 33 40 72 41 66 42 68 43 34 44 71 45 65 46 64 47
REMARK SMILES IDX 35 49 57 50 42 51 56 52 43 53 46 54 55 55 69 56 44 57 45 58
REMARK SMILES IDX 54 60 70 61 47 62 36 63 37 64 41 65 38 66 40 67 39 68 58 69
REMARK SMILES IDX 59 70 63 71 60 72 62 73 61 74 48 75 49 76 53 77 50 78 52 79
REMARK SMILES IDX 51 80
REMARK H PARENT 20 5 7 13 6 20 24 29 68 48 46 59
REMARK Flexibility Score: inf
ROOT
ATOM      1  C   UNL     1      -2.982  -0.877   0.555  1.00  0.00     0.118 C 
ENDROOT
BRANCH   1   2
ATOM      2  N   UNL     1      -3.991   0.111   0.821  1.00  0.00    -0.352 N 
ATOM      3  C   UNL     1      -3.587   1.384   1.179  1.00  0.00     0.253 C 
ATOM      4  O   UNL     1      -3.807   2.318   0.410  1.00  0.00    -0.269 OA
ATOM      5  H   UNL     1      -4.947  -0.113   0.749  1.00  0.00     0.163 HD
BRANCH   3   6
ATOM      6  C   UNL     1      -3.199   1.672   2.587  1.00  0.00     0.063 A 
ATOM      7  C   UNL     1      -2.111   1.165   3.327  1.00  0.00     0.047 A 
ATOM      8  C   UNL     1      -1.996   1.590   4.669  1.00  0.00     0.027 A 
ATOM      9  C   UNL     1      -2.911   2.464   5.266  1.00  0.00     0.015 A 
ATOM     10  C   UNL     1      -4.116   2.562   3.201  1.00  0.00     0.029 A 
ATOM     11  C   UNL     1      -3.988   2.963   4.535  1.00  0.00     0.056 A 
BRANCH   7  12
ATOM     12  N   UNL     1      -1.103   0.315   2.870  1.00  0.00    -0.379 N 
ATOM     13  H   UNL     1      -1.135  -0.634   3.131  1.00  0.00     0.160 HD
BRANCH  12  14
ATOM     14  C   UNL     1       0.011   0.775   2.013  1.00  0.00     0.107 C 
BRANCH  14  15
ATOM     15  C   UNL     1       0.390  -0.370   1.032  1.00  0.00     0.007 C 
ATOM     16  C   UNL     1       1.294   0.107  -0.109  1.00  0.00     0.009 C 
ATOM     17  C   UNL     1       0.952  -1.630   1.706  1.00  0.00     0.009 C 
ENDBRANCH  14  15
BRANCH  14  18
ATOM     18  C   UNL     1       1.240   1.175   2.865  1.00  0.00     0.181 C 
BRANCH  18  19
ATOM     19  O   UNL     1       1.010   2.338   3.654  1.00  0.00    -0.394 OA
ATOM     20  H   UNL     1       0.820   3.091   3.073  1.00  0.00     0.210 HD
ENDBRANCH  18  19
ENDBRANCH  14  18
ENDBRANCH  12  14
ENDBRANCH   7  12
BRANCH  11  21
ATOM     21  C   UNL     1      -4.978   3.906   5.170  1.00  0.00     0.416 C 
ATOM     22  F   UNL     1      -5.598   3.357   6.251  1.00  0.00    -0.166 F 
ATOM     23  F   UNL     1      -4.393   5.051   5.617  1.00  0.00    -0.166 F 
ATOM     24  F   UNL     1      -5.976   4.300   4.331  1.00  0.00    -0.166 F 
ENDBRANCH  11  21
ENDBRANCH   3   6
ENDBRANCH   1   2
BRANCH   1  25
ATOM     25  C   UNL     1      -3.481  -2.269   0.249  1.00  0.00     0.042 C 
BRANCH  25  26
ATOM     26  C   UNL     1      -2.694  -3.040  -0.821  1.00  0.00     0.118 C 
BRANCH  26  27
ATOM     27  N   UNL     1      -1.344  -2.594  -1.165  1.00  0.00    -0.352 N 
ATOM     28  C   UNL     1      -0.204  -3.299  -1.484  1.00  0.00     0.251 C 
ATOM     29  H   UNL     1      -1.230  -1.616  -1.169  1.00  0.00     0.163 HD
ATOM     30  O   UNL     1       0.824  -2.694  -1.783  1.00  0.00    -0.269 OA
BRANCH  28  31
ATOM     31  C   UNL     1      -0.173  -4.773  -1.439  1.00  0.00     0.039 A 
ATOM     32  C   UNL     1       0.991  -5.423  -1.005  1.00  0.00     0.014 A 
ATOM     33  C   UNL     1      -1.280  -5.520  -1.824  1.00  0.00     0.014 A 
ATOM     34  C   UNL     1       1.002  -6.812  -0.863  1.00  0.00     0.010 A 
ATOM     35  C   UNL     1      -1.315  -6.876  -1.560  1.00  0.00     0.010 A 
ATOM     36  C   UNL     1      -0.173  -7.538  -1.088  1.00  0.00    -0.014 A 
BRANCH  36  37
ATOM     37  C   UNL     1      -0.276  -9.001  -0.894  1.00  0.00     0.031 A 
ATOM     38  C   UNL     1      -0.701  -9.849  -2.060  1.00  0.00     0.074 A 
ATOM     39  C   UNL     1      -0.164  -9.522   0.342  1.00  0.00     0.049 A 
ATOM     40  N   UNL     1      -1.161 -11.072  -2.073  1.00  0.00    -0.248 NA
ATOM     41  C   UNL     1      -0.674  -9.200  -3.383  1.00  0.00     0.031 C 
ATOM     42  C   UNL     1       0.201  -8.781   1.552  1.00  0.00     0.029 A 
ATOM     43  N   UNL     1      -0.383 -10.799   0.788  1.00  0.00    -0.354 N 
ATOM     44  C   UNL     1      -1.543 -11.309  -3.389  1.00  0.00     0.074 A 
ATOM     45  C   UNL     1      -1.303 -10.092  -4.131  1.00  0.00     0.031 C 
ATOM     46  C   UNL     1       0.199  -9.622   2.600  1.00  0.00     0.029 A 
ATOM     47  C   UNL     1      -0.220 -10.941   2.145  1.00  0.00     0.049 A 
ATOM     48  H   UNL     1      -0.632 -11.543   0.194  1.00  0.00     0.167 HD
ATOM     49  C   UNL     1      -2.038 -12.447  -3.929  1.00  0.00     0.031 A 
ATOM     50  C   UNL     1      -0.408 -12.017   2.930  1.00  0.00     0.031 A 
ATOM     51  C   UNL     1      -2.211 -13.662  -3.183  1.00  0.00     0.049 A 
ATOM     52  C   UNL     1      -0.887 -13.293   2.295  1.00  0.00     0.074 A 
ATOM     53  C   UNL     1      -2.628 -14.902  -3.630  1.00  0.00     0.029 A 
ATOM     54  N   UNL     1      -1.947 -13.788  -1.826  1.00  0.00    -0.354 N 
ATOM     55  N   UNL     1      -1.216 -13.518   1.045  1.00  0.00    -0.248 NA
ATOM     56  C   UNL     1      -1.012 -14.462   3.174  1.00  0.00     0.031 C 
ATOM     57  C   UNL     1      -2.637 -15.774  -2.536  1.00  0.00     0.029 A 
ATOM     58  C   UNL     1      -2.188 -15.087  -1.418  1.00  0.00     0.049 A 
ATOM     59  H   UNL     1      -1.635 -13.061  -1.241  1.00  0.00     0.167 HD
ATOM     60  C   UNL     1      -1.563 -14.860   0.981  1.00  0.00     0.074 A 
ATOM     61  C   UNL     1      -1.388 -15.399   2.315  1.00  0.00     0.031 C 
ATOM     62  C   UNL     1      -1.991 -15.585  -0.082  1.00  0.00     0.031 A 
BRANCH  49  63
ATOM     63  C   UNL     1      -2.415 -12.412  -5.385  1.00  0.00    -0.014 A 
ATOM     64  C   UNL     1      -1.442 -12.275  -6.389  1.00  0.00     0.009 A 
ATOM     65  C   UNL     1      -3.764 -12.504  -5.760  1.00  0.00     0.009 A 
ATOM     66  C   UNL     1      -1.816 -12.173  -7.731  1.00  0.00     0.001 A 
ATOM     67  C   UNL     1      -4.133 -12.435  -7.106  1.00  0.00     0.001 A 
ATOM     68  C   UNL     1      -3.160 -12.255  -8.088  1.00  0.00     0.000 A 
ENDBRANCH  49  63
BRANCH  50  69
ATOM     69  C   UNL     1      -0.111 -11.944   4.385  1.00  0.00    -0.014 A 
ATOM     70  C   UNL     1       1.025 -12.585   4.902  1.00  0.00     0.009 A 
ATOM     71  C   UNL     1      -0.939 -11.224   5.260  1.00  0.00     0.009 A 
ATOM     72  C   UNL     1       1.313 -12.528   6.268  1.00  0.00     0.001 A 
ATOM     73  C   UNL     1      -0.634 -11.147   6.622  1.00  0.00     0.001 A 
ATOM     74  C   UNL     1       0.486 -11.806   7.126  1.00  0.00     0.000 A 
ENDBRANCH  50  69
BRANCH  62  75
ATOM     75  C   UNL     1      -2.256 -17.041   0.155  1.00  0.00    -0.014 A 
ATOM     76  C   UNL     1      -3.408 -17.467   0.834  1.00  0.00     0.009 A 
ATOM     77  C   UNL     1      -1.365 -17.998  -0.354  1.00  0.00     0.009 A 
ATOM     78  C   UNL     1      -3.648 -18.829   1.021  1.00  0.00     0.001 A 
ATOM     79  C   UNL     1      -1.622 -19.358  -0.187  1.00  0.00     0.001 A 
ATOM     80  C   UNL     1      -2.759 -19.772   0.506  1.00  0.00     0.000 A 
ENDBRANCH  62  75
ENDBRANCH  36  37
ENDBRANCH  28  31
ENDBRANCH  26  27
ENDBRANCH  25  26
ENDBRANCH   1  25
TORSDOF 16
