REMARK SMILES Cc1ccc(OCCn2ccnc2)c(/C=C/C(=O)NCCCNC(=O)c2ccc(-c3c4nc(c(-c5ccccc5)c5ccc([nH]5)c(-c5ccccc5)c5nc(c(-c6ccccc6)c6ccc3[nH]6)C=C5)C=C4)cc2)n1
REMARK SMILES IDX 17 1 18 2 19 3 16 5 15 6 14 7 1 8 2 9 3 10 74 11 4 12 5 13
REMARK SMILES IDX 6 14 7 15 8 16 9 17 10 18 13 19 11 20 12 21 20 22 21 23
REMARK SMILES IDX 22 24 23 25 24 26 25 28 26 29 27 30 73 31 28 32 72 33 29 34
REMARK SMILES IDX 30 35 31 36 66 37 32 38 71 39 65 40 67 41 33 42 70 43 64 44
REMARK SMILES IDX 63 45 34 47 56 48 41 49 55 50 42 51 45 52 54 53 68 54 43 55
REMARK SMILES IDX 44 56 53 58 69 59 46 60 35 61 36 62 40 63 37 64 39 65 38 66
REMARK SMILES IDX 57 67 58 68 62 69 59 70 61 71 60 72 47 73 48 74 52 75 49 76
REMARK SMILES IDX 51 77 50 78
REMARK H PARENT 19 4 23 27 67 46 45 57
REMARK Flexibility Score: inf
ROOT
ATOM      1  C   UNL     1      -1.466   4.865  -0.025  1.00  0.00     0.244 C 
ATOM      2  O   UNL     1      -0.776   5.869   0.149  1.00  0.00    -0.270 OA
ATOM      3  N   UNL     1      -2.806   5.018  -0.223  1.00  0.00    -0.352 N 
ATOM      4  H   UNL     1      -3.134   5.937  -0.093  1.00  0.00     0.163 HD
ENDROOT
BRANCH   1   5
ATOM      5  C   UNL     1      -0.810   3.535  -0.065  1.00  0.00     0.073 C 
ATOM      6  C   UNL     1      -1.381   2.389   0.327  1.00  0.00     0.038 C 
BRANCH   6   7
ATOM      7  C   UNL     1      -0.756   1.065   0.385  1.00  0.00     0.105 A 
ATOM      8  C   UNL     1       2.692  -0.178   0.262  1.00  0.00     0.067 C 
ATOM      9  C   UNL     1       1.211  -0.145   0.482  1.00  0.00     0.038 A 
ATOM     10  C   UNL     1       0.522  -1.289   0.862  1.00  0.00     0.027 A 
ATOM     11  N   UNL     1       0.595   1.043   0.297  1.00  0.00    -0.250 NA
ATOM     12  C   UNL     1      -0.870  -1.252   0.925  1.00  0.00     0.050 A 
ATOM     13  C   UNL     1      -1.540  -0.082   0.594  1.00  0.00     0.145 A 
BRANCH  13  14
ATOM     14  O   UNL     1      -2.898   0.021   0.426  1.00  0.00    -0.489 OA
BRANCH  14  15
ATOM     15  C   UNL     1      -3.653  -1.163   0.128  1.00  0.00     0.251 C 
BRANCH  15  16
ATOM     16  C   UNL     1      -3.590  -1.616  -1.341  1.00  0.00     0.164 C 
BRANCH  16  17
ATOM     17  N   UNL     1      -2.338  -2.237  -1.722  1.00  0.00    -0.334 N 
ATOM     18  C   UNL     1      -1.295  -1.625  -2.361  1.00  0.00     0.107 A 
ATOM     19  C   UNL     1      -1.972  -3.531  -1.482  1.00  0.00     0.199 A 
ATOM     20  C   UNL     1      -0.292  -2.564  -2.378  1.00  0.00     0.130 A 
ATOM     21  N   UNL     1      -0.725  -3.747  -1.834  1.00  0.00    -0.245 NA
ENDBRANCH  16  17
ENDBRANCH  15  16
ENDBRANCH  14  15
ENDBRANCH  13  14
ENDBRANCH   6   7
ENDBRANCH   1   5
BRANCH   3  22
ATOM     22  C   UNL     1      -3.836   4.057  -0.592  1.00  0.00     0.118 C 
BRANCH  22  23
ATOM     23  C   UNL     1      -4.601   3.512   0.625  1.00  0.00     0.042 C 
BRANCH  23  24
ATOM     24  C   UNL     1      -5.792   4.371   0.988  1.00  0.00     0.118 C 
BRANCH  24  25
ATOM     25  N   UNL     1      -6.875   4.292  -0.003  1.00  0.00    -0.352 N 
ATOM     26  C   UNL     1      -8.086   4.975  -0.026  1.00  0.00     0.251 C 
ATOM     27  H   UNL     1      -6.723   3.671  -0.751  1.00  0.00     0.163 HD
ATOM     28  O   UNL     1      -9.015   4.601  -0.712  1.00  0.00    -0.269 OA
BRANCH  26  29
ATOM     29  C   UNL     1      -8.198   6.186   0.805  1.00  0.00     0.039 A 
ATOM     30  C   UNL     1      -9.337   6.519   1.545  1.00  0.00     0.014 A 
ATOM     31  C   UNL     1      -7.051   6.954   0.886  1.00  0.00     0.014 A 
ATOM     32  C   UNL     1      -9.264   7.603   2.421  1.00  0.00     0.010 A 
ATOM     33  C   UNL     1      -6.888   7.760   1.964  1.00  0.00     0.010 A 
ATOM     34  C   UNL     1      -8.021   8.213   2.621  1.00  0.00    -0.014 A 
BRANCH  34  35
ATOM     35  C   UNL     1      -7.787   9.331   3.521  1.00  0.00     0.031 A 
ATOM     36  C   UNL     1      -8.001   9.042   4.961  1.00  0.00     0.074 A 
ATOM     37  C   UNL     1      -7.071  10.396   3.083  1.00  0.00     0.049 A 
ATOM     38  N   UNL     1      -8.815   9.626   5.774  1.00  0.00    -0.248 NA
ATOM     39  C   UNL     1      -7.295   7.889   5.548  1.00  0.00     0.031 C 
ATOM     40  C   UNL     1      -6.479  10.614   1.748  1.00  0.00     0.029 A 
ATOM     41  N   UNL     1      -6.550  11.424   3.795  1.00  0.00    -0.354 N 
ATOM     42  C   UNL     1      -8.588   9.049   7.020  1.00  0.00     0.074 A 
ATOM     43  C   UNL     1      -7.795   7.869   6.784  1.00  0.00     0.031 C 
ATOM     44  C   UNL     1      -5.482  11.521   1.835  1.00  0.00     0.029 A 
ATOM     45  C   UNL     1      -5.496  12.084   3.169  1.00  0.00     0.049 A 
ATOM     46  H   UNL     1      -6.888  11.684   4.682  1.00  0.00     0.167 HD
ATOM     47  C   UNL     1      -8.838   9.721   8.178  1.00  0.00     0.031 A 
ATOM     48  C   UNL     1      -4.665  12.996   3.729  1.00  0.00     0.031 A 
ATOM     49  C   UNL     1      -9.626  10.905   7.950  1.00  0.00     0.049 A 
ATOM     50  C   UNL     1      -5.332  13.490   4.956  1.00  0.00     0.074 A 
ATOM     51  C   UNL     1     -10.878  11.155   7.425  1.00  0.00     0.029 A 
ATOM     52  N   UNL     1      -8.951  12.102   7.894  1.00  0.00    -0.354 N 
ATOM     53  N   UNL     1      -6.450  14.161   4.940  1.00  0.00    -0.248 NA
ATOM     54  C   UNL     1      -5.027  12.818   6.209  1.00  0.00     0.031 C 
ATOM     55  C   UNL     1     -10.710  12.328   6.629  1.00  0.00     0.029 A 
ATOM     56  C   UNL     1      -9.392  12.767   6.777  1.00  0.00     0.049 A 
ATOM     57  H   UNL     1      -8.277  12.423   8.536  1.00  0.00     0.167 HD
ATOM     58  C   UNL     1      -7.190  13.642   5.993  1.00  0.00     0.074 A 
ATOM     59  C   UNL     1      -6.225  12.891   6.798  1.00  0.00     0.031 C 
ATOM     60  C   UNL     1      -8.556  13.614   5.954  1.00  0.00     0.031 A 
BRANCH  47  61
ATOM     61  C   UNL     1      -8.030   9.540   9.436  1.00  0.00    -0.014 A 
ATOM     62  C   UNL     1      -8.450  10.187  10.611  1.00  0.00     0.009 A 
ATOM     63  C   UNL     1      -6.732   8.992   9.444  1.00  0.00     0.009 A 
ATOM     64  C   UNL     1      -7.592  10.329  11.709  1.00  0.00     0.001 A 
ATOM     65  C   UNL     1      -5.890   9.093  10.553  1.00  0.00     0.001 A 
ATOM     66  C   UNL     1      -6.311   9.787  11.677  1.00  0.00     0.000 A 
ENDBRANCH  47  61
BRANCH  48  67
ATOM     67  C   UNL     1      -3.231  13.226   3.444  1.00  0.00    -0.014 A 
ATOM     68  C   UNL     1      -2.598  14.422   3.814  1.00  0.00     0.009 A 
ATOM     69  C   UNL     1      -2.412  12.154   3.037  1.00  0.00     0.009 A 
ATOM     70  C   UNL     1      -1.199  14.530   3.808  1.00  0.00     0.001 A 
ATOM     71  C   UNL     1      -1.016  12.261   3.031  1.00  0.00     0.001 A 
ATOM     72  C   UNL     1      -0.409  13.446   3.431  1.00  0.00     0.000 A 
ENDBRANCH  48  67
BRANCH  60  73
ATOM     73  C   UNL     1      -9.243  14.311   4.800  1.00  0.00    -0.014 A 
ATOM     74  C   UNL     1      -9.100  13.900   3.461  1.00  0.00     0.009 A 
ATOM     75  C   UNL     1     -10.195  15.299   5.085  1.00  0.00     0.009 A 
ATOM     76  C   UNL     1      -9.864  14.477   2.440  1.00  0.00     0.001 A 
ATOM     77  C   UNL     1     -10.971  15.863   4.069  1.00  0.00     0.001 A 
ATOM     78  C   UNL     1     -10.804  15.456   2.746  1.00  0.00     0.000 A 
ENDBRANCH  60  73
ENDBRANCH  34  35
ENDBRANCH  26  29
ENDBRANCH  24  25
ENDBRANCH  23  24
ENDBRANCH  22  23
ENDBRANCH   3  22
TORSDOF 15
