REMARK SMILES COc1ccccc1NC1=[NH+]C(=O)/C(=C\c2ccccc2OCC(=O)NCCCNC(=O)c2ccc(-c3c4nc(c(-c5ccccc5)c5ccc([nH]5)c(-c5ccccc5)c5nc(c(-c6ccccc6)c6ccc3[nH]6)C=C5)C=C4)cc2)S1
REMARK SMILES IDX 24 1 25 2 26 3 23 5 22 6 21 7 16 8 17 9 18 10 20 11 19 12
REMARK SMILES IDX 15 13 9 14 10 15 11 17 81 18 12 19 14 21 13 22 8 23 3 24
REMARK SMILES IDX 4 25 5 26 7 27 6 28 2 29 1 30 27 31 28 32 29 33 30 34 31 35
REMARK SMILES IDX 32 37 33 38 34 39 80 40 35 41 79 42 36 43 37 44 38 45 73 46
REMARK SMILES IDX 39 47 78 48 72 49 74 50 40 51 77 52 71 53 70 54 41 56 63 57
REMARK SMILES IDX 48 58 62 59 49 60 52 61 61 62 75 63 50 64 51 65 60 67 76 68
REMARK SMILES IDX 53 69 42 70 43 71 47 72 44 73 46 74 45 75 64 76 65 77 69 78
REMARK SMILES IDX 66 79 68 80 67 81 54 82 55 83 59 84 56 85 58 86 57 87
REMARK H PARENT 26 4 9 16 11 20 30 36 74 55 52 66
REMARK Flexibility Score: inf
ROOT
ATOM      1  C   UNL     1       6.349  -2.134  -3.321  1.00  0.00     0.257 C 
ATOM      2  O   UNL     1       5.237  -1.719  -3.647  1.00  0.00    -0.271 OA
ATOM      3  N   UNL     1       6.497  -2.655  -2.071  1.00  0.00    -0.353 N 
ATOM      4  H   UNL     1       5.899  -2.295  -1.377  1.00  0.00     0.163 HD
ENDROOT
BRANCH   1   5
ATOM      5  C   UNL     1       7.504  -2.074  -4.313  1.00  0.00     0.329 C 
BRANCH   5   6
ATOM      6  O   UNL     1       8.799  -2.007  -3.771  1.00  0.00    -0.483 OA
BRANCH   6   7
ATOM      7  C   UNL     1       9.452  -0.833  -3.532  1.00  0.00     0.127 A 
ATOM      8  C   UNL     1       8.986   0.491  -3.443  1.00  0.00     0.018 A 
ATOM      9  C   UNL     1       9.909   1.510  -3.126  1.00  0.00     0.012 A 
ATOM     10  C   UNL     1      11.261   1.234  -2.918  1.00  0.00     0.001 A 
ATOM     11  C   UNL     1      10.820  -1.087  -3.321  1.00  0.00     0.047 A 
ATOM     12  C   UNL     1      11.721  -0.069  -3.024  1.00  0.00     0.004 A 
BRANCH   8  13
ATOM     13  C   UNL     1       7.613   0.959  -3.678  1.00  0.00     0.036 C 
ATOM     14  N   UNL     1       3.238  -0.009  -1.591  1.00  0.00    -0.231 N 
ATOM     15  C   UNL     1       4.500   0.467  -1.779  1.00  0.00     0.322 C 
ATOM     16  H   UNL     1       2.949   0.003  -0.650  1.00  0.00     0.313 HD
ATOM     17  N   UNL     1       5.434   0.239  -0.902  1.00  0.00    -0.199 N 
ATOM     18  S   UNL     1       5.000   1.430  -3.158  1.00  0.00     0.006 SA
ATOM     19  C   UNL     1       6.679   0.655  -1.330  1.00  0.00     0.346 C 
ATOM     20  H   UNL     1       5.271  -0.185  -0.029  1.00  0.00     0.316 HD
ATOM     21  C   UNL     1       6.637   1.053  -2.766  1.00  0.00     0.110 C 
ATOM     22  O   UNL     1       7.687   0.658  -0.640  1.00  0.00    -0.240 OA
BRANCH  14  23
ATOM     23  C   UNL     1       2.262  -0.516  -2.477  1.00  0.00     0.167 A 
ATOM     24  C   UNL     1       1.048  -0.999  -1.938  1.00  0.00     0.165 A 
ATOM     25  C   UNL     1       0.083  -1.619  -2.740  1.00  0.00     0.051 A 
ATOM     26  C   UNL     1       0.286  -1.731  -4.112  1.00  0.00     0.004 A 
ATOM     27  C   UNL     1       2.415  -0.605  -3.865  1.00  0.00     0.056 A 
ATOM     28  C   UNL     1       1.449  -1.218  -4.674  1.00  0.00     0.005 A 
BRANCH  24  29
ATOM     29  O   UNL     1       0.807  -1.016  -0.583  1.00  0.00    -0.492 OA
ATOM     30  C   UNL     1       0.674   0.292  -0.026  1.00  0.00     0.278 C 
ENDBRANCH  24  29
ENDBRANCH  14  23
ENDBRANCH   8  13
ENDBRANCH   6   7
ENDBRANCH   5   6
ENDBRANCH   1   5
BRANCH   3  31
ATOM     31  C   UNL     1       7.428  -3.678  -1.643  1.00  0.00     0.117 C 
BRANCH  31  32
ATOM     32  C   UNL     1       8.440  -3.232  -0.595  1.00  0.00     0.042 C 
BRANCH  32  33
ATOM     33  C   UNL     1       7.857  -2.594   0.663  1.00  0.00     0.118 C 
BRANCH  33  34
ATOM     34  N   UNL     1       6.922  -3.450   1.383  1.00  0.00    -0.352 N 
ATOM     35  C   UNL     1       7.038  -4.172   2.543  1.00  0.00     0.251 C 
ATOM     36  H   UNL     1       6.039  -3.524   0.954  1.00  0.00     0.163 HD
ATOM     37  O   UNL     1       6.119  -4.916   2.878  1.00  0.00    -0.269 OA
BRANCH  35  38
ATOM     38  C   UNL     1       8.256  -4.110   3.382  1.00  0.00     0.039 A 
ATOM     39  C   UNL     1       8.736  -5.299   3.943  1.00  0.00     0.014 A 
ATOM     40  C   UNL     1       8.900  -2.906   3.668  1.00  0.00     0.014 A 
ATOM     41  C   UNL     1       9.901  -5.292   4.715  1.00  0.00     0.010 A 
ATOM     42  C   UNL     1      10.108  -2.910   4.367  1.00  0.00     0.010 A 
ATOM     43  C   UNL     1      10.625  -4.102   4.895  1.00  0.00    -0.014 A 
BRANCH  43  44
ATOM     44  C   UNL     1      11.928  -4.094   5.610  1.00  0.00     0.031 A 
ATOM     45  C   UNL     1      12.101  -3.316   6.885  1.00  0.00     0.074 A 
ATOM     46  C   UNL     1      12.983  -4.740   5.076  1.00  0.00     0.049 A 
ATOM     47  N   UNL     1      13.175  -3.162   7.621  1.00  0.00    -0.248 NA
ATOM     48  C   UNL     1      10.919  -2.601   7.389  1.00  0.00     0.031 C 
ATOM     49  C   UNL     1      12.963  -5.511   3.831  1.00  0.00     0.029 A 
ATOM     50  N   UNL     1      14.279  -4.851   5.514  1.00  0.00    -0.354 N 
ATOM     51  C   UNL     1      12.802  -2.321   8.662  1.00  0.00     0.074 A 
ATOM     52  C   UNL     1      11.420  -1.957   8.432  1.00  0.00     0.031 C 
ATOM     53  C   UNL     1      14.176  -6.048   3.628  1.00  0.00     0.029 A 
ATOM     54  C   UNL     1      15.071  -5.620   4.697  1.00  0.00     0.049 A 
ATOM     55  H   UNL     1      14.610  -4.419   6.335  1.00  0.00     0.167 HD
ATOM     56  C   UNL     1      13.533  -1.903   9.724  1.00  0.00     0.031 A 
ATOM     57  C   UNL     1      16.374  -5.945   4.793  1.00  0.00     0.031 A 
ATOM     58  C   UNL     1      14.912  -2.253   9.948  1.00  0.00     0.049 A 
ATOM     59  C   UNL     1      17.181  -5.428   5.950  1.00  0.00     0.074 A 
ATOM     60  C   UNL     1      15.726  -1.917  11.017  1.00  0.00     0.029 A 
ATOM     61  N   UNL     1      15.685  -3.009   9.081  1.00  0.00    -0.354 N 
ATOM     62  N   UNL     1      16.797  -4.687   6.960  1.00  0.00    -0.248 NA
ATOM     63  C   UNL     1      18.602  -5.800   5.980  1.00  0.00     0.031 C 
ATOM     64  C   UNL     1      17.008  -2.418  10.765  1.00  0.00     0.029 A 
ATOM     65  C   UNL     1      16.976  -3.123   9.572  1.00  0.00     0.049 A 
ATOM     66  H   UNL     1      15.365  -3.407   8.239  1.00  0.00     0.167 HD
ATOM     67  C   UNL     1      17.920  -4.529   7.763  1.00  0.00     0.074 A 
ATOM     68  C   UNL     1      18.996  -5.262   7.126  1.00  0.00     0.031 C 
ATOM     69  C   UNL     1      18.044  -3.844   8.927  1.00  0.00     0.031 A 
BRANCH  56  70
ATOM     70  C   UNL     1      12.849  -0.992  10.710  1.00  0.00    -0.014 A 
ATOM     71  C   UNL     1      11.793  -1.449  11.516  1.00  0.00     0.009 A 
ATOM     72  C   UNL     1      13.263   0.343  10.832  1.00  0.00     0.009 A 
ATOM     73  C   UNL     1      11.129  -0.574  12.378  1.00  0.00     0.001 A 
ATOM     74  C   UNL     1      12.621   1.207  11.721  1.00  0.00     0.001 A 
ATOM     75  C   UNL     1      11.544   0.753  12.481  1.00  0.00     0.000 A 
ENDBRANCH  56  70
BRANCH  57  76
ATOM     76  C   UNL     1      16.989  -6.839   3.777  1.00  0.00    -0.014 A 
ATOM     77  C   UNL     1      17.337  -8.155   4.115  1.00  0.00     0.009 A 
ATOM     78  C   UNL     1      17.214  -6.392   2.466  1.00  0.00     0.009 A 
ATOM     79  C   UNL     1      17.912  -9.002   3.166  1.00  0.00     0.001 A 
ATOM     80  C   UNL     1      17.763  -7.250   1.510  1.00  0.00     0.001 A 
ATOM     81  C   UNL     1      18.118  -8.551   1.863  1.00  0.00     0.000 A 
ENDBRANCH  57  76
BRANCH  69  82
ATOM     82  C   UNL     1      19.385  -3.883   9.607  1.00  0.00    -0.014 A 
ATOM     83  C   UNL     1      20.494  -3.202   9.082  1.00  0.00     0.009 A 
ATOM     84  C   UNL     1      19.530  -4.587  10.814  1.00  0.00     0.009 A 
ATOM     85  C   UNL     1      21.729  -3.254   9.733  1.00  0.00     0.001 A 
ATOM     86  C   UNL     1      20.757  -4.611  11.479  1.00  0.00     0.001 A 
ATOM     87  C   UNL     1      21.858  -3.953  10.933  1.00  0.00     0.000 A 
ENDBRANCH  69  82
ENDBRANCH  43  44
ENDBRANCH  35  38
ENDBRANCH  33  34
ENDBRANCH  32  33
ENDBRANCH  31  32
ENDBRANCH   3  31
TORSDOF 15
