REMARK SMILES CC[C@@](C)(NC(=O)c1c(C)cc(C)[nH]c1=O)C(=O)NCCCNC(=O)c1ccc(-c2c3nc(c(-c4ccccc4)c4ccc([nH]4)c(-c4ccccc4)c4nc(c(-c5ccccc5)c5ccc2[nH]5)C=C4)C=C3)cc1
REMARK SMILES IDX 21 1 20 2 19 3 17 4 18 5 3 7 4 8 2 9 1 10 5 11 6 12 7 14
REMARK SMILES IDX 8 15 9 16 15 17 10 18 11 19 14 20 16 21 12 22 13 24 22 25
REMARK SMILES IDX 23 26 24 27 25 29 26 30 27 31 73 32 28 33 72 34 29 35 30 36
REMARK SMILES IDX 31 37 66 38 32 39 71 40 65 41 67 42 33 43 70 44 64 45 63 46
REMARK SMILES IDX 34 48 56 49 41 50 55 51 42 52 45 53 54 54 68 55 43 56 44 57
REMARK SMILES IDX 53 59 69 60 46 61 35 62 36 63 40 64 37 65 39 66 38 67 57 68
REMARK SMILES IDX 58 69 62 70 59 71 61 72 60 73 47 74 48 75 52 76 49 77 51 78
REMARK SMILES IDX 50 79
REMARK H PARENT 19 6 5 13 14 23 23 28 67 47 45 58
REMARK Flexibility Score: inf
ROOT
ATOM      1  C   UNL     1       2.387   0.320   6.254  1.00  0.00     0.042 C 
ENDROOT
BRANCH   1   2
ATOM      2  C   UNL     1       2.046   1.349   5.166  1.00  0.00     0.117 C 
BRANCH   2   3
ATOM      3  N   UNL     1       2.630   1.143   3.846  1.00  0.00    -0.354 N 
ATOM      4  C   UNL     1       2.362   0.377   2.748  1.00  0.00     0.245 C 
ATOM      5  O   UNL     1       3.233   0.438   1.865  1.00  0.00    -0.272 OA
ATOM      6  H   UNL     1       3.427   1.705   3.710  1.00  0.00     0.163 HD
BRANCH   4   7
ATOM      7  C   UNL     1       1.099  -0.546   2.544  1.00  0.00     0.116 C 
ATOM      8  C   UNL     1      -0.157   0.310   2.848  1.00  0.00     0.045 C 
BRANCH   7   9
ATOM      9  C   UNL     1       1.007  -0.991   1.042  1.00  0.00     0.035 C 
ATOM     10  C   UNL     1       0.911   0.120  -0.007  1.00  0.00     0.007 C 
ENDBRANCH   7   9
BRANCH   7  11
ATOM     11  N   UNL     1       0.969  -1.807   3.369  1.00  0.00    -0.338 N 
ATOM     12  C   UNL     1       1.614  -3.018   3.437  1.00  0.00     0.258 C 
ATOM     13  H   UNL     1       0.235  -1.744   4.022  1.00  0.00     0.164 HD
ATOM     14  O   UNL     1       0.918  -3.961   3.826  1.00  0.00    -0.269 OA
BRANCH  12  15
ATOM     15  C   UNL     1       3.075  -3.220   3.152  1.00  0.00     0.107 A 
ATOM     16  C   UNL     1       3.709  -4.403   2.930  1.00  0.00    -0.031 A 
ATOM     17  C   UNL     1       3.996  -2.118   3.465  1.00  0.00     0.261 A 
ATOM     18  C   UNL     1       3.083  -5.770   2.900  1.00  0.00     0.045 C 
ATOM     19  C   UNL     1       5.174  -4.444   2.743  1.00  0.00     0.025 A 
ATOM     20  N   UNL     1       5.280  -2.151   3.030  1.00  0.00    -0.326 N 
ATOM     21  O   UNL     1       3.656  -1.250   4.247  1.00  0.00    -0.269 OA
ATOM     22  C   UNL     1       5.911  -3.323   2.741  1.00  0.00     0.015 A 
ATOM     23  H   UNL     1       5.770  -1.304   2.920  1.00  0.00     0.169 HD
ATOM     24  C   UNL     1       7.401  -3.259   2.614  1.00  0.00     0.064 C 
ENDBRANCH  12  15
ENDBRANCH   7  11
ENDBRANCH   4   7
ENDBRANCH   2   3
ENDBRANCH   1   2
BRANCH   1  25
ATOM     25  C   UNL     1       3.871   0.049   6.548  1.00  0.00     0.118 C 
BRANCH  25  26
ATOM     26  N   UNL     1       4.543   0.993   7.414  1.00  0.00    -0.352 N 
ATOM     27  C   UNL     1       5.439   0.743   8.427  1.00  0.00     0.251 C 
ATOM     28  H   UNL     1       4.331   1.942   7.257  1.00  0.00     0.163 HD
ATOM     29  O   UNL     1       6.087   1.675   8.901  1.00  0.00    -0.269 OA
BRANCH  27  30
ATOM     30  C   UNL     1       5.584  -0.605   9.032  1.00  0.00     0.039 A 
ATOM     31  C   UNL     1       5.396  -0.689  10.416  1.00  0.00     0.014 A 
ATOM     32  C   UNL     1       5.950  -1.752   8.317  1.00  0.00     0.014 A 
ATOM     33  C   UNL     1       5.522  -1.914  11.075  1.00  0.00     0.010 A 
ATOM     34  C   UNL     1       6.045  -2.991   8.976  1.00  0.00     0.010 A 
ATOM     35  C   UNL     1       5.828  -3.084  10.361  1.00  0.00    -0.014 A 
BRANCH  35  36
ATOM     36  C   UNL     1       5.892  -4.382  11.089  1.00  0.00     0.031 A 
ATOM     37  C   UNL     1       7.208  -5.048  11.381  1.00  0.00     0.074 A 
ATOM     38  C   UNL     1       4.755  -4.944  11.546  1.00  0.00     0.049 A 
ATOM     39  N   UNL     1       7.449  -6.109  12.112  1.00  0.00    -0.248 NA
ATOM     40  C   UNL     1       8.407  -4.449  10.777  1.00  0.00     0.031 C 
ATOM     41  C   UNL     1       3.408  -4.414  11.333  1.00  0.00     0.029 A 
ATOM     42  N   UNL     1       4.554  -6.071  12.307  1.00  0.00    -0.354 N 
ATOM     43  C   UNL     1       8.825  -6.298  12.067  1.00  0.00     0.074 A 
ATOM     44  C   UNL     1       9.360  -5.269  11.200  1.00  0.00     0.031 C 
ATOM     45  C   UNL     1       2.525  -5.189  11.982  1.00  0.00     0.029 A 
ATOM     46  C   UNL     1       3.237  -6.282  12.639  1.00  0.00     0.049 A 
ATOM     47  H   UNL     1       5.283  -6.669  12.588  1.00  0.00     0.167 HD
ATOM     48  C   UNL     1       9.577  -7.228  12.704  1.00  0.00     0.031 A 
ATOM     49  C   UNL     1       2.663  -7.237  13.398  1.00  0.00     0.031 A 
ATOM     50  C   UNL     1       9.057  -8.258  13.565  1.00  0.00     0.049 A 
ATOM     51  C   UNL     1       3.514  -8.287  14.052  1.00  0.00     0.074 A 
ATOM     52  C   UNL     1       9.758  -9.215  14.280  1.00  0.00     0.029 A 
ATOM     53  N   UNL     1       7.714  -8.472  13.821  1.00  0.00    -0.354 N 
ATOM     54  N   UNL     1       4.818  -8.412  14.047  1.00  0.00    -0.248 NA
ATOM     55  C   UNL     1       2.814  -9.326  14.824  1.00  0.00     0.031 C 
ATOM     56  C   UNL     1       8.835 -10.037  14.934  1.00  0.00     0.029 A 
ATOM     57  C   UNL     1       7.562  -9.563  14.661  1.00  0.00     0.049 A 
ATOM     58  H   UNL     1       6.976  -7.929  13.461  1.00  0.00     0.167 HD
ATOM     59  C   UNL     1       5.095  -9.527  14.827  1.00  0.00     0.074 A 
ATOM     60  C   UNL     1       3.826 -10.039  15.300  1.00  0.00     0.031 C 
ATOM     61  C   UNL     1       6.299 -10.073  15.123  1.00  0.00     0.031 A 
BRANCH  48  62
ATOM     62  C   UNL     1      11.064  -7.174  12.499  1.00  0.00    -0.014 A 
ATOM     63  C   UNL     1      11.840  -6.183  13.121  1.00  0.00     0.009 A 
ATOM     64  C   UNL     1      11.705  -8.162  11.736  1.00  0.00     0.009 A 
ATOM     65  C   UNL     1      13.227  -6.168  12.961  1.00  0.00     0.001 A 
ATOM     66  C   UNL     1      13.094  -8.157  11.596  1.00  0.00     0.001 A 
ATOM     67  C   UNL     1      13.853  -7.157  12.203  1.00  0.00     0.000 A 
ENDBRANCH  48  62
BRANCH  49  68
ATOM     68  C   UNL     1       1.192  -7.226  13.606  1.00  0.00    -0.014 A 
ATOM     69  C   UNL     1       0.653  -6.840  14.843  1.00  0.00     0.009 A 
ATOM     70  C   UNL     1       0.321  -7.591  12.568  1.00  0.00     0.009 A 
ATOM     71  C   UNL     1      -0.729  -6.833  15.040  1.00  0.00     0.001 A 
ATOM     72  C   UNL     1      -1.061  -7.562  12.761  1.00  0.00     0.001 A 
ATOM     73  C   UNL     1      -1.585  -7.189  13.998  1.00  0.00     0.000 A 
ENDBRANCH  49  68
BRANCH  61  74
ATOM     74  C   UNL     1       6.316 -11.287  16.008  1.00  0.00    -0.014 A 
ATOM     75  C   UNL     1       5.963 -12.549  15.508  1.00  0.00     0.009 A 
ATOM     76  C   UNL     1       6.766 -11.180  17.333  1.00  0.00     0.009 A 
ATOM     77  C   UNL     1       6.048 -13.680  16.323  1.00  0.00     0.001 A 
ATOM     78  C   UNL     1       6.870 -12.315  18.139  1.00  0.00     0.001 A 
ATOM     79  C   UNL     1       6.508 -13.563  17.634  1.00  0.00     0.000 A 
ENDBRANCH  61  74
ENDBRANCH  35  36
ENDBRANCH  27  30
ENDBRANCH  25  26
ENDBRANCH   1  25
TORSDOF 13
