REMARK SMILES CCC[NH2+][C@]1(C(=O)NCCCNC(=O)c2ccc(-c3c4nc(c(-c5ccccc5)c5ccc([nH]5)c(-c5ccccc5)c5nc(c(-c6ccccc6)c6ccc3[nH]6)C=C5)C=C4)cc2)CC[C@H](n2nc(C)c(CC)c2C)C1
REMARK SMILES IDX 9 1 8 2 6 3 7 4 5 6 63 7 75 8 64 9 65 10 4 11 3 14 2 15 1 16
REMARK SMILES IDX 66 17 67 18 73 19 68 20 70 21 74 22 69 23 71 24 72 25 10 26
REMARK SMILES IDX 11 27 12 28 13 29 14 31 15 32 16 33 62 34 17 35 61 36 18 37
REMARK SMILES IDX 19 38 20 39 55 40 21 41 60 42 54 43 56 44 22 45 59 46 53 47
REMARK SMILES IDX 52 48 23 50 45 51 30 52 44 53 31 54 34 55 43 56 57 57 32 58
REMARK SMILES IDX 33 59 42 61 58 62 35 63 24 64 25 65 29 66 26 67 28 68 27 69
REMARK SMILES IDX 46 70 47 71 51 72 48 73 50 74 49 75 36 76 37 77 41 78 38 79
REMARK SMILES IDX 40 80 39 81
REMARK H PARENT 8 5 4 12 4 13 12 30 56 49 34 60
REMARK Flexibility Score: inf
ROOT
ATOM      1  C   UNL     1      -1.780   0.645   3.166  1.00  0.00     0.118 C 
ENDROOT
BRANCH   1   2
ATOM      2  N   UNL     1      -0.590   0.341   2.400  1.00  0.00    -0.351 N 
ATOM      3  C   UNL     1       0.546  -0.310   2.831  1.00  0.00     0.281 C 
ATOM      4  O   UNL     1       1.256  -0.816   1.957  1.00  0.00    -0.268 OA
ATOM      5  H   UNL     1      -0.592   0.634   1.460  1.00  0.00     0.163 HD
BRANCH   3   6
ATOM      6  C   UNL     1       1.010  -0.248   4.314  1.00  0.00     0.177 C 
ATOM      7  C   UNL     1       2.214  -1.128   4.690  1.00  0.00     0.081 C 
ATOM      8  C   UNL     1       1.714   1.121   4.476  1.00  0.00     0.106 C 
ATOM      9  C   UNL     1       2.768  -0.448   5.961  1.00  0.00     0.034 C 
ATOM     10  C   UNL     1       2.406   1.067   5.834  1.00  0.00     0.114 C 
BRANCH   6  11
ATOM     11  N   UNL     1      -0.032  -0.512   5.323  1.00  0.00    -0.334 N 
ATOM     12  H   UNL     1       0.429  -0.530   6.232  1.00  0.00     0.347 HD
ATOM     13  H   UNL     1      -0.713   0.232   5.175  1.00  0.00     0.347 HD
BRANCH  11  14
ATOM     14  C   UNL     1      -0.814  -1.731   5.216  1.00  0.00     0.261 C 
BRANCH  14  15
ATOM     15  C   UNL     1      -1.968  -1.760   6.234  1.00  0.00     0.058 C 
ATOM     16  C   UNL     1      -3.031  -0.681   6.051  1.00  0.00     0.010 C 
ENDBRANCH  14  15
ENDBRANCH  11  14
ENDBRANCH   6  11
BRANCH  10  17
ATOM     17  N   UNL     1       1.699   1.605   6.997  1.00  0.00    -0.266 N 
ATOM     18  N   UNL     1       2.323   1.411   8.185  1.00  0.00    -0.178 NA
ATOM     19  C   UNL     1       0.573   2.402   7.141  1.00  0.00     0.039 A 
ATOM     20  C   UNL     1       1.544   1.993   9.097  1.00  0.00     0.063 A 
ATOM     21  C   UNL     1       0.420   2.609   8.507  1.00  0.00    -0.004 A 
ATOM     22  C   UNL     1      -0.297   2.985   6.086  1.00  0.00     0.066 C 
ATOM     23  C   UNL     1       1.933   1.953  10.528  1.00  0.00     0.069 C 
BRANCH  21  24
ATOM     24  C   UNL     1      -0.675   3.361   9.193  1.00  0.00     0.036 C 
ATOM     25  C   UNL     1      -1.708   2.430   9.812  1.00  0.00     0.009 C 
ENDBRANCH  21  24
ENDBRANCH  10  17
ENDBRANCH   3   6
ENDBRANCH   1   2
BRANCH   1  26
ATOM     26  C   UNL     1      -2.629   1.797   2.673  1.00  0.00     0.042 C 
BRANCH  26  27
ATOM     27  C   UNL     1      -3.422   1.487   1.417  1.00  0.00     0.118 C 
BRANCH  27  28
ATOM     28  N   UNL     1      -4.404   0.419   1.591  1.00  0.00    -0.352 N 
ATOM     29  C   UNL     1      -5.776   0.417   1.710  1.00  0.00     0.251 C 
ATOM     30  H   UNL     1      -4.004  -0.480   1.630  1.00  0.00     0.163 HD
ATOM     31  O   UNL     1      -6.346  -0.633   1.976  1.00  0.00    -0.269 OA
BRANCH  29  32
ATOM     32  C   UNL     1      -6.571   1.660   1.566  1.00  0.00     0.039 A 
ATOM     33  C   UNL     1      -7.725   1.823   2.343  1.00  0.00     0.014 A 
ATOM     34  C   UNL     1      -6.213   2.660   0.667  1.00  0.00     0.014 A 
ATOM     35  C   UNL     1      -8.442   3.023   2.290  1.00  0.00     0.010 A 
ATOM     36  C   UNL     1      -6.838   3.900   0.717  1.00  0.00     0.010 A 
ATOM     37  C   UNL     1      -7.968   4.097   1.522  1.00  0.00    -0.014 A 
BRANCH  37  38
ATOM     38  C   UNL     1      -8.629   5.429   1.526  1.00  0.00     0.031 A 
ATOM     39  C   UNL     1      -9.107   6.040   0.233  1.00  0.00     0.074 A 
ATOM     40  C   UNL     1      -8.709   6.136   2.671  1.00  0.00     0.049 A 
ATOM     41  N   UNL     1      -9.583   7.240   0.011  1.00  0.00    -0.248 NA
ATOM     42  C   UNL     1      -8.994   5.209  -0.978  1.00  0.00     0.031 C 
ATOM     43  C   UNL     1      -8.232   5.691   3.983  1.00  0.00     0.029 A 
ATOM     44  N   UNL     1      -9.213   7.390   2.912  1.00  0.00    -0.354 N 
ATOM     45  C   UNL     1      -9.783   7.317  -1.363  1.00  0.00     0.074 A 
ATOM     46  C   UNL     1      -9.325   6.069  -1.929  1.00  0.00     0.031 C 
ATOM     47  C   UNL     1      -8.503   6.639   4.895  1.00  0.00     0.029 A 
ATOM     48  C   UNL     1      -9.125   7.776   4.228  1.00  0.00     0.049 A 
ATOM     49  H   UNL     1      -9.601   7.959   2.208  1.00  0.00     0.167 HD
ATOM     50  C   UNL     1     -10.325   8.324  -2.089  1.00  0.00     0.031 A 
ATOM     51  C   UNL     1      -9.499   8.920   4.831  1.00  0.00     0.031 A 
ATOM     52  C   UNL     1     -10.824   9.547  -1.523  1.00  0.00     0.049 A 
ATOM     53  C   UNL     1     -10.123  10.013   4.009  1.00  0.00     0.074 A 
ATOM     54  C   UNL     1     -11.464  10.595  -2.162  1.00  0.00     0.029 A 
ATOM     55  N   UNL     1     -10.747   9.882  -0.180  1.00  0.00    -0.354 N 
ATOM     56  N   UNL     1     -10.364  10.042   2.721  1.00  0.00    -0.248 NA
ATOM     57  C   UNL     1     -10.534  11.226   4.729  1.00  0.00     0.031 C 
ATOM     58  C   UNL     1     -11.736  11.584  -1.211  1.00  0.00     0.029 A 
ATOM     59  C   UNL     1     -11.311  11.129   0.027  1.00  0.00     0.049 A 
ATOM     60  H   UNL     1     -10.350   9.317   0.521  1.00  0.00     0.167 HD
ATOM     61  C   UNL     1     -10.977  11.264   2.480  1.00  0.00     0.074 A 
ATOM     62  C   UNL     1     -11.087  11.938   3.757  1.00  0.00     0.031 C 
ATOM     63  C   UNL     1     -11.410  11.783   1.305  1.00  0.00     0.031 A 
BRANCH  50  64
ATOM     64  C   UNL     1     -10.410   8.134  -3.579  1.00  0.00    -0.014 A 
ATOM     65  C   UNL     1     -11.287   7.194  -4.145  1.00  0.00     0.009 A 
ATOM     66  C   UNL     1      -9.617   8.920  -4.430  1.00  0.00     0.009 A 
ATOM     67  C   UNL     1     -11.335   7.014  -5.529  1.00  0.00     0.001 A 
ATOM     68  C   UNL     1      -9.690   8.759  -5.815  1.00  0.00     0.001 A 
ATOM     69  C   UNL     1     -10.540   7.799  -6.363  1.00  0.00     0.000 A 
ENDBRANCH  50  64
BRANCH  51  70
ATOM     70  C   UNL     1      -9.319   9.084   6.297  1.00  0.00    -0.014 A 
ATOM     71  C   UNL     1     -10.432   9.073   7.152  1.00  0.00     0.009 A 
ATOM     72  C   UNL     1      -8.040   9.254   6.850  1.00  0.00     0.009 A 
ATOM     73  C   UNL     1     -10.271   9.257   8.527  1.00  0.00     0.001 A 
ATOM     74  C   UNL     1      -7.880   9.409   8.229  1.00  0.00     0.001 A 
ATOM     75  C   UNL     1      -8.995   9.420   9.065  1.00  0.00     0.000 A 
ENDBRANCH  51  70
BRANCH  63  76
ATOM     76  C   UNL     1     -12.068  13.132   1.354  1.00  0.00    -0.014 A 
ATOM     77  C   UNL     1     -11.320  14.299   1.569  1.00  0.00     0.009 A 
ATOM     78  C   UNL     1     -13.452  13.237   1.143  1.00  0.00     0.009 A 
ATOM     79  C   UNL     1     -11.951  15.544   1.606  1.00  0.00     0.001 A 
ATOM     80  C   UNL     1     -14.075  14.485   1.152  1.00  0.00     0.001 A 
ATOM     81  C   UNL     1     -13.326  15.636   1.392  1.00  0.00     0.000 A 
ENDBRANCH  63  76
ENDBRANCH  37  38
ENDBRANCH  29  32
ENDBRANCH  27  28
ENDBRANCH  26  27
ENDBRANCH   1  26
TORSDOF 15
