REMARK SMILES COc1ccc(CCN2/C(=[NH+]/C(=O)CCC(=O)NCCCNC(=O)c3ccc(-c4c5nc(c(-c6ccccc6)c6ccc([nH]6)c(-c6ccccc6)c6nc(c(-c7ccccc7)c7ccc4[nH]7)C=C6)C=C5)cc3)S[C@@H]3CS(=O)(=O)C[C@@H]32)cc1
REMARK SMILES IDX 16 1 17 2 18 3 15 5 14 6 12 7 9 8 10 9 80 10 11 11 73 12
REMARK SMILES IDX 74 13 79 14 75 16 76 17 13 18 77 19 78 20 8 21 7 22 6 23
REMARK SMILES IDX 3 24 4 25 82 26 5 27 81 28 2 29 1 30 19 31 20 32 21 33 22 34
REMARK SMILES IDX 23 35 24 37 25 38 26 39 72 40 27 41 71 42 28 43 29 44 30 45
REMARK SMILES IDX 65 46 31 47 70 48 64 49 66 50 32 51 69 52 63 53 62 54 33 56
REMARK SMILES IDX 55 57 40 58 54 59 41 60 44 61 53 62 67 63 42 64 43 65 52 67
REMARK SMILES IDX 68 68 45 69 34 70 35 71 39 72 36 73 38 74 37 75 56 76 57 77
REMARK SMILES IDX 61 78 58 79 60 80 59 81 46 82 47 83 51 84 48 85 50 86 49 87
REMARK H PARENT 18 4 11 15 22 36 66 55 44 66
REMARK Flexibility Score: inf
ROOT
ATOM      1  C   UNL     1       1.164  -3.592  -0.241  1.00  0.00     0.220 C 
ATOM      2  O   UNL     1       1.913  -2.660   0.072  1.00  0.00    -0.275 OA
ATOM      3  N   UNL     1       1.697  -4.622  -0.961  1.00  0.00    -0.356 N 
ATOM      4  H   UNL     1       2.648  -4.504  -1.188  1.00  0.00     0.163 HD
ENDROOT
BRANCH   1   5
ATOM      5  C   UNL     1      -0.287  -3.570   0.197  1.00  0.00     0.112 C 
BRANCH   5   6
ATOM      6  C   UNL     1      -1.117  -2.599  -0.633  1.00  0.00     0.138 C 
BRANCH   6   7
ATOM      7  C   UNL     1      -2.045  -3.381  -1.520  1.00  0.00     0.308 C 
ATOM      8  N   UNL     1      -1.591  -4.941  -4.744  1.00  0.00    -0.251 N 
ATOM      9  C   UNL     1      -2.147  -4.272  -3.662  1.00  0.00     0.314 C 
ATOM     10  C   UNL     1      -2.498  -6.037  -5.232  1.00  0.00     0.206 C 
ATOM     11  N   UNL     1      -1.464  -3.773  -2.695  1.00  0.00    -0.205 N 
ATOM     12  S   UNL     1      -3.904  -4.452  -3.741  1.00  0.00    -0.030 SA
ATOM     13  C   UNL     1      -3.675  -6.161  -4.254  1.00  0.00     0.120 C 
ATOM     14  C   UNL     1      -1.895  -7.424  -5.311  1.00  0.00     0.187 C 
ATOM     15  H   UNL     1      -0.491  -3.670  -2.803  1.00  0.00     0.316 HD
ATOM     16  C   UNL     1      -3.245  -7.033  -3.074  1.00  0.00     0.156 C 
ATOM     17  S   UNL     1      -2.272  -8.306  -3.824  1.00  0.00     0.155 S 
ATOM     18  O   UNL     1      -3.126  -3.761  -1.075  1.00  0.00    -0.247 OA
ATOM     19  O   UNL     1      -1.045  -8.510  -3.079  1.00  0.00    -0.229 OA
ATOM     20  O   UNL     1      -3.137  -9.411  -4.172  1.00  0.00    -0.229 OA
BRANCH   8  21
ATOM     21  C   UNL     1      -0.890  -4.149  -5.793  1.00  0.00     0.242 C 
BRANCH  21  22
ATOM     22  C   UNL     1       0.497  -3.515  -5.513  1.00  0.00     0.081 C 
BRANCH  22  23
ATOM     23  C   UNL     1       0.654  -2.369  -4.539  1.00  0.00    -0.044 A 
ATOM     24  C   UNL     1       1.011  -0.250  -2.685  1.00  0.00     0.118 A 
ATOM     25  C   UNL     1      -0.109  -0.301  -3.521  1.00  0.00     0.046 A 
ATOM     26  C   UNL     1       1.987  -1.229  -2.825  1.00  0.00     0.046 A 
ATOM     27  C   UNL     1      -0.286  -1.342  -4.442  1.00  0.00     0.007 A 
ATOM     28  C   UNL     1       1.816  -2.269  -3.752  1.00  0.00     0.007 A 
BRANCH  24  29
ATOM     29  O   UNL     1       1.030   0.805  -1.819  1.00  0.00    -0.497 OA
ATOM     30  C   UNL     1       1.845   0.735  -0.653  1.00  0.00     0.278 C 
ENDBRANCH  24  29
ENDBRANCH  22  23
ENDBRANCH  21  22
ENDBRANCH   8  21
ENDBRANCH   6   7
ENDBRANCH   5   6
ENDBRANCH   1   5
BRANCH   3  31
ATOM     31  C   UNL     1       1.116  -5.866  -1.456  1.00  0.00     0.117 C 
BRANCH  31  32
ATOM     32  C   UNL     1       0.986  -5.911  -2.983  1.00  0.00     0.042 C 
BRANCH  32  33
ATOM     33  C   UNL     1       2.085  -6.611  -3.816  1.00  0.00     0.118 C 
BRANCH  33  34
ATOM     34  N   UNL     1       1.524  -7.191  -5.061  1.00  0.00    -0.352 N 
ATOM     35  C   UNL     1       2.054  -7.003  -6.328  1.00  0.00     0.251 C 
ATOM     36  H   UNL     1       0.717  -7.749  -4.981  1.00  0.00     0.163 HD
ATOM     37  O   UNL     1       3.242  -6.772  -6.519  1.00  0.00    -0.269 OA
BRANCH  35  38
ATOM     38  C   UNL     1       1.082  -6.821  -7.476  1.00  0.00     0.039 A 
ATOM     39  C   UNL     1       0.008  -7.648  -7.836  1.00  0.00     0.014 A 
ATOM     40  C   UNL     1       1.235  -5.622  -8.186  1.00  0.00     0.014 A 
ATOM     41  C   UNL     1      -0.950  -7.226  -8.809  1.00  0.00     0.010 A 
ATOM     42  C   UNL     1       0.281  -5.194  -9.127  1.00  0.00     0.010 A 
ATOM     43  C   UNL     1      -0.842  -5.978  -9.450  1.00  0.00    -0.014 A 
BRANCH  43  44
ATOM     44  C   UNL     1      -1.720  -5.509 -10.584  1.00  0.00     0.031 A 
ATOM     45  C   UNL     1      -1.118  -5.499 -11.971  1.00  0.00     0.074 A 
ATOM     46  C   UNL     1      -2.963  -4.993 -10.446  1.00  0.00     0.049 A 
ATOM     47  N   UNL     1      -1.544  -4.922 -13.068  1.00  0.00    -0.248 NA
ATOM     48  C   UNL     1       0.152  -6.224 -12.122  1.00  0.00     0.031 C 
ATOM     49  C   UNL     1      -3.747  -4.942  -9.218  1.00  0.00     0.029 A 
ATOM     50  N   UNL     1      -3.783  -4.376 -11.376  1.00  0.00    -0.354 N 
ATOM     51  C   UNL     1      -0.571  -5.177 -14.026  1.00  0.00     0.074 A 
ATOM     52  C   UNL     1       0.471  -5.942 -13.374  1.00  0.00     0.031 C 
ATOM     53  C   UNL     1      -4.921  -4.327  -9.461  1.00  0.00     0.029 A 
ATOM     54  C   UNL     1      -4.965  -3.890 -10.858  1.00  0.00     0.049 A 
ATOM     55  H   UNL     1      -3.542  -4.291 -12.327  1.00  0.00     0.167 HD
ATOM     56  C   UNL     1      -0.530  -4.820 -15.332  1.00  0.00     0.031 A 
ATOM     57  C   UNL     1      -5.955  -3.158 -11.421  1.00  0.00     0.031 A 
ATOM     58  C   UNL     1      -1.546  -4.077 -16.024  1.00  0.00     0.049 A 
ATOM     59  C   UNL     1      -5.858  -2.702 -12.862  1.00  0.00     0.074 A 
ATOM     60  C   UNL     1      -1.577  -3.701 -17.357  1.00  0.00     0.029 A 
ATOM     61  N   UNL     1      -2.708  -3.598 -15.447  1.00  0.00    -0.354 N 
ATOM     62  N   UNL     1      -4.934  -2.962 -13.753  1.00  0.00    -0.248 NA
ATOM     63  C   UNL     1      -6.941  -1.836 -13.368  1.00  0.00     0.031 C 
ATOM     64  C   UNL     1      -2.738  -2.953 -17.576  1.00  0.00     0.029 A 
ATOM     65  C   UNL     1      -3.451  -2.909 -16.391  1.00  0.00     0.049 A 
ATOM     66  H   UNL     1      -2.967  -3.728 -14.506  1.00  0.00     0.167 HD
ATOM     67  C   UNL     1      -5.338  -2.318 -14.921  1.00  0.00     0.074 A 
ATOM     68  C   UNL     1      -6.595  -1.667 -14.637  1.00  0.00     0.031 C 
ATOM     69  C   UNL     1      -4.712  -2.272 -16.122  1.00  0.00     0.031 A 
BRANCH  56  70
ATOM     70  C   UNL     1       0.699  -5.211 -16.099  1.00  0.00    -0.014 A 
ATOM     71  C   UNL     1       0.935  -6.546 -16.462  1.00  0.00     0.009 A 
ATOM     72  C   UNL     1       1.631  -4.227 -16.462  1.00  0.00     0.009 A 
ATOM     73  C   UNL     1       2.108  -6.895 -17.132  1.00  0.00     0.001 A 
ATOM     74  C   UNL     1       2.788  -4.575 -17.160  1.00  0.00     0.001 A 
ATOM     75  C   UNL     1       3.031  -5.910 -17.482  1.00  0.00     0.000 A 
ENDBRANCH  56  70
BRANCH  57  76
ATOM     76  C   UNL     1      -7.152  -2.743 -10.628  1.00  0.00    -0.014 A 
ATOM     77  C   UNL     1      -8.424  -3.257 -10.936  1.00  0.00     0.009 A 
ATOM     78  C   UNL     1      -7.050  -1.755  -9.636  1.00  0.00     0.009 A 
ATOM     79  C   UNL     1      -9.566  -2.770 -10.292  1.00  0.00     0.001 A 
ATOM     80  C   UNL     1      -8.190  -1.291  -8.973  1.00  0.00     0.001 A 
ATOM     81  C   UNL     1      -9.448  -1.790  -9.309  1.00  0.00     0.000 A 
ENDBRANCH  57  76
BRANCH  69  82
ATOM     82  C   UNL     1      -5.377  -1.529 -17.250  1.00  0.00    -0.014 A 
ATOM     83  C   UNL     1      -5.389  -0.127 -17.292  1.00  0.00     0.009 A 
ATOM     84  C   UNL     1      -5.919  -2.244 -18.331  1.00  0.00     0.009 A 
ATOM     85  C   UNL     1      -5.941   0.544 -18.388  1.00  0.00     0.001 A 
ATOM     86  C   UNL     1      -6.449  -1.572 -19.435  1.00  0.00     0.001 A 
ATOM     87  C   UNL     1      -6.463  -0.178 -19.461  1.00  0.00     0.000 A 
ENDBRANCH  69  82
ENDBRANCH  43  44
ENDBRANCH  35  38
ENDBRANCH  33  34
ENDBRANCH  32  33
ENDBRANCH  31  32
ENDBRANCH   3  31
TORSDOF 16
