REMARK SMILES Cc1ccc(C(=O)N2C[C@@H](C(=O)NCCCNC(=O)c3ccc(-c4c5nc(c(-c6ccccc6)c6ccc([nH]6)c(-c6ccccc6)c6nc(c(-c7ccccc7)c7ccc4[nH]7)C=C6)C=C5)cc3)C[C@H](C(=O)N3CCOCC3)C2)cc1F
REMARK SMILES IDX 15 1 14 2 13 3 11 4 12 5 10 7 8 8 9 9 78 10 69 11 68 12 6 13
REMARK SMILES IDX 7 14 5 15 1 16 2 17 3 18 80 19 4 20 79 21 81 22 70 23 71 24
REMARK SMILES IDX 72 25 73 26 77 27 74 28 76 29 75 30 16 31 17 32 18 33 19 35
REMARK SMILES IDX 20 36 21 37 67 38 22 39 66 40 23 41 24 42 25 43 60 44 26 45
REMARK SMILES IDX 65 46 59 47 61 48 27 49 64 50 58 51 57 52 28 54 50 55 35 56
REMARK SMILES IDX 49 57 36 58 39 59 48 60 62 61 37 62 38 63 47 65 63 66 40 67
REMARK SMILES IDX 29 68 30 69 34 70 31 71 33 72 32 73 51 74 52 75 56 76 53 77
REMARK SMILES IDX 55 78 54 79 41 80 42 81 46 82 43 83 45 84 44 85
REMARK H PARENT 13 6 17 34 61 53 39 64
REMARK Flexibility Score: inf
ROOT
ATOM      1  C   UNL     1      -8.972   1.488   1.291  1.00  0.00     0.042 C 
ENDROOT
BRANCH   1   2
ATOM      2  C   UNL     1      -7.755   0.789   1.865  1.00  0.00     0.117 C 
BRANCH   2   3
ATOM      3  N   UNL     1      -8.088  -0.545   2.330  1.00  0.00    -0.356 N 
ATOM      4  C   UNL     1      -7.685  -1.760   1.893  1.00  0.00     0.224 C 
ATOM      5  O   UNL     1      -8.258  -2.754   2.343  1.00  0.00    -0.275 OA
ATOM      6  H   UNL     1      -8.711  -0.569   3.092  1.00  0.00     0.163 HD
BRANCH   4   7
ATOM      7  C   UNL     1      -6.569  -1.906   0.885  1.00  0.00     0.099 C 
ATOM      8  N   UNL     1      -4.248  -1.161   0.366  1.00  0.00    -0.337 N 
ATOM      9  C   UNL     1      -5.287  -1.257   1.376  1.00  0.00     0.133 C 
ATOM     10  C   UNL     1      -4.634  -0.691  -0.964  1.00  0.00     0.133 C 
ATOM     11  C   UNL     1      -5.844  -1.448  -1.541  1.00  0.00     0.099 C 
ATOM     12  C   UNL     1      -6.996  -1.571  -0.545  1.00  0.00     0.030 C 
BRANCH   8  13
ATOM     13  C   UNL     1      -2.945  -1.329   0.821  1.00  0.00     0.254 C 
ATOM     14  O   UNL     1      -2.673  -2.036   1.790  1.00  0.00    -0.269 OA
BRANCH  13  15
ATOM     15  C   UNL     1      -1.833  -0.548   0.239  1.00  0.00     0.042 A 
ATOM     16  C   UNL     1       1.719   1.814  -0.244  1.00  0.00     0.047 C 
ATOM     17  C   UNL     1       0.461   1.002  -0.176  1.00  0.00    -0.015 A 
ATOM     18  C   UNL     1      -0.797   1.613  -0.118  1.00  0.00     0.007 A 
ATOM     19  C   UNL     1       0.543  -0.390  -0.081  1.00  0.00     0.126 A 
ATOM     20  C   UNL     1      -1.944   0.841   0.095  1.00  0.00     0.014 A 
ATOM     21  C   UNL     1      -0.587  -1.168   0.130  1.00  0.00     0.053 A 
ATOM     22  F   UNL     1       1.741  -0.991  -0.124  1.00  0.00    -0.207 F 
ENDBRANCH  13  15
ENDBRANCH   8  13
BRANCH  11  23
ATOM     23  C   UNL     1      -5.350  -2.682  -2.315  1.00  0.00     0.227 C 
ATOM     24  O   UNL     1      -5.134  -2.561  -3.527  1.00  0.00    -0.275 OA
ATOM     25  N   UNL     1      -4.889  -3.781  -1.634  1.00  0.00    -0.338 N 
ATOM     26  C   UNL     1      -5.673  -4.662  -0.769  1.00  0.00     0.148 C 
ATOM     27  C   UNL     1      -3.634  -4.401  -2.053  1.00  0.00     0.148 C 
ATOM     28  C   UNL     1      -4.832  -5.058   0.453  1.00  0.00     0.181 C 
ATOM     29  C   UNL     1      -2.841  -4.826  -0.810  1.00  0.00     0.181 C 
ATOM     30  O   UNL     1      -3.616  -5.702   0.028  1.00  0.00    -0.378 OA
ENDBRANCH  11  23
ENDBRANCH   4   7
ENDBRANCH   2   3
ENDBRANCH   1   2
BRANCH   1  31
ATOM     31  C   UNL     1     -10.123   1.579   2.279  1.00  0.00     0.118 C 
BRANCH  31  32
ATOM     32  N   UNL     1      -9.746   2.281   3.501  1.00  0.00    -0.352 N 
ATOM     33  C   UNL     1     -10.129   3.521   3.944  1.00  0.00     0.251 C 
ATOM     34  H   UNL     1      -9.128   1.795   4.092  1.00  0.00     0.163 HD
ATOM     35  O   UNL     1      -9.522   4.067   4.862  1.00  0.00    -0.269 OA
BRANCH  33  36
ATOM     36  C   UNL     1     -11.262   4.200   3.291  1.00  0.00     0.039 A 
ATOM     37  C   UNL     1     -11.160   5.555   2.975  1.00  0.00     0.014 A 
ATOM     38  C   UNL     1     -12.410   3.478   2.957  1.00  0.00     0.014 A 
ATOM     39  C   UNL     1     -12.181   6.165   2.248  1.00  0.00     0.010 A 
ATOM     40  C   UNL     1     -13.368   4.054   2.138  1.00  0.00     0.010 A 
ATOM     41  C   UNL     1     -13.268   5.406   1.783  1.00  0.00    -0.014 A 
BRANCH  41  42
ATOM     42  C   UNL     1     -14.320   6.001   0.925  1.00  0.00     0.031 A 
ATOM     43  C   UNL     1     -15.747   6.022   1.397  1.00  0.00     0.074 A 
ATOM     44  C   UNL     1     -14.001   6.445  -0.305  1.00  0.00     0.049 A 
ATOM     45  N   UNL     1     -16.818   6.429   0.764  1.00  0.00    -0.248 NA
ATOM     46  C   UNL     1     -16.012   5.486   2.742  1.00  0.00     0.031 C 
ATOM     47  C   UNL     1     -12.659   6.431  -0.894  1.00  0.00     0.029 A 
ATOM     48  N   UNL     1     -14.787   6.991  -1.288  1.00  0.00    -0.354 N 
ATOM     49  C   UNL     1     -17.879   6.180   1.625  1.00  0.00     0.074 A 
ATOM     50  C   UNL     1     -17.334   5.532   2.796  1.00  0.00     0.031 C 
ATOM     51  C   UNL     1     -12.711   6.976  -2.120  1.00  0.00     0.029 A 
ATOM     52  C   UNL     1     -14.092   7.332  -2.423  1.00  0.00     0.049 A 
ATOM     53  H   UNL     1     -15.757   7.125  -1.189  1.00  0.00     0.167 HD
ATOM     54  C   UNL     1     -19.188   6.485   1.465  1.00  0.00     0.031 A 
ATOM     55  C   UNL     1     -14.522   7.863  -3.582  1.00  0.00     0.031 A 
ATOM     56  C   UNL     1     -19.723   7.138   0.302  1.00  0.00     0.049 A 
ATOM     57  C   UNL     1     -15.984   8.174  -3.744  1.00  0.00     0.074 A 
ATOM     58  C   UNL     1     -21.023   7.550   0.067  1.00  0.00     0.029 A 
ATOM     59  N   UNL     1     -18.986   7.470  -0.825  1.00  0.00    -0.354 N 
ATOM     60  N   UNL     1     -16.963   8.005  -2.889  1.00  0.00    -0.248 NA
ATOM     61  C   UNL     1     -16.397   8.755  -5.028  1.00  0.00     0.031 C 
ATOM     62  C   UNL     1     -21.085   8.074  -1.228  1.00  0.00     0.029 A 
ATOM     63  C   UNL     1     -19.811   8.050  -1.773  1.00  0.00     0.049 A 
ATOM     64  H   UNL     1     -18.020   7.315  -0.934  1.00  0.00     0.167 HD
ATOM     65  C   UNL     1     -18.104   8.482  -3.521  1.00  0.00     0.074 A 
ATOM     66  C   UNL     1     -17.690   8.964  -4.823  1.00  0.00     0.031 C 
ATOM     67  C   UNL     1     -19.380   8.517  -3.066  1.00  0.00     0.031 A 
BRANCH  54  68
ATOM     68  C   UNL     1     -20.128   6.102   2.575  1.00  0.00    -0.014 A 
ATOM     69  C   UNL     1     -20.076   6.736   3.828  1.00  0.00     0.009 A 
ATOM     70  C   UNL     1     -21.098   5.111   2.357  1.00  0.00     0.009 A 
ATOM     71  C   UNL     1     -20.947   6.355   4.851  1.00  0.00     0.001 A 
ATOM     72  C   UNL     1     -21.989   4.756   3.371  1.00  0.00     0.001 A 
ATOM     73  C   UNL     1     -21.906   5.370   4.620  1.00  0.00     0.000 A 
ENDBRANCH  54  68
BRANCH  55  74
ATOM     74  C   UNL     1     -13.556   8.145  -4.676  1.00  0.00    -0.014 A 
ATOM     75  C   UNL     1     -13.239   9.466  -5.024  1.00  0.00     0.009 A 
ATOM     76  C   UNL     1     -12.942   7.094  -5.376  1.00  0.00     0.009 A 
ATOM     77  C   UNL     1     -12.348   9.730  -6.067  1.00  0.00     0.001 A 
ATOM     78  C   UNL     1     -12.028   7.361  -6.398  1.00  0.00     0.001 A 
ATOM     79  C   UNL     1     -11.739   8.678  -6.749  1.00  0.00     0.000 A 
ENDBRANCH  55  74
BRANCH  67  80
ATOM     80  C   UNL     1     -20.416   9.120  -3.971  1.00  0.00    -0.014 A 
ATOM     81  C   UNL     1     -20.849   8.455  -5.129  1.00  0.00     0.009 A 
ATOM     82  C   UNL     1     -21.002  10.351  -3.633  1.00  0.00     0.009 A 
ATOM     83  C   UNL     1     -21.826   9.027  -5.947  1.00  0.00     0.001 A 
ATOM     84  C   UNL     1     -22.001  10.903  -4.435  1.00  0.00     0.001 A 
ATOM     85  C   UNL     1     -22.405  10.246  -5.596  1.00  0.00     0.000 A 
ENDBRANCH  67  80
ENDBRANCH  41  42
ENDBRANCH  33  36
ENDBRANCH  31  32
ENDBRANCH   1  31
TORSDOF 13
