REMARK SMILES O=C(NCCCNC(=O)[C@@H]1CCCN1S(=O)(=O)c1ccc2[nH]c(=O)c(=O)[nH]c2c1)c1ccc(-c2c3nc(c(-c4ccccc4)c4ccc([nH]4)c(-c4ccccc4)c4nc(c(-c5ccccc5)c5ccc2[nH]5)C=C4)C=C3)cc1
REMARK SMILES IDX 5 1 4 2 3 3 1 4 2 5 30 7 31 8 77 9 32 10 76 11 33 12 34 13
REMARK SMILES IDX 35 14 70 15 36 16 75 17 69 18 71 19 37 20 74 21 68 22 67 23
REMARK SMILES IDX 38 25 60 26 45 27 59 28 46 29 49 30 58 31 72 32 47 33 48 34
REMARK SMILES IDX 57 36 73 37 50 38 39 39 40 40 44 41 41 42 43 43 42 44 61 45
REMARK SMILES IDX 62 46 66 47 63 48 65 49 64 50 51 51 52 52 56 53 53 54 55 55
REMARK SMILES IDX 54 56 6 57 7 58 8 59 9 61 10 62 11 63 14 64 12 65 13 66
REMARK SMILES IDX 15 67 16 68 17 69 18 70 19 71 29 72 20 73 28 74 21 75 27 76
REMARK SMILES IDX 22 77 25 78 23 80 26 82 24 83
REMARK H PARENT 3 6 71 24 49 35 7 60 27 79 22 81
REMARK Flexibility Score: inf
ROOT
ATOM      1  C   UNL     1       4.664   2.868   0.310  1.00  0.00     0.042 C 
ENDROOT
BRANCH   1   2
ATOM      2  C   UNL     1       4.423   1.374   0.495  1.00  0.00     0.118 C 
BRANCH   2   3
ATOM      3  N   UNL     1       3.010   1.054   0.603  1.00  0.00    -0.352 N 
ATOM      4  O   UNL     1       1.093   0.021   0.016  1.00  0.00    -0.269 OA
ATOM      5  C   UNL     1       2.317   0.055  -0.035  1.00  0.00     0.251 C 
ATOM      6  H   UNL     1       2.484   1.624   1.209  1.00  0.00     0.163 HD
BRANCH   5   7
ATOM      7  C   UNL     1       3.058  -0.970  -0.799  1.00  0.00     0.039 A 
ATOM      8  C   UNL     1       4.168  -1.609  -0.239  1.00  0.00     0.014 A 
ATOM      9  C   UNL     1       2.618  -1.312  -2.080  1.00  0.00     0.014 A 
ATOM     10  C   UNL     1       4.888  -2.532  -0.991  1.00  0.00     0.010 A 
ATOM     11  C   UNL     1       3.303  -2.285  -2.811  1.00  0.00     0.010 A 
ATOM     12  C   UNL     1       4.445  -2.898  -2.272  1.00  0.00    -0.014 A 
BRANCH  12  13
ATOM     13  C   UNL     1       5.109  -4.019  -2.979  1.00  0.00     0.031 A 
ATOM     14  C   UNL     1       5.892  -3.799  -4.240  1.00  0.00     0.074 A 
ATOM     15  C   UNL     1       4.978  -5.258  -2.465  1.00  0.00     0.049 A 
ATOM     16  N   UNL     1       6.514  -4.681  -4.980  1.00  0.00    -0.248 NA
ATOM     17  C   UNL     1       5.986  -2.419  -4.741  1.00  0.00     0.031 C 
ATOM     18  C   UNL     1       4.221  -5.592  -1.254  1.00  0.00     0.029 A 
ATOM     19  N   UNL     1       5.472  -6.463  -2.890  1.00  0.00    -0.354 N 
ATOM     20  C   UNL     1       7.058  -3.971  -6.043  1.00  0.00     0.074 A 
ATOM     21  C   UNL     1       6.684  -2.585  -5.859  1.00  0.00     0.031 C 
ATOM     22  C   UNL     1       4.323  -6.908  -1.021  1.00  0.00     0.029 A 
ATOM     23  C   UNL     1       5.099  -7.518  -2.093  1.00  0.00     0.049 A 
ATOM     24  H   UNL     1       6.040  -6.563  -3.688  1.00  0.00     0.167 HD
ATOM     25  C   UNL     1       7.799  -4.439  -7.074  1.00  0.00     0.031 A 
ATOM     26  C   UNL     1       5.328  -8.836  -2.225  1.00  0.00     0.031 A 
ATOM     27  C   UNL     1       8.174  -5.819  -7.247  1.00  0.00     0.049 A 
ATOM     28  C   UNL     1       6.121  -9.323  -3.400  1.00  0.00     0.074 A 
ATOM     29  C   UNL     1       8.985  -6.375  -8.222  1.00  0.00     0.029 A 
ATOM     30  N   UNL     1       7.751  -6.861  -6.437  1.00  0.00    -0.354 N 
ATOM     31  N   UNL     1       6.688  -8.628  -4.355  1.00  0.00    -0.248 NA
ATOM     32  C   UNL     1       6.298 -10.777  -3.520  1.00  0.00     0.031 C 
ATOM     33  C   UNL     1       9.007  -7.761  -8.035  1.00  0.00     0.029 A 
ATOM     34  C   UNL     1       8.248  -8.061  -6.916  1.00  0.00     0.049 A 
ATOM     35  H   UNL     1       7.182  -6.762  -5.640  1.00  0.00     0.167 HD
ATOM     36  C   UNL     1       7.292  -9.558  -5.189  1.00  0.00     0.074 A 
ATOM     37  C   UNL     1       7.048 -10.864  -4.610  1.00  0.00     0.031 C 
ATOM     38  C   UNL     1       7.980  -9.350  -6.336  1.00  0.00     0.031 A 
BRANCH  25  39
ATOM     39  C   UNL     1       8.245  -3.462  -8.124  1.00  0.00    -0.014 A 
ATOM     40  C   UNL     1       9.308  -2.577  -7.891  1.00  0.00     0.009 A 
ATOM     41  C   UNL     1       7.655  -3.497  -9.398  1.00  0.00     0.009 A 
ATOM     42  C   UNL     1       9.762  -1.737  -8.910  1.00  0.00     0.001 A 
ATOM     43  C   UNL     1       8.123  -2.670 -10.420  1.00  0.00     0.001 A 
ATOM     44  C   UNL     1       9.175  -1.788 -10.175  1.00  0.00     0.000 A 
ENDBRANCH  25  39
BRANCH  26  45
ATOM     45  C   UNL     1       4.756  -9.789  -1.241  1.00  0.00    -0.014 A 
ATOM     46  C   UNL     1       5.585 -10.483  -0.348  1.00  0.00     0.009 A 
ATOM     47  C   UNL     1       3.370 -10.009  -1.194  1.00  0.00     0.009 A 
ATOM     48  C   UNL     1       5.038 -11.395   0.557  1.00  0.00     0.001 A 
ATOM     49  C   UNL     1       2.824 -10.899  -0.268  1.00  0.00     0.001 A 
ATOM     50  C   UNL     1       3.659 -11.598   0.600  1.00  0.00     0.000 A 
ENDBRANCH  26  45
BRANCH  38  51
ATOM     51  C   UNL     1       8.512 -10.566  -7.035  1.00  0.00    -0.014 A 
ATOM     52  C   UNL     1       7.654 -11.418  -7.748  1.00  0.00     0.009 A 
ATOM     53  C   UNL     1       9.885 -10.851  -7.001  1.00  0.00     0.009 A 
ATOM     54  C   UNL     1       8.158 -12.550  -8.389  1.00  0.00     0.001 A 
ATOM     55  C   UNL     1      10.390 -11.969  -7.664  1.00  0.00     0.001 A 
ATOM     56  C   UNL     1       9.525 -12.822  -8.350  1.00  0.00     0.000 A 
ENDBRANCH  38  51
ENDBRANCH  12  13
ENDBRANCH   5   7
ENDBRANCH   2   3
ENDBRANCH   1   2
BRANCH   1  57
ATOM     57  C   UNL     1       4.446   3.668   1.591  1.00  0.00     0.117 C 
BRANCH  57  58
ATOM     58  N   UNL     1       5.492   3.370   2.556  1.00  0.00    -0.355 N 
ATOM     59  C   UNL     1       6.462   4.187   3.066  1.00  0.00     0.238 C 
ATOM     60  H   UNL     1       5.503   2.444   2.891  1.00  0.00     0.163 HD
ATOM     61  O   UNL     1       7.345   3.672   3.752  1.00  0.00    -0.273 OA
BRANCH  59  62
ATOM     62  C   UNL     1       6.394   5.664   2.769  1.00  0.00     0.162 C 
ATOM     63  C   UNL     1       7.701   6.401   3.029  1.00  0.00     0.032 C 
ATOM     64  N   UNL     1       5.355   6.510   3.449  1.00  0.00    -0.185 NA
ATOM     65  C   UNL     1       7.300   7.841   2.784  1.00  0.00     0.019 C 
ATOM     66  C   UNL     1       5.833   7.927   3.211  1.00  0.00     0.103 C 
BRANCH  64  67
ATOM     67  S   UNL     1       5.001   6.257   5.118  1.00  0.00     0.243 S 
ATOM     68  O   UNL     1       6.251   6.070   5.824  1.00  0.00    -0.207 OA
ATOM     69  O   UNL     1       4.101   7.321   5.511  1.00  0.00    -0.207 OA
BRANCH  67  70
ATOM     70  C   UNL     1       4.054   4.753   5.267  1.00  0.00     0.084 A 
ATOM     71  C   UNL     1       4.698   3.546   5.559  1.00  0.00     0.024 A 
ATOM     72  C   UNL     1       2.654   4.825   5.321  1.00  0.00     0.050 A 
ATOM     73  C   UNL     1       3.959   2.376   5.747  1.00  0.00     0.030 A 
ATOM     74  C   UNL     1       1.920   3.671   5.601  1.00  0.00     0.066 A 
ATOM     75  C   UNL     1       2.569   2.442   5.768  1.00  0.00     0.065 A 
ATOM     76  N   UNL     1       0.533   3.746   5.766  1.00  0.00    -0.316 N 
ATOM     77  N   UNL     1       1.826   1.282   5.992  1.00  0.00    -0.316 N 
ATOM     78  C   UNL     1      -0.252   2.654   6.075  1.00  0.00     0.314 A 
ATOM     79  H   UNL     1       0.096   4.621   5.657  1.00  0.00     0.170 HD
ATOM     80  C   UNL     1       0.455   1.277   6.126  1.00  0.00     0.314 A 
ATOM     81  H   UNL     1       2.305   0.425   6.056  1.00  0.00     0.170 HD
ATOM     82  O   UNL     1      -1.450   2.766   6.301  1.00  0.00    -0.263 OA
ATOM     83  O   UNL     1      -0.170   0.238   6.290  1.00  0.00    -0.263 OA
ENDBRANCH  67  70
ENDBRANCH  64  67
ENDBRANCH  59  62
ENDBRANCH  57  58
ENDBRANCH   1  57
TORSDOF 12
