REMARK SMILES O=Cc1ccc2c(c1)C=C(C(=O)NCCCNC(=O)c1ccc(-c3c4nc(c(-c5ccccc5)c5ccc([nH]5)c(-c5ccccc5)c5nc(c(-c6ccccc6)c6ccc3[nH]6)C=C5)C=C4)cc1)[C@H](C(F)(F)F)O2
REMARK SMILES IDX 15 1 14 2 13 3 11 4 12 5 10 7 3 8 4 9 8 10 5 11 7 12 6 13
REMARK SMILES IDX 9 14 73 15 68 16 2 17 1 18 69 19 70 20 71 21 72 22 16 23
REMARK SMILES IDX 17 24 18 25 19 27 20 28 21 29 67 30 22 31 66 32 23 33 24 34
REMARK SMILES IDX 25 35 60 36 26 37 65 38 59 39 61 40 27 41 64 42 58 43 57 44
REMARK SMILES IDX 28 46 50 47 35 48 49 49 36 50 39 51 48 52 62 53 37 54 38 55
REMARK SMILES IDX 47 57 63 58 40 59 29 60 30 61 34 62 31 63 33 64 32 65 51 66
REMARK SMILES IDX 52 67 56 68 53 69 55 70 54 71 41 72 42 73 46 74 43 75 45 76
REMARK SMILES IDX 44 77
REMARK H PARENT 13 6 17 26 61 45 39 56
REMARK Flexibility Score: inf
ROOT
ATOM      1  C   UNL     1       8.018   2.965   2.341  1.00  0.00     0.042 C 
ENDROOT
BRANCH   1   2
ATOM      2  C   UNL     1       8.537   1.537   2.544  1.00  0.00     0.118 C 
BRANCH   2   3
ATOM      3  N   UNL     1       8.535   1.182   3.955  1.00  0.00    -0.352 N 
ATOM      4  C   UNL     1       7.646   0.523   4.743  1.00  0.00     0.251 C 
ATOM      5  O   UNL     1       7.870   0.469   5.949  1.00  0.00    -0.270 OA
ATOM      6  H   UNL     1       9.341   1.479   4.436  1.00  0.00     0.163 HD
BRANCH   4   7
ATOM      7  C   UNL     1       6.456  -0.185   4.203  1.00  0.00     0.067 C 
ATOM      8  C   UNL     1       2.696  -0.698   1.218  1.00  0.00     0.015 A 
ATOM      9  C   UNL     1       2.410  -1.944   1.778  1.00  0.00     0.015 A 
ATOM     10  C   UNL     1       3.763   0.066   1.699  1.00  0.00     0.023 A 
ATOM     11  C   UNL     1       3.205  -2.434   2.815  1.00  0.00     0.048 A 
ATOM     12  C   UNL     1       4.556  -0.428   2.742  1.00  0.00     0.018 A 
ATOM     13  C   UNL     1       4.276  -1.677   3.294  1.00  0.00     0.128 A 
ATOM     14  C   UNL     1       5.707   0.323   3.214  1.00  0.00     0.025 C 
ATOM     15  O   UNL     1       5.035  -2.253   4.266  1.00  0.00    -0.475 OA
ATOM     16  C   UNL     1       6.032  -1.443   4.957  1.00  0.00     0.314 C 
BRANCH   8  17
ATOM     17  C   UNL     1       1.887  -0.181   0.096  1.00  0.00     0.260 C 
ATOM     18  O   UNL     1       0.920  -0.789  -0.343  1.00  0.00    -0.298 OA
ENDBRANCH   8  17
BRANCH  16  19
ATOM     19  C   UNL     1       7.181  -2.390   5.371  1.00  0.00     0.429 C 
ATOM     20  F   UNL     1       7.779  -2.018   6.524  1.00  0.00    -0.167 F 
ATOM     21  F   UNL     1       6.722  -3.652   5.587  1.00  0.00    -0.167 F 
ATOM     22  F   UNL     1       8.136  -2.481   4.416  1.00  0.00    -0.167 F 
ENDBRANCH  16  19
ENDBRANCH   4   7
ENDBRANCH   2   3
ENDBRANCH   1   2
BRANCH   1  23
ATOM     23  C   UNL     1       9.010   4.047   2.766  1.00  0.00     0.118 C 
BRANCH  23  24
ATOM     24  N   UNL     1      10.122   4.159   1.839  1.00  0.00    -0.352 N 
ATOM     25  C   UNL     1      10.602   5.249   1.156  1.00  0.00     0.251 C 
ATOM     26  H   UNL     1      10.609   3.319   1.673  1.00  0.00     0.163 HD
ATOM     27  O   UNL     1      11.420   5.075   0.256  1.00  0.00    -0.269 OA
BRANCH  25  28
ATOM     28  C   UNL     1      10.149   6.623   1.473  1.00  0.00     0.039 A 
ATOM     29  C   UNL     1       9.972   7.522   0.416  1.00  0.00     0.014 A 
ATOM     30  C   UNL     1       9.971   7.059   2.789  1.00  0.00     0.014 A 
ATOM     31  C   UNL     1       9.580   8.839   0.672  1.00  0.00     0.010 A 
ATOM     32  C   UNL     1       9.525   8.358   3.042  1.00  0.00     0.010 A 
ATOM     33  C   UNL     1       9.331   9.263   1.987  1.00  0.00    -0.014 A 
BRANCH  33  34
ATOM     34  C   UNL     1       8.861  10.644   2.261  1.00  0.00     0.031 A 
ATOM     35  C   UNL     1       9.734  11.625   2.994  1.00  0.00     0.074 A 
ATOM     36  C   UNL     1       7.621  11.008   1.879  1.00  0.00     0.049 A 
ATOM     37  N   UNL     1       9.482  12.867   3.325  1.00  0.00    -0.248 NA
ATOM     38  C   UNL     1      11.055  11.144   3.428  1.00  0.00     0.031 C 
ATOM     39  C   UNL     1       6.659  10.142   1.194  1.00  0.00     0.029 A 
ATOM     40  N   UNL     1       6.958  12.202   2.014  1.00  0.00    -0.354 N 
ATOM     41  C   UNL     1      10.602  13.310   4.017  1.00  0.00     0.074 A 
ATOM     42  C   UNL     1      11.519  12.193   4.092  1.00  0.00     0.031 C 
ATOM     43  C   UNL     1       5.540  10.841   0.946  1.00  0.00     0.029 A 
ATOM     44  C   UNL     1       5.693  12.191   1.479  1.00  0.00     0.049 A 
ATOM     45  H   UNL     1       7.351  12.990   2.453  1.00  0.00     0.167 HD
ATOM     46  C   UNL     1      10.852  14.538   4.531  1.00  0.00     0.031 A 
ATOM     47  C   UNL     1       4.760  13.159   1.420  1.00  0.00     0.031 A 
ATOM     48  C   UNL     1       9.948  15.655   4.449  1.00  0.00     0.049 A 
ATOM     49  C   UNL     1       5.062  14.513   1.994  1.00  0.00     0.074 A 
ATOM     50  C   UNL     1      10.140  16.954   4.888  1.00  0.00     0.029 A 
ATOM     51  N   UNL     1       8.679  15.603   3.895  1.00  0.00    -0.354 N 
ATOM     52  N   UNL     1       6.154  14.933   2.584  1.00  0.00    -0.248 NA
ATOM     53  C   UNL     1       4.006  15.529   1.882  1.00  0.00     0.031 C 
ATOM     54  C   UNL     1       8.969  17.679   4.636  1.00  0.00     0.029 A 
ATOM     55  C   UNL     1       8.067  16.842   3.999  1.00  0.00     0.049 A 
ATOM     56  H   UNL     1       8.273  14.805   3.487  1.00  0.00     0.167 HD
ATOM     57  C   UNL     1       5.925  16.267   2.896  1.00  0.00     0.074 A 
ATOM     58  C   UNL     1       4.598  16.590   2.414  1.00  0.00     0.031 C 
ATOM     59  C   UNL     1       6.743  17.146   3.524  1.00  0.00     0.031 A 
BRANCH  46  60
ATOM     60  C   UNL     1      12.163  14.736   5.240  1.00  0.00    -0.014 A 
ATOM     61  C   UNL     1      13.372  14.796   4.528  1.00  0.00     0.009 A 
ATOM     62  C   UNL     1      12.186  14.903   6.633  1.00  0.00     0.009 A 
ATOM     63  C   UNL     1      14.581  14.983   5.202  1.00  0.00     0.001 A 
ATOM     64  C   UNL     1      13.394  15.115   7.302  1.00  0.00     0.001 A 
ATOM     65  C   UNL     1      14.590  15.145   6.587  1.00  0.00     0.000 A 
ENDBRANCH  46  60
BRANCH  47  66
ATOM     66  C   UNL     1       3.454  12.886   0.769  1.00  0.00    -0.014 A 
ATOM     67  C   UNL     1       3.159  13.436  -0.488  1.00  0.00     0.009 A 
ATOM     68  C   UNL     1       2.500  12.071   1.396  1.00  0.00     0.009 A 
ATOM     69  C   UNL     1       1.926  13.190  -1.095  1.00  0.00     0.001 A 
ATOM     70  C   UNL     1       1.277  11.806   0.775  1.00  0.00     0.001 A 
ATOM     71  C   UNL     1       0.989  12.372  -0.466  1.00  0.00     0.000 A 
ENDBRANCH  47  66
BRANCH  59  72
ATOM     72  C   UNL     1       6.231  18.545   3.706  1.00  0.00    -0.014 A 
ATOM     73  C   UNL     1       5.245  18.838   4.661  1.00  0.00     0.009 A 
ATOM     74  C   UNL     1       6.761  19.588   2.930  1.00  0.00     0.009 A 
ATOM     75  C   UNL     1       4.778  20.145   4.814  1.00  0.00     0.001 A 
ATOM     76  C   UNL     1       6.309  20.897   3.102  1.00  0.00     0.001 A 
ATOM     77  C   UNL     1       5.313  21.173   4.038  1.00  0.00     0.000 A 
ENDBRANCH  59  72
ENDBRANCH  33  34
ENDBRANCH  25  28
ENDBRANCH  23  24
ENDBRANCH   1  23
TORSDOF 12
