REMARK SMILES O=C(NCCCNC(=O)[C@@H]([NH2+]C[C@@H]1CCCO1)c1cncn1C1CC1)c1ccc(-c2c3nc(c(-c4ccccc4)c4ccc([nH]4)c(-c4ccccc4)c4nc(c(-c5ccccc5)c5ccc2[nH]5)C=C4)C=C3)cc1
REMARK SMILES IDX 5 1 4 2 3 3 1 4 2 5 26 7 27 8 73 9 28 10 72 11 29 12 30 13
REMARK SMILES IDX 31 14 66 15 32 16 71 17 65 18 67 19 33 20 70 21 64 22 63 23
REMARK SMILES IDX 34 25 56 26 41 27 55 28 42 29 45 30 54 31 68 32 43 33 44 34
REMARK SMILES IDX 53 36 69 37 46 38 35 39 36 40 40 41 37 42 39 43 38 44 57 45
REMARK SMILES IDX 58 46 62 47 59 48 61 49 60 50 47 51 48 52 52 53 49 54 51 55
REMARK SMILES IDX 50 56 6 57 7 58 8 59 9 61 10 62 11 63 12 66 13 67 14 68
REMARK SMILES IDX 17 69 15 70 16 71 18 72 19 73 22 74 20 75 21 76 23 77 24 78
REMARK SMILES IDX 25 79
REMARK H PARENT 3 6 67 24 45 35 7 60 11 64 11 65
REMARK Flexibility Score: inf
ROOT
ATOM      1  C   UNL     1       5.178   1.938   0.686  1.00  0.00     0.042 C 
ENDROOT
BRANCH   1   2
ATOM      2  C   UNL     1       4.787   0.483   0.933  1.00  0.00     0.118 C 
BRANCH   2   3
ATOM      3  N   UNL     1       3.359   0.232   1.023  1.00  0.00    -0.352 N 
ATOM      4  O   UNL     1       1.266  -0.330   0.591  1.00  0.00    -0.269 OA
ATOM      5  C   UNL     1       2.351   0.038   0.122  1.00  0.00     0.251 C 
ATOM      6  H   UNL     1       3.043   0.191   1.954  1.00  0.00     0.163 HD
BRANCH   5   7
ATOM      7  C   UNL     1       2.435   0.294  -1.339  1.00  0.00     0.039 A 
ATOM      8  C   UNL     1       3.610   0.456  -2.074  1.00  0.00     0.014 A 
ATOM      9  C   UNL     1       1.202   0.385  -2.016  1.00  0.00     0.014 A 
ATOM     10  C   UNL     1       3.553   0.777  -3.430  1.00  0.00     0.010 A 
ATOM     11  C   UNL     1       1.139   0.691  -3.370  1.00  0.00     0.010 A 
ATOM     12  C   UNL     1       2.318   0.916  -4.072  1.00  0.00    -0.014 A 
BRANCH  12  13
ATOM     13  C   UNL     1       2.302   1.103  -5.522  1.00  0.00     0.031 A 
ATOM     14  C   UNL     1       2.841  -0.051  -6.301  1.00  0.00     0.074 A 
ATOM     15  C   UNL     1       1.696   2.135  -6.146  1.00  0.00     0.049 A 
ATOM     16  N   UNL     1       3.815  -0.061  -7.152  1.00  0.00    -0.248 NA
ATOM     17  C   UNL     1       2.269  -1.382  -6.031  1.00  0.00     0.031 C 
ATOM     18  C   UNL     1       0.862   3.181  -5.551  1.00  0.00     0.029 A 
ATOM     19  N   UNL     1       1.606   2.395  -7.483  1.00  0.00    -0.354 N 
ATOM     20  C   UNL     1       3.885  -1.363  -7.645  1.00  0.00     0.074 A 
ATOM     21  C   UNL     1       2.994  -2.157  -6.837  1.00  0.00     0.031 C 
ATOM     22  C   UNL     1       0.171   3.811  -6.530  1.00  0.00     0.029 A 
ATOM     23  C   UNL     1       0.612   3.306  -7.819  1.00  0.00     0.049 A 
ATOM     24  H   UNL     1       2.194   1.973  -8.151  1.00  0.00     0.167 HD
ATOM     25  C   UNL     1       4.515  -1.668  -8.812  1.00  0.00     0.031 A 
ATOM     26  C   UNL     1       0.142   3.580  -9.063  1.00  0.00     0.031 A 
ATOM     27  C   UNL     1       5.424  -0.635  -9.226  1.00  0.00     0.049 A 
ATOM     28  C   UNL     1       1.141   3.103 -10.043  1.00  0.00     0.074 A 
ATOM     29  C   UNL     1       6.556  -0.061  -8.684  1.00  0.00     0.029 A 
ATOM     30  N   UNL     1       5.005   0.222 -10.213  1.00  0.00    -0.354 N 
ATOM     31  N   UNL     1       2.311   3.649 -10.202  1.00  0.00    -0.248 NA
ATOM     32  C   UNL     1       1.004   1.752 -10.561  1.00  0.00     0.031 C 
ATOM     33  C   UNL     1       6.458   1.321  -9.019  1.00  0.00     0.029 A 
ATOM     34  C   UNL     1       5.311   1.491  -9.796  1.00  0.00     0.049 A 
ATOM     35  H   UNL     1       4.568  -0.027 -11.059  1.00  0.00     0.167 HD
ATOM     36  C   UNL     1       3.167   2.580 -10.420  1.00  0.00     0.074 A 
ATOM     37  C   UNL     1       2.293   1.452 -10.735  1.00  0.00     0.031 C 
ATOM     38  C   UNL     1       4.480   2.645 -10.050  1.00  0.00     0.031 A 
BRANCH  25  39
ATOM     39  C   UNL     1       4.018  -2.727  -9.764  1.00  0.00    -0.014 A 
ATOM     40  C   UNL     1       4.778  -3.034 -10.907  1.00  0.00     0.009 A 
ATOM     41  C   UNL     1       2.700  -3.222  -9.727  1.00  0.00     0.009 A 
ATOM     42  C   UNL     1       4.224  -3.745 -11.980  1.00  0.00     0.001 A 
ATOM     43  C   UNL     1       2.158  -3.967 -10.778  1.00  0.00     0.001 A 
ATOM     44  C   UNL     1       2.912  -4.205 -11.917  1.00  0.00     0.000 A 
ENDBRANCH  25  39
BRANCH  26  45
ATOM     45  C   UNL     1      -1.223   3.969  -9.482  1.00  0.00    -0.014 A 
ATOM     46  C   UNL     1      -1.459   4.532 -10.747  1.00  0.00     0.009 A 
ATOM     47  C   UNL     1      -2.337   3.523  -8.748  1.00  0.00     0.009 A 
ATOM     48  C   UNL     1      -2.757   4.609 -11.272  1.00  0.00     0.001 A 
ATOM     49  C   UNL     1      -3.632   3.602  -9.271  1.00  0.00     0.001 A 
ATOM     50  C   UNL     1      -3.841   4.131 -10.540  1.00  0.00     0.000 A 
ENDBRANCH  26  45
BRANCH  38  51
ATOM     51  C   UNL     1       5.027   3.982  -9.613  1.00  0.00    -0.014 A 
ATOM     52  C   UNL     1       4.514   4.703  -8.519  1.00  0.00     0.009 A 
ATOM     53  C   UNL     1       6.189   4.460 -10.235  1.00  0.00     0.009 A 
ATOM     54  C   UNL     1       5.127   5.883  -8.085  1.00  0.00     0.001 A 
ATOM     55  C   UNL     1       6.815   5.626  -9.788  1.00  0.00     0.001 A 
ATOM     56  C   UNL     1       6.280   6.341  -8.718  1.00  0.00     0.000 A 
ENDBRANCH  38  51
ENDBRANCH  12  13
ENDBRANCH   5   7
ENDBRANCH   2   3
ENDBRANCH   1   2
BRANCH   1  57
ATOM     57  C   UNL     1       4.688   2.909   1.752  1.00  0.00     0.118 C 
BRANCH  57  58
ATOM     58  N   UNL     1       5.250   2.676   3.084  1.00  0.00    -0.350 N 
ATOM     59  C   UNL     1       5.758   3.581   3.995  1.00  0.00     0.284 C 
ATOM     60  H   UNL     1       5.269   1.735   3.372  1.00  0.00     0.163 HD
ATOM     61  O   UNL     1       6.013   3.161   5.129  1.00  0.00    -0.268 OA
BRANCH  59  62
ATOM     62  C   UNL     1       6.050   5.095   3.596  1.00  0.00     0.322 C 
BRANCH  62  63
ATOM     63  N   UNL     1       6.938   4.981   2.410  1.00  0.00    -0.329 N 
ATOM     64  H   UNL     1       6.355   4.663   1.637  1.00  0.00     0.347 HD
ATOM     65  H   UNL     1       7.676   4.355   2.733  1.00  0.00     0.347 HD
BRANCH  63  66
ATOM     66  C   UNL     1       7.678   6.146   1.928  1.00  0.00     0.293 C 
BRANCH  66  67
ATOM     67  C   UNL     1       8.859   6.666   2.783  1.00  0.00     0.173 C 
ATOM     68  C   UNL     1       9.230   8.110   2.466  1.00  0.00     0.040 C 
ATOM     69  O   UNL     1      10.082   5.935   2.540  1.00  0.00    -0.372 OA
ATOM     70  C   UNL     1      10.612   8.204   3.050  1.00  0.00     0.031 C 
ATOM     71  C   UNL     1      11.188   6.856   2.674  1.00  0.00     0.161 C 
ENDBRANCH  66  67
ENDBRANCH  63  66
ENDBRANCH  62  63
BRANCH  62  72
ATOM     72  C   UNL     1       4.708   5.811   3.454  1.00  0.00     0.106 A 
ATOM     73  C   UNL     1       3.432   5.228   3.420  1.00  0.00     0.141 A 
ATOM     74  N   UNL     1       4.359   7.150   3.599  1.00  0.00    -0.326 N 
ATOM     75  N   UNL     1       2.419   6.124   3.265  1.00  0.00    -0.245 NA
ATOM     76  C   UNL     1       3.016   7.279   3.350  1.00  0.00     0.200 A 
BRANCH  74  77
ATOM     77  C   UNL     1       5.046   8.320   4.099  1.00  0.00     0.089 C 
ATOM     78  C   UNL     1       6.451   8.414   4.595  1.00  0.00     0.027 C 
ATOM     79  C   UNL     1       6.074   9.057   3.291  1.00  0.00     0.027 C 
ENDBRANCH  74  77
ENDBRANCH  62  72
ENDBRANCH  59  62
ENDBRANCH  57  58
ENDBRANCH   1  57
TORSDOF 15
