REMARK SMILES CC(=O)N[C@H](CC(=O)NCC(=O)NCCCNC(=O)c1ccc(-c2c3nc(c(-c4ccccc4)c4ccc([nH]4)c(-c4ccccc4)c4nc(c(-c5ccccc5)c5ccc2[nH]5)C=C4)C=C3)cc1)c1cccs1
REMARK SMILES IDX 14 1 13 2 11 3 12 4 10 6 9 7 7 8 8 9 6 11 5 12 4 13 1 14
REMARK SMILES IDX 2 15 3 16 68 18 69 19 72 20 70 21 71 22 15 23 16 24 17 25
REMARK SMILES IDX 18 26 19 28 20 29 21 30 67 31 22 32 66 33 23 34 24 35 25 36
REMARK SMILES IDX 60 37 26 38 65 39 59 40 61 41 27 42 64 43 58 44 57 45 28 47
REMARK SMILES IDX 50 48 35 49 49 50 36 51 39 52 48 53 62 54 37 55 38 56 47 58
REMARK SMILES IDX 63 59 40 60 29 61 30 62 34 63 31 64 33 65 32 66 51 67 52 68
REMARK SMILES IDX 56 69 53 70 55 71 54 72 41 73 42 74 46 75 43 76 45 77 44 78
REMARK H PARENT 13 5 9 10 4 17 17 27 61 46 39 57
REMARK Flexibility Score: inf
ROOT
ATOM      1  C   UNL     1       4.425   2.113  -0.860  1.00  0.00     0.117 C 
ENDROOT
BRANCH   1   2
ATOM      2  N   UNL     1       5.059   2.725  -2.013  1.00  0.00    -0.355 N 
ATOM      3  C   UNL     1       4.596   3.091  -3.238  1.00  0.00     0.239 C 
ATOM      4  O   UNL     1       5.370   3.741  -3.949  1.00  0.00    -0.273 OA
ATOM      5  H   UNL     1       6.017   2.913  -1.882  1.00  0.00     0.163 HD
BRANCH   3   6
ATOM      6  C   UNL     1       3.147   2.873  -3.714  1.00  0.00     0.216 C 
BRANCH   6   7
ATOM      7  N   UNL     1       2.392   1.780  -3.133  1.00  0.00    -0.347 N 
ATOM      8  C   UNL     1       1.348   1.788  -2.260  1.00  0.00     0.222 C 
ATOM      9  O   UNL     1       0.991   0.708  -1.784  1.00  0.00    -0.275 OA
ATOM     10  H   UNL     1       2.684   0.883  -3.417  1.00  0.00     0.164 HD
BRANCH   8  11
ATOM     11  C   UNL     1       0.662   3.076  -1.855  1.00  0.00     0.130 C 
BRANCH  11  12
ATOM     12  C   UNL     1       1.229   3.700  -0.564  1.00  0.00     0.131 C 
BRANCH  12  13
ATOM     13  N   UNL     1       2.401   4.547  -0.820  1.00  0.00    -0.348 N 
ATOM     14  C   UNL     1       2.893   5.349   1.482  1.00  0.00     0.114 C 
ATOM     15  C   UNL     1       3.227   5.220   0.025  1.00  0.00     0.217 C 
ATOM     16  O   UNL     1       4.245   5.729  -0.444  1.00  0.00    -0.275 OA
ATOM     17  H   UNL     1       2.629   4.645  -1.773  1.00  0.00     0.164 HD
ENDBRANCH  12  13
BRANCH  12  18
ATOM     18  C   UNL     1       0.188   4.542   0.137  1.00  0.00     0.027 A 
ATOM     19  C   UNL     1      -0.380   4.318   1.379  1.00  0.00     0.017 A 
ATOM     20  S   UNL     1      -0.386   6.008  -0.554  1.00  0.00    -0.147 S 
ATOM     21  C   UNL     1      -1.174   5.417   1.814  1.00  0.00     0.012 A 
ATOM     22  C   UNL     1      -1.237   6.415   0.869  1.00  0.00     0.065 A 
ENDBRANCH  12  18
ENDBRANCH  11  12
ENDBRANCH   8  11
ENDBRANCH   6   7
ENDBRANCH   3   6
ENDBRANCH   1   2
BRANCH   1  23
ATOM     23  C   UNL     1       5.128   0.857  -0.388  1.00  0.00     0.042 C 
BRANCH  23  24
ATOM     24  C   UNL     1       6.377   1.176   0.418  1.00  0.00     0.118 C 
BRANCH  24  25
ATOM     25  N   UNL     1       6.078   1.754   1.730  1.00  0.00    -0.352 N 
ATOM     26  C   UNL     1       6.248   1.239   2.994  1.00  0.00     0.251 C 
ATOM     27  H   UNL     1       5.693   2.660   1.702  1.00  0.00     0.163 HD
ATOM     28  O   UNL     1       5.767   1.820   3.964  1.00  0.00    -0.269 OA
BRANCH  26  29
ATOM     29  C   UNL     1       6.974  -0.034   3.180  1.00  0.00     0.039 A 
ATOM     30  C   UNL     1       6.481  -0.987   4.074  1.00  0.00     0.014 A 
ATOM     31  C   UNL     1       8.120  -0.305   2.434  1.00  0.00     0.014 A 
ATOM     32  C   UNL     1       7.069  -2.253   4.125  1.00  0.00     0.010 A 
ATOM     33  C   UNL     1       8.615  -1.600   2.385  1.00  0.00     0.010 A 
ATOM     34  C   UNL     1       8.097  -2.592   3.230  1.00  0.00    -0.014 A 
BRANCH  34  35
ATOM     35  C   UNL     1       8.649  -3.969   3.140  1.00  0.00     0.031 A 
ATOM     36  C   UNL     1      10.127  -4.199   3.323  1.00  0.00     0.074 A 
ATOM     37  C   UNL     1       7.848  -4.992   2.782  1.00  0.00     0.049 A 
ATOM     38  N   UNL     1      10.821  -5.294   3.140  1.00  0.00    -0.248 NA
ATOM     39  C   UNL     1      10.937  -3.035   3.717  1.00  0.00     0.031 C 
ATOM     40  C   UNL     1       6.411  -4.899   2.510  1.00  0.00     0.029 A 
ATOM     41  N   UNL     1       8.135  -6.319   2.573  1.00  0.00    -0.354 N 
ATOM     42  C   UNL     1      12.147  -4.937   3.354  1.00  0.00     0.074 A 
ATOM     43  C   UNL     1      12.167  -3.517   3.623  1.00  0.00     0.031 C 
ATOM     44  C   UNL     1       5.938  -6.119   2.211  1.00  0.00     0.029 A 
ATOM     45  C   UNL     1       7.041  -7.072   2.220  1.00  0.00     0.049 A 
ATOM     46  H   UNL     1       9.040  -6.695   2.667  1.00  0.00     0.167 HD
ATOM     47  C   UNL     1      13.250  -5.722   3.353  1.00  0.00     0.031 A 
ATOM     48  C   UNL     1       6.938  -8.382   1.930  1.00  0.00     0.031 A 
ATOM     49  C   UNL     1      13.227  -7.142   3.132  1.00  0.00     0.049 A 
ATOM     50  C   UNL     1       8.170  -9.241   1.970  1.00  0.00     0.074 A 
ATOM     51  C   UNL     1      14.277  -8.040   3.189  1.00  0.00     0.029 A 
ATOM     52  N   UNL     1      12.090  -7.871   2.822  1.00  0.00    -0.354 N 
ATOM     53  N   UNL     1       9.407  -8.899   2.239  1.00  0.00    -0.248 NA
ATOM     54  C   UNL     1       7.989 -10.670   1.678  1.00  0.00     0.031 C 
ATOM     55  C   UNL     1      13.782  -9.310   2.878  1.00  0.00     0.029 A 
ATOM     56  C   UNL     1      12.415  -9.208   2.674  1.00  0.00     0.049 A 
ATOM     57  H   UNL     1      11.186  -7.494   2.723  1.00  0.00     0.167 HD
ATOM     58  C   UNL     1      10.146 -10.073   2.175  1.00  0.00     0.074 A 
ATOM     59  C   UNL     1       9.217 -11.137   1.857  1.00  0.00     0.031 C 
ATOM     60  C   UNL     1      11.475 -10.253   2.364  1.00  0.00     0.031 A 
BRANCH  47  61
ATOM     61  C   UNL     1      14.573  -5.055   3.607  1.00  0.00    -0.014 A 
ATOM     62  C   UNL     1      14.895  -4.536   4.872  1.00  0.00     0.009 A 
ATOM     63  C   UNL     1      15.518  -4.961   2.575  1.00  0.00     0.009 A 
ATOM     64  C   UNL     1      16.118  -3.898   5.085  1.00  0.00     0.001 A 
ATOM     65  C   UNL     1      16.753  -4.350   2.800  1.00  0.00     0.001 A 
ATOM     66  C   UNL     1      17.047  -3.809   4.051  1.00  0.00     0.000 A 
ENDBRANCH  47  61
BRANCH  48  67
ATOM     67  C   UNL     1       5.614  -8.972   1.605  1.00  0.00    -0.014 A 
ATOM     68  C   UNL     1       4.972  -9.817   2.524  1.00  0.00     0.009 A 
ATOM     69  C   UNL     1       4.985  -8.700   0.380  1.00  0.00     0.009 A 
ATOM     70  C   UNL     1       3.741 -10.398   2.213  1.00  0.00     0.001 A 
ATOM     71  C   UNL     1       3.741  -9.262   0.083  1.00  0.00     0.001 A 
ATOM     72  C   UNL     1       3.124 -10.117   0.995  1.00  0.00     0.000 A 
ENDBRANCH  48  67
BRANCH  60  73
ATOM     73  C   UNL     1      11.997 -11.658   2.272  1.00  0.00    -0.014 A 
ATOM     74  C   UNL     1      12.125 -12.307   1.035  1.00  0.00     0.009 A 
ATOM     75  C   UNL     1      12.409 -12.320   3.438  1.00  0.00     0.009 A 
ATOM     76  C   UNL     1      12.630 -13.608   0.973  1.00  0.00     0.001 A 
ATOM     77  C   UNL     1      12.938 -13.609   3.370  1.00  0.00     0.001 A 
ATOM     78  C   UNL     1      13.040 -14.255   2.139  1.00  0.00     0.000 A 
ENDBRANCH  60  73
ENDBRANCH  34  35
ENDBRANCH  26  29
ENDBRANCH  24  25
ENDBRANCH  23  24
ENDBRANCH   1  23
TORSDOF 15
