REMARK SMILES CC(C)(C[NH2+]CCc1cccnc1)C(=O)NCCCNC(=O)c1ccc(-c2c3nc(c(-c4ccccc4)c4ccc([nH]4)c(-c4ccccc4)c4nc(c(-c5ccccc5)c5ccc2[nH]5)C=C4)C=C3)cc1
REMARK SMILES IDX 14 1 15 2 16 3 2 5 1 6 3 7 4 8 5 9 6 12 7 13 8 14 9 15 13 16
REMARK SMILES IDX 10 17 12 18 11 19 17 20 18 21 19 22 20 23 21 24 22 26 23 27
REMARK SMILES IDX 24 28 70 29 25 30 69 31 26 32 27 33 28 34 63 35 29 36 68 37
REMARK SMILES IDX 62 38 64 39 30 40 67 41 61 42 60 43 31 45 53 46 38 47 52 48
REMARK SMILES IDX 39 49 42 50 51 51 65 52 40 53 41 54 50 56 66 57 43 58 32 59
REMARK SMILES IDX 33 60 37 61 34 62 36 63 35 64 54 65 55 66 59 67 56 68 58 69
REMARK SMILES IDX 57 70 44 71 45 72 49 73 46 74 48 75 47 76
REMARK H PARENT 16 4 5 10 5 11 20 25 64 44 42 55
REMARK Flexibility Score: inf
ROOT
ATOM      1  C   UNL     1       1.094   1.837   1.641  1.00  0.00     0.231 C 
ATOM      2  O   UNL     1       1.851   1.180   2.364  1.00  0.00    -0.274 OA
ATOM      3  N   UNL     1       0.820   3.094   2.079  1.00  0.00    -0.355 N 
ATOM      4  H   UNL     1       1.272   3.322   2.924  1.00  0.00     0.163 HD
ENDROOT
BRANCH   1   5
ATOM      5  C   UNL     1       0.570   1.272   0.306  1.00  0.00     0.092 C 
ATOM      6  C   UNL     1       1.121  -0.168   0.134  1.00  0.00     0.027 C 
ATOM      7  C   UNL     1       1.155   2.084  -0.868  1.00  0.00     0.027 C 
BRANCH   5   8
ATOM      8  C   UNL     1      -0.980   1.246   0.226  1.00  0.00     0.276 C 
BRANCH   8   9
ATOM      9  N   UNL     1      -1.620   0.392   1.232  1.00  0.00    -0.345 N 
ATOM     10  H   UNL     1      -1.359   0.735   2.156  1.00  0.00     0.346 HD
ATOM     11  H   UNL     1      -1.297  -0.560   1.058  1.00  0.00     0.346 HD
BRANCH   9  12
ATOM     12  C   UNL     1      -3.085   0.363   1.147  1.00  0.00     0.265 C 
BRANCH  12  13
ATOM     13  C   UNL     1      -3.692  -0.212  -0.147  1.00  0.00     0.098 C 
BRANCH  13  14
ATOM     14  C   UNL     1      -3.238  -1.611  -0.469  1.00  0.00    -0.024 A 
ATOM     15  C   UNL     1      -2.200  -1.853  -1.374  1.00  0.00     0.007 A 
ATOM     16  C   UNL     1      -3.817  -2.718   0.144  1.00  0.00     0.114 A 
ATOM     17  C   UNL     1      -1.776  -3.155  -1.613  1.00  0.00     0.020 A 
ATOM     18  N   UNL     1      -3.434  -3.995  -0.079  1.00  0.00    -0.264 NA
ATOM     19  C   UNL     1      -2.418  -4.184  -0.949  1.00  0.00     0.111 A 
ENDBRANCH  13  14
ENDBRANCH  12  13
ENDBRANCH   9  12
ENDBRANCH   8   9
ENDBRANCH   5   8
ENDBRANCH   1   5
BRANCH   3  20
ATOM     20  C   UNL     1      -0.002   4.169   1.557  1.00  0.00     0.117 C 
BRANCH  20  21
ATOM     21  C   UNL     1      -1.287   4.357   2.356  1.00  0.00     0.042 C 
BRANCH  21  22
ATOM     22  C   UNL     1      -1.062   4.809   3.794  1.00  0.00     0.118 C 
BRANCH  22  23
ATOM     23  N   UNL     1      -0.415   6.113   3.877  1.00  0.00    -0.352 N 
ATOM     24  C   UNL     1      -0.875   7.308   4.363  1.00  0.00     0.251 C 
ATOM     25  H   UNL     1       0.504   6.139   3.525  1.00  0.00     0.163 HD
ATOM     26  O   UNL     1      -0.233   8.338   4.144  1.00  0.00    -0.269 OA
BRANCH  24  27
ATOM     27  C   UNL     1      -2.134   7.385   5.132  1.00  0.00     0.039 A 
ATOM     28  C   UNL     1      -2.987   8.473   4.924  1.00  0.00     0.014 A 
ATOM     29  C   UNL     1      -2.460   6.418   6.086  1.00  0.00     0.014 A 
ATOM     30  C   UNL     1      -4.194   8.557   5.624  1.00  0.00     0.010 A 
ATOM     31  C   UNL     1      -3.698   6.459   6.723  1.00  0.00     0.010 A 
ATOM     32  C   UNL     1      -4.574   7.531   6.504  1.00  0.00    -0.014 A 
BRANCH  32  33
ATOM     33  C   UNL     1      -5.880   7.562   7.209  1.00  0.00     0.031 A 
ATOM     34  C   UNL     1      -5.927   7.645   8.710  1.00  0.00     0.074 A 
ATOM     35  C   UNL     1      -7.021   7.442   6.504  1.00  0.00     0.049 A 
ATOM     36  N   UNL     1      -6.966   7.601   9.507  1.00  0.00    -0.248 NA
ATOM     37  C   UNL     1      -4.638   7.765   9.409  1.00  0.00     0.031 C 
ATOM     38  C   UNL     1      -7.111   7.315   5.047  1.00  0.00     0.029 A 
ATOM     39  N   UNL     1      -8.327   7.398   6.922  1.00  0.00    -0.354 N 
ATOM     40  C   UNL     1      -6.454   7.663  10.796  1.00  0.00     0.074 A 
ATOM     41  C   UNL     1      -5.012   7.704  10.679  1.00  0.00     0.031 C 
ATOM     42  C   UNL     1      -8.403   7.232   4.693  1.00  0.00     0.029 A 
ATOM     43  C   UNL     1      -9.229   7.259   5.895  1.00  0.00     0.049 A 
ATOM     44  H   UNL     1      -8.593   7.460   7.868  1.00  0.00     0.167 HD
ATOM     45  C   UNL     1      -7.122   7.701  11.974  1.00  0.00     0.031 A 
ATOM     46  C   UNL     1     -10.571   7.158   5.919  1.00  0.00     0.031 A 
ATOM     47  C   UNL     1      -8.555   7.680  12.093  1.00  0.00     0.049 A 
ATOM     48  C   UNL     1     -11.289   7.201   7.237  1.00  0.00     0.074 A 
ATOM     49  C   UNL     1      -9.327   7.776  13.238  1.00  0.00     0.029 A 
ATOM     50  N   UNL     1      -9.432   7.555  11.027  1.00  0.00    -0.354 N 
ATOM     51  N   UNL     1     -10.793   7.323   8.444  1.00  0.00    -0.248 NA
ATOM     52  C   UNL     1     -12.755   7.104   7.194  1.00  0.00     0.031 C 
ATOM     53  C   UNL     1     -10.671   7.665  12.868  1.00  0.00     0.029 A 
ATOM     54  C   UNL     1     -10.737   7.551  11.488  1.00  0.00     0.049 A 
ATOM     55  H   UNL     1      -9.166   7.480  10.082  1.00  0.00     0.167 HD
ATOM     56  C   UNL     1     -11.885   7.342   9.302  1.00  0.00     0.074 A 
ATOM     57  C   UNL     1     -13.070   7.234   8.476  1.00  0.00     0.031 C 
ATOM     58  C   UNL     1     -11.904   7.442  10.653  1.00  0.00     0.031 A 
BRANCH  45  59
ATOM     59  C   UNL     1      -6.301   7.763  13.232  1.00  0.00    -0.014 A 
ATOM     60  C   UNL     1      -5.592   8.924  13.581  1.00  0.00     0.009 A 
ATOM     61  C   UNL     1      -6.259   6.657  14.094  1.00  0.00     0.009 A 
ATOM     62  C   UNL     1      -4.827   8.961  14.748  1.00  0.00     0.001 A 
ATOM     63  C   UNL     1      -5.516   6.707  15.275  1.00  0.00     0.001 A 
ATOM     64  C   UNL     1      -4.792   7.854  15.596  1.00  0.00     0.000 A 
ENDBRANCH  45  59
BRANCH  46  65
ATOM     65  C   UNL     1     -11.328   7.024   4.647  1.00  0.00    -0.014 A 
ATOM     66  C   UNL     1     -12.093   8.095   4.162  1.00  0.00     0.009 A 
ATOM     67  C   UNL     1     -11.289   5.828   3.914  1.00  0.00     0.009 A 
ATOM     68  C   UNL     1     -12.825   7.962   2.980  1.00  0.00     0.001 A 
ATOM     69  C   UNL     1     -12.001   5.708   2.719  1.00  0.00     0.001 A 
ATOM     70  C   UNL     1     -12.775   6.771   2.257  1.00  0.00     0.000 A 
ENDBRANCH  46  65
BRANCH  58  71
ATOM     71  C   UNL     1     -13.250   7.472  11.318  1.00  0.00    -0.014 A 
ATOM     72  C   UNL     1     -14.033   6.313  11.429  1.00  0.00     0.009 A 
ATOM     73  C   UNL     1     -13.722   8.671  11.876  1.00  0.00     0.009 A 
ATOM     74  C   UNL     1     -15.278   6.362  12.059  1.00  0.00     0.001 A 
ATOM     75  C   UNL     1     -14.954   8.710  12.528  1.00  0.00     0.001 A 
ATOM     76  C   UNL     1     -15.735   7.559  12.611  1.00  0.00     0.000 A 
ENDBRANCH  58  71
ENDBRANCH  32  33
ENDBRANCH  24  27
ENDBRANCH  22  23
ENDBRANCH  21  22
ENDBRANCH  20  21
ENDBRANCH   3  20
TORSDOF 15
