REMARK SMILES CC(=O)N[C@@H](Cc1cc(Br)c(O)c(Br)c1)C(=O)NCCCNC(=O)c1ccc(-c2c3nc(c(-c4ccccc4)c4ccc([nH]4)c(-c4ccccc4)c4nc(c(-c5ccccc5)c5ccc2[nH]5)C=C4)C=C3)cc1
REMARK SMILES IDX 19 1 18 2 16 3 17 4 5 6 4 7 1 8 2 9 3 10 6 12 7 13 8 14
REMARK SMILES IDX 15 15 9 16 13 17 10 18 11 19 14 20 12 21 20 23 21 24 22 25
REMARK SMILES IDX 23 26 24 28 25 29 26 30 72 31 27 32 71 33 28 34 29 35 30 36
REMARK SMILES IDX 65 37 31 38 70 39 64 40 66 41 32 42 69 43 63 44 62 45 33 47
REMARK SMILES IDX 55 48 40 49 54 50 41 51 44 52 53 53 67 54 42 55 43 56 52 58
REMARK SMILES IDX 68 59 45 60 34 61 35 62 39 63 36 64 38 65 37 66 56 67 57 68
REMARK SMILES IDX 61 69 58 70 60 71 59 72 46 73 47 74 51 75 48 76 50 77 49 78
REMARK H PARENT 18 5 4 11 12 22 22 27 66 46 44 57
REMARK Flexibility Score: inf
ROOT
ATOM      1  C   UNL     1      -0.015  -4.223  -3.107  1.00  0.00     0.117 C 
ENDROOT
BRANCH   1   2
ATOM      2  N   UNL     1       0.308  -2.934  -3.658  1.00  0.00    -0.354 N 
ATOM      3  C   UNL     1       1.274  -2.069  -3.229  1.00  0.00     0.242 C 
ATOM      4  O   UNL     1       1.615  -1.177  -4.014  1.00  0.00    -0.273 OA
ATOM      5  H   UNL     1      -0.227  -2.643  -4.432  1.00  0.00     0.163 HD
BRANCH   3   6
ATOM      6  C   UNL     1       1.989  -2.208  -1.853  1.00  0.00     0.175 C 
BRANCH   6   7
ATOM      7  N   UNL     1       1.090  -2.295  -0.700  1.00  0.00    -0.344 N 
ATOM      8  C   UNL     1       1.141   0.103  -0.094  1.00  0.00     0.114 C 
ATOM      9  C   UNL     1       0.626  -1.295   0.098  1.00  0.00     0.217 C 
ATOM     10  O   UNL     1      -0.204  -1.572   0.962  1.00  0.00    -0.275 OA
ATOM     11  H   UNL     1       0.779  -3.200  -0.472  1.00  0.00     0.164 HD
ENDBRANCH   6   7
BRANCH   6  12
ATOM     12  C   UNL     1       3.206  -3.172  -1.818  1.00  0.00     0.070 C 
BRANCH  12  13
ATOM     13  C   UNL     1       3.136  -4.691  -1.801  1.00  0.00    -0.043 A 
ATOM     14  C   UNL     1       4.198  -5.406  -2.390  1.00  0.00     0.023 A 
ATOM     15  C   UNL     1       2.154  -5.447  -1.153  1.00  0.00     0.023 A 
ATOM     16  C   UNL     1       4.211  -6.807  -2.418  1.00  0.00     0.061 A 
ATOM     17  C   UNL     1       2.110  -6.846  -1.265  1.00  0.00     0.061 A 
ATOM     18  Br  UNL     1       5.711  -7.694  -3.164  1.00  0.00    -0.047 Br
ATOM     19  C   UNL     1       3.143  -7.532  -1.894  1.00  0.00     0.143 A 
ATOM     20  Br  UNL     1       0.586  -7.751  -0.584  1.00  0.00    -0.047 Br
BRANCH  19  21
ATOM     21  O   UNL     1       3.102  -8.897  -1.970  1.00  0.00    -0.506 OA
ATOM     22  H   UNL     1       3.796  -9.364  -2.393  1.00  0.00     0.293 HD
ENDBRANCH  19  21
ENDBRANCH  12  13
ENDBRANCH   6  12
ENDBRANCH   3   6
ENDBRANCH   1   2
BRANCH   1  23
ATOM     23  C   UNL     1      -1.468  -4.637  -3.191  1.00  0.00     0.042 C 
BRANCH  23  24
ATOM     24  C   UNL     1      -1.882  -5.246  -4.519  1.00  0.00     0.118 C 
BRANCH  24  25
ATOM     25  N   UNL     1      -1.091  -6.406  -4.920  1.00  0.00    -0.352 N 
ATOM     26  C   UNL     1      -1.326  -7.764  -4.928  1.00  0.00     0.251 C 
ATOM     27  H   UNL     1      -0.197  -6.167  -5.258  1.00  0.00     0.163 HD
ATOM     28  O   UNL     1      -0.416  -8.515  -5.255  1.00  0.00    -0.269 OA
BRANCH  26  29
ATOM     29  C   UNL     1      -2.632  -8.337  -4.521  1.00  0.00     0.039 A 
ATOM     30  C   UNL     1      -2.659  -9.583  -3.881  1.00  0.00     0.014 A 
ATOM     31  C   UNL     1      -3.832  -7.687  -4.782  1.00  0.00     0.014 A 
ATOM     32  C   UNL     1      -3.872 -10.112  -3.421  1.00  0.00     0.010 A 
ATOM     33  C   UNL     1      -5.010  -8.136  -4.199  1.00  0.00     0.010 A 
ATOM     34  C   UNL     1      -5.052  -9.362  -3.520  1.00  0.00    -0.014 A 
BRANCH  34  35
ATOM     35  C   UNL     1      -6.350  -9.822  -2.955  1.00  0.00     0.031 A 
ATOM     36  C   UNL     1      -7.569  -9.906  -3.842  1.00  0.00     0.074 A 
ATOM     37  C   UNL     1      -6.471 -10.051  -1.632  1.00  0.00     0.049 A 
ATOM     38  N   UNL     1      -8.822 -10.094  -3.514  1.00  0.00    -0.248 NA
ATOM     39  C   UNL     1      -7.355  -9.697  -5.285  1.00  0.00     0.031 C 
ATOM     40  C   UNL     1      -5.391  -9.958  -0.646  1.00  0.00     0.029 A 
ATOM     41  N   UNL     1      -7.570 -10.395  -0.883  1.00  0.00    -0.354 N 
ATOM     42  C   UNL     1      -9.543  -9.972  -4.697  1.00  0.00     0.074 A 
ATOM     43  C   UNL     1      -8.598  -9.638  -5.737  1.00  0.00     0.031 C 
ATOM     44  C   UNL     1      -5.872 -10.272   0.567  1.00  0.00     0.029 A 
ATOM     45  C   UNL     1      -7.302 -10.534   0.458  1.00  0.00     0.049 A 
ATOM     46  H   UNL     1      -8.465 -10.529  -1.271  1.00  0.00     0.167 HD
ATOM     47  C   UNL     1     -10.870 -10.146  -4.908  1.00  0.00     0.031 A 
ATOM     48  C   UNL     1      -8.119 -10.828   1.487  1.00  0.00     0.031 A 
ATOM     49  C   UNL     1     -11.803 -10.536  -3.886  1.00  0.00     0.049 A 
ATOM     50  C   UNL     1      -9.582 -11.053   1.223  1.00  0.00     0.074 A 
ATOM     51  C   UNL     1     -13.152 -10.819  -4.013  1.00  0.00     0.029 A 
ATOM     52  N   UNL     1     -11.478 -10.715  -2.551  1.00  0.00    -0.354 N 
ATOM     53  N   UNL     1     -10.237 -10.986   0.090  1.00  0.00    -0.248 NA
ATOM     54  C   UNL     1     -10.415 -11.404   2.382  1.00  0.00     0.031 C 
ATOM     55  C   UNL     1     -13.651 -11.133  -2.745  1.00  0.00     0.029 A 
ATOM     56  C   UNL     1     -12.603 -11.094  -1.840  1.00  0.00     0.049 A 
ATOM     57  H   UNL     1     -10.580 -10.590  -2.166  1.00  0.00     0.167 HD
ATOM     58  C   UNL     1     -11.552 -11.316   0.394  1.00  0.00     0.074 A 
ATOM     59  C   UNL     1     -11.597 -11.597   1.813  1.00  0.00     0.031 C 
ATOM     60  C   UNL     1     -12.626 -11.380  -0.430  1.00  0.00     0.031 A 
BRANCH  47  61
ATOM     61  C   UNL     1     -11.385  -9.925  -6.304  1.00  0.00    -0.014 A 
ATOM     62  C   UNL     1     -11.053 -10.799  -7.352  1.00  0.00     0.009 A 
ATOM     63  C   UNL     1     -12.233  -8.839  -6.572  1.00  0.00     0.009 A 
ATOM     64  C   UNL     1     -11.521 -10.565  -8.646  1.00  0.00     0.001 A 
ATOM     65  C   UNL     1     -12.726  -8.625  -7.861  1.00  0.00     0.001 A 
ATOM     66  C   UNL     1     -12.360  -9.481  -8.899  1.00  0.00     0.000 A 
ENDBRANCH  47  61
BRANCH  48  67
ATOM     67  C   UNL     1      -7.571 -10.954   2.864  1.00  0.00    -0.014 A 
ATOM     68  C   UNL     1      -7.484 -12.214   3.476  1.00  0.00     0.009 A 
ATOM     69  C   UNL     1      -7.143  -9.823   3.575  1.00  0.00     0.009 A 
ATOM     70  C   UNL     1      -7.008 -12.336   4.784  1.00  0.00     0.001 A 
ATOM     71  C   UNL     1      -6.640  -9.952   4.872  1.00  0.00     0.001 A 
ATOM     72  C   UNL     1      -6.583 -11.205   5.479  1.00  0.00     0.000 A 
ENDBRANCH  48  67
BRANCH  60  73
ATOM     73  C   UNL     1     -13.930 -11.815   0.175  1.00  0.00    -0.014 A 
ATOM     74  C   UNL     1     -14.663 -10.966   1.018  1.00  0.00     0.009 A 
ATOM     75  C   UNL     1     -14.452 -13.078  -0.143  1.00  0.00     0.009 A 
ATOM     76  C   UNL     1     -15.880 -11.388   1.556  1.00  0.00     0.001 A 
ATOM     77  C   UNL     1     -15.682 -13.486   0.373  1.00  0.00     0.001 A 
ATOM     78  C   UNL     1     -16.391 -12.644   1.229  1.00  0.00     0.000 A 
ENDBRANCH  60  73
ENDBRANCH  34  35
ENDBRANCH  26  29
ENDBRANCH  24  25
ENDBRANCH  23  24
ENDBRANCH   1  23
TORSDOF 14
