REMARK SMILES Cc1ccc(-c2nc(NC(=O)[C@H]3[C@@H](C(=O)NCCCNC(=O)c4ccc(-c5c6nc(c(-c7ccccc7)c7ccc([nH]7)c(-c7ccccc7)c7nc(c(-c8ccccc8)c8ccc5[nH]8)C=C7)C=C6)cc4)[C@@H]4CC[C@H]3O4)sc2C)cc1
REMARK SMILES IDX 17 1 16 2 14 3 15 4 13 6 12 7 74 8 71 9 73 10 75 11 72 12
REMARK SMILES IDX 10 13 9 14 11 16 8 17 6 18 7 19 77 20 76 21 78 22 5 23 1 24
REMARK SMILES IDX 2 25 3 26 80 27 4 28 79 29 18 30 19 31 20 32 21 33 22 35
REMARK SMILES IDX 23 36 24 37 70 38 25 39 69 40 26 41 27 42 28 43 63 44 29 45
REMARK SMILES IDX 68 46 62 47 64 48 30 49 67 50 61 51 60 52 31 54 53 55 38 56
REMARK SMILES IDX 52 57 39 58 42 59 51 60 65 61 40 62 41 63 50 65 66 66 43 67
REMARK SMILES IDX 32 68 33 69 37 70 34 71 36 72 35 73 54 74 55 75 59 76 56 77
REMARK SMILES IDX 58 78 57 79 44 80 45 81 49 82 46 83 48 84 47 85
REMARK H PARENT 16 5 9 15 20 34 64 53 42 64
REMARK Flexibility Score: inf
ROOT
ATOM      1  C   UNL     1      -6.759  -0.618   2.377  1.00  0.00     0.117 C 
ENDROOT
BRANCH   1   2
ATOM      2  N   UNL     1      -7.572   0.565   2.163  1.00  0.00    -0.356 N 
ATOM      3  C   UNL     1      -8.870   0.542   1.739  1.00  0.00     0.226 C 
ATOM      4  O   UNL     1      -9.717   1.024   2.493  1.00  0.00    -0.275 OA
ATOM      5  H   UNL     1      -7.161   1.443   2.335  1.00  0.00     0.163 HD
BRANCH   3   6
ATOM      6  C   UNL     1      -9.232  -0.183   0.464  1.00  0.00     0.122 C 
ATOM      7  C   UNL     1      -8.558  -0.029  -0.914  1.00  0.00     0.123 C 
ATOM      8  C   UNL     1      -9.753  -0.380  -1.820  1.00  0.00     0.132 C 
ATOM      9  C   UNL     1     -10.739  -0.048   0.084  1.00  0.00     0.132 C 
ATOM     10  C   UNL     1     -10.371  -1.761  -1.471  1.00  0.00     0.035 C 
ATOM     11  O   UNL     1     -10.717   0.525  -1.254  1.00  0.00    -0.373 OA
ATOM     12  C   UNL     1     -11.276  -1.425  -0.278  1.00  0.00     0.035 C 
BRANCH   7  13
ATOM     13  C   UNL     1      -7.720   1.068  -1.635  1.00  0.00     0.232 C 
ATOM     14  N   UNL     1      -7.676   2.417  -1.614  1.00  0.00    -0.302 N 
ATOM     15  H   UNL     1      -7.128   2.771  -2.352  1.00  0.00     0.172 HD
ATOM     16  O   UNL     1      -6.935   0.601  -2.495  1.00  0.00    -0.274 OA
BRANCH  14  17
ATOM     17  C   UNL     1      -8.186   3.423  -0.844  1.00  0.00     0.190 A 
ATOM     18  C   UNL     1      -8.441   5.433   0.102  1.00  0.00     0.086 A 
ATOM     19  N   UNL     1      -7.817   4.690  -0.920  1.00  0.00    -0.220 NA
ATOM     20  C   UNL     1      -9.340   4.689   0.854  1.00  0.00     0.031 A 
ATOM     21  S   UNL     1      -9.360   3.094   0.287  1.00  0.00    -0.101 S 
ATOM     22  C   UNL     1     -10.260   5.002   1.979  1.00  0.00     0.059 C 
BRANCH  18  23
ATOM     23  C   UNL     1      -8.185   6.859   0.361  1.00  0.00     0.001 A 
ATOM     24  C   UNL     1      -7.936  11.097   1.289  1.00  0.00     0.044 C 
ATOM     25  C   UNL     1      -7.988   9.632   0.961  1.00  0.00    -0.051 A 
ATOM     26  C   UNL     1      -7.978   9.179  -0.366  1.00  0.00     0.004 A 
ATOM     27  C   UNL     1      -8.038   8.688   1.986  1.00  0.00     0.004 A 
ATOM     28  C   UNL     1      -8.078   7.804  -0.666  1.00  0.00     0.010 A 
ATOM     29  C   UNL     1      -8.112   7.325   1.686  1.00  0.00     0.010 A 
ENDBRANCH  18  23
ENDBRANCH  14  17
ENDBRANCH   7  13
ENDBRANCH   3   6
ENDBRANCH   1   2
BRANCH   1  30
ATOM     30  C   UNL     1      -5.913  -1.061   1.203  1.00  0.00     0.042 C 
BRANCH  30  31
ATOM     31  C   UNL     1      -4.945  -0.011   0.683  1.00  0.00     0.118 C 
BRANCH  31  32
ATOM     32  N   UNL     1      -3.697  -0.062   1.415  1.00  0.00    -0.352 N 
ATOM     33  C   UNL     1      -2.380   0.126   1.041  1.00  0.00     0.251 C 
ATOM     34  H   UNL     1      -3.809  -0.274   2.370  1.00  0.00     0.163 HD
ATOM     35  O   UNL     1      -1.521  -0.269   1.786  1.00  0.00    -0.269 OA
BRANCH  33  36
ATOM     36  C   UNL     1      -2.017   0.963  -0.143  1.00  0.00     0.039 A 
ATOM     37  C   UNL     1      -0.811   1.678  -0.021  1.00  0.00     0.014 A 
ATOM     38  C   UNL     1      -2.850   1.218  -1.227  1.00  0.00     0.014 A 
ATOM     39  C   UNL     1      -0.564   2.780  -0.834  1.00  0.00     0.010 A 
ATOM     40  C   UNL     1      -2.632   2.333  -2.010  1.00  0.00     0.010 A 
ATOM     41  C   UNL     1      -1.536   3.154  -1.753  1.00  0.00    -0.014 A 
BRANCH  41  42
ATOM     42  C   UNL     1      -1.568   4.448  -2.407  1.00  0.00     0.031 A 
ATOM     43  C   UNL     1      -0.996   4.628  -3.746  1.00  0.00     0.074 A 
ATOM     44  C   UNL     1      -2.231   5.450  -1.794  1.00  0.00     0.049 A 
ATOM     45  N   UNL     1      -0.614   5.763  -4.221  1.00  0.00    -0.248 NA
ATOM     46  C   UNL     1      -0.757   3.507  -4.645  1.00  0.00     0.031 C 
ATOM     47  C   UNL     1      -2.657   6.724  -2.357  1.00  0.00     0.029 A 
ATOM     48  N   UNL     1      -2.465   5.576  -0.423  1.00  0.00    -0.354 N 
ATOM     49  C   UNL     1      -0.383   5.582  -5.564  1.00  0.00     0.074 A 
ATOM     50  C   UNL     1      -0.365   4.148  -5.750  1.00  0.00     0.031 C 
ATOM     51  C   UNL     1      -2.857   7.593  -1.352  1.00  0.00     0.029 A 
ATOM     52  C   UNL     1      -2.399   6.949  -0.130  1.00  0.00     0.049 A 
ATOM     53  H   UNL     1      -2.641   4.845   0.213  1.00  0.00     0.167 HD
ATOM     54  C   UNL     1      -0.398   6.666  -6.390  1.00  0.00     0.031 A 
ATOM     55  C   UNL     1      -1.414   7.437   0.680  1.00  0.00     0.031 A 
ATOM     56  C   UNL     1      -0.545   7.915  -5.638  1.00  0.00     0.049 A 
ATOM     57  C   UNL     1      -0.508   8.438  -0.002  1.00  0.00     0.074 A 
ATOM     58  C   UNL     1      -1.623   8.753  -5.404  1.00  0.00     0.029 A 
ATOM     59  N   UNL     1       0.447   8.291  -4.738  1.00  0.00    -0.354 N 
ATOM     60  N   UNL     1      -0.376   8.546  -1.295  1.00  0.00    -0.248 NA
ATOM     61  C   UNL     1       0.343   9.377   0.724  1.00  0.00     0.031 C 
ATOM     62  C   UNL     1      -1.296   9.595  -4.309  1.00  0.00     0.029 A 
ATOM     63  C   UNL     1      -0.010   9.290  -3.901  1.00  0.00     0.049 A 
ATOM     64  H   UNL     1       1.350   7.900  -4.704  1.00  0.00     0.167 HD
ATOM     65  C   UNL     1       0.531   9.532  -1.586  1.00  0.00     0.074 A 
ATOM     66  C   UNL     1       0.947  10.028  -0.286  1.00  0.00     0.031 C 
ATOM     67  C   UNL     1       0.864   9.845  -2.873  1.00  0.00     0.031 A 
BRANCH  54  68
ATOM     68  C   UNL     1      -0.587   6.577  -7.889  1.00  0.00    -0.014 A 
ATOM     69  C   UNL     1      -1.111   7.681  -8.588  1.00  0.00     0.009 A 
ATOM     70  C   UNL     1      -0.338   5.432  -8.663  1.00  0.00     0.009 A 
ATOM     71  C   UNL     1      -1.453   7.612  -9.947  1.00  0.00     0.001 A 
ATOM     72  C   UNL     1      -0.705   5.342 -10.013  1.00  0.00     0.001 A 
ATOM     73  C   UNL     1      -1.275   6.431 -10.654  1.00  0.00     0.000 A 
ENDBRANCH  54  68
BRANCH  55  74
ATOM     74  C   UNL     1      -0.970   6.472   1.727  1.00  0.00    -0.014 A 
ATOM     75  C   UNL     1      -1.888   6.107   2.733  1.00  0.00     0.009 A 
ATOM     76  C   UNL     1       0.157   5.662   1.526  1.00  0.00     0.009 A 
ATOM     77  C   UNL     1      -1.744   4.906   3.434  1.00  0.00     0.001 A 
ATOM     78  C   UNL     1       0.303   4.466   2.240  1.00  0.00     0.001 A 
ATOM     79  C   UNL     1      -0.664   4.071   3.165  1.00  0.00     0.000 A 
ENDBRANCH  55  74
BRANCH  67  80
ATOM     80  C   UNL     1       1.994  10.745  -3.320  1.00  0.00    -0.014 A 
ATOM     81  C   UNL     1       3.083  11.117  -2.523  1.00  0.00     0.009 A 
ATOM     82  C   UNL     1       2.042  11.151  -4.675  1.00  0.00     0.009 A 
ATOM     83  C   UNL     1       4.139  11.884  -3.038  1.00  0.00     0.001 A 
ATOM     84  C   UNL     1       3.114  11.873  -5.205  1.00  0.00     0.001 A 
ATOM     85  C   UNL     1       4.161  12.250  -4.380  1.00  0.00     0.000 A 
ENDBRANCH  67  80
ENDBRANCH  41  42
ENDBRANCH  33  36
ENDBRANCH  31  32
ENDBRANCH  30  31
ENDBRANCH   1  30
TORSDOF 13
