REMARK SMILES O=C(CS[C@H](C(=O)Nc1ccc(C(F)(F)F)cc1)c1ccccc1)NCCCNC(=O)c1ccc(-c2c3nc(c(-c4ccccc4)c4ccc([nH]4)c(-c4ccccc4)c4nc(c(-c5ccccc5)c5ccc2[nH]5)C=C4)C=C3)cc1
REMARK SMILES IDX 1 1 2 2 25 3 3 5 4 6 5 7 19 8 20 9 24 10 21 11 23 12 22 13
REMARK SMILES IDX 6 14 7 15 8 16 9 18 10 19 18 20 11 21 17 22 12 23 13 24
REMARK SMILES IDX 14 25 15 26 16 27 26 28 27 29 28 30 29 31 30 32 31 34 32 35
REMARK SMILES IDX 33 36 79 37 34 38 78 39 35 40 36 41 37 42 72 43 38 44 77 45
REMARK SMILES IDX 71 46 73 47 39 48 76 49 70 50 69 51 40 53 62 54 47 55 61 56
REMARK SMILES IDX 48 57 51 58 60 59 74 60 49 61 50 62 59 64 75 65 52 66 41 67
REMARK SMILES IDX 42 68 46 69 43 70 45 71 44 72 63 73 64 74 68 75 65 76 67 77
REMARK SMILES IDX 66 78 53 79 54 80 58 81 55 82 57 83 56 84
REMARK H PARENT 25 4 8 17 29 33 73 52 51 63
REMARK Flexibility Score: inf
ROOT
ATOM      1  O   UNL     1      -1.309  -1.273  -1.829  1.00  0.00    -0.274 OA
ATOM      2  C   UNL     1      -0.182  -1.296  -1.337  1.00  0.00     0.230 C 
ATOM      3  N   UNL     1       0.219  -0.380  -0.378  1.00  0.00    -0.355 N 
ATOM      4  H   UNL     1       1.104  -0.462   0.047  1.00  0.00     0.163 HD
ENDROOT
BRANCH   2   5
ATOM      5  C   UNL     1       0.869  -2.297  -1.769  1.00  0.00     0.170 C 
BRANCH   5   6
ATOM      6  S   UNL     1       1.565  -1.950  -3.432  1.00  0.00    -0.134 SA
BRANCH   6   7
ATOM      7  C   UNL     1       2.693  -0.471  -3.244  1.00  0.00     0.166 C 
BRANCH   7   8
ATOM      8  C   UNL     1       2.059   0.829  -3.736  1.00  0.00    -0.026 A 
ATOM      9  C   UNL     1       2.776   1.679  -4.601  1.00  0.00     0.005 A 
ATOM     10  C   UNL     1       0.775   1.250  -3.367  1.00  0.00     0.005 A 
ATOM     11  C   UNL     1       2.273   2.933  -4.974  1.00  0.00     0.000 A 
ATOM     12  C   UNL     1       0.268   2.500  -3.732  1.00  0.00     0.000 A 
ATOM     13  C   UNL     1       1.028   3.354  -4.517  1.00  0.00     0.000 A 
ENDBRANCH   7   8
BRANCH   7  14
ATOM     14  C   UNL     1       3.558  -0.494  -1.946  1.00  0.00     0.242 C 
ATOM     15  O   UNL     1       3.463  -1.381  -1.088  1.00  0.00    -0.273 OA
ATOM     16  N   UNL     1       4.684   0.280  -1.816  1.00  0.00    -0.325 N 
ATOM     17  H   UNL     1       5.497  -0.219  -1.571  1.00  0.00     0.169 HD
BRANCH  16  18
ATOM     18  C   UNL     1       4.874   1.656  -1.972  1.00  0.00     0.041 A 
ATOM     19  C   UNL     1       6.176   2.133  -2.140  1.00  0.00     0.027 A 
ATOM     20  C   UNL     1       3.833   2.567  -1.876  1.00  0.00     0.027 A 
ATOM     21  C   UNL     1       6.407   3.497  -2.354  1.00  0.00     0.015 A 
ATOM     22  C   UNL     1       4.055   3.923  -2.118  1.00  0.00     0.015 A 
ATOM     23  C   UNL     1       5.338   4.402  -2.389  1.00  0.00     0.056 A 
BRANCH  23  24
ATOM     24  C   UNL     1       5.551   5.864  -2.692  1.00  0.00     0.416 C 
ATOM     25  F   UNL     1       5.859   6.586  -1.581  1.00  0.00    -0.166 F 
ATOM     26  F   UNL     1       6.571   6.073  -3.571  1.00  0.00    -0.166 F 
ATOM     27  F   UNL     1       4.462   6.464  -3.246  1.00  0.00    -0.166 F 
ENDBRANCH  23  24
ENDBRANCH  16  18
ENDBRANCH   7  14
ENDBRANCH   6   7
ENDBRANCH   5   6
ENDBRANCH   2   5
BRANCH   3  28
ATOM     28  C   UNL     1      -0.675   0.704  -0.004  1.00  0.00     0.117 C 
BRANCH  28  29
ATOM     29  C   UNL     1      -0.272   1.479   1.240  1.00  0.00     0.042 C 
BRANCH  29  30
ATOM     30  C   UNL     1       1.064   2.207   1.167  1.00  0.00     0.118 C 
BRANCH  30  31
ATOM     31  N   UNL     1       1.097   3.337   0.253  1.00  0.00    -0.352 N 
ATOM     32  C   UNL     1       1.771   4.537   0.346  1.00  0.00     0.251 C 
ATOM     33  H   UNL     1       0.552   3.228  -0.561  1.00  0.00     0.163 HD
ATOM     34  O   UNL     1       1.580   5.387  -0.519  1.00  0.00    -0.269 OA
BRANCH  32  35
ATOM     35  C   UNL     1       2.669   4.855   1.492  1.00  0.00     0.039 A 
ATOM     36  C   UNL     1       2.741   6.191   1.908  1.00  0.00     0.014 A 
ATOM     37  C   UNL     1       3.388   3.889   2.197  1.00  0.00     0.014 A 
ATOM     38  C   UNL     1       3.376   6.521   3.107  1.00  0.00     0.010 A 
ATOM     39  C   UNL     1       3.941   4.199   3.441  1.00  0.00     0.010 A 
ATOM     40  C   UNL     1       3.889   5.509   3.933  1.00  0.00    -0.014 A 
BRANCH  40  41
ATOM     41  C   UNL     1       4.220   5.788   5.355  1.00  0.00     0.031 A 
ATOM     42  C   UNL     1       5.607   5.601   5.897  1.00  0.00     0.074 A 
ATOM     43  C   UNL     1       3.217   6.134   6.189  1.00  0.00     0.049 A 
ATOM     44  N   UNL     1       6.040   5.774   7.121  1.00  0.00    -0.248 NA
ATOM     45  C   UNL     1       6.634   5.136   4.954  1.00  0.00     0.031 C 
ATOM     46  C   UNL     1       1.808   6.277   5.807  1.00  0.00     0.029 A 
ATOM     47  N   UNL     1       3.224   6.426   7.530  1.00  0.00    -0.354 N 
ATOM     48  C   UNL     1       7.385   5.429   7.099  1.00  0.00     0.074 A 
ATOM     49  C   UNL     1       7.686   4.998   5.750  1.00  0.00     0.031 C 
ATOM     50  C   UNL     1       1.098   6.672   6.875  1.00  0.00     0.029 A 
ATOM     51  C   UNL     1       1.988   6.769   8.024  1.00  0.00     0.049 A 
ATOM     52  H   UNL     1       4.036   6.393   8.085  1.00  0.00     0.167 HD
ATOM     53  C   UNL     1       8.289   5.479   8.107  1.00  0.00     0.031 A 
ATOM     54  C   UNL     1       1.606   7.127   9.264  1.00  0.00     0.031 A 
ATOM     55  C   UNL     1       7.993   5.909   9.449  1.00  0.00     0.049 A 
ATOM     56  C   UNL     1       2.632   7.197  10.356  1.00  0.00     0.074 A 
ATOM     57  C   UNL     1       8.857   6.042  10.524  1.00  0.00     0.029 A 
ATOM     58  N   UNL     1       6.735   6.274   9.902  1.00  0.00    -0.354 N 
ATOM     59  N   UNL     1       3.915   6.937  10.297  1.00  0.00    -0.248 NA
ATOM     60  C   UNL     1       2.159   7.621  11.680  1.00  0.00     0.031 C 
ATOM     61  C   UNL     1       8.114   6.453  11.636  1.00  0.00     0.029 A 
ATOM     62  C   UNL     1       6.796   6.618  11.243  1.00  0.00     0.049 A 
ATOM     63  H   UNL     1       5.918   6.288   9.352  1.00  0.00     0.167 HD
ATOM     64  C   UNL     1       4.407   7.188  11.570  1.00  0.00     0.074 A 
ATOM     65  C   UNL     1       3.288   7.636  12.374  1.00  0.00     0.031 C 
ATOM     66  C   UNL     1       5.675   7.058  12.031  1.00  0.00     0.031 A 
BRANCH  53  67
ATOM     67  C   UNL     1       9.694   5.050   7.791  1.00  0.00    -0.014 A 
ATOM     68  C   UNL     1      10.534   5.850   7.000  1.00  0.00     0.009 A 
ATOM     69  C   UNL     1      10.197   3.849   8.316  1.00  0.00     0.009 A 
ATOM     70  C   UNL     1      11.837   5.438   6.711  1.00  0.00     0.001 A 
ATOM     71  C   UNL     1      11.508   3.452   8.046  1.00  0.00     0.001 A 
ATOM     72  C   UNL     1      12.323   4.241   7.236  1.00  0.00     0.000 A 
ENDBRANCH  53  67
BRANCH  54  73
ATOM     73  C   UNL     1       0.188   7.478   9.531  1.00  0.00    -0.014 A 
ATOM     74  C   UNL     1      -0.182   8.816   9.739  1.00  0.00     0.009 A 
ATOM     75  C   UNL     1      -0.801   6.484   9.571  1.00  0.00     0.009 A 
ATOM     76  C   UNL     1      -1.512   9.148  10.005  1.00  0.00     0.001 A 
ATOM     77  C   UNL     1      -2.134   6.822   9.812  1.00  0.00     0.001 A 
ATOM     78  C   UNL     1      -2.487   8.152  10.037  1.00  0.00     0.000 A 
ENDBRANCH  54  73
BRANCH  66  79
ATOM     79  C   UNL     1       5.917   7.434  13.464  1.00  0.00    -0.014 A 
ATOM     80  C   UNL     1       5.488   6.609  14.514  1.00  0.00     0.009 A 
ATOM     81  C   UNL     1       6.598   8.624  13.764  1.00  0.00     0.009 A 
ATOM     82  C   UNL     1       5.708   6.985  15.841  1.00  0.00     0.001 A 
ATOM     83  C   UNL     1       6.838   8.985  15.090  1.00  0.00     0.001 A 
ATOM     84  C   UNL     1       6.385   8.171  16.127  1.00  0.00     0.000 A 
ENDBRANCH  66  79
ENDBRANCH  40  41
ENDBRANCH  32  35
ENDBRANCH  30  31
ENDBRANCH  29  30
ENDBRANCH  28  29
ENDBRANCH   3  28
TORSDOF 16
