REMARK SMILES COCCCC(=O)N[C@H]1CC[C@@H](C(=O)NCCCNC(=O)c2ccc(-c3c4nc(c(-c5ccccc5)c5ccc([nH]5)c(-c5ccccc5)c5nc(c(-c6ccccc6)c6ccc3[nH]6)C=C5)C=C4)cc2)CC1
REMARK SMILES IDX 13 1 14 2 15 3 12 5 9 6 10 7 71 8 11 9 70 10 8 11 6 12 7 13
REMARK SMILES IDX 5 15 4 16 3 17 2 18 1 19 16 20 17 21 18 22 19 23 20 24 21 26
REMARK SMILES IDX 22 27 23 28 69 29 24 30 68 31 25 32 26 33 27 34 62 35 28 36
REMARK SMILES IDX 67 37 61 38 63 39 29 40 66 41 60 42 59 43 30 45 52 46 37 47
REMARK SMILES IDX 51 48 38 49 41 50 50 51 64 52 39 53 40 54 49 56 65 57 42 58
REMARK SMILES IDX 31 59 32 60 36 61 33 62 35 63 34 64 53 65 54 66 58 67 55 68
REMARK SMILES IDX 57 69 56 70 43 71 44 72 48 73 45 74 47 75 46 76
REMARK H PARENT 15 4 8 14 19 25 63 44 41 55
REMARK Flexibility Score: inf
ROOT
ATOM      1  C   UNL     1       4.374  -3.533   1.976  1.00  0.00     0.223 C 
ATOM      2  O   UNL     1       4.566  -4.358   2.879  1.00  0.00    -0.275 OA
ATOM      3  N   UNL     1       5.466  -2.829   1.597  1.00  0.00    -0.356 N 
ATOM      4  H   UNL     1       6.242  -2.965   2.188  1.00  0.00     0.163 HD
ENDROOT
BRANCH   1   5
ATOM      5  C   UNL     1       2.953  -3.359   1.418  1.00  0.00     0.078 C 
ATOM      6  C   UNL     1       2.300  -1.252  -0.607  1.00  0.00     0.082 C 
ATOM      7  C   UNL     1       2.754  -2.644  -1.073  1.00  0.00     0.026 C 
ATOM      8  C   UNL     1       2.502  -0.905   0.868  1.00  0.00     0.026 C 
ATOM      9  C   UNL     1       2.695  -3.753  -0.034  1.00  0.00     0.015 C 
ATOM     10  C   UNL     1       2.260  -2.062   1.818  1.00  0.00     0.015 C 
BRANCH   6  11
ATOM     11  N   UNL     1       2.900  -0.254  -1.486  1.00  0.00    -0.353 N 
ATOM     12  C   UNL     1       2.368   0.663  -2.329  1.00  0.00     0.220 C 
ATOM     13  O   UNL     1       3.155   1.264  -3.066  1.00  0.00    -0.275 OA
ATOM     14  H   UNL     1       3.884  -0.245  -1.462  1.00  0.00     0.163 HD
BRANCH  12  15
ATOM     15  C   UNL     1       0.904   1.045  -2.307  1.00  0.00     0.102 C 
BRANCH  15  16
ATOM     16  C   UNL     1      -0.137   0.112  -2.925  1.00  0.00     0.038 C 
BRANCH  16  17
ATOM     17  C   UNL     1      -0.625  -1.159  -2.223  1.00  0.00     0.160 C 
BRANCH  17  18
ATOM     18  O   UNL     1      -1.160  -1.159  -0.904  1.00  0.00    -0.385 OA
ATOM     19  C   UNL     1      -1.119   0.006  -0.110  1.00  0.00     0.194 C 
ENDBRANCH  17  18
ENDBRANCH  16  17
ENDBRANCH  15  16
ENDBRANCH  12  15
ENDBRANCH   6  11
ENDBRANCH   1   5
BRANCH   3  20
ATOM     20  C   UNL     1       5.728  -1.921   0.507  1.00  0.00     0.117 C 
BRANCH  20  21
ATOM     21  C   UNL     1       5.877  -0.474   0.944  1.00  0.00     0.042 C 
BRANCH  21  22
ATOM     22  C   UNL     1       7.276   0.068   0.787  1.00  0.00     0.118 C 
BRANCH  22  23
ATOM     23  N   UNL     1       7.708   0.117  -0.606  1.00  0.00    -0.352 N 
ATOM     24  C   UNL     1       8.153   1.162  -1.376  1.00  0.00     0.251 C 
ATOM     25  H   UNL     1       7.675  -0.749  -1.073  1.00  0.00     0.163 HD
ATOM     26  O   UNL     1       8.356   0.973  -2.577  1.00  0.00    -0.269 OA
BRANCH  24  27
ATOM     27  C   UNL     1       8.373   2.505  -0.796  1.00  0.00     0.039 A 
ATOM     28  C   UNL     1       8.182   3.636  -1.595  1.00  0.00     0.014 A 
ATOM     29  C   UNL     1       8.784   2.663   0.526  1.00  0.00     0.014 A 
ATOM     30  C   UNL     1       8.367   4.909  -1.049  1.00  0.00     0.010 A 
ATOM     31  C   UNL     1       8.792   3.918   1.111  1.00  0.00     0.010 A 
ATOM     32  C   UNL     1       8.646   5.059   0.319  1.00  0.00    -0.014 A 
BRANCH  32  33
ATOM     33  C   UNL     1       8.884   6.389   0.930  1.00  0.00     0.031 A 
ATOM     34  C   UNL     1      10.202   6.674   1.609  1.00  0.00     0.074 A 
ATOM     35  C   UNL     1       7.908   7.317   0.917  1.00  0.00     0.049 A 
ATOM     36  N   UNL     1      10.596   7.757   2.228  1.00  0.00    -0.248 NA
ATOM     37  C   UNL     1      11.195   5.584   1.635  1.00  0.00     0.031 C 
ATOM     38  C   UNL     1       6.571   7.138   0.346  1.00  0.00     0.029 A 
ATOM     39  N   UNL     1       7.898   8.603   1.390  1.00  0.00    -0.354 N 
ATOM     40  C   UNL     1      11.858   7.463   2.733  1.00  0.00     0.074 A 
ATOM     41  C   UNL     1      12.129   6.080   2.428  1.00  0.00     0.031 C 
ATOM     42  C   UNL     1       5.892   8.292   0.450  1.00  0.00     0.029 A 
ATOM     43  C   UNL     1       6.728   9.274   1.130  1.00  0.00     0.049 A 
ATOM     44  H   UNL     1       8.656   9.007   1.871  1.00  0.00     0.167 HD
ATOM     45  C   UNL     1      12.736   8.280   3.360  1.00  0.00     0.031 A 
ATOM     46  C   UNL     1       6.378  10.545   1.400  1.00  0.00     0.031 A 
ATOM     47  C   UNL     1      12.476   9.667   3.631  1.00  0.00     0.049 A 
ATOM     48  C   UNL     1       7.375  11.441   2.080  1.00  0.00     0.074 A 
ATOM     49  C   UNL     1      13.313  10.606   4.205  1.00  0.00     0.029 A 
ATOM     50  N   UNL     1      11.285  10.312   3.336  1.00  0.00    -0.354 N 
ATOM     51  N   UNL     1       8.593  11.169   2.487  1.00  0.00    -0.248 NA
ATOM     52  C   UNL     1       6.956  12.828   2.318  1.00  0.00     0.031 C 
ATOM     53  C   UNL     1      12.607  11.810   4.304  1.00  0.00     0.029 A 
ATOM     54  C   UNL     1      11.356  11.635   3.732  1.00  0.00     0.049 A 
ATOM     55  H   UNL     1      10.505   9.891   2.908  1.00  0.00     0.167 HD
ATOM     56  C   UNL     1       9.096  12.357   2.998  1.00  0.00     0.074 A 
ATOM     57  C   UNL     1       8.059  13.355   2.830  1.00  0.00     0.031 C 
ATOM     58  C   UNL     1      10.308  12.606   3.554  1.00  0.00     0.031 A 
BRANCH  45  59
ATOM     59  C   UNL     1      14.054   7.688   3.783  1.00  0.00    -0.014 A 
ATOM     60  C   UNL     1      15.003   7.263   2.837  1.00  0.00     0.009 A 
ATOM     61  C   UNL     1      14.356   7.558   5.147  1.00  0.00     0.009 A 
ATOM     62  C   UNL     1      16.202   6.677   3.247  1.00  0.00     0.001 A 
ATOM     63  C   UNL     1      15.572   7.005   5.555  1.00  0.00     0.001 A 
ATOM     64  C   UNL     1      16.488   6.554   4.606  1.00  0.00     0.000 A 
ENDBRANCH  45  59
BRANCH  46  65
ATOM     65  C   UNL     1       5.045  11.057   0.987  1.00  0.00    -0.014 A 
ATOM     66  C   UNL     1       4.933  12.008  -0.040  1.00  0.00     0.009 A 
ATOM     67  C   UNL     1       3.876  10.601   1.617  1.00  0.00     0.009 A 
ATOM     68  C   UNL     1       3.683  12.516  -0.403  1.00  0.00     0.001 A 
ATOM     69  C   UNL     1       2.625  11.087   1.229  1.00  0.00     0.001 A 
ATOM     70  C   UNL     1       2.531  12.052   0.228  1.00  0.00     0.000 A 
ENDBRANCH  46  65
BRANCH  58  71
ATOM     71  C   UNL     1      10.586  14.021   3.978  1.00  0.00    -0.014 A 
ATOM     72  C   UNL     1       9.933  14.600   5.076  1.00  0.00     0.009 A 
ATOM     73  C   UNL     1      11.540  14.775   3.276  1.00  0.00     0.009 A 
ATOM     74  C   UNL     1      10.195  15.924   5.434  1.00  0.00     0.001 A 
ATOM     75  C   UNL     1      11.827  16.085   3.658  1.00  0.00     0.001 A 
ATOM     76  C   UNL     1      11.144  16.663   4.727  1.00  0.00     0.000 A 
ENDBRANCH  58  71
ENDBRANCH  32  33
ENDBRANCH  24  27
ENDBRANCH  22  23
ENDBRANCH  21  22
ENDBRANCH  20  21
ENDBRANCH   3  20
TORSDOF 15
