REMARK SMILES CC(C)(C[N@H+]1C[C@@H]2C[NH2+]C[C@H]2C1(C)C)C(=O)NCCCNC(=O)c1ccc(-c2c3nc(c(-c4ccccc4)c4ccc([nH]4)c(-c4ccccc4)c4nc(c(-c5ccccc5)c5ccc2[nH]5)C=C4)C=C3)cc1
REMARK SMILES IDX 19 1 18 2 17 3 15 4 16 5 2 7 1 8 3 9 4 10 5 11 6 12 12 13
REMARK SMILES IDX 7 15 11 16 13 17 14 18 8 19 10 20 9 21 20 24 21 25 22 26
REMARK SMILES IDX 23 28 24 29 25 30 71 31 26 32 70 33 27 34 28 35 29 36 64 37
REMARK SMILES IDX 30 38 69 39 63 40 65 41 31 42 68 43 62 44 61 45 32 47 54 48
REMARK SMILES IDX 39 49 53 50 40 51 43 52 52 53 66 54 41 55 42 56 51 58 67 59
REMARK SMILES IDX 44 60 33 61 34 62 38 63 35 64 37 65 36 66 55 67 56 68 60 69
REMARK SMILES IDX 57 70 59 71 58 72 45 73 46 74 50 75 47 76 49 77 48 78
REMARK H PARENT 17 6 5 14 9 22 9 23 21 27 65 46 43 57
REMARK Flexibility Score: inf
ROOT
ATOM      1  C   UNL     1      -0.898  -0.546   5.702  1.00  0.00     0.042 C 
ENDROOT
BRANCH   1   2
ATOM      2  C   UNL     1       0.146   0.105   4.783  1.00  0.00     0.117 C 
BRANCH   2   3
ATOM      3  N   UNL     1       0.881  -0.801   3.921  1.00  0.00    -0.355 N 
ATOM      4  C   UNL     1       1.194  -0.844   2.603  1.00  0.00     0.231 C 
ATOM      5  O   UNL     1       1.992  -1.746   2.314  1.00  0.00    -0.274 OA
ATOM      6  H   UNL     1       1.240  -1.574   4.414  1.00  0.00     0.163 HD
BRANCH   4   7
ATOM      7  C   UNL     1       0.642   0.100   1.515  1.00  0.00     0.092 C 
ATOM      8  C   UNL     1       1.585  -0.013   0.286  1.00  0.00     0.027 C 
ATOM      9  C   UNL     1       0.773   1.583   1.939  1.00  0.00     0.027 C 
BRANCH   7  10
ATOM     10  C   UNL     1      -0.856  -0.184   1.138  1.00  0.00     0.279 C 
BRANCH  10  11
ATOM     11  N   UNL     1      -1.376  -1.441   0.601  1.00  0.00    -0.329 N 
ATOM     12  C   UNL     1      -0.693  -2.160  -0.484  1.00  0.00     0.272 C 
ATOM     13  C   UNL     1      -2.158  -2.405   1.429  1.00  0.00     0.101 C 
ATOM     14  H   UNL     1      -2.056  -0.809   0.179  1.00  0.00     0.348 HD
ATOM     15  C   UNL     1      -0.425  -3.465   0.209  1.00  0.00     0.114 C 
ATOM     16  C   UNL     1      -1.792  -3.747   0.788  1.00  0.00     0.119 C 
ATOM     17  C   UNL     1      -1.880  -2.404   2.925  1.00  0.00     0.079 C 
ATOM     18  C   UNL     1      -3.653  -2.103   1.222  1.00  0.00     0.079 C 
ATOM     19  C   UNL     1      -0.129  -4.775  -0.463  1.00  0.00     0.270 C 
ATOM     20  C   UNL     1      -1.510  -5.052   1.492  1.00  0.00     0.271 C 
ATOM     21  N   UNL     1      -0.623  -5.769   0.534  1.00  0.00    -0.345 N 
ATOM     22  H   UNL     1       0.166  -6.180   1.034  1.00  0.00     0.346 HD
ATOM     23  H   UNL     1      -1.134  -6.517   0.067  1.00  0.00     0.346 HD
ENDBRANCH  10  11
ENDBRANCH   7  10
ENDBRANCH   4   7
ENDBRANCH   2   3
ENDBRANCH   1   2
BRANCH   1  24
ATOM     24  C   UNL     1      -0.662  -1.991   6.141  1.00  0.00     0.118 C 
BRANCH  24  25
ATOM     25  N   UNL     1      -0.043  -2.077   7.451  1.00  0.00    -0.352 N 
ATOM     26  C   UNL     1      -0.589  -2.467   8.649  1.00  0.00     0.251 C 
ATOM     27  H   UNL     1       0.906  -1.817   7.486  1.00  0.00     0.163 HD
ATOM     28  O   UNL     1       0.035  -2.265   9.692  1.00  0.00    -0.269 OA
BRANCH  26  29
ATOM     29  C   UNL     1      -1.920  -3.116   8.718  1.00  0.00     0.039 A 
ATOM     30  C   UNL     1      -2.807  -2.714   9.723  1.00  0.00     0.014 A 
ATOM     31  C   UNL     1      -2.270  -4.173   7.871  1.00  0.00     0.014 A 
ATOM     32  C   UNL     1      -4.047  -3.346   9.861  1.00  0.00     0.010 A 
ATOM     33  C   UNL     1      -3.530  -4.771   7.978  1.00  0.00     0.010 A 
ATOM     34  C   UNL     1      -4.424  -4.376   8.985  1.00  0.00    -0.014 A 
BRANCH  34  35
ATOM     35  C   UNL     1      -5.728  -5.073   9.147  1.00  0.00     0.031 A 
ATOM     36  C   UNL     1      -5.772  -6.507   9.605  1.00  0.00     0.074 A 
ATOM     37  C   UNL     1      -6.879  -4.431   8.869  1.00  0.00     0.049 A 
ATOM     38  N   UNL     1      -6.810  -7.286   9.786  1.00  0.00    -0.248 NA
ATOM     39  C   UNL     1      -4.480  -7.153   9.883  1.00  0.00     0.031 C 
ATOM     40  C   UNL     1      -6.990  -3.047   8.409  1.00  0.00     0.029 A 
ATOM     41  N   UNL     1      -8.181  -4.866   8.938  1.00  0.00    -0.354 N 
ATOM     42  C   UNL     1      -6.297  -8.513  10.186  1.00  0.00     0.074 A 
ATOM     43  C   UNL     1      -4.855  -8.388  10.185  1.00  0.00     0.031 C 
ATOM     44  C   UNL     1      -8.289  -2.738   8.259  1.00  0.00     0.029 A 
ATOM     45  C   UNL     1      -9.100  -3.909   8.584  1.00  0.00     0.049 A 
ATOM     46  H   UNL     1      -8.431  -5.777   9.214  1.00  0.00     0.167 HD
ATOM     47  C   UNL     1      -6.960  -9.641  10.539  1.00  0.00     0.031 A 
ATOM     48  C   UNL     1     -10.444  -3.964   8.526  1.00  0.00     0.031 A 
ATOM     49  C   UNL     1      -8.392  -9.777  10.557  1.00  0.00     0.049 A 
ATOM     50  C   UNL     1     -11.157  -5.234   8.895  1.00  0.00     0.074 A 
ATOM     51  C   UNL     1      -9.150 -10.870  10.943  1.00  0.00     0.029 A 
ATOM     52  N   UNL     1      -9.283  -8.789  10.174  1.00  0.00    -0.354 N 
ATOM     53  N   UNL     1     -10.656  -6.371   9.310  1.00  0.00    -0.248 NA
ATOM     54  C   UNL     1     -12.624  -5.222   8.793  1.00  0.00     0.031 C 
ATOM     55  C   UNL     1     -10.501 -10.555  10.758  1.00  0.00     0.029 A 
ATOM     56  C   UNL     1     -10.583  -9.252  10.295  1.00  0.00     0.049 A 
ATOM     57  H   UNL     1      -9.030  -7.890   9.861  1.00  0.00     0.167 HD
ATOM     58  C   UNL     1     -11.745  -7.201   9.544  1.00  0.00     0.074 A 
ATOM     59  C   UNL     1     -12.934  -6.434   9.232  1.00  0.00     0.031 C 
ATOM     60  C   UNL     1     -11.758  -8.483   9.981  1.00  0.00     0.031 A 
BRANCH  47  61
ATOM     61  C   UNL     1      -6.130 -10.831  10.929  1.00  0.00    -0.014 A 
ATOM     62  C   UNL     1      -5.459 -10.872  12.162  1.00  0.00     0.009 A 
ATOM     63  C   UNL     1      -6.041 -11.934  10.067  1.00  0.00     0.009 A 
ATOM     64  C   UNL     1      -4.685 -11.982  12.507  1.00  0.00     0.001 A 
ATOM     65  C   UNL     1      -5.285 -13.052  10.425  1.00  0.00     0.001 A 
ATOM     66  C   UNL     1      -4.601 -13.071  11.640  1.00  0.00     0.000 A 
ENDBRANCH  47  61
BRANCH  48  67
ATOM     67  C   UNL     1     -11.217  -2.764   8.116  1.00  0.00    -0.014 A 
ATOM     68  C   UNL     1     -11.934  -2.026   9.069  1.00  0.00     0.009 A 
ATOM     69  C   UNL     1     -11.248  -2.358   6.774  1.00  0.00     0.009 A 
ATOM     70  C   UNL     1     -12.684  -0.914   8.682  1.00  0.00     0.001 A 
ATOM     71  C   UNL     1     -11.982  -1.233   6.393  1.00  0.00     0.001 A 
ATOM     72  C   UNL     1     -12.704  -0.516   7.346  1.00  0.00     0.000 A 
ENDBRANCH  48  67
BRANCH  60  73
ATOM     73  C   UNL     1     -13.099  -9.128  10.178  1.00  0.00    -0.014 A 
ATOM     74  C   UNL     1     -13.860  -9.568   9.085  1.00  0.00     0.009 A 
ATOM     75  C   UNL     1     -13.591  -9.328  11.477  1.00  0.00     0.009 A 
ATOM     76  C   UNL     1     -15.103 -10.171   9.288  1.00  0.00     0.001 A 
ATOM     77  C   UNL     1     -14.824  -9.951  11.678  1.00  0.00     0.001 A 
ATOM     78  C   UNL     1     -15.582 -10.365  10.584  1.00  0.00     0.000 A 
ENDBRANCH  60  73
ENDBRANCH  34  35
ENDBRANCH  26  29
ENDBRANCH  24  25
ENDBRANCH   1  24
TORSDOF 12
