REMARK SMILES Cc1cc(C[N@@H+]2CCCn3nc(CCC(=O)NCCCNC(=O)c4ccc(-c5c6nc(c(-c7ccccc7)c7ccc([nH]7)c(-c7ccccc7)c7nc(c(-c8ccccc8)c8ccc5[nH]8)C=C7)C=C6)cc4)cc3C2)ccc1F
REMARK SMILES IDX 15 1 16 2 17 3 14 5 13 6 12 7 73 8 10 9 72 10 11 11 74 12
REMARK SMILES IDX 6 13 5 15 4 16 1 17 2 18 3 19 77 20 76 21 78 22 75 23 7 24
REMARK SMILES IDX 9 26 8 27 18 29 19 30 20 31 21 32 22 33 23 35 24 36 25 37
REMARK SMILES IDX 71 38 26 39 70 40 27 41 28 42 29 43 64 44 30 45 69 46 63 47
REMARK SMILES IDX 65 48 31 49 68 50 62 51 61 52 32 54 54 55 39 56 53 57 40 58
REMARK SMILES IDX 43 59 52 60 66 61 41 62 42 63 51 65 67 66 44 67 33 68 34 69
REMARK SMILES IDX 38 70 35 71 37 72 36 73 55 74 56 75 60 76 57 77 59 78 58 79
REMARK SMILES IDX 45 80 46 81 50 82 47 83 49 84 48 85
REMARK H PARENT 17 4 6 14 21 34 65 53 43 64
REMARK Flexibility Score: 90.00
ROOT
ATOM      1  C   UNL     1      -0.275   2.031  -6.178  1.00  0.00     0.220 C 
ATOM      2  O   UNL     1       0.925   2.193  -5.947  1.00  0.00    -0.275 OA
ATOM      3  N   UNL     1      -1.128   3.055  -5.871  1.00  0.00    -0.356 N 
ATOM      4  H   UNL     1      -0.700   3.922  -5.684  1.00  0.00     0.163 HD
ENDROOT
BRANCH   1   5
ATOM      5  C   UNL     1      -0.782   0.762  -6.843  1.00  0.00     0.106 C 
BRANCH   5   6
ATOM      6  C   UNL     1      -0.519  -0.515  -6.034  1.00  0.00     0.068 C 
BRANCH   6   7
ATOM      7  C   UNL     1      -1.528  -0.757  -4.953  1.00  0.00     0.063 A 
ATOM      8  C   UNL     1      -2.762  -0.416  -3.165  1.00  0.00     0.093 A 
ATOM      9  N   UNL     1      -3.376  -1.260  -4.042  1.00  0.00    -0.263 N 
ATOM     10  C   UNL     1      -1.458  -0.323  -3.607  1.00  0.00     0.055 A 
ATOM     11  N   UNL     1      -2.700  -1.360  -5.210  1.00  0.00    -0.178 NA
BRANCH   8  12
ATOM     12  C   UNL     1      -3.539   0.311  -2.133  1.00  0.00     0.319 C 
BRANCH  12  13
ATOM     13  N   UNL     1      -3.948  -0.480  -1.000  1.00  0.00    -0.326 N 
ATOM     14  H   UNL     1      -4.882  -0.141  -0.768  1.00  0.00     0.348 HD
BRANCH  13  15
ATOM     15  C   UNL     1      -3.189  -0.191   0.214  1.00  0.00     0.299 C 
BRANCH  15  16
ATOM     16  C   UNL     1      -1.703  -0.476   0.152  1.00  0.00     0.007 A 
ATOM     17  C   UNL     1       1.603   1.384  -0.391  1.00  0.00     0.047 C 
ATOM     18  C   UNL     1       0.601   0.291  -0.163  1.00  0.00    -0.015 A 
ATOM     19  C   UNL     1      -0.779   0.544  -0.150  1.00  0.00     0.016 A 
ATOM     20  C   UNL     1       1.038  -1.009   0.088  1.00  0.00     0.126 A 
ATOM     21  C   UNL     1       0.139  -2.034   0.363  1.00  0.00     0.040 A 
ATOM     22  F   UNL     1       2.350  -1.280   0.090  1.00  0.00    -0.207 F 
ATOM     23  C   UNL     1      -1.227  -1.766   0.405  1.00  0.00     0.012 A 
ENDBRANCH  15  16
ENDBRANCH  13  15
BRANCH  13  24
ATOM     24  C   UNL     1      -4.283  -1.871  -1.272  1.00  0.00     0.264 CG0
ATOM     25  G   UNL     1      -5.243  -2.045  -2.466  1.00  0.00     0.000 G0
ENDBRANCH  13  24
ENDBRANCH  12  13
ENDBRANCH   8  12
BRANCH   9  26
ATOM     26  C   UNL     1      -4.691  -1.846  -3.896  1.00  0.00     0.150 C 
BRANCH  26  27
ATOM     27  C   UNL     1      -5.243  -2.045  -2.466  1.00  0.00     0.085 CG0
ATOM     28  G   UNL     1      -4.283  -1.871  -1.272  1.00  0.00     0.000 G0
ENDBRANCH  26  27
ENDBRANCH   9  26
ENDBRANCH   6   7
ENDBRANCH   5   6
ENDBRANCH   1   5
BRANCH   3  29
ATOM     29  C   UNL     1      -2.582   3.041  -5.782  1.00  0.00     0.117 C 
BRANCH  29  30
ATOM     30  C   UNL     1      -3.026   2.549  -4.416  1.00  0.00     0.042 C 
BRANCH  30  31
ATOM     31  C   UNL     1      -3.125   3.603  -3.336  1.00  0.00     0.118 C 
BRANCH  31  32
ATOM     32  N   UNL     1      -4.468   3.750  -2.747  1.00  0.00    -0.352 N 
ATOM     33  C   UNL     1      -4.864   4.069  -1.450  1.00  0.00     0.251 C 
ATOM     34  H   UNL     1      -5.210   3.598  -3.375  1.00  0.00     0.163 HD
ATOM     35  O   UNL     1      -6.054   4.013  -1.138  1.00  0.00    -0.269 OA
BRANCH  33  36
ATOM     36  C   UNL     1      -3.856   4.437  -0.430  1.00  0.00     0.039 A 
ATOM     37  C   UNL     1      -4.009   4.250   0.949  1.00  0.00     0.014 A 
ATOM     38  C   UNL     1      -2.654   4.910  -0.901  1.00  0.00     0.014 A 
ATOM     39  C   UNL     1      -2.907   4.486   1.785  1.00  0.00     0.010 A 
ATOM     40  C   UNL     1      -1.541   4.663  -0.173  1.00  0.00     0.010 A 
ATOM     41  C   UNL     1      -1.652   4.694   1.196  1.00  0.00    -0.014 A 
BRANCH  41  42
ATOM     42  C   UNL     1      -0.394   4.923   1.901  1.00  0.00     0.031 A 
ATOM     43  C   UNL     1      -0.128   3.997   3.022  1.00  0.00     0.074 A 
ATOM     44  C   UNL     1       0.572   5.752   1.420  1.00  0.00     0.049 A 
ATOM     45  N   UNL     1      -0.165   4.258   4.282  1.00  0.00    -0.248 NA
ATOM     46  C   UNL     1       0.079   2.579   2.723  1.00  0.00     0.031 C 
ATOM     47  C   UNL     1       0.596   6.553   0.177  1.00  0.00     0.029 A 
ATOM     48  N   UNL     1       1.826   5.963   1.899  1.00  0.00    -0.354 N 
ATOM     49  C   UNL     1       0.257   3.098   4.925  1.00  0.00     0.074 A 
ATOM     50  C   UNL     1       0.205   2.051   3.940  1.00  0.00     0.031 C 
ATOM     51  C   UNL     1       1.859   6.932  -0.117  1.00  0.00     0.029 A 
ATOM     52  C   UNL     1       2.691   6.614   1.022  1.00  0.00     0.049 A 
ATOM     53  H   UNL     1       2.103   5.677   2.799  1.00  0.00     0.167 HD
ATOM     54  C   UNL     1       0.877   3.162   6.134  1.00  0.00     0.031 A 
ATOM     55  C   UNL     1       3.994   6.921   1.232  1.00  0.00     0.031 A 
ATOM     56  C   UNL     1       0.732   4.473   6.723  1.00  0.00     0.049 A 
ATOM     57  C   UNL     1       4.189   6.931   2.698  1.00  0.00     0.074 A 
ATOM     58  C   UNL     1      -0.346   5.267   7.059  1.00  0.00     0.029 A 
ATOM     59  N   UNL     1       1.807   5.325   6.609  1.00  0.00    -0.354 N 
ATOM     60  N   UNL     1       3.617   7.800   3.481  1.00  0.00    -0.248 NA
ATOM     61  C   UNL     1       4.618   5.697   3.334  1.00  0.00     0.031 C 
ATOM     62  C   UNL     1       0.021   6.576   6.623  1.00  0.00     0.029 A 
ATOM     63  C   UNL     1       1.334   6.528   6.149  1.00  0.00     0.049 A 
ATOM     64  H   UNL     1       2.744   5.111   6.819  1.00  0.00     0.167 HD
ATOM     65  C   UNL     1       3.194   7.057   4.573  1.00  0.00     0.074 A 
ATOM     66  C   UNL     1       3.931   5.794   4.477  1.00  0.00     0.031 C 
ATOM     67  C   UNL     1       2.083   7.414   5.283  1.00  0.00     0.031 A 
BRANCH  54  68
ATOM     68  C   UNL     1       1.971   2.220   6.571  1.00  0.00    -0.014 A 
ATOM     69  C   UNL     1       2.515   2.393   7.857  1.00  0.00     0.009 A 
ATOM     70  C   UNL     1       2.680   1.382   5.691  1.00  0.00     0.009 A 
ATOM     71  C   UNL     1       3.751   1.839   8.206  1.00  0.00     0.001 A 
ATOM     72  C   UNL     1       3.896   0.793   6.051  1.00  0.00     0.001 A 
ATOM     73  C   UNL     1       4.447   1.050   7.298  1.00  0.00     0.000 A 
ENDBRANCH  54  68
BRANCH  55  74
ATOM     74  C   UNL     1       5.125   6.993   0.284  1.00  0.00    -0.014 A 
ATOM     75  C   UNL     1       6.312   7.658   0.634  1.00  0.00     0.009 A 
ATOM     76  C   UNL     1       5.156   6.145  -0.838  1.00  0.00     0.009 A 
ATOM     77  C   UNL     1       7.501   7.434  -0.074  1.00  0.00     0.001 A 
ATOM     78  C   UNL     1       6.345   5.920  -1.544  1.00  0.00     0.001 A 
ATOM     79  C   UNL     1       7.521   6.549  -1.150  1.00  0.00     0.000 A 
ENDBRANCH  55  74
BRANCH  67  80
ATOM     80  C   UNL     1       1.444   8.752   4.981  1.00  0.00    -0.014 A 
ATOM     81  C   UNL     1       0.912   9.097   3.724  1.00  0.00     0.009 A 
ATOM     82  C   UNL     1       1.234   9.636   6.049  1.00  0.00     0.009 A 
ATOM     83  C   UNL     1       0.218  10.299   3.540  1.00  0.00     0.001 A 
ATOM     84  C   UNL     1       0.524  10.826   5.871  1.00  0.00     0.001 A 
ATOM     85  C   UNL     1       0.021  11.161   4.617  1.00  0.00     0.000 A 
ENDBRANCH  67  80
ENDBRANCH  41  42
ENDBRANCH  33  36
ENDBRANCH  31  32
ENDBRANCH  30  31
ENDBRANCH  29  30
ENDBRANCH   3  29
TORSDOF 14
