REMARK SMILES CCc1[nH]nc(-n2cccc2)c1C(=O)NCCCNC(=O)c1ccc(-c2c3nc(c(-c4ccccc4)c4ccc([nH]4)c(-c4ccccc4)c4nc(c(-c5ccccc5)c5ccc2[nH]5)C=C4)C=C3)cc1
REMARK SMILES IDX 17 1 16 2 15 3 13 4 14 5 12 7 3 8 4 9 5 10 6 12 2 13 1 14
REMARK SMILES IDX 7 15 8 16 11 17 9 18 10 19 18 20 19 21 20 22 21 24 22 25
REMARK SMILES IDX 23 26 69 27 24 28 68 29 25 30 26 31 27 32 62 33 28 34 67 35
REMARK SMILES IDX 61 36 63 37 29 38 66 39 60 40 59 41 30 43 52 44 37 45 51 46
REMARK SMILES IDX 38 47 41 48 50 49 64 50 39 51 40 52 49 54 65 55 42 56 31 57
REMARK SMILES IDX 32 58 36 59 33 60 35 61 34 62 53 63 54 64 58 65 55 66 57 67
REMARK SMILES IDX 56 68 43 69 44 70 48 71 45 72 47 73 46 74
REMARK H PARENT 15 6 4 11 19 23 63 42 41 53
REMARK Flexibility Score: inf
ROOT
ATOM      1  C   UNL     1       0.302  -1.725  -2.886  1.00  0.00     0.042 C 
ENDROOT
BRANCH   1   2
ATOM      2  C   UNL     1      -0.814  -2.403  -2.089  1.00  0.00     0.118 C 
BRANCH   2   3
ATOM      3  N   UNL     1      -0.467  -3.753  -1.745  1.00  0.00    -0.352 N 
ATOM      4  C   UNL     1       0.109  -4.366  -0.672  1.00  0.00     0.256 C 
ATOM      5  O   UNL     1       0.051  -5.594  -0.781  1.00  0.00    -0.269 OA
ATOM      6  H   UNL     1      -0.702  -4.391  -2.457  1.00  0.00     0.163 HD
BRANCH   4   7
ATOM      7  C   UNL     1       0.698  -3.725   0.515  1.00  0.00     0.105 A 
ATOM      8  C   UNL     1       0.986  -2.397   0.887  1.00  0.00     0.050 A 
ATOM      9  N   UNL     1       1.443  -2.455   2.180  1.00  0.00    -0.280 N 
ATOM     10  N   UNL     1       1.419  -3.664   2.724  1.00  0.00    -0.156 NA
ATOM     11  H   UNL     1       1.764  -1.661   2.666  1.00  0.00     0.190 HD
ATOM     12  C   UNL     1       1.069  -4.453   1.705  1.00  0.00     0.171 A 
BRANCH   8  13
ATOM     13  C   UNL     1       0.892  -1.059   0.227  1.00  0.00     0.053 C 
ATOM     14  C   UNL     1       1.529   0.124   0.942  1.00  0.00     0.011 C 
ENDBRANCH   8  13
BRANCH  12  15
ATOM     15  N   UNL     1       1.081  -5.861   1.972  1.00  0.00    -0.307 N 
ATOM     16  C   UNL     1       1.501  -6.882   1.142  1.00  0.00     0.093 A 
ATOM     17  C   UNL     1       0.726  -6.443   3.178  1.00  0.00     0.093 A 
ATOM     18  C   UNL     1       1.284  -8.092   1.764  1.00  0.00     0.020 A 
ATOM     19  C   UNL     1       0.775  -7.813   3.050  1.00  0.00     0.020 A 
ENDBRANCH  12  15
ENDBRANCH   4   7
ENDBRANCH   2   3
ENDBRANCH   1   2
BRANCH   1  20
ATOM     20  C   UNL     1      -0.006  -1.685  -4.372  1.00  0.00     0.118 C 
BRANCH  20  21
ATOM     21  N   UNL     1      -1.117  -0.775  -4.612  1.00  0.00    -0.352 N 
ATOM     22  C   UNL     1      -1.853  -0.560  -5.746  1.00  0.00     0.251 C 
ATOM     23  H   UNL     1      -1.381  -0.228  -3.837  1.00  0.00     0.163 HD
ATOM     24  O   UNL     1      -2.535   0.446  -5.848  1.00  0.00    -0.269 OA
BRANCH  22  25
ATOM     25  C   UNL     1      -1.796  -1.531  -6.848  1.00  0.00     0.039 A 
ATOM     26  C   UNL     1      -1.730  -1.036  -8.153  1.00  0.00     0.014 A 
ATOM     27  C   UNL     1      -1.853  -2.906  -6.596  1.00  0.00     0.014 A 
ATOM     28  C   UNL     1      -1.654  -1.929  -9.209  1.00  0.00     0.010 A 
ATOM     29  C   UNL     1      -1.719  -3.800  -7.640  1.00  0.00     0.010 A 
ATOM     30  C   UNL     1      -1.622  -3.304  -8.941  1.00  0.00    -0.014 A 
BRANCH  30  31
ATOM     31  C   UNL     1      -1.383  -4.232 -10.056  1.00  0.00     0.031 A 
ATOM     32  C   UNL     1       0.091  -4.211 -10.486  1.00  0.00     0.074 A 
ATOM     33  C   UNL     1      -2.492  -4.880 -10.526  1.00  0.00     0.049 A 
ATOM     34  N   UNL     1       0.611  -4.375 -11.659  1.00  0.00    -0.248 NA
ATOM     35  C   UNL     1       1.143  -3.880  -9.482  1.00  0.00     0.031 C 
ATOM     36  C   UNL     1      -3.839  -4.801  -9.907  1.00  0.00     0.029 A 
ATOM     37  N   UNL     1      -2.739  -5.718 -11.590  1.00  0.00    -0.354 N 
ATOM     38  C   UNL     1       2.018  -4.323 -11.529  1.00  0.00     0.074 A 
ATOM     39  C   UNL     1       2.281  -3.915 -10.183  1.00  0.00     0.031 C 
ATOM     40  C   UNL     1      -4.752  -5.473 -10.639  1.00  0.00     0.029 A 
ATOM     41  C   UNL     1      -4.105  -6.039 -11.803  1.00  0.00     0.049 A 
ATOM     42  H   UNL     1      -2.019  -6.069 -12.162  1.00  0.00     0.167 HD
ATOM     43  C   UNL     1       2.866  -4.755 -12.512  1.00  0.00     0.031 A 
ATOM     44  C   UNL     1      -4.687  -6.654 -12.877  1.00  0.00     0.031 A 
ATOM     45  C   UNL     1       2.112  -5.164 -13.649  1.00  0.00     0.049 A 
ATOM     46  C   UNL     1      -3.580  -7.038 -13.763  1.00  0.00     0.074 A 
ATOM     47  C   UNL     1       1.392  -4.463 -14.581  1.00  0.00     0.029 A 
ATOM     48  N   UNL     1       1.712  -6.479 -13.662  1.00  0.00    -0.354 N 
ATOM     49  N   UNL     1      -2.751  -8.008 -13.535  1.00  0.00    -0.248 NA
ATOM     50  C   UNL     1      -3.299  -6.212 -14.943  1.00  0.00     0.031 C 
ATOM     51  C   UNL     1       0.230  -5.249 -14.730  1.00  0.00     0.029 A 
ATOM     52  C   UNL     1       0.416  -6.491 -14.110  1.00  0.00     0.049 A 
ATOM     53  H   UNL     1       2.252  -7.260 -13.402  1.00  0.00     0.167 HD
ATOM     54  C   UNL     1      -1.663  -7.638 -14.285  1.00  0.00     0.074 A 
ATOM     55  C   UNL     1      -2.162  -6.778 -15.338  1.00  0.00     0.031 C 
ATOM     56  C   UNL     1      -0.435  -7.583 -13.705  1.00  0.00     0.031 A 
BRANCH  43  57
ATOM     57  C   UNL     1       4.326  -5.117 -12.504  1.00  0.00    -0.014 A 
ATOM     58  C   UNL     1       4.936  -5.370 -13.760  1.00  0.00     0.009 A 
ATOM     59  C   UNL     1       5.016  -5.539 -11.365  1.00  0.00     0.009 A 
ATOM     60  C   UNL     1       6.099  -6.133 -13.879  1.00  0.00     0.001 A 
ATOM     61  C   UNL     1       6.208  -6.272 -11.482  1.00  0.00     0.001 A 
ATOM     62  C   UNL     1       6.724  -6.604 -12.735  1.00  0.00     0.000 A 
ENDBRANCH  43  57
BRANCH  44  63
ATOM     63  C   UNL     1      -6.076  -6.889 -13.407  1.00  0.00    -0.014 A 
ATOM     64  C   UNL     1      -7.270  -6.704 -12.707  1.00  0.00     0.009 A 
ATOM     65  C   UNL     1      -6.221  -7.281 -14.767  1.00  0.00     0.009 A 
ATOM     66  C   UNL     1      -8.519  -6.801 -13.359  1.00  0.00     0.001 A 
ATOM     67  C   UNL     1      -7.449  -7.335 -15.429  1.00  0.00     0.001 A 
ATOM     68  C   UNL     1      -8.607  -7.077 -14.723  1.00  0.00     0.000 A 
ENDBRANCH  44  63
BRANCH  56  69
ATOM     69  C   UNL     1      -0.287  -8.402 -12.424  1.00  0.00    -0.014 A 
ATOM     70  C   UNL     1      -0.610  -9.770 -12.426  1.00  0.00     0.009 A 
ATOM     71  C   UNL     1       0.025  -7.830 -11.177  1.00  0.00     0.009 A 
ATOM     72  C   UNL     1      -0.666 -10.517 -11.241  1.00  0.00     0.001 A 
ATOM     73  C   UNL     1      -0.024  -8.575  -9.986  1.00  0.00     0.001 A 
ATOM     74  C   UNL     1      -0.379  -9.919 -10.019  1.00  0.00     0.000 A 
ENDBRANCH  56  69
ENDBRANCH  30  31
ENDBRANCH  22  25
ENDBRANCH  20  21
ENDBRANCH   1  20
TORSDOF 12
