REMARK SMILES O=C(NCCCNC(=O)c1[nH]ncc1C[NH+]1CCC([N@H+]2CCC[C@@H](C(=O)N3CCCC3)C2)CC1)c1ccc(-c2c3nc(c(-c4ccccc4)c4ccc([nH]4)c(-c4ccccc4)c4nc(c(-c5ccccc5)c5ccc2[nH]5)C=C4)C=C3)cc1
REMARK SMILES IDX 6 1 5 2 4 3 3 4 1 5 2 6 35 8 36 9 82 10 37 11 81 12 38 13
REMARK SMILES IDX 39 14 40 15 75 16 41 17 80 18 74 19 76 20 42 21 79 22 73 23
REMARK SMILES IDX 72 24 43 26 65 27 50 28 64 29 51 30 54 31 63 32 77 33 52 34
REMARK SMILES IDX 53 35 62 37 78 38 55 39 44 40 45 41 49 42 46 43 48 44 47 45
REMARK SMILES IDX 66 46 67 47 71 48 68 49 70 50 69 51 56 52 57 53 61 54 58 55
REMARK SMILES IDX 60 56 59 57 7 58 8 59 9 61 10 62 11 63 14 64 12 65 13 67
REMARK SMILES IDX 15 68 16 69 17 70 34 71 18 73 33 74 19 75 20 76 21 77 32 78
REMARK SMILES IDX 22 80 24 81 23 82 25 83 26 84 27 85 28 86 31 87 29 88 30 89
REMARK H PARENT 3 7 76 25 54 36 7 60 11 66 16 72 20 79
REMARK Flexibility Score: inf
ROOT
ATOM      1  C   UNL     1       4.714   0.574  -3.529  1.00  0.00     0.118 C 
ENDROOT
BRANCH   1   2
ATOM      2  C   UNL     1       5.269   0.344  -2.127  1.00  0.00     0.042 C 
BRANCH   2   3
ATOM      3  C   UNL     1       4.677   1.262  -1.063  1.00  0.00     0.118 C 
BRANCH   3   4
ATOM      4  N   UNL     1       3.271   1.003  -0.792  1.00  0.00    -0.352 N 
ATOM      5  O   UNL     1       1.415   0.018  -0.022  1.00  0.00    -0.269 OA
ATOM      6  C   UNL     1       2.633   0.154   0.080  1.00  0.00     0.251 C 
ATOM      7  H   UNL     1       2.656   1.542  -1.341  1.00  0.00     0.163 HD
BRANCH   6   8
ATOM      8  C   UNL     1       3.360  -0.626   1.111  1.00  0.00     0.039 A 
ATOM      9  C   UNL     1       4.442  -0.104   1.814  1.00  0.00     0.014 A 
ATOM     10  C   UNL     1       2.883  -1.901   1.451  1.00  0.00     0.014 A 
ATOM     11  C   UNL     1       5.140  -0.900   2.719  1.00  0.00     0.010 A 
ATOM     12  C   UNL     1       3.524  -2.665   2.436  1.00  0.00     0.010 A 
ATOM     13  C   UNL     1       4.686  -2.187   3.052  1.00  0.00    -0.014 A 
BRANCH  13  14
ATOM     14  C   UNL     1       5.443  -2.967   4.069  1.00  0.00     0.031 A 
ATOM     15  C   UNL     1       6.158  -4.240   3.708  1.00  0.00     0.074 A 
ATOM     16  C   UNL     1       5.581  -2.456   5.309  1.00  0.00     0.049 A 
ATOM     17  N   UNL     1       6.996  -4.942   4.432  1.00  0.00    -0.248 NA
ATOM     18  C   UNL     1       5.897  -4.809   2.377  1.00  0.00     0.031 C 
ATOM     19  C   UNL     1       4.919  -1.246   5.803  1.00  0.00     0.029 A 
ATOM     20  N   UNL     1       6.386  -2.844   6.353  1.00  0.00    -0.354 N 
ATOM     21  C   UNL     1       7.327  -6.051   3.664  1.00  0.00     0.074 A 
ATOM     22  C   UNL     1       6.606  -5.929   2.416  1.00  0.00     0.031 C 
ATOM     23  C   UNL     1       5.437  -0.920   6.997  1.00  0.00     0.029 A 
ATOM     24  C   UNL     1       6.434  -1.918   7.368  1.00  0.00     0.049 A 
ATOM     25  H   UNL     1       6.878  -3.696   6.371  1.00  0.00     0.167 HD
ATOM     26  C   UNL     1       8.153  -7.080   3.969  1.00  0.00     0.031 A 
ATOM     27  C   UNL     1       7.221  -1.853   8.457  1.00  0.00     0.031 A 
ATOM     28  C   UNL     1       8.902  -7.197   5.190  1.00  0.00     0.049 A 
ATOM     29  C   UNL     1       8.217  -2.939   8.719  1.00  0.00     0.074 A 
ATOM     30  C   UNL     1       9.744  -8.219   5.595  1.00  0.00     0.029 A 
ATOM     31  N   UNL     1       8.918  -6.244   6.194  1.00  0.00    -0.354 N 
ATOM     32  N   UNL     1       8.496  -3.991   7.991  1.00  0.00    -0.248 NA
ATOM     33  C   UNL     1       8.998  -2.834   9.960  1.00  0.00     0.031 C 
ATOM     34  C   UNL     1      10.269  -7.884   6.850  1.00  0.00     0.029 A 
ATOM     35  C   UNL     1       9.764  -6.647   7.214  1.00  0.00     0.049 A 
ATOM     36  H   UNL     1       8.405  -5.404   6.185  1.00  0.00     0.167 HD
ATOM     37  C   UNL     1       9.463  -4.690   8.698  1.00  0.00     0.074 A 
ATOM     38  C   UNL     1       9.756  -3.921   9.890  1.00  0.00     0.031 C 
ATOM     39  C   UNL     1      10.036  -5.879   8.397  1.00  0.00     0.031 A 
BRANCH  26  40
ATOM     40  C   UNL     1       8.270  -8.182   2.961  1.00  0.00    -0.014 A 
ATOM     41  C   UNL     1       9.123  -8.062   1.855  1.00  0.00     0.009 A 
ATOM     42  C   UNL     1       7.539  -9.367   3.137  1.00  0.00     0.009 A 
ATOM     43  C   UNL     1       9.226  -9.103   0.930  1.00  0.00     0.001 A 
ATOM     44  C   UNL     1       7.655 -10.410   2.217  1.00  0.00     0.001 A 
ATOM     45  C   UNL     1       8.494 -10.276   1.113  1.00  0.00     0.000 A 
ENDBRANCH  26  40
BRANCH  27  46
ATOM     46  C   UNL     1       7.129  -0.679   9.356  1.00  0.00    -0.014 A 
ATOM     47  C   UNL     1       8.087   0.342   9.276  1.00  0.00     0.009 A 
ATOM     48  C   UNL     1       6.077  -0.558  10.272  1.00  0.00     0.009 A 
ATOM     49  C   UNL     1       7.994   1.462  10.103  1.00  0.00     0.001 A 
ATOM     50  C   UNL     1       5.980   0.570  11.088  1.00  0.00     0.001 A 
ATOM     51  C   UNL     1       6.939   1.577  11.006  1.00  0.00     0.000 A 
ENDBRANCH  27  46
BRANCH  39  52
ATOM     52  C   UNL     1      11.009  -6.429   9.393  1.00  0.00    -0.014 A 
ATOM     53  C   UNL     1      10.546  -7.106  10.531  1.00  0.00     0.009 A 
ATOM     54  C   UNL     1      12.388  -6.288   9.190  1.00  0.00     0.009 A 
ATOM     55  C   UNL     1      11.451  -7.614  11.463  1.00  0.00     0.001 A 
ATOM     56  C   UNL     1      13.290  -6.807  10.120  1.00  0.00     0.001 A 
ATOM     57  C   UNL     1      12.821  -7.464  11.257  1.00  0.00     0.000 A 
ENDBRANCH  39  52
ENDBRANCH  13  14
ENDBRANCH   6   8
ENDBRANCH   3   4
ENDBRANCH   2   3
ENDBRANCH   1   2
BRANCH   1  58
ATOM     58  N   UNL     1       4.970   1.918  -4.018  1.00  0.00    -0.351 N 
ATOM     59  C   UNL     1       5.710   2.353  -5.083  1.00  0.00     0.269 C 
ATOM     60  H   UNL     1       4.539   2.634  -3.497  1.00  0.00     0.163 HD
ATOM     61  O   UNL     1       6.006   3.546  -5.117  1.00  0.00    -0.268 OA
BRANCH  59  62
ATOM     62  C   UNL     1       6.149   1.439  -6.098  1.00  0.00     0.131 A 
ATOM     63  N   UNL     1       7.408   1.545  -6.629  1.00  0.00    -0.272 N 
ATOM     64  C   UNL     1       5.514   0.456  -6.852  1.00  0.00     0.057 A 
ATOM     65  N   UNL     1       7.689   0.622  -7.559  1.00  0.00    -0.183 NA
ATOM     66  H   UNL     1       8.050   2.238  -6.352  1.00  0.00     0.190 HD
ATOM     67  C   UNL     1       6.535  -0.026  -7.709  1.00  0.00     0.145 A 
BRANCH  64  68
ATOM     68  C   UNL     1       4.096  -0.011  -6.824  1.00  0.00     0.303 C 
BRANCH  68  69
ATOM     69  N   UNL     1       3.214   0.664  -7.779  1.00  0.00    -0.331 N 
ATOM     70  C   UNL     1       3.197   2.119  -7.644  1.00  0.00     0.268 C 
ATOM     71  C   UNL     1       3.383   0.228  -9.164  1.00  0.00     0.268 C 
ATOM     72  H   UNL     1       2.281   0.352  -7.509  1.00  0.00     0.348 HD
ATOM     73  C   UNL     1       2.074   2.732  -8.479  1.00  0.00     0.126 C 
ATOM     74  C   UNL     1       2.252   0.777 -10.041  1.00  0.00     0.126 C 
ATOM     75  C   UNL     1       2.200   2.312  -9.956  1.00  0.00     0.195 C 
BRANCH  75  76
ATOM     76  N   UNL     1       1.205   2.908 -10.885  1.00  0.00    -0.331 N 
ATOM     77  C   UNL     1      -0.188   2.561 -10.591  1.00  0.00     0.262 C 
ATOM     78  C   UNL     1       1.379   4.372 -10.951  1.00  0.00     0.275 C 
ATOM     79  H   UNL     1       1.397   2.495 -11.798  1.00  0.00     0.348 HD
ATOM     80  C   UNL     1      -1.113   3.147 -11.657  1.00  0.00     0.062 C 
ATOM     81  C   UNL     1       0.481   5.114 -11.932  1.00  0.00     0.134 C 
ATOM     82  C   UNL     1      -0.981   4.662 -11.737  1.00  0.00     0.025 C 
BRANCH  81  83
ATOM     83  C   UNL     1       0.476   6.654 -11.839  1.00  0.00     0.231 C 
ATOM     84  O   UNL     1      -0.268   7.278 -12.610  1.00  0.00    -0.274 OA
ATOM     85  N   UNL     1       1.121   7.339 -10.833  1.00  0.00    -0.342 N 
ATOM     86  C   UNL     1       2.451   7.173 -10.267  1.00  0.00     0.119 C 
ATOM     87  C   UNL     1       0.582   8.619 -10.399  1.00  0.00     0.119 C 
ATOM     88  C   UNL     1       2.330   7.854  -8.918  1.00  0.00     0.023 C 
ATOM     89  C   UNL     1       1.450   9.059  -9.223  1.00  0.00     0.023 C 
ENDBRANCH  81  83
ENDBRANCH  75  76
ENDBRANCH  68  69
ENDBRANCH  64  68
ENDBRANCH  59  62
ENDBRANCH   1  58
TORSDOF 14
