REMARK SMILES COC(=O)c1ccc([C@H]2CC(=O)Nc3c(C(=O)NCCCNC(=O)c4ccc(-c5c6nc(c(-c7ccccc7)c7ccc([nH]7)c(-c7ccccc7)c7nc(c(-c8ccccc8)c8ccc5[nH]8)C=C7)C=C6)cc4)cn(-c4ccccc4)c32)cc1
REMARK SMILES IDX 19 1 18 2 16 3 17 4 15 6 9 7 10 8 81 9 11 10 14 11 74 12
REMARK SMILES IDX 12 13 13 14 73 15 8 17 5 18 6 19 83 20 7 21 82 22 3 23 4 24
REMARK SMILES IDX 2 25 1 26 75 27 76 28 80 29 77 30 79 31 78 32 20 33 21 34
REMARK SMILES IDX 22 35 23 36 24 38 25 39 26 40 72 41 27 42 71 43 28 44 29 45
REMARK SMILES IDX 30 46 65 47 31 48 70 49 64 50 66 51 32 52 69 53 63 54 62 55
REMARK SMILES IDX 33 57 55 58 40 59 54 60 41 61 44 62 53 63 67 64 42 65 43 66
REMARK SMILES IDX 52 68 68 69 45 70 34 71 35 72 39 73 36 74 38 75 37 76 56 77
REMARK SMILES IDX 57 78 61 79 58 80 60 81 59 82 46 83 47 84 51 85 48 86 50 87
REMARK SMILES IDX 49 88
REMARK H PARENT 18 5 13 16 22 37 66 56 44 67
REMARK Flexibility Score: inf
ROOT
ATOM      1  C   UNL     1      -5.984   1.662  -7.673  1.00  0.00     0.118 C 
ENDROOT
BRANCH   1   2
ATOM      2  N   UNL     1      -5.303   0.860  -8.659  1.00  0.00    -0.352 N 
ATOM      3  C   UNL     1      -3.984   0.668  -8.963  1.00  0.00     0.254 C 
ATOM      4  O   UNL     1      -3.784  -0.183  -9.837  1.00  0.00    -0.269 OA
ATOM      5  H   UNL     1      -5.915   0.344  -9.232  1.00  0.00     0.163 HD
BRANCH   3   6
ATOM      6  C   UNL     1      -2.853   1.385  -8.353  1.00  0.00     0.081 A 
ATOM      7  C   UNL     1      -0.682   4.001  -6.778  1.00  0.00     0.078 C 
ATOM      8  C   UNL     1      -1.761   5.059  -6.503  1.00  0.00     0.115 C 
ATOM      9  C   UNL     1      -1.286   2.773  -7.420  1.00  0.00     0.055 A 
ATOM     10  C   UNL     1      -3.110   4.491  -6.178  1.00  0.00     0.225 C 
ATOM     11  C   UNL     1      -2.640   2.518  -7.507  1.00  0.00     0.076 A 
ATOM     12  N   UNL     1      -0.622   1.699  -7.982  1.00  0.00    -0.317 N 
ATOM     13  O   UNL     1      -3.922   5.090  -5.473  1.00  0.00    -0.275 OA
ATOM     14  N   UNL     1      -3.480   3.341  -6.805  1.00  0.00    -0.324 N 
ATOM     15  C   UNL     1      -1.558   0.956  -8.657  1.00  0.00     0.107 A 
ATOM     16  H   UNL     1      -4.428   3.080  -6.750  1.00  0.00     0.170 HD
BRANCH   7  17
ATOM     17  C   UNL     1       0.428   4.710  -7.556  1.00  0.00    -0.038 A 
ATOM     18  C   UNL     1       2.577   5.975  -8.865  1.00  0.00     0.060 A 
ATOM     19  C   UNL     1       2.298   6.271  -7.528  1.00  0.00     0.016 A 
ATOM     20  C   UNL     1       1.747   5.096  -9.564  1.00  0.00     0.016 A 
ATOM     21  C   UNL     1       1.241   5.634  -6.877  1.00  0.00     0.005 A 
ATOM     22  C   UNL     1       0.656   4.508  -8.925  1.00  0.00     0.005 A 
BRANCH  18  23
ATOM     23  C   UNL     1       3.773   6.596  -9.491  1.00  0.00     0.337 C 
ATOM     24  O   UNL     1       4.638   7.176  -8.865  1.00  0.00    -0.246 OA
BRANCH  23  25
ATOM     25  O   UNL     1       3.737   6.418 -10.837  1.00  0.00    -0.465 OA
ATOM     26  C   UNL     1       4.854   6.976 -11.525  1.00  0.00     0.282 C 
ENDBRANCH  23  25
ENDBRANCH  18  23
ENDBRANCH   7  17
BRANCH  12  27
ATOM     27  C   UNL     1       0.773   1.460  -7.987  1.00  0.00     0.045 A 
ATOM     28  C   UNL     1       1.518   1.650  -6.819  1.00  0.00     0.026 A 
ATOM     29  C   UNL     1       1.413   1.171  -9.199  1.00  0.00     0.026 A 
ATOM     30  C   UNL     1       2.909   1.635  -6.878  1.00  0.00     0.002 A 
ATOM     31  C   UNL     1       2.807   1.192  -9.255  1.00  0.00     0.002 A 
ATOM     32  C   UNL     1       3.552   1.438  -8.100  1.00  0.00     0.000 A 
ENDBRANCH  12  27
ENDBRANCH   3   6
ENDBRANCH   1   2
BRANCH   1  33
ATOM     33  C   UNL     1      -6.199   3.105  -8.159  1.00  0.00     0.042 C 
BRANCH  33  34
ATOM     34  C   UNL     1      -7.598   3.309  -8.695  1.00  0.00     0.118 C 
BRANCH  34  35
ATOM     35  N   UNL     1      -8.577   3.293  -7.602  1.00  0.00    -0.352 N 
ATOM     36  C   UNL     1      -9.951   3.357  -7.672  1.00  0.00     0.251 C 
ATOM     37  H   UNL     1      -8.200   3.228  -6.695  1.00  0.00     0.163 HD
ATOM     38  O   UNL     1     -10.620   3.669  -6.696  1.00  0.00    -0.269 OA
BRANCH  36  39
ATOM     39  C   UNL     1     -10.596   3.046  -8.953  1.00  0.00     0.039 A 
ATOM     40  C   UNL     1     -11.670   3.803  -9.424  1.00  0.00     0.014 A 
ATOM     41  C   UNL     1     -10.056   2.010  -9.708  1.00  0.00     0.014 A 
ATOM     42  C   UNL     1     -12.143   3.551 -10.705  1.00  0.00     0.010 A 
ATOM     43  C   UNL     1     -10.386   1.901 -11.029  1.00  0.00     0.010 A 
ATOM     44  C   UNL     1     -11.476   2.612 -11.509  1.00  0.00    -0.014 A 
BRANCH  44  45
ATOM     45  C   UNL     1     -11.839   2.429 -12.904  1.00  0.00     0.031 A 
ATOM     46  C   UNL     1     -11.807   3.676 -13.711  1.00  0.00     0.074 A 
ATOM     47  C   UNL     1     -11.976   1.208 -13.464  1.00  0.00     0.049 A 
ATOM     48  N   UNL     1     -12.812   4.290 -14.237  1.00  0.00    -0.248 NA
ATOM     49  C   UNL     1     -10.532   4.406 -13.828  1.00  0.00     0.031 C 
ATOM     50  C   UNL     1     -11.705  -0.111 -12.877  1.00  0.00     0.029 A 
ATOM     51  N   UNL     1     -12.274   0.897 -14.750  1.00  0.00    -0.354 N 
ATOM     52  C   UNL     1     -12.282   5.377 -14.924  1.00  0.00     0.074 A 
ATOM     53  C   UNL     1     -10.913   5.499 -14.493  1.00  0.00     0.031 C 
ATOM     54  C   UNL     1     -11.593  -1.030 -13.863  1.00  0.00     0.029 A 
ATOM     55  C   UNL     1     -11.963  -0.406 -15.118  1.00  0.00     0.049 A 
ATOM     56  H   UNL     1     -12.678   1.543 -15.373  1.00  0.00     0.167 HD
ATOM     57  C   UNL     1     -12.942   5.929 -15.980  1.00  0.00     0.031 A 
ATOM     58  C   UNL     1     -11.970  -0.913 -16.376  1.00  0.00     0.031 A 
ATOM     59  C   UNL     1     -14.316   5.495 -16.029  1.00  0.00     0.049 A 
ATOM     60  C   UNL     1     -12.796  -0.004 -17.208  1.00  0.00     0.074 A 
ATOM     61  C   UNL     1     -15.387   5.574 -15.160  1.00  0.00     0.029 A 
ATOM     62  N   UNL     1     -14.626   4.490 -16.916  1.00  0.00    -0.354 N 
ATOM     63  N   UNL     1     -14.079   0.145 -17.041  1.00  0.00    -0.248 NA
ATOM     64  C   UNL     1     -12.120   1.095 -17.881  1.00  0.00     0.031 C 
ATOM     65  C   UNL     1     -16.020   4.298 -15.250  1.00  0.00     0.029 A 
ATOM     66  C   UNL     1     -15.362   3.556 -16.233  1.00  0.00     0.049 A 
ATOM     67  H   UNL     1     -14.368   4.449 -17.865  1.00  0.00     0.167 HD
ATOM     68  C   UNL     1     -14.293   1.511 -17.165  1.00  0.00     0.074 A 
ATOM     69  C   UNL     1     -13.065   2.034 -17.767  1.00  0.00     0.031 C 
ATOM     70  C   UNL     1     -15.312   2.136 -16.502  1.00  0.00     0.031 A 
BRANCH  57  71
ATOM     71  C   UNL     1     -12.247   6.501 -17.190  1.00  0.00    -0.014 A 
ATOM     72  C   UNL     1     -13.033   7.058 -18.216  1.00  0.00     0.009 A 
ATOM     73  C   UNL     1     -10.895   6.256 -17.493  1.00  0.00     0.009 A 
ATOM     74  C   UNL     1     -12.512   7.275 -19.497  1.00  0.00     0.001 A 
ATOM     75  C   UNL     1     -10.360   6.511 -18.758  1.00  0.00     0.001 A 
ATOM     76  C   UNL     1     -11.178   6.992 -19.770  1.00  0.00     0.000 A 
ENDBRANCH  57  71
BRANCH  58  77
ATOM     77  C   UNL     1     -11.072  -1.932 -16.964  1.00  0.00    -0.014 A 
ATOM     78  C   UNL     1     -11.388  -2.555 -18.182  1.00  0.00     0.009 A 
ATOM     79  C   UNL     1      -9.763  -2.095 -16.470  1.00  0.00     0.009 A 
ATOM     80  C   UNL     1     -10.421  -3.277 -18.896  1.00  0.00     0.001 A 
ATOM     81  C   UNL     1      -8.799  -2.817 -17.182  1.00  0.00     0.001 A 
ATOM     82  C   UNL     1      -9.123  -3.396 -18.403  1.00  0.00     0.000 A 
ENDBRANCH  58  77
BRANCH  70  83
ATOM     83  C   UNL     1     -16.334   1.283 -15.787  1.00  0.00    -0.014 A 
ATOM     84  C   UNL     1     -16.013   0.392 -14.746  1.00  0.00     0.009 A 
ATOM     85  C   UNL     1     -17.690   1.516 -16.062  1.00  0.00     0.009 A 
ATOM     86  C   UNL     1     -17.019  -0.262 -14.025  1.00  0.00     0.001 A 
ATOM     87  C   UNL     1     -18.694   0.879 -15.329  1.00  0.00     0.001 A 
ATOM     88  C   UNL     1     -18.359  -0.014 -14.314  1.00  0.00     0.000 A 
ENDBRANCH  70  83
ENDBRANCH  44  45
ENDBRANCH  36  39
ENDBRANCH  34  35
ENDBRANCH  33  34
ENDBRANCH   1  33
TORSDOF 14
