REMARK SMILES [NH3+][C@@H](CC(=O)NCCCNC(=O)c1ccc(-c2c3nc(c(-c4ccccc4)c4ccc([nH]4)c(-c4ccccc4)c4nc(c(-c5ccccc5)c5ccc2[nH]5)C=C4)C=C3)cc1)[NH+]1CCOCC1
REMARK SMILES IDX 8 1 7 2 6 3 4 4 5 5 3 7 2 8 1 9 61 13 62 14 66 15 63 17
REMARK SMILES IDX 65 18 64 19 9 20 10 21 11 22 12 24 13 25 14 26 60 27 15 28
REMARK SMILES IDX 59 29 16 30 17 31 18 32 53 33 19 34 58 35 52 36 54 37 20 38
REMARK SMILES IDX 57 39 51 40 50 41 21 43 43 44 28 45 42 46 29 47 32 48 41 49
REMARK SMILES IDX 55 50 30 51 31 52 40 54 56 55 33 56 22 57 23 58 27 59 24 60
REMARK SMILES IDX 26 61 25 62 44 63 45 64 49 65 46 66 48 67 47 68 34 69 35 70
REMARK SMILES IDX 39 71 36 72 38 73 37 74
REMARK H PARENT 6 6 1 10 1 11 1 12 61 16 10 23 54 42 32 53
REMARK Flexibility Score: inf
ROOT
ATOM      1  C   UNL     1       1.589  -0.831  -2.342  1.00  0.00     0.042 C 
ENDROOT
BRANCH   1   2
ATOM      2  C   UNL     1       2.487   0.334  -1.937  1.00  0.00     0.117 C 
BRANCH   2   3
ATOM      3  N   UNL     1       1.809   1.611  -2.027  1.00  0.00    -0.356 N 
ATOM      4  C   UNL     1       1.401   2.481  -1.070  1.00  0.00     0.232 C 
ATOM      5  O   UNL     1       0.962   3.564  -1.462  1.00  0.00    -0.275 OA
ATOM      6  H   UNL     1       1.608   1.898  -2.947  1.00  0.00     0.163 HD
BRANCH   4   7
ATOM      7  C   UNL     1       1.559   2.198   0.401  1.00  0.00     0.232 C 
BRANCH   7   8
ATOM      8  C   UNL     1       0.559   1.295   1.145  1.00  0.00     0.389 C 
BRANCH   8   9
ATOM      9  N   UNL     1       0.946  -0.104   1.212  1.00  0.00    -0.308 N 
ATOM     10  H   UNL     1       1.953  -0.172   1.356  1.00  0.00     0.349 HD
ATOM     11  H   UNL     1       0.696  -0.569   0.339  1.00  0.00     0.349 HD
ATOM     12  H   UNL     1       0.460  -0.555   1.987  1.00  0.00     0.349 HD
ENDBRANCH   8   9
BRANCH   8  13
ATOM     13  N   UNL     1      -0.870   1.367   0.940  1.00  0.00    -0.282 N 
ATOM     14  C   UNL     1      -1.539   0.752  -0.203  1.00  0.00     0.296 C 
ATOM     15  C   UNL     1      -1.529   2.614   1.349  1.00  0.00     0.296 C 
ATOM     16  H   UNL     1      -1.027   0.640   1.638  1.00  0.00     0.353 HD
ATOM     17  C   UNL     1      -1.969   1.720  -1.313  1.00  0.00     0.222 C 
ATOM     18  C   UNL     1      -1.949   3.527   0.188  1.00  0.00     0.222 C 
ATOM     19  O   UNL     1      -2.720   2.818  -0.789  1.00  0.00    -0.370 OA
ENDBRANCH   8  13
ENDBRANCH   7   8
ENDBRANCH   4   7
ENDBRANCH   2   3
ENDBRANCH   1   2
BRANCH   1  20
ATOM     20  C   UNL     1       0.945  -0.697  -3.719  1.00  0.00     0.118 C 
BRANCH  20  21
ATOM     21  N   UNL     1       1.903  -0.835  -4.800  1.00  0.00    -0.352 N 
ATOM     22  C   UNL     1       2.137  -1.881  -5.658  1.00  0.00     0.251 C 
ATOM     23  H   UNL     1       2.480  -0.050  -4.942  1.00  0.00     0.163 HD
ATOM     24  O   UNL     1       3.143  -1.861  -6.363  1.00  0.00    -0.269 OA
BRANCH  22  25
ATOM     25  C   UNL     1       1.218  -3.041  -5.737  1.00  0.00     0.039 A 
ATOM     26  C   UNL     1       1.771  -4.318  -5.886  1.00  0.00     0.014 A 
ATOM     27  C   UNL     1      -0.171  -2.888  -5.744  1.00  0.00     0.014 A 
ATOM     28  C   UNL     1       0.938  -5.437  -5.990  1.00  0.00     0.010 A 
ATOM     29  C   UNL     1      -1.001  -4.011  -5.776  1.00  0.00     0.010 A 
ATOM     30  C   UNL     1      -0.456  -5.296  -5.910  1.00  0.00    -0.014 A 
BRANCH  30  31
ATOM     31  C   UNL     1      -1.353  -6.479  -5.991  1.00  0.00     0.031 A 
ATOM     32  C   UNL     1      -2.300  -6.637  -7.151  1.00  0.00     0.074 A 
ATOM     33  C   UNL     1      -1.351  -7.394  -5.002  1.00  0.00     0.049 A 
ATOM     34  N   UNL     1      -3.204  -7.562  -7.360  1.00  0.00    -0.248 NA
ATOM     35  C   UNL     1      -2.237  -5.612  -8.206  1.00  0.00     0.031 C 
ATOM     36  C   UNL     1      -0.502  -7.355  -3.810  1.00  0.00     0.029 A 
ATOM     37  N   UNL     1      -2.095  -8.537  -4.843  1.00  0.00    -0.354 N 
ATOM     38  C   UNL     1      -3.826  -7.221  -8.555  1.00  0.00     0.074 A 
ATOM     39  C   UNL     1      -3.225  -5.985  -9.007  1.00  0.00     0.031 C 
ATOM     40  C   UNL     1      -0.757  -8.436  -3.054  1.00  0.00     0.029 A 
ATOM     41  C   UNL     1      -1.811  -9.223  -3.687  1.00  0.00     0.049 A 
ATOM     42  H   UNL     1      -2.768  -8.837  -5.495  1.00  0.00     0.167 HD
ATOM     43  C   UNL     1      -4.798  -7.883  -9.226  1.00  0.00     0.031 A 
ATOM     44  C   UNL     1      -2.343 -10.354  -3.186  1.00  0.00     0.031 A 
ATOM     45  C   UNL     1      -5.387  -9.123  -8.798  1.00  0.00     0.049 A 
ATOM     46  C   UNL     1      -3.427 -11.063  -3.947  1.00  0.00     0.074 A 
ATOM     47  C   UNL     1      -6.351  -9.886  -9.435  1.00  0.00     0.029 A 
ATOM     48  N   UNL     1      -5.063  -9.786  -7.626  1.00  0.00    -0.354 N 
ATOM     49  N   UNL     1      -3.975 -10.745  -5.095  1.00  0.00    -0.248 NA
ATOM     50  C   UNL     1      -3.961 -12.294  -3.345  1.00  0.00     0.031 C 
ATOM     51  C   UNL     1      -6.633 -10.996  -8.632  1.00  0.00     0.029 A 
ATOM     52  C   UNL     1      -5.815 -10.943  -7.516  1.00  0.00     0.049 A 
ATOM     53  H   UNL     1      -4.396  -9.480  -6.969  1.00  0.00     0.167 HD
ATOM     54  C   UNL     1      -4.896 -11.749  -5.364  1.00  0.00     0.074 A 
ATOM     55  C   UNL     1      -4.825 -12.692  -4.268  1.00  0.00     0.031 C 
ATOM     56  C   UNL     1      -5.728 -11.876  -6.425  1.00  0.00     0.031 A 
BRANCH  43  57
ATOM     57  C   UNL     1      -5.289  -7.276 -10.509  1.00  0.00    -0.014 A 
ATOM     58  C   UNL     1      -4.505  -7.313 -11.673  1.00  0.00     0.009 A 
ATOM     59  C   UNL     1      -6.569  -6.703 -10.568  1.00  0.00     0.009 A 
ATOM     60  C   UNL     1      -4.983  -6.764 -12.865  1.00  0.00     0.001 A 
ATOM     61  C   UNL     1      -7.053  -6.176 -11.767  1.00  0.00     0.001 A 
ATOM     62  C   UNL     1      -6.258  -6.200 -12.912  1.00  0.00     0.000 A 
ENDBRANCH  43  57
BRANCH  44  63
ATOM     63  C   UNL     1      -1.855 -10.900  -1.894  1.00  0.00    -0.014 A 
ATOM     64  C   UNL     1      -1.079 -12.069  -1.866  1.00  0.00     0.009 A 
ATOM     65  C   UNL     1      -2.183 -10.271  -0.684  1.00  0.00     0.009 A 
ATOM     66  C   UNL     1      -0.666 -12.614  -0.648  1.00  0.00     0.001 A 
ATOM     67  C   UNL     1      -1.746 -10.804   0.531  1.00  0.00     0.001 A 
ATOM     68  C   UNL     1      -0.997 -11.980   0.548  1.00  0.00     0.000 A 
ENDBRANCH  44  63
BRANCH  56  69
ATOM     69  C   UNL     1      -6.598 -13.098  -6.471  1.00  0.00    -0.014 A 
ATOM     70  C   UNL     1      -7.727 -13.217  -5.646  1.00  0.00     0.009 A 
ATOM     71  C   UNL     1      -6.302 -14.128  -7.377  1.00  0.00     0.009 A 
ATOM     72  C   UNL     1      -8.527 -14.360  -5.708  1.00  0.00     0.001 A 
ATOM     73  C   UNL     1      -7.116 -15.258  -7.453  1.00  0.00     0.001 A 
ATOM     74  C   UNL     1      -8.223 -15.377  -6.614  1.00  0.00     0.000 A 
ENDBRANCH  56  69
ENDBRANCH  30  31
ENDBRANCH  22  25
ENDBRANCH  20  21
ENDBRANCH   1  20
TORSDOF 13
