REMARK SMILES Cc1n[nH]c(C(=O)N[C@@H](CC(C)C)C(=O)NCCCNC(=O)c2ccc(-c3c4nc(c(-c5ccccc5)c5ccc([nH]5)c(-c5ccccc5)c5nc(c(-c6ccccc6)c6ccc3[nH]6)C=C5)C=C4)cc2)n1
REMARK SMILES IDX 18 1 17 2 16 3 14 4 15 5 9 7 8 8 6 9 7 10 5 12 1 13 2 14
REMARK SMILES IDX 3 15 71 16 4 17 10 19 11 20 12 21 13 22 19 23 20 24 21 25
REMARK SMILES IDX 22 27 23 28 24 29 70 30 25 31 69 32 26 33 27 34 28 35 63 36
REMARK SMILES IDX 29 37 68 38 62 39 64 40 30 41 67 42 61 43 60 44 31 46 53 47
REMARK SMILES IDX 38 48 52 49 39 50 42 51 51 52 65 53 40 54 41 55 50 57 66 58
REMARK SMILES IDX 43 59 32 60 33 61 37 62 34 63 36 64 35 65 54 66 55 67 59 68
REMARK SMILES IDX 56 69 58 70 57 71 44 72 45 73 49 74 46 75 48 76 47 77
REMARK H PARENT 16 6 8 11 4 18 20 26 64 45 42 56
REMARK Flexibility Score: inf
ROOT
ATOM      1  C   UNL     1       1.428   9.066  -2.810  1.00  0.00     0.042 C 
ENDROOT
BRANCH   1   2
ATOM      2  C   UNL     1       0.257   8.145  -3.127  1.00  0.00     0.117 C 
BRANCH   2   3
ATOM      3  N   UNL     1       0.574   6.986  -3.945  1.00  0.00    -0.354 N 
ATOM      4  C   UNL     1      -0.050   5.773  -4.024  1.00  0.00     0.242 C 
ATOM      5  O   UNL     1       0.152   5.102  -5.043  1.00  0.00    -0.273 OA
ATOM      6  H   UNL     1       1.358   7.091  -4.530  1.00  0.00     0.163 HD
BRANCH   4   7
ATOM      7  C   UNL     1      -1.017   5.234  -2.942  1.00  0.00     0.172 C 
BRANCH   7   8
ATOM      8  N   UNL     1      -0.408   5.322  -1.615  1.00  0.00    -0.338 N 
ATOM      9  C   UNL     1       0.346   4.458  -0.855  1.00  0.00     0.289 C 
ATOM     10  O   UNL     1       1.000   5.034   0.022  1.00  0.00    -0.266 OA
ATOM     11  H   UNL     1      -0.573   6.185  -1.170  1.00  0.00     0.164 HD
BRANCH   9  12
ATOM     12  C   UNL     1       0.343   3.011  -0.999  1.00  0.00     0.214 A 
ATOM     13  C   UNL     1       1.147  -0.236   0.196  1.00  0.00     0.092 C 
ATOM     14  C   UNL     1       0.672   0.956  -0.535  1.00  0.00     0.148 A 
ATOM     15  N   UNL     1      -0.169   0.893  -1.569  1.00  0.00    -0.159 NA
ATOM     16  N   UNL     1       1.023   2.225  -0.173  1.00  0.00    -0.207 NA
ATOM     17  N   UNL     1      -0.353   2.195  -1.844  1.00  0.00    -0.255 N 
ATOM     18  H   UNL     1      -0.925   2.525  -2.574  1.00  0.00     0.192 HD
ENDBRANCH   9  12
ENDBRANCH   7   8
BRANCH   7  19
ATOM     19  C   UNL     1      -2.497   5.688  -2.949  1.00  0.00     0.038 C 
BRANCH  19  20
ATOM     20  C   UNL     1      -2.853   7.160  -3.226  1.00  0.00    -0.015 C 
ATOM     21  C   UNL     1      -2.811   7.497  -4.720  1.00  0.00     0.007 C 
ATOM     22  C   UNL     1      -4.249   7.505  -2.693  1.00  0.00     0.007 C 
ENDBRANCH  19  20
ENDBRANCH   7  19
ENDBRANCH   4   7
ENDBRANCH   2   3
ENDBRANCH   1   2
BRANCH   1  23
ATOM     23  C   UNL     1       1.791   9.971  -3.974  1.00  0.00     0.118 C 
BRANCH  23  24
ATOM     24  N   UNL     1       0.740  10.928  -4.334  1.00  0.00    -0.352 N 
ATOM     25  C   UNL     1       0.737  11.798  -5.415  1.00  0.00     0.251 C 
ATOM     26  H   UNL     1      -0.049  10.957  -3.746  1.00  0.00     0.163 HD
ATOM     27  O   UNL     1      -0.050  12.721  -5.506  1.00  0.00    -0.269 OA
BRANCH  25  28
ATOM     28  C   UNL     1       1.756  11.561  -6.451  1.00  0.00     0.039 A 
ATOM     29  C   UNL     1       2.753  12.507  -6.695  1.00  0.00     0.014 A 
ATOM     30  C   UNL     1       1.828  10.273  -6.967  1.00  0.00     0.014 A 
ATOM     31  C   UNL     1       3.908  12.100  -7.359  1.00  0.00     0.010 A 
ATOM     32  C   UNL     1       3.030   9.843  -7.480  1.00  0.00     0.010 A 
ATOM     33  C   UNL     1       4.072  10.748  -7.703  1.00  0.00    -0.014 A 
BRANCH  33  34
ATOM     34  C   UNL     1       5.367  10.255  -8.182  1.00  0.00     0.031 A 
ATOM     35  C   UNL     1       6.583  10.651  -7.406  1.00  0.00     0.074 A 
ATOM     36  C   UNL     1       5.492   9.305  -9.133  1.00  0.00     0.049 A 
ATOM     37  N   UNL     1       7.589  11.355  -7.816  1.00  0.00    -0.248 NA
ATOM     38  C   UNL     1       6.679  10.250  -5.994  1.00  0.00     0.031 C 
ATOM     39  C   UNL     1       4.435   8.548  -9.816  1.00  0.00     0.029 A 
ATOM     40  N   UNL     1       6.630   8.721  -9.601  1.00  0.00    -0.354 N 
ATOM     41  C   UNL     1       8.523  11.360  -6.780  1.00  0.00     0.074 A 
ATOM     42  C   UNL     1       7.862  10.764  -5.644  1.00  0.00     0.031 C 
ATOM     43  C   UNL     1       4.968   7.451 -10.394  1.00  0.00     0.029 A 
ATOM     44  C   UNL     1       6.410   7.549 -10.306  1.00  0.00     0.049 A 
ATOM     45  H   UNL     1       7.527   9.098  -9.451  1.00  0.00     0.167 HD
ATOM     46  C   UNL     1       9.834  11.678  -6.987  1.00  0.00     0.031 A 
ATOM     47  C   UNL     1       7.341   6.704 -10.799  1.00  0.00     0.031 A 
ATOM     48  C   UNL     1      10.041  12.297  -8.269  1.00  0.00     0.049 A 
ATOM     49  C   UNL     1       8.599   7.464 -10.939  1.00  0.00     0.074 A 
ATOM     50  C   UNL     1       9.596  13.444  -8.893  1.00  0.00     0.029 A 
ATOM     51  N   UNL     1      10.561  11.507  -9.265  1.00  0.00    -0.354 N 
ATOM     52  N   UNL     1       8.747   8.454 -11.773  1.00  0.00    -0.248 NA
ATOM     53  C   UNL     1       9.585   7.396  -9.873  1.00  0.00     0.031 C 
ATOM     54  C   UNL     1       9.421  13.071 -10.259  1.00  0.00     0.029 A 
ATOM     55  C   UNL     1       9.816  11.737 -10.391  1.00  0.00     0.049 A 
ATOM     56  H   UNL     1      11.326  10.893  -9.185  1.00  0.00     0.167 HD
ATOM     57  C   UNL     1       9.551   9.364 -11.104  1.00  0.00     0.074 A 
ATOM     58  C   UNL     1      10.145   8.602 -10.009  1.00  0.00     0.031 C 
ATOM     59  C   UNL     1       9.437  10.707 -11.334  1.00  0.00     0.031 A 
BRANCH  46  60
ATOM     60  C   UNL     1      10.995  11.103  -6.208  1.00  0.00    -0.014 A 
ATOM     61  C   UNL     1      12.299  11.557  -6.497  1.00  0.00     0.009 A 
ATOM     62  C   UNL     1      10.896   9.943  -5.419  1.00  0.00     0.009 A 
ATOM     63  C   UNL     1      13.433  10.844  -6.088  1.00  0.00     0.001 A 
ATOM     64  C   UNL     1      12.028   9.252  -4.972  1.00  0.00     0.001 A 
ATOM     65  C   UNL     1      13.296   9.685  -5.332  1.00  0.00     0.000 A 
ENDBRANCH  46  60
BRANCH  47  66
ATOM     66  C   UNL     1       7.235   5.245 -10.971  1.00  0.00    -0.014 A 
ATOM     67  C   UNL     1       8.062   4.556 -11.866  1.00  0.00     0.009 A 
ATOM     68  C   UNL     1       6.466   4.488 -10.065  1.00  0.00     0.009 A 
ATOM     69  C   UNL     1       8.142   3.158 -11.834  1.00  0.00     0.001 A 
ATOM     70  C   UNL     1       6.543   3.094 -10.034  1.00  0.00     0.001 A 
ATOM     71  C   UNL     1       7.393   2.429 -10.910  1.00  0.00     0.000 A 
ENDBRANCH  47  66
BRANCH  59  72
ATOM     72  C   UNL     1       8.592  11.156 -12.502  1.00  0.00    -0.014 A 
ATOM     73  C   UNL     1       7.210  10.907 -12.577  1.00  0.00     0.009 A 
ATOM     74  C   UNL     1       9.166  11.999 -13.464  1.00  0.00     0.009 A 
ATOM     75  C   UNL     1       6.432  11.463 -13.597  1.00  0.00     0.001 A 
ATOM     76  C   UNL     1       8.386  12.571 -14.472  1.00  0.00     0.001 A 
ATOM     77  C   UNL     1       7.021  12.301 -14.541  1.00  0.00     0.000 A 
ENDBRANCH  59  72
ENDBRANCH  33  34
ENDBRANCH  25  28
ENDBRANCH  23  24
ENDBRANCH   1  23
TORSDOF 14
