REMARK SMILES C[NH2+]CCCC(=O)N[C@H]1C=C[C@@H](C(=O)NCCCNC(=O)c2ccc(-c3c4nc(c(-c5ccccc5)c5ccc([nH]5)c(-c5ccccc5)c5nc(c(-c6ccccc6)c6ccc3[nH]6)C=C5)C=C4)cc2)C1
REMARK SMILES IDX 13 1 14 2 15 3 12 5 9 6 10 7 70 8 11 9 8 10 6 11 7 12 5 14
REMARK SMILES IDX 4 15 3 16 2 17 1 18 16 21 17 22 18 23 19 24 20 25 21 27
REMARK SMILES IDX 22 28 23 29 69 30 24 31 68 32 25 33 26 34 27 35 62 36 28 37
REMARK SMILES IDX 67 38 61 39 63 40 29 41 66 42 60 43 59 44 30 46 52 47 37 48
REMARK SMILES IDX 51 49 38 50 41 51 50 52 64 53 39 54 40 55 49 57 65 58 42 59
REMARK SMILES IDX 31 60 32 61 36 62 33 63 35 64 34 65 53 66 54 67 58 68 55 69
REMARK SMILES IDX 57 70 56 71 43 72 44 73 48 74 45 75 47 76 46 77
REMARK H PARENT 15 4 8 13 2 19 2 20 19 26 63 45 41 56
REMARK Flexibility Score: inf
ROOT
ATOM      1  C   UNL     1      -1.030  -2.818  -3.257  1.00  0.00     0.227 C 
ATOM      2  O   UNL     1      -0.721  -4.015  -3.313  1.00  0.00    -0.274 OA
ATOM      3  N   UNL     1      -2.221  -2.542  -2.673  1.00  0.00    -0.356 N 
ATOM      4  H   UNL     1      -2.741  -3.343  -2.431  1.00  0.00     0.163 HD
ENDROOT
BRANCH   1   5
ATOM      5  C   UNL     1      -0.045  -1.766  -3.784  1.00  0.00     0.103 C 
ATOM      6  C   UNL     1      -0.145   0.706  -4.013  1.00  0.00     0.106 C 
ATOM      7  C   UNL     1       0.671   0.264  -2.857  1.00  0.00    -0.006 C 
ATOM      8  C   UNL     1      -0.552  -0.632  -4.680  1.00  0.00     0.047 C 
ATOM      9  C   UNL     1       0.709  -1.063  -2.706  1.00  0.00    -0.016 C 
BRANCH   6  10
ATOM     10  N   UNL     1      -1.339   1.473  -3.683  1.00  0.00    -0.350 N 
ATOM     11  C   UNL     1      -1.685   2.417  -2.779  1.00  0.00     0.220 C 
ATOM     12  O   UNL     1      -2.716   3.054  -3.025  1.00  0.00    -0.275 OA
ATOM     13  H   UNL     1      -2.092   1.244  -4.274  1.00  0.00     0.164 HD
BRANCH  11  14
ATOM     14  C   UNL     1      -0.949   2.652  -1.482  1.00  0.00     0.106 C 
BRANCH  14  15
ATOM     15  C   UNL     1      -1.599   1.899  -0.311  1.00  0.00     0.071 C 
BRANCH  15  16
ATOM     16  C   UNL     1      -0.864   0.657   0.205  1.00  0.00     0.260 C 
BRANCH  16  17
ATOM     17  N   UNL     1       0.499   0.952   0.647  1.00  0.00    -0.349 N 
ATOM     18  C   UNL     1       1.132  -0.222   1.238  1.00  0.00     0.330 C 
ATOM     19  H   UNL     1       1.049   1.258  -0.155  1.00  0.00     0.346 HD
ATOM     20  H   UNL     1       0.455   1.684   1.356  1.00  0.00     0.346 HD
ENDBRANCH  16  17
ENDBRANCH  15  16
ENDBRANCH  14  15
ENDBRANCH  11  14
ENDBRANCH   6  10
ENDBRANCH   1   5
BRANCH   3  21
ATOM     21  C   UNL     1      -2.877  -1.296  -2.336  1.00  0.00     0.117 C 
BRANCH  21  22
ATOM     22  C   UNL     1      -4.028  -0.960  -3.275  1.00  0.00     0.042 C 
BRANCH  22  23
ATOM     23  C   UNL     1      -5.170  -1.969  -3.248  1.00  0.00     0.118 C 
BRANCH  23  24
ATOM     24  N   UNL     1      -5.941  -1.932  -2.014  1.00  0.00    -0.352 N 
ATOM     25  C   UNL     1      -7.261  -1.610  -1.802  1.00  0.00     0.251 C 
ATOM     26  H   UNL     1      -5.439  -2.176  -1.203  1.00  0.00     0.163 HD
ATOM     27  O   UNL     1      -7.682  -1.494  -0.653  1.00  0.00    -0.269 OA
BRANCH  25  28
ATOM     28  C   UNL     1      -8.173  -1.372  -2.943  1.00  0.00     0.039 A 
ATOM     29  C   UNL     1      -9.059  -0.292  -2.886  1.00  0.00     0.014 A 
ATOM     30  C   UNL     1      -8.166  -2.206  -4.064  1.00  0.00     0.014 A 
ATOM     31  C   UNL     1      -9.872  -0.001  -3.985  1.00  0.00     0.010 A 
ATOM     32  C   UNL     1      -8.908  -1.861  -5.191  1.00  0.00     0.010 A 
ATOM     33  C   UNL     1      -9.768  -0.753  -5.166  1.00  0.00    -0.014 A 
BRANCH  33  34
ATOM     34  C   UNL     1     -10.537  -0.394  -6.386  1.00  0.00     0.031 A 
ATOM     35  C   UNL     1     -11.532  -1.359  -6.972  1.00  0.00     0.074 A 
ATOM     36  C   UNL     1     -10.290   0.775  -7.012  1.00  0.00     0.049 A 
ATOM     37  N   UNL     1     -12.238  -1.255  -8.070  1.00  0.00    -0.248 NA
ATOM     38  C   UNL     1     -11.744  -2.620  -6.242  1.00  0.00     0.031 C 
ATOM     39  C   UNL     1      -9.327   1.787  -6.572  1.00  0.00     0.029 A 
ATOM     40  N   UNL     1     -10.824   1.306  -8.161  1.00  0.00    -0.354 N 
ATOM     41  C   UNL     1     -12.960  -2.437  -8.170  1.00  0.00     0.074 A 
ATOM     42  C   UNL     1     -12.568  -3.267  -7.052  1.00  0.00     0.031 C 
ATOM     43  C   UNL     1      -9.363   2.827  -7.420  1.00  0.00     0.029 A 
ATOM     44  C   UNL     1     -10.309   2.537  -8.491  1.00  0.00     0.049 A 
ATOM     45  H   UNL     1     -11.511   0.848  -8.697  1.00  0.00     0.167 HD
ATOM     46  C   UNL     1     -13.882  -2.795  -9.095  1.00  0.00     0.031 A 
ATOM     47  C   UNL     1     -10.560   3.338  -9.544  1.00  0.00     0.031 A 
ATOM     48  C   UNL     1     -14.277  -1.969 -10.206  1.00  0.00     0.049 A 
ATOM     49  C   UNL     1     -11.560   2.901 -10.578  1.00  0.00     0.074 A 
ATOM     50  C   UNL     1     -15.240  -2.222 -11.167  1.00  0.00     0.029 A 
ATOM     51  N   UNL     1     -13.726  -0.733 -10.506  1.00  0.00    -0.354 N 
ATOM     52  N   UNL     1     -12.283   1.808 -10.621  1.00  0.00    -0.248 NA
ATOM     53  C   UNL     1     -11.785   3.815 -11.708  1.00  0.00     0.031 C 
ATOM     54  C   UNL     1     -15.229  -1.167 -12.085  1.00  0.00     0.029 A 
ATOM     55  C   UNL     1     -14.307  -0.226 -11.657  1.00  0.00     0.049 A 
ATOM     56  H   UNL     1     -13.027  -0.283  -9.980  1.00  0.00     0.167 HD
ATOM     57  C   UNL     1     -13.068   1.917 -11.761  1.00  0.00     0.074 A 
ATOM     58  C   UNL     1     -12.745   3.189 -12.373  1.00  0.00     0.031 C 
ATOM     59  C   UNL     1     -13.976   1.042 -12.256  1.00  0.00     0.031 A 
BRANCH  46  60
ATOM     60  C   UNL     1     -14.522  -4.149  -8.951  1.00  0.00    -0.014 A 
ATOM     61  C   UNL     1     -15.405  -4.430  -7.895  1.00  0.00     0.009 A 
ATOM     62  C   UNL     1     -14.269  -5.147  -9.905  1.00  0.00     0.009 A 
ATOM     63  C   UNL     1     -15.988  -5.694  -7.776  1.00  0.00     0.001 A 
ATOM     64  C   UNL     1     -14.879  -6.399  -9.802  1.00  0.00     0.001 A 
ATOM     65  C   UNL     1     -15.729  -6.675  -8.732  1.00  0.00     0.000 A 
ENDBRANCH  46  60
BRANCH  47  66
ATOM     66  C   UNL     1      -9.856   4.642  -9.675  1.00  0.00    -0.014 A 
ATOM     67  C   UNL     1     -10.560   5.849  -9.538  1.00  0.00     0.009 A 
ATOM     68  C   UNL     1      -8.481   4.689  -9.951  1.00  0.00     0.009 A 
ATOM     69  C   UNL     1      -9.908   7.073  -9.703  1.00  0.00     0.001 A 
ATOM     70  C   UNL     1      -7.824   5.915 -10.083  1.00  0.00     0.001 A 
ATOM     71  C   UNL     1      -8.540   7.105  -9.970  1.00  0.00     0.000 A 
ENDBRANCH  47  66
BRANCH  59  72
ATOM     72  C   UNL     1     -14.716   1.443 -13.502  1.00  0.00    -0.014 A 
ATOM     73  C   UNL     1     -14.077   1.488 -14.751  1.00  0.00     0.009 A 
ATOM     74  C   UNL     1     -16.087   1.736 -13.430  1.00  0.00     0.009 A 
ATOM     75  C   UNL     1     -14.790   1.848 -15.896  1.00  0.00     0.001 A 
ATOM     76  C   UNL     1     -16.805   2.064 -14.581  1.00  0.00     0.001 A 
ATOM     77  C   UNL     1     -16.154   2.130 -15.811  1.00  0.00     0.000 A 
ENDBRANCH  59  72
ENDBRANCH  33  34
ENDBRANCH  25  28
ENDBRANCH  23  24
ENDBRANCH  22  23
ENDBRANCH  21  22
ENDBRANCH   3  21
TORSDOF 15
