REMARK SMILES Cc1nn(CC(=O)NCCCNC(=O)c2ccc(-c3c4nc(c(-c5ccccc5)c5ccc([nH]5)c(-c5ccccc5)c5nc(c(-c6ccccc6)c6ccc3[nH]6)C=C5)C=C4)cc2)c(C)c1NC(=O)C(=O)Nc1ccc(F)cc1
REMARK SMILES IDX 9 1 8 2 6 3 7 4 5 6 4 7 1 8 2 9 3 10 65 11 63 12 64 13 66 14
REMARK SMILES IDX 67 15 68 17 69 18 70 19 71 20 72 22 73 23 78 24 74 25 77 26
REMARK SMILES IDX 75 27 76 28 10 29 11 30 12 31 13 32 14 34 15 35 16 36 62 37
REMARK SMILES IDX 17 38 61 39 18 40 19 41 20 42 55 43 21 44 60 45 54 46 56 47
REMARK SMILES IDX 22 48 59 49 53 50 52 51 23 53 45 54 30 55 44 56 31 57 34 58
REMARK SMILES IDX 43 59 57 60 32 61 33 62 42 64 58 65 35 66 24 67 25 68 29 69
REMARK SMILES IDX 26 70 28 71 27 72 46 73 47 74 51 75 48 76 50 77 49 78 36 79
REMARK SMILES IDX 37 80 41 81 38 82 40 83 39 84
REMARK H PARENT 8 5 66 16 71 21 12 33 56 52 34 63
REMARK Flexibility Score: inf
ROOT
ATOM      1  C   UNL     1      -3.523   0.312   4.324  1.00  0.00     0.117 C 
ENDROOT
BRANCH   1   2
ATOM      2  N   UNL     1      -3.339  -1.124   4.437  1.00  0.00    -0.354 N 
ATOM      3  C   UNL     1      -2.224  -1.883   4.649  1.00  0.00     0.241 C 
ATOM      4  O   UNL     1      -2.414  -3.098   4.790  1.00  0.00    -0.273 OA
ATOM      5  H   UNL     1      -4.169  -1.645   4.343  1.00  0.00     0.163 HD
BRANCH   3   6
ATOM      6  C   UNL     1      -0.842  -1.301   4.861  1.00  0.00     0.244 C 
BRANCH   6   7
ATOM      7  N   UNL     1      -0.392  -0.398   3.816  1.00  0.00    -0.258 N 
ATOM      8  C   UNL     1       0.713  -0.129   0.474  1.00  0.00     0.071 C 
ATOM      9  C   UNL     1       0.286   0.107   1.879  1.00  0.00     0.083 A 
ATOM     10  N   UNL     1      -0.101  -0.929   2.619  1.00  0.00    -0.175 NA
ATOM     11  C   UNL     1       0.240   1.338   2.607  1.00  0.00     0.086 A 
ATOM     12  C   UNL     1      -0.161   0.967   3.885  1.00  0.00     0.060 A 
ATOM     13  C   UNL     1      -0.405   1.718   5.145  1.00  0.00     0.069 C 
BRANCH  11  14
ATOM     14  N   UNL     1       0.533   2.552   2.005  1.00  0.00    -0.315 N 
ATOM     15  C   UNL     1       0.730   3.837   2.442  1.00  0.00     0.314 C 
ATOM     16  H   UNL     1       0.621   2.472   1.028  1.00  0.00     0.170 HD
ATOM     17  O   UNL     1       0.931   4.729   1.621  1.00  0.00    -0.263 OA
BRANCH  15  18
ATOM     18  C   UNL     1       0.830   4.144   3.920  1.00  0.00     0.314 C 
ATOM     19  O   UNL     1       1.735   3.631   4.573  1.00  0.00    -0.263 OA
ATOM     20  N   UNL     1      -0.090   4.980   4.536  1.00  0.00    -0.318 N 
ATOM     21  H   UNL     1      -0.591   4.645   5.315  1.00  0.00     0.170 HD
BRANCH  20  22
ATOM     22  C   UNL     1      -0.331   6.291   4.086  1.00  0.00     0.041 A 
ATOM     23  C   UNL     1       0.126   7.319   4.922  1.00  0.00     0.029 A 
ATOM     24  C   UNL     1      -0.908   6.597   2.854  1.00  0.00     0.029 A 
ATOM     25  C   UNL     1       0.123   8.636   4.476  1.00  0.00     0.041 A 
ATOM     26  C   UNL     1      -0.929   7.925   2.417  1.00  0.00     0.041 A 
ATOM     27  C   UNL     1      -0.388   8.926   3.218  1.00  0.00     0.123 A 
ATOM     28  F   UNL     1      -0.345  10.185   2.767  1.00  0.00    -0.207 F 
ENDBRANCH  20  22
ENDBRANCH  15  18
ENDBRANCH  11  14
ENDBRANCH   6   7
ENDBRANCH   3   6
ENDBRANCH   1   2
BRANCH   1  29
ATOM     29  C   UNL     1      -3.452   0.835   2.886  1.00  0.00     0.042 C 
BRANCH  29  30
ATOM     30  C   UNL     1      -4.718   0.564   2.093  1.00  0.00     0.118 C 
BRANCH  30  31
ATOM     31  N   UNL     1      -5.864   1.347   2.566  1.00  0.00    -0.352 N 
ATOM     32  C   UNL     1      -7.192   1.212   2.214  1.00  0.00     0.251 C 
ATOM     33  H   UNL     1      -5.661   2.058   3.216  1.00  0.00     0.163 HD
ATOM     34  O   UNL     1      -7.989   2.129   2.393  1.00  0.00    -0.269 OA
BRANCH  32  35
ATOM     35  C   UNL     1      -7.633  -0.052   1.605  1.00  0.00     0.039 A 
ATOM     36  C   UNL     1      -8.479  -0.070   0.495  1.00  0.00     0.014 A 
ATOM     37  C   UNL     1      -7.108  -1.232   2.122  1.00  0.00     0.014 A 
ATOM     38  C   UNL     1      -8.701  -1.283  -0.153  1.00  0.00     0.010 A 
ATOM     39  C   UNL     1      -7.177  -2.382   1.379  1.00  0.00     0.010 A 
ATOM     40  C   UNL     1      -8.014  -2.433   0.272  1.00  0.00    -0.014 A 
BRANCH  40  41
ATOM     41  C   UNL     1      -8.107  -3.678  -0.481  1.00  0.00     0.031 A 
ATOM     42  C   UNL     1      -7.865  -3.561  -1.943  1.00  0.00     0.074 A 
ATOM     43  C   UNL     1      -8.239  -4.896   0.085  1.00  0.00     0.049 A 
ATOM     44  N   UNL     1      -8.748  -3.621  -2.882  1.00  0.00    -0.248 NA
ATOM     45  C   UNL     1      -6.512  -3.229  -2.413  1.00  0.00     0.031 C 
ATOM     46  C   UNL     1      -8.176  -5.271   1.503  1.00  0.00     0.029 A 
ATOM     47  N   UNL     1      -8.370  -6.099  -0.534  1.00  0.00    -0.354 N 
ATOM     48  C   UNL     1      -8.050  -3.523  -4.080  1.00  0.00     0.074 A 
ATOM     49  C   UNL     1      -6.707  -3.129  -3.731  1.00  0.00     0.031 C 
ATOM     50  C   UNL     1      -8.031  -6.610   1.613  1.00  0.00     0.029 A 
ATOM     51  C   UNL     1      -8.197  -7.195   0.297  1.00  0.00     0.049 A 
ATOM     52  H   UNL     1      -8.571  -6.186  -1.494  1.00  0.00     0.167 HD
ATOM     53  C   UNL     1      -8.575  -3.994  -5.245  1.00  0.00     0.031 A 
ATOM     54  C   UNL     1      -8.189  -8.496  -0.072  1.00  0.00     0.031 A 
ATOM     55  C   UNL     1      -9.976  -4.309  -5.109  1.00  0.00     0.049 A 
ATOM     56  C   UNL     1      -8.895  -8.588  -1.369  1.00  0.00     0.074 A 
ATOM     57  C   UNL     1     -11.114  -3.595  -4.794  1.00  0.00     0.029 A 
ATOM     58  N   UNL     1     -10.294  -5.633  -4.917  1.00  0.00    -0.354 N 
ATOM     59  N   UNL     1     -10.169  -8.357  -1.509  1.00  0.00    -0.248 NA
ATOM     60  C   UNL     1      -8.111  -8.520  -2.590  1.00  0.00     0.031 C 
ATOM     61  C   UNL     1     -11.884  -4.477  -3.978  1.00  0.00     0.029 A 
ATOM     62  C   UNL     1     -11.207  -5.696  -3.898  1.00  0.00     0.049 A 
ATOM     63  H   UNL     1      -9.931  -6.396  -5.421  1.00  0.00     0.167 HD
ATOM     64  C   UNL     1     -10.273  -7.683  -2.717  1.00  0.00     0.074 A 
ATOM     65  C   UNL     1      -8.997  -7.920  -3.389  1.00  0.00     0.031 C 
ATOM     66  C   UNL     1     -11.269  -6.772  -2.931  1.00  0.00     0.031 A 
BRANCH  53  67
ATOM     67  C   UNL     1      -7.758  -4.557  -6.380  1.00  0.00    -0.014 A 
ATOM     68  C   UNL     1      -8.419  -4.945  -7.561  1.00  0.00     0.009 A 
ATOM     69  C   UNL     1      -6.426  -4.986  -6.230  1.00  0.00     0.009 A 
ATOM     70  C   UNL     1      -7.804  -5.779  -8.502  1.00  0.00     0.001 A 
ATOM     71  C   UNL     1      -5.795  -5.784  -7.188  1.00  0.00     0.001 A 
ATOM     72  C   UNL     1      -6.494  -6.205  -8.310  1.00  0.00     0.000 A 
ENDBRANCH  53  67
BRANCH  54  73
ATOM     73  C   UNL     1      -7.402  -9.612   0.485  1.00  0.00    -0.014 A 
ATOM     74  C   UNL     1      -7.755 -10.942   0.212  1.00  0.00     0.009 A 
ATOM     75  C   UNL     1      -6.133  -9.368   1.043  1.00  0.00     0.009 A 
ATOM     76  C   UNL     1      -6.849 -11.986   0.438  1.00  0.00     0.001 A 
ATOM     77  C   UNL     1      -5.229 -10.411   1.269  1.00  0.00     0.001 A 
ATOM     78  C   UNL     1      -5.581 -11.718   0.949  1.00  0.00     0.000 A 
ENDBRANCH  54  73
BRANCH  66  79
ATOM     79  C   UNL     1     -12.403  -6.716  -1.935  1.00  0.00    -0.014 A 
ATOM     80  C   UNL     1     -12.223  -6.413  -0.573  1.00  0.00     0.009 A 
ATOM     81  C   UNL     1     -13.714  -6.836  -2.419  1.00  0.00     0.009 A 
ATOM     82  C   UNL     1     -13.323  -6.268   0.281  1.00  0.00     0.001 A 
ATOM     83  C   UNL     1     -14.812  -6.669  -1.572  1.00  0.00     0.001 A 
ATOM     84  C   UNL     1     -14.617  -6.392  -0.221  1.00  0.00     0.000 A 
ENDBRANCH  66  79
ENDBRANCH  40  41
ENDBRANCH  32  35
ENDBRANCH  30  31
ENDBRANCH  29  30
ENDBRANCH   1  29
TORSDOF 14
