REMARK SMILES CC(C)N1C[C@@H](C(=O)N2CCC(C(=O)NCCCNC(=O)c3ccc(-c4c5nc(c(-c6ccccc6)c6ccc([nH]6)c(-c6ccccc6)c6nc(c(-c7ccccc7)c7ccc4[nH]7)C=C6)C=C5)cc3)CC2)CC1=O
REMARK SMILES IDX 17 1 16 2 15 3 13 4 14 5 12 7 7 8 8 9 9 10 10 11 71 12 11 13
REMARK SMILES IDX 70 14 6 15 4 16 5 17 73 18 72 19 74 20 2 21 1 22 3 23 18 24
REMARK SMILES IDX 19 25 20 26 21 28 22 29 23 30 69 31 24 32 68 33 25 34 26 35
REMARK SMILES IDX 27 36 62 37 28 38 67 39 61 40 63 41 29 42 66 43 60 44 59 45
REMARK SMILES IDX 30 47 52 48 37 49 51 50 38 51 41 52 50 53 64 54 39 55 40 56
REMARK SMILES IDX 49 58 65 59 42 60 31 61 32 62 36 63 33 64 35 65 34 66 53 67
REMARK SMILES IDX 54 68 58 69 55 70 57 71 56 72 43 73 44 74 48 75 45 76 47 77
REMARK SMILES IDX 46 78
REMARK H PARENT 15 6 19 27 63 46 41 57
REMARK Flexibility Score: inf
ROOT
ATOM      1  C   UNL     1      -8.953  -2.509  -0.010  1.00  0.00     0.042 C 
ENDROOT
BRANCH   1   2
ATOM      2  C   UNL     1      -8.434  -1.314   0.775  1.00  0.00     0.117 C 
BRANCH   2   3
ATOM      3  N   UNL     1      -8.435  -1.561   2.211  1.00  0.00    -0.356 N 
ATOM      4  C   UNL     1      -7.413  -1.710   3.096  1.00  0.00     0.223 C 
ATOM      5  O   UNL     1      -7.699  -1.954   4.270  1.00  0.00    -0.275 OA
ATOM      6  H   UNL     1      -9.333  -1.633   2.610  1.00  0.00     0.163 HD
BRANCH   4   7
ATOM      7  C   UNL     1      -5.960  -1.563   2.671  1.00  0.00     0.082 C 
ATOM      8  C   UNL     1      -4.260  -0.873  -0.894  1.00  0.00     0.227 C 
ATOM      9  O   UNL     1      -4.983  -1.618  -1.563  1.00  0.00    -0.274 OA
ATOM     10  N   UNL     1      -4.175  -1.028   0.477  1.00  0.00    -0.342 N 
ATOM     11  C   UNL     1      -4.218  -2.375   1.028  1.00  0.00     0.120 C 
ATOM     12  C   UNL     1      -4.363   0.036   1.451  1.00  0.00     0.120 C 
ATOM     13  C   UNL     1      -5.550  -2.667   1.691  1.00  0.00     0.035 C 
ATOM     14  C   UNL     1      -5.675  -0.125   2.213  1.00  0.00     0.035 C 
BRANCH   8  15
ATOM     15  C   UNL     1      -3.245   0.014  -1.610  1.00  0.00     0.107 C 
ATOM     16  N   UNL     1      -0.992   0.664  -1.474  1.00  0.00    -0.339 N 
ATOM     17  C   UNL     1      -1.839  -0.491  -1.311  1.00  0.00     0.133 C 
ATOM     18  C   UNL     1      -1.714   1.844  -1.500  1.00  0.00     0.223 C 
ATOM     19  C   UNL     1      -3.179   1.515  -1.371  1.00  0.00     0.115 C 
ATOM     20  O   UNL     1      -1.261   2.977  -1.558  1.00  0.00    -0.275 OA
BRANCH  16  21
ATOM     21  C   UNL     1       0.470   0.603  -1.439  1.00  0.00     0.078 C 
ATOM     22  C   UNL     1       0.972   0.060  -0.102  1.00  0.00     0.031 C 
ATOM     23  C   UNL     1       1.026  -0.208  -2.607  1.00  0.00     0.031 C 
ENDBRANCH  16  21
ENDBRANCH   8  15
ENDBRANCH   4   7
ENDBRANCH   2   3
ENDBRANCH   1   2
BRANCH   1  24
ATOM     24  C   UNL     1     -10.419  -2.811   0.251  1.00  0.00     0.118 C 
BRANCH  24  25
ATOM     25  N   UNL     1     -11.304  -1.756  -0.227  1.00  0.00    -0.352 N 
ATOM     26  C   UNL     1     -12.280  -1.808  -1.193  1.00  0.00     0.251 C 
ATOM     27  H   UNL     1     -11.186  -0.880   0.205  1.00  0.00     0.163 HD
ATOM     28  O   UNL     1     -12.800  -0.776  -1.605  1.00  0.00    -0.269 OA
BRANCH  26  29
ATOM     29  C   UNL     1     -12.683  -3.115  -1.749  1.00  0.00     0.039 A 
ATOM     30  C   UNL     1     -12.825  -3.258  -3.131  1.00  0.00     0.014 A 
ATOM     31  C   UNL     1     -12.893  -4.205  -0.901  1.00  0.00     0.014 A 
ATOM     32  C   UNL     1     -13.101  -4.518  -3.668  1.00  0.00     0.010 A 
ATOM     33  C   UNL     1     -13.067  -5.471  -1.442  1.00  0.00     0.010 A 
ATOM     34  C   UNL     1     -13.180  -5.641  -2.830  1.00  0.00    -0.014 A 
BRANCH  34  35
ATOM     35  C   UNL     1     -13.398  -7.009  -3.361  1.00  0.00     0.031 A 
ATOM     36  C   UNL     1     -14.617  -7.782  -2.938  1.00  0.00     0.074 A 
ATOM     37  C   UNL     1     -12.461  -7.592  -4.133  1.00  0.00     0.049 A 
ATOM     38  N   UNL     1     -14.919  -9.036  -3.157  1.00  0.00    -0.248 NA
ATOM     39  C   UNL     1     -15.613  -7.056  -2.132  1.00  0.00     0.031 C 
ATOM     40  C   UNL     1     -11.222  -6.961  -4.593  1.00  0.00     0.029 A 
ATOM     41  N   UNL     1     -12.398  -8.861  -4.652  1.00  0.00    -0.354 N 
ATOM     42  C   UNL     1     -16.120  -9.254  -2.492  1.00  0.00     0.074 A 
ATOM     43  C   UNL     1     -16.464  -8.021  -1.820  1.00  0.00     0.031 C 
ATOM     44  C   UNL     1     -10.533  -7.838  -5.341  1.00  0.00     0.029 A 
ATOM     45  C   UNL     1     -11.251  -9.108  -5.368  1.00  0.00     0.049 A 
ATOM     46  H   UNL     1     -13.108  -9.532  -4.524  1.00  0.00     0.167 HD
ATOM     47  C   UNL     1     -16.878 -10.375  -2.458  1.00  0.00     0.031 A 
ATOM     48  C   UNL     1     -10.816 -10.236  -5.961  1.00  0.00     0.031 A 
ATOM     49  C   UNL     1     -16.539 -11.596  -3.137  1.00  0.00     0.049 A 
ATOM     50  C   UNL     1     -11.662 -11.478  -5.884  1.00  0.00     0.074 A 
ATOM     51  C   UNL     1     -17.265 -12.772  -3.207  1.00  0.00     0.029 A 
ATOM     52  N   UNL     1     -15.376 -11.797  -3.864  1.00  0.00    -0.354 N 
ATOM     53  N   UNL     1     -12.820 -11.655  -5.295  1.00  0.00    -0.248 NA
ATOM     54  C   UNL     1     -11.144 -12.675  -6.562  1.00  0.00     0.031 C 
ATOM     55  C   UNL     1     -16.513 -13.705  -3.927  1.00  0.00     0.029 A 
ATOM     56  C   UNL     1     -15.353 -13.087  -4.367  1.00  0.00     0.049 A 
ATOM     57  H   UNL     1     -14.671 -11.124  -4.002  1.00  0.00     0.167 HD
ATOM     58  C   UNL     1     -13.188 -12.967  -5.567  1.00  0.00     0.074 A 
ATOM     59  C   UNL     1     -12.133 -13.538  -6.378  1.00  0.00     0.031 C 
ATOM     60  C   UNL     1     -14.302 -13.636  -5.184  1.00  0.00     0.031 A 
BRANCH  47  61
ATOM     61  C   UNL     1     -18.143 -10.332  -1.646  1.00  0.00    -0.014 A 
ATOM     62  C   UNL     1     -19.235  -9.540  -2.035  1.00  0.00     0.009 A 
ATOM     63  C   UNL     1     -18.256 -11.119  -0.489  1.00  0.00     0.009 A 
ATOM     64  C   UNL     1     -20.397  -9.504  -1.261  1.00  0.00     0.001 A 
ATOM     65  C   UNL     1     -19.431 -11.109   0.264  1.00  0.00     0.001 A 
ATOM     66  C   UNL     1     -20.496 -10.293  -0.116  1.00  0.00     0.000 A 
ENDBRANCH  47  61
BRANCH  48  67
ATOM     67  C   UNL     1      -9.519 -10.247  -6.688  1.00  0.00    -0.014 A 
ATOM     68  C   UNL     1      -9.487 -10.377  -8.085  1.00  0.00     0.009 A 
ATOM     69  C   UNL     1      -8.305 -10.141  -5.991  1.00  0.00     0.009 A 
ATOM     70  C   UNL     1      -8.268 -10.432  -8.765  1.00  0.00     0.001 A 
ATOM     71  C   UNL     1      -7.088 -10.163  -6.676  1.00  0.00     0.001 A 
ATOM     72  C   UNL     1      -7.070 -10.320  -8.061  1.00  0.00     0.000 A 
ENDBRANCH  48  67
BRANCH  60  73
ATOM     73  C   UNL     1     -14.477 -15.041  -5.688  1.00  0.00    -0.014 A 
ATOM     74  C   UNL     1     -13.697 -16.101  -5.202  1.00  0.00     0.009 A 
ATOM     75  C   UNL     1     -15.487 -15.314  -6.625  1.00  0.00     0.009 A 
ATOM     76  C   UNL     1     -13.909 -17.402  -5.666  1.00  0.00     0.001 A 
ATOM     77  C   UNL     1     -15.717 -16.618  -7.062  1.00  0.00     0.001 A 
ATOM     78  C   UNL     1     -14.922 -17.660  -6.588  1.00  0.00     0.000 A 
ENDBRANCH  60  73
ENDBRANCH  34  35
ENDBRANCH  26  29
ENDBRANCH  24  25
ENDBRANCH   1  24
TORSDOF 12
