REMARK SMILES Cc1ccc(C(=O)NCCCNC(=O)c2ccc(-c3c4nc(c(-c5ccccc5)c5ccc([nH]5)c(-c5ccccc5)c5nc(c(-c6ccccc6)c6ccc3[nH]6)C=C5)C=C4)cc2)cc1NC(=O)Cc1ccc2ccccc2c1
REMARK SMILES IDX 9 1 8 2 6 3 7 4 5 6 1 7 2 8 3 9 64 10 4 11 63 12 65 13 66 14
REMARK SMILES IDX 67 16 68 17 69 18 70 19 78 20 71 21 77 22 72 23 76 24 73 25
REMARK SMILES IDX 75 26 74 27 10 28 11 29 12 30 13 31 14 33 15 34 16 35 62 36
REMARK SMILES IDX 17 37 61 38 18 39 19 40 20 41 55 42 21 43 60 44 54 45 56 46
REMARK SMILES IDX 22 47 59 48 53 49 52 50 23 52 45 53 30 54 44 55 31 56 34 57
REMARK SMILES IDX 43 58 57 59 32 60 33 61 42 63 58 64 35 65 24 66 25 67 29 68
REMARK SMILES IDX 26 69 28 70 27 71 46 72 47 73 51 74 48 75 50 76 49 77 36 78
REMARK SMILES IDX 37 79 41 80 38 81 40 82 39 83
REMARK H PARENT 8 5 65 15 12 32 56 51 34 62
REMARK Flexibility Score: inf
ROOT
ATOM      1  C   UNL     1      -3.828   2.438  -0.040  1.00  0.00     0.118 C 
ENDROOT
BRANCH   1   2
ATOM      2  N   UNL     1      -3.892   0.990   0.027  1.00  0.00    -0.352 N 
ATOM      3  C   UNL     1      -2.985  -0.034   0.117  1.00  0.00     0.251 C 
ATOM      4  O   UNL     1      -3.463  -1.167   0.221  1.00  0.00    -0.269 OA
ATOM      5  H   UNL     1      -4.819   0.660   0.001  1.00  0.00     0.163 HD
BRANCH   3   6
ATOM      6  C   UNL     1      -1.495   0.098   0.053  1.00  0.00     0.041 A 
ATOM      7  C   UNL     1       2.835  -0.020  -0.158  1.00  0.00     0.046 C 
ATOM      8  C   UNL     1       1.336   0.132  -0.104  1.00  0.00    -0.027 A 
ATOM      9  C   UNL     1       0.603  -1.052  -0.320  1.00  0.00     0.006 A 
ATOM     10  C   UNL     1       0.649   1.329   0.210  1.00  0.00     0.044 A 
ATOM     11  C   UNL     1      -0.788  -1.063  -0.267  1.00  0.00     0.014 A 
ATOM     12  C   UNL     1      -0.755   1.255   0.335  1.00  0.00     0.040 A 
BRANCH  10  13
ATOM     13  N   UNL     1       1.403   2.534   0.366  1.00  0.00    -0.326 N 
ATOM     14  C   UNL     1       1.093   3.876   0.534  1.00  0.00     0.228 C 
ATOM     15  H   UNL     1       2.374   2.373   0.349  1.00  0.00     0.169 HD
ATOM     16  O   UNL     1       2.022   4.684   0.556  1.00  0.00    -0.274 OA
BRANCH  14  17
ATOM     17  C   UNL     1      -0.343   4.268   0.686  1.00  0.00     0.135 C 
BRANCH  17  18
ATOM     18  C   UNL     1      -0.888   5.674   0.769  1.00  0.00    -0.038 A 
ATOM     19  C   UNL     1      -2.260   5.729   1.067  1.00  0.00     0.005 A 
ATOM     20  C   UNL     1      -0.236   6.883   0.504  1.00  0.00     0.013 A 
ATOM     21  C   UNL     1      -2.988   6.904   0.965  1.00  0.00     0.009 A 
ATOM     22  C   UNL     1      -0.966   8.107   0.438  1.00  0.00    -0.018 A 
ATOM     23  C   UNL     1      -2.369   8.082   0.579  1.00  0.00    -0.018 A 
ATOM     24  C   UNL     1      -0.369   9.366   0.235  1.00  0.00     0.009 A 
ATOM     25  C   UNL     1      -3.144   9.228   0.352  1.00  0.00     0.009 A 
ATOM     26  C   UNL     1      -1.147  10.527   0.093  1.00  0.00     0.001 A 
ATOM     27  C   UNL     1      -2.535  10.450   0.101  1.00  0.00     0.001 A 
ENDBRANCH  17  18
ENDBRANCH  14  17
ENDBRANCH  10  13
ENDBRANCH   3   6
ENDBRANCH   1   2
BRANCH   1  28
ATOM     28  C   UNL     1      -3.614   2.984  -1.447  1.00  0.00     0.042 C 
BRANCH  28  29
ATOM     29  C   UNL     1      -4.758   3.895  -1.898  1.00  0.00     0.118 C 
BRANCH  29  30
ATOM     30  N   UNL     1      -4.783   5.205  -1.237  1.00  0.00    -0.352 N 
ATOM     31  C   UNL     1      -5.655   6.280  -1.361  1.00  0.00     0.251 C 
ATOM     32  H   UNL     1      -4.053   5.348  -0.592  1.00  0.00     0.163 HD
ATOM     33  O   UNL     1      -5.586   7.259  -0.638  1.00  0.00    -0.269 OA
BRANCH  31  34
ATOM     34  C   UNL     1      -6.816   6.154  -2.255  1.00  0.00     0.039 A 
ATOM     35  C   UNL     1      -8.041   6.155  -1.581  1.00  0.00     0.014 A 
ATOM     36  C   UNL     1      -6.634   5.493  -3.460  1.00  0.00     0.014 A 
ATOM     37  C   UNL     1      -8.938   5.152  -1.884  1.00  0.00     0.010 A 
ATOM     38  C   UNL     1      -7.476   4.433  -3.700  1.00  0.00     0.010 A 
ATOM     39  C   UNL     1      -8.559   4.212  -2.842  1.00  0.00    -0.014 A 
BRANCH  39  40
ATOM     40  C   UNL     1      -9.260   2.950  -2.968  1.00  0.00     0.031 A 
ATOM     41  C   UNL     1     -10.311   2.892  -3.987  1.00  0.00     0.074 A 
ATOM     42  C   UNL     1      -9.101   1.933  -2.095  1.00  0.00     0.049 A 
ATOM     43  N   UNL     1     -11.486   2.404  -3.781  1.00  0.00    -0.248 NA
ATOM     44  C   UNL     1     -10.137   3.510  -5.296  1.00  0.00     0.031 C 
ATOM     45  C   UNL     1      -9.743   0.625  -2.172  1.00  0.00     0.029 A 
ATOM     46  N   UNL     1      -8.517   1.955  -0.827  1.00  0.00    -0.354 N 
ATOM     47  C   UNL     1     -12.116   2.389  -4.999  1.00  0.00     0.074 A 
ATOM     48  C   UNL     1     -11.290   3.186  -5.878  1.00  0.00     0.031 C 
ATOM     49  C   UNL     1      -9.797   0.102  -0.936  1.00  0.00     0.029 A 
ATOM     50  C   UNL     1      -9.268   1.092  -0.011  1.00  0.00     0.049 A 
ATOM     51  H   UNL     1      -7.727   2.476  -0.556  1.00  0.00     0.167 HD
ATOM     52  C   UNL     1     -13.178   1.566  -5.206  1.00  0.00     0.031 A 
ATOM     53  C   UNL     1      -9.821   1.448   1.183  1.00  0.00     0.031 A 
ATOM     54  C   UNL     1     -13.507   0.787  -4.017  1.00  0.00     0.049 A 
ATOM     55  C   UNL     1     -11.324   1.283   1.210  1.00  0.00     0.074 A 
ATOM     56  C   UNL     1     -13.156  -0.495  -3.624  1.00  0.00     0.029 A 
ATOM     57  N   UNL     1     -14.008   1.421  -2.886  1.00  0.00    -0.354 N 
ATOM     58  N   UNL     1     -12.046   1.064   0.146  1.00  0.00    -0.248 NA
ATOM     59  C   UNL     1     -12.140   1.458   2.411  1.00  0.00     0.031 C 
ATOM     60  C   UNL     1     -13.400  -0.614  -2.234  1.00  0.00     0.029 A 
ATOM     61  C   UNL     1     -13.918   0.588  -1.785  1.00  0.00     0.049 A 
ATOM     62  H   UNL     1     -14.376   2.334  -2.870  1.00  0.00     0.167 HD
ATOM     63  C   UNL     1     -13.374   1.129   0.476  1.00  0.00     0.074 A 
ATOM     64  C   UNL     1     -13.384   1.347   1.910  1.00  0.00     0.031 C 
ATOM     65  C   UNL     1     -14.352   1.042  -0.471  1.00  0.00     0.031 A 
BRANCH  52  66
ATOM     66  C   UNL     1     -13.617   1.220  -6.604  1.00  0.00    -0.014 A 
ATOM     67  C   UNL     1     -14.034  -0.088  -6.895  1.00  0.00     0.009 A 
ATOM     68  C   UNL     1     -13.553   2.113  -7.688  1.00  0.00     0.009 A 
ATOM     69  C   UNL     1     -14.244  -0.516  -8.211  1.00  0.00     0.001 A 
ATOM     70  C   UNL     1     -13.703   1.678  -9.010  1.00  0.00     0.001 A 
ATOM     71  C   UNL     1     -14.036   0.356  -9.272  1.00  0.00     0.000 A 
ENDBRANCH  52  66
BRANCH  53  72
ATOM     72  C   UNL     1      -9.091   2.529   1.893  1.00  0.00    -0.014 A 
ATOM     73  C   UNL     1      -7.831   2.228   2.443  1.00  0.00     0.009 A 
ATOM     74  C   UNL     1      -9.437   3.872   1.686  1.00  0.00     0.009 A 
ATOM     75  C   UNL     1      -6.893   3.239   2.665  1.00  0.00     0.001 A 
ATOM     76  C   UNL     1      -8.491   4.878   1.905  1.00  0.00     0.001 A 
ATOM     77  C   UNL     1      -7.211   4.559   2.358  1.00  0.00     0.000 A 
ENDBRANCH  53  72
BRANCH  65  78
ATOM     78  C   UNL     1     -15.818   1.312  -0.248  1.00  0.00    -0.014 A 
ATOM     79  C   UNL     1     -16.322   2.159   0.748  1.00  0.00     0.009 A 
ATOM     80  C   UNL     1     -16.752   0.789  -1.170  1.00  0.00     0.009 A 
ATOM     81  C   UNL     1     -17.694   2.426   0.850  1.00  0.00     0.001 A 
ATOM     82  C   UNL     1     -18.113   1.090  -1.100  1.00  0.00     0.001 A 
ATOM     83  C   UNL     1     -18.587   1.900  -0.079  1.00  0.00     0.000 A 
ENDBRANCH  65  78
ENDBRANCH  39  40
ENDBRANCH  31  34
ENDBRANCH  29  30
ENDBRANCH  28  29
ENDBRANCH   1  28
TORSDOF 13
