REMARK SMILES O=C(NCCCNC(=O)[C@H](CO)NC(=O)[C@H]1CC(=O)N(CC(F)(F)F)C1)c1ccc(-c2c3nc(c(-c4ccccc4)c4ccc([nH]4)c(-c4ccccc4)c4nc(c(-c5ccccc5)c5ccc2[nH]5)C=C4)C=C3)cc1
REMARK SMILES IDX 6 1 5 2 4 3 3 4 1 5 2 6 27 8 28 9 74 10 29 11 73 12 30 13
REMARK SMILES IDX 31 14 32 15 67 16 33 17 72 18 66 19 68 20 34 21 71 22 65 23
REMARK SMILES IDX 64 24 35 26 57 27 42 28 56 29 43 30 46 31 55 32 69 33 44 34
REMARK SMILES IDX 45 35 54 37 70 38 47 39 36 40 37 41 41 42 38 43 40 44 39 45
REMARK SMILES IDX 58 46 59 47 63 48 60 49 62 50 61 51 48 52 49 53 53 54 50 55
REMARK SMILES IDX 52 56 51 57 7 58 8 59 9 61 10 62 13 63 14 64 15 66 16 67
REMARK SMILES IDX 17 68 26 69 18 70 20 71 19 72 21 73 22 74 23 75 24 76 25 77
REMARK SMILES IDX 11 78 12 79
REMARK H PARENT 3 7 68 25 46 36 7 60 13 65 12 80
REMARK Flexibility Score: inf
ROOT
ATOM      1  C   UNL     1      10.304   3.445  -8.258  1.00  0.00     0.117 C 
ENDROOT
BRANCH   1   2
ATOM      2  C   UNL     1      11.646   3.377  -7.542  1.00  0.00     0.042 C 
BRANCH   2   3
ATOM      3  C   UNL     1      12.769   4.036  -8.321  1.00  0.00     0.118 C 
BRANCH   3   4
ATOM      4  N   UNL     1      12.815   5.474  -8.120  1.00  0.00    -0.352 N 
ATOM      5  O   UNL     1      13.588   7.413  -7.263  1.00  0.00    -0.269 OA
ATOM      6  C   UNL     1      13.796   6.232  -7.525  1.00  0.00     0.251 C 
ATOM      7  H   UNL     1      12.036   5.975  -8.456  1.00  0.00     0.163 HD
BRANCH   6   8
ATOM      8  C   UNL     1      15.097   5.615  -7.182  1.00  0.00     0.039 A 
ATOM      9  C   UNL     1      15.715   4.725  -8.062  1.00  0.00     0.014 A 
ATOM     10  C   UNL     1      15.713   5.933  -5.968  1.00  0.00     0.014 A 
ATOM     11  C   UNL     1      16.844   4.027  -7.661  1.00  0.00     0.010 A 
ATOM     12  C   UNL     1      16.925   5.325  -5.622  1.00  0.00     0.010 A 
ATOM     13  C   UNL     1      17.490   4.349  -6.456  1.00  0.00    -0.014 A 
BRANCH  13  14
ATOM     14  C   UNL     1      18.803   3.718  -6.164  1.00  0.00     0.031 A 
ATOM     15  C   UNL     1      19.016   2.849  -4.956  1.00  0.00     0.074 A 
ATOM     16  C   UNL     1      19.807   3.907  -7.045  1.00  0.00     0.049 A 
ATOM     17  N   UNL     1      20.094   2.198  -4.595  1.00  0.00    -0.248 NA
ATOM     18  C   UNL     1      17.884   2.693  -4.029  1.00  0.00     0.031 C 
ATOM     19  C   UNL     1      19.726   4.743  -8.249  1.00  0.00     0.029 A 
ATOM     20  N   UNL     1      21.076   3.391  -7.090  1.00  0.00    -0.354 N 
ATOM     21  C   UNL     1      19.777   1.565  -3.400  1.00  0.00     0.074 A 
ATOM     22  C   UNL     1      18.416   1.938  -3.077  1.00  0.00     0.031 C 
ATOM     23  C   UNL     1      20.864   4.628  -8.944  1.00  0.00     0.029 A 
ATOM     24  C   UNL     1      21.787   3.783  -8.198  1.00  0.00     0.049 A 
ATOM     25  H   UNL     1      21.442   2.797  -6.396  1.00  0.00     0.167 HD
ATOM     26  C   UNL     1      20.548   0.742  -2.647  1.00  0.00     0.031 A 
ATOM     27  C   UNL     1      23.051   3.516  -8.570  1.00  0.00     0.031 A 
ATOM     28  C   UNL     1      21.907   0.386  -2.966  1.00  0.00     0.049 A 
ATOM     29  C   UNL     1      23.890   2.637  -7.693  1.00  0.00     0.074 A 
ATOM     30  C   UNL     1      22.769  -0.443  -2.266  1.00  0.00     0.029 A 
ATOM     31  N   UNL     1      22.605   0.838  -4.075  1.00  0.00    -0.354 N 
ATOM     32  N   UNL     1      23.563   2.029  -6.579  1.00  0.00    -0.248 NA
ATOM     33  C   UNL     1      25.273   2.405  -8.127  1.00  0.00     0.031 C 
ATOM     34  C   UNL     1      24.003  -0.451  -2.925  1.00  0.00     0.029 A 
ATOM     35  C   UNL     1      23.891   0.321  -4.070  1.00  0.00     0.049 A 
ATOM     36  H   UNL     1      22.241   1.438  -4.766  1.00  0.00     0.167 HD
ATOM     37  C   UNL     1      24.695   1.329  -6.187  1.00  0.00     0.074 A 
ATOM     38  C   UNL     1      25.703   1.562  -7.201  1.00  0.00     0.031 C 
ATOM     39  C   UNL     1      24.885   0.568  -5.082  1.00  0.00     0.031 A 
BRANCH  26  40
ATOM     40  C   UNL     1      19.943   0.178  -1.389  1.00  0.00    -0.014 A 
ATOM     41  C   UNL     1      18.939  -0.801  -1.440  1.00  0.00     0.009 A 
ATOM     42  C   UNL     1      20.424   0.588  -0.135  1.00  0.00     0.009 A 
ATOM     43  C   UNL     1      18.410  -1.337  -0.263  1.00  0.00     0.001 A 
ATOM     44  C   UNL     1      19.914   0.031   1.039  1.00  0.00     0.001 A 
ATOM     45  C   UNL     1      18.902  -0.925   0.975  1.00  0.00     0.000 A 
ENDBRANCH  26  40
BRANCH  27  46
ATOM     46  C   UNL     1      23.606   4.120  -9.810  1.00  0.00    -0.014 A 
ATOM     47  C   UNL     1      23.953   3.321 -10.909  1.00  0.00     0.009 A 
ATOM     48  C   UNL     1      23.798   5.509  -9.894  1.00  0.00     0.009 A 
ATOM     49  C   UNL     1      24.512   3.897 -12.052  1.00  0.00     0.001 A 
ATOM     50  C   UNL     1      24.320   6.086 -11.051  1.00  0.00     0.001 A 
ATOM     51  C   UNL     1      24.691   5.278 -12.124  1.00  0.00     0.000 A 
ENDBRANCH  27  46
BRANCH  39  52
ATOM     52  C   UNL     1      26.228  -0.092  -4.940  1.00  0.00    -0.014 A 
ATOM     53  C   UNL     1      27.384   0.656  -4.661  1.00  0.00     0.009 A 
ATOM     54  C   UNL     1      26.337  -1.483  -5.085  1.00  0.00     0.009 A 
ATOM     55  C   UNL     1      28.628   0.027  -4.577  1.00  0.00     0.001 A 
ATOM     56  C   UNL     1      27.576  -2.113  -4.967  1.00  0.00     0.001 A 
ATOM     57  C   UNL     1      28.722  -1.356  -4.727  1.00  0.00     0.000 A 
ENDBRANCH  39  52
ENDBRANCH  13  14
ENDBRANCH   6   8
ENDBRANCH   3   4
ENDBRANCH   2   3
ENDBRANCH   1   2
BRANCH   1  58
ATOM     58  N   UNL     1      10.320   2.659  -9.488  1.00  0.00    -0.354 N 
ATOM     59  C   UNL     1       9.752   1.438  -9.732  1.00  0.00     0.244 C 
ATOM     60  H   UNL     1      10.804   3.062 -10.245  1.00  0.00     0.163 HD
ATOM     61  O   UNL     1      10.085   0.813 -10.740  1.00  0.00    -0.273 OA
BRANCH  59  62
ATOM     62  C   UNL     1       8.709   0.899  -8.747  1.00  0.00     0.197 C 
BRANCH  62  63
ATOM     63  N   UNL     1       7.787   0.007  -9.452  1.00  0.00    -0.342 N 
ATOM     64  C   UNL     1       6.481  -0.273  -9.236  1.00  0.00     0.226 C 
ATOM     65  H   UNL     1       8.185  -0.470 -10.215  1.00  0.00     0.164 HD
ATOM     66  O   UNL     1       6.083  -1.381  -9.608  1.00  0.00    -0.275 OA
BRANCH  64  67
ATOM     67  C   UNL     1       5.463   0.753  -8.773  1.00  0.00     0.107 C 
ATOM     68  C   UNL     1       5.705   1.702  -7.604  1.00  0.00     0.115 C 
ATOM     69  C   UNL     1       5.136   1.631  -9.973  1.00  0.00     0.133 C 
ATOM     70  C   UNL     1       5.304   3.064  -8.123  1.00  0.00     0.223 C 
ATOM     71  N   UNL     1       4.896   2.939  -9.432  1.00  0.00    -0.333 N 
ATOM     72  O   UNL     1       5.317   4.092  -7.470  1.00  0.00    -0.275 OA
BRANCH  71  73
ATOM     73  C   UNL     1       4.297   4.016 -10.232  1.00  0.00     0.234 C 
BRANCH  73  74
ATOM     74  C   UNL     1       4.991   4.337 -11.555  1.00  0.00     0.406 C 
ATOM     75  F   UNL     1       4.964   3.273 -12.392  1.00  0.00    -0.169 F 
ATOM     76  F   UNL     1       4.371   5.359 -12.186  1.00  0.00    -0.169 F 
ATOM     77  F   UNL     1       6.283   4.686 -11.373  1.00  0.00    -0.169 F 
ENDBRANCH  73  74
ENDBRANCH  71  73
ENDBRANCH  64  67
ENDBRANCH  62  63
BRANCH  62  78
ATOM     78  C   UNL     1       9.308   0.128  -7.554  1.00  0.00     0.191 C 
BRANCH  78  79
ATOM     79  O   UNL     1      10.662   0.414  -7.258  1.00  0.00    -0.394 OA
ATOM     80  H   UNL     1      11.220   0.151  -8.007  1.00  0.00     0.210 HD
ENDBRANCH  78  79
ENDBRANCH  62  78
ENDBRANCH  59  62
ENDBRANCH   1  58
TORSDOF 16
