REMARK SMILES Cc1cc(=O)cc(C)n1-c1ccc(Cl)cc1C(=O)NCCCNC(=O)c1ccc(-c2c3nc(c(-c4ccccc4)c4ccc([nH]4)c(-c4ccccc4)c4nc(c(-c5ccccc5)c5ccc2[nH]5)C=C4)C=C3)cc1
REMARK SMILES IDX 21 1 20 2 19 3 17 4 18 5 16 7 10 8 11 9 12 10 15 11 13 12
REMARK SMILES IDX 14 13 9 14 1 15 2 16 3 17 4 18 7 19 5 20 6 21 8 22 22 23
REMARK SMILES IDX 23 24 24 25 25 27 26 28 27 29 73 30 28 31 72 32 29 33 30 34
REMARK SMILES IDX 31 35 66 36 32 37 71 38 65 39 67 40 33 41 70 42 64 43 63 44
REMARK SMILES IDX 34 46 56 47 41 48 55 49 42 50 45 51 54 52 68 53 43 54 44 55
REMARK SMILES IDX 53 57 69 58 46 59 35 60 36 61 40 62 37 63 39 64 38 65 57 66
REMARK SMILES IDX 58 67 62 68 59 69 61 70 60 71 47 72 48 73 52 74 49 75 51 76
REMARK SMILES IDX 50 77
REMARK H PARENT 19 6 23 26 67 45 45 56
REMARK Flexibility Score: inf
ROOT
ATOM      1  C   UNL     1       2.673   2.432  -3.496  1.00  0.00     0.042 C 
ENDROOT
BRANCH   1   2
ATOM      2  C   UNL     1       2.416   1.950  -2.092  1.00  0.00     0.118 C 
BRANCH   2   3
ATOM      3  N   UNL     1       3.421   1.193  -1.417  1.00  0.00    -0.352 N 
ATOM      4  C   UNL     1       3.584   1.047  -0.059  1.00  0.00     0.253 C 
ATOM      5  O   UNL     1       4.413   0.201   0.292  1.00  0.00    -0.269 OA
ATOM      6  H   UNL     1       4.072   0.724  -1.988  1.00  0.00     0.163 HD
BRANCH   4   7
ATOM      7  C   UNL     1       2.909   1.869   1.017  1.00  0.00     0.065 A 
ATOM      8  C   UNL     1       1.595   2.411   1.100  1.00  0.00     0.058 A 
ATOM      9  C   UNL     1       1.222   3.110   2.283  1.00  0.00     0.029 A 
ATOM     10  C   UNL     1       2.103   3.304   3.344  1.00  0.00     0.023 A 
ATOM     11  C   UNL     1       3.773   2.071   2.126  1.00  0.00     0.036 A 
ATOM     12  C   UNL     1       3.379   2.780   3.260  1.00  0.00     0.041 A 
ATOM     13  Cl  UNL     1       4.480   3.005   4.562  1.00  0.00    -0.084 Cl
BRANCH   8  14
ATOM     14  N   UNL     1       0.570   2.352   0.092  1.00  0.00    -0.317 N 
ATOM     15  C   UNL     1       0.272  -0.138   0.510  1.00  0.00     0.065 C 
ATOM     16  C   UNL     1      -0.101   1.138  -0.206  1.00  0.00     0.024 A 
ATOM     17  C   UNL     1      -1.060   1.069  -1.153  1.00  0.00     0.073 A 
ATOM     18  C   UNL     1      -1.446   2.280  -1.903  1.00  0.00     0.182 A 
ATOM     19  C   UNL     1       0.163   3.547  -0.578  1.00  0.00     0.024 A 
ATOM     20  O   UNL     1      -2.269   2.246  -2.810  1.00  0.00    -0.290 OA
ATOM     21  C   UNL     1      -0.787   3.542  -1.532  1.00  0.00     0.073 A 
ATOM     22  C   UNL     1       0.884   4.869  -0.385  1.00  0.00     0.065 C 
ENDBRANCH   8  14
ENDBRANCH   4   7
ENDBRANCH   2   3
ENDBRANCH   1   2
BRANCH   1  23
ATOM     23  C   UNL     1       2.652   1.347  -4.555  1.00  0.00     0.118 C 
BRANCH  23  24
ATOM     24  N   UNL     1       1.380   0.637  -4.688  1.00  0.00    -0.352 N 
ATOM     25  C   UNL     1       0.345   0.715  -5.593  1.00  0.00     0.251 C 
ATOM     26  H   UNL     1       1.233  -0.036  -3.985  1.00  0.00     0.163 HD
ATOM     27  O   UNL     1      -0.636  -0.013  -5.438  1.00  0.00    -0.269 OA
BRANCH  25  28
ATOM     28  C   UNL     1       0.371   1.660  -6.731  1.00  0.00     0.039 A 
ATOM     29  C   UNL     1      -0.817   2.264  -7.165  1.00  0.00     0.014 A 
ATOM     30  C   UNL     1       1.555   1.939  -7.404  1.00  0.00     0.014 A 
ATOM     31  C   UNL     1      -0.789   3.199  -8.208  1.00  0.00     0.010 A 
ATOM     32  C   UNL     1       1.611   2.978  -8.320  1.00  0.00     0.010 A 
ATOM     33  C   UNL     1       0.436   3.597  -8.763  1.00  0.00    -0.014 A 
BRANCH  33  34
ATOM     34  C   UNL     1       0.550   4.599  -9.853  1.00  0.00     0.031 A 
ATOM     35  C   UNL     1       1.229   4.213 -11.143  1.00  0.00     0.074 A 
ATOM     36  C   UNL     1       0.165   5.873  -9.649  1.00  0.00     0.049 A 
ATOM     37  N   UNL     1       1.606   4.970 -12.142  1.00  0.00    -0.248 NA
ATOM     38  C   UNL     1       1.580   2.791 -11.306  1.00  0.00     0.031 C 
ATOM     39  C   UNL     1      -0.467   6.386  -8.433  1.00  0.00     0.029 A 
ATOM     40  N   UNL     1       0.271   6.974 -10.460  1.00  0.00    -0.354 N 
ATOM     41  C   UNL     1       2.274   4.125 -13.021  1.00  0.00     0.074 A 
ATOM     42  C   UNL     1       2.310   2.817 -12.410  1.00  0.00     0.031 C 
ATOM     43  C   UNL     1      -0.720   7.695  -8.590  1.00  0.00     0.029 A 
ATOM     44  C   UNL     1      -0.219   8.124  -9.892  1.00  0.00     0.049 A 
ATOM     45  H   UNL     1       0.661   6.943 -11.364  1.00  0.00     0.167 HD
ATOM     46  C   UNL     1       2.789   4.404 -14.241  1.00  0.00     0.031 A 
ATOM     47  C   UNL     1      -0.252   9.385 -10.361  1.00  0.00     0.031 A 
ATOM     48  C   UNL     1       2.717   5.699 -14.862  1.00  0.00     0.049 A 
ATOM     49  C   UNL     1       0.311   9.675 -11.723  1.00  0.00     0.074 A 
ATOM     50  C   UNL     1       3.135   6.072 -16.126  1.00  0.00     0.029 A 
ATOM     51  N   UNL     1       2.186   6.831 -14.262  1.00  0.00    -0.354 N 
ATOM     52  N   UNL     1       0.892   8.857 -12.567  1.00  0.00    -0.248 NA
ATOM     53  C   UNL     1       0.204  11.060 -12.200  1.00  0.00     0.031 C 
ATOM     54  C   UNL     1       2.913   7.446 -16.268  1.00  0.00     0.029 A 
ATOM     55  C   UNL     1       2.294   7.913 -15.119  1.00  0.00     0.049 A 
ATOM     56  H   UNL     1       1.791   6.861 -13.361  1.00  0.00     0.167 HD
ATOM     57  C   UNL     1       1.207   9.622 -13.682  1.00  0.00     0.074 A 
ATOM     58  C   UNL     1       0.729  10.964 -13.414  1.00  0.00     0.031 C 
ATOM     59  C   UNL     1       1.835   9.248 -14.825  1.00  0.00     0.031 A 
BRANCH  46  60
ATOM     60  C   UNL     1       3.480   3.286 -14.976  1.00  0.00    -0.014 A 
ATOM     61  C   UNL     1       2.772   2.168 -15.447  1.00  0.00     0.009 A 
ATOM     62  C   UNL     1       4.861   3.360 -15.217  1.00  0.00     0.009 A 
ATOM     63  C   UNL     1       3.438   1.128 -16.099  1.00  0.00     0.001 A 
ATOM     64  C   UNL     1       5.519   2.336 -15.903  1.00  0.00     0.001 A 
ATOM     65  C   UNL     1       4.809   1.216 -16.332  1.00  0.00     0.000 A 
ENDBRANCH  46  60
BRANCH  47  66
ATOM     66  C   UNL     1      -0.877  10.452  -9.535  1.00  0.00    -0.014 A 
ATOM     67  C   UNL     1      -2.135  10.967  -9.879  1.00  0.00     0.009 A 
ATOM     68  C   UNL     1      -0.253  10.910  -8.363  1.00  0.00     0.009 A 
ATOM     69  C   UNL     1      -2.756  11.920  -9.069  1.00  0.00     0.001 A 
ATOM     70  C   UNL     1      -0.889  11.843  -7.540  1.00  0.00     0.001 A 
ATOM     71  C   UNL     1      -2.139  12.349  -7.895  1.00  0.00     0.000 A 
ENDBRANCH  47  66
BRANCH  59  72
ATOM     72  C   UNL     1       2.039  10.305 -15.875  1.00  0.00    -0.014 A 
ATOM     73  C   UNL     1       2.957  11.350 -15.686  1.00  0.00     0.009 A 
ATOM     74  C   UNL     1       1.340  10.226 -17.090  1.00  0.00     0.009 A 
ATOM     75  C   UNL     1       3.141  12.315 -16.678  1.00  0.00     0.001 A 
ATOM     76  C   UNL     1       1.552  11.172 -18.093  1.00  0.00     0.001 A 
ATOM     77  C   UNL     1       2.444  12.222 -17.882  1.00  0.00     0.000 A 
ENDBRANCH  59  72
ENDBRANCH  33  34
ENDBRANCH  25  28
ENDBRANCH  23  24
ENDBRANCH   1  23
TORSDOF 11
