REMARK SMILES CCc1ccc(CNc2ccc(Cl)c(C(=O)NCCCNC(=O)c3ccc(-c4c5nc(c(-c6ccccc6)c6ccc([nH]6)c(-c6ccccc6)c6nc(c(-c7ccccc7)c7ccc4[nH]7)C=C6)C=C5)cc3)c2)cc1
REMARK SMILES IDX 18 1 17 2 15 3 16 4 14 6 9 7 10 8 72 9 11 10 12 11 13 12
REMARK SMILES IDX 8 13 7 15 6 16 3 17 4 18 74 19 5 20 73 21 2 22 1 23 19 24
REMARK SMILES IDX 20 25 21 26 22 27 23 29 24 30 25 31 71 32 26 33 70 34 27 35
REMARK SMILES IDX 28 36 29 37 64 38 30 39 69 40 63 41 65 42 31 43 68 44 62 45
REMARK SMILES IDX 61 46 32 48 54 49 39 50 53 51 40 52 43 53 52 54 66 55 41 56
REMARK SMILES IDX 42 57 51 59 67 60 44 61 33 62 34 63 38 64 35 65 37 66 36 67
REMARK SMILES IDX 55 68 56 69 60 70 57 71 59 72 58 73 45 74 46 75 50 76 47 77
REMARK SMILES IDX 49 78 48 79
REMARK H PARENT 17 5 8 14 21 28 65 47 43 58
REMARK Flexibility Score: inf
ROOT
ATOM      1  C   UNL     1       3.935  -8.922   4.417  1.00  0.00     0.118 C 
ENDROOT
BRANCH   1   2
ATOM      2  N   UNL     1       3.722 -10.262   3.879  1.00  0.00    -0.352 N 
ATOM      3  C   UNL     1       2.725 -10.856   3.129  1.00  0.00     0.252 C 
ATOM      4  O   UNL     1       2.933 -12.012   2.765  1.00  0.00    -0.269 OA
ATOM      5  H   UNL     1       4.454 -10.882   4.099  1.00  0.00     0.163 HD
BRANCH   3   6
ATOM      6  C   UNL     1       1.447 -10.168   2.785  1.00  0.00     0.060 A 
ATOM      7  C   UNL     1       0.275  -8.030   2.576  1.00  0.00     0.035 A 
ATOM      8  C   UNL     1      -0.928  -8.725   2.458  1.00  0.00     0.027 A 
ATOM      9  C   UNL     1       1.446  -8.783   2.589  1.00  0.00     0.041 A 
ATOM     10  C   UNL     1      -0.950 -10.120   2.447  1.00  0.00     0.023 A 
ATOM     11  C   UNL     1       0.228 -10.847   2.654  1.00  0.00     0.053 A 
ATOM     12  Cl  UNL     1       0.052 -12.563   2.741  1.00  0.00    -0.083 Cl
BRANCH   7  13
ATOM     13  N   UNL     1       0.260  -6.660   2.668  1.00  0.00    -0.381 N 
ATOM     14  H   UNL     1      -0.614  -6.220   2.561  1.00  0.00     0.160 HD
BRANCH  13  15
ATOM     15  C   UNL     1       1.401  -5.792   2.909  1.00  0.00     0.148 C 
BRANCH  15  16
ATOM     16  C   UNL     1       1.263  -4.577   2.030  1.00  0.00    -0.029 A 
ATOM     17  C   UNL     1       0.897  -2.334   0.363  1.00  0.00    -0.048 A 
ATOM     18  C   UNL     1       0.751  -3.632  -0.144  1.00  0.00     0.004 A 
ATOM     19  C   UNL     1       1.262  -2.176   1.707  1.00  0.00     0.004 A 
ATOM     20  C   UNL     1       0.948  -4.738   0.674  1.00  0.00     0.006 A 
ATOM     21  C   UNL     1       1.449  -3.287   2.535  1.00  0.00     0.006 A 
BRANCH  17  22
ATOM     22  C   UNL     1       0.585  -1.184  -0.563  1.00  0.00     0.032 C 
ATOM     23  C   UNL     1       1.053   0.193  -0.120  1.00  0.00     0.009 C 
ENDBRANCH  17  22
ENDBRANCH  15  16
ENDBRANCH  13  15
ENDBRANCH   7  13
ENDBRANCH   3   6
ENDBRANCH   1   2
BRANCH   1  24
ATOM     24  C   UNL     1       4.103  -8.866   5.925  1.00  0.00     0.042 C 
BRANCH  24  25
ATOM     25  C   UNL     1       5.348  -9.556   6.452  1.00  0.00     0.118 C 
BRANCH  25  26
ATOM     26  N   UNL     1       6.583  -8.950   5.969  1.00  0.00    -0.352 N 
ATOM     27  C   UNL     1       7.532  -8.187   6.606  1.00  0.00     0.251 C 
ATOM     28  H   UNL     1       6.770  -9.117   5.017  1.00  0.00     0.163 HD
ATOM     29  O   UNL     1       8.397  -7.626   5.939  1.00  0.00    -0.269 OA
BRANCH  27  30
ATOM     30  C   UNL     1       7.519  -8.012   8.077  1.00  0.00     0.039 A 
ATOM     31  C   UNL     1       7.905  -6.780   8.616  1.00  0.00     0.014 A 
ATOM     32  C   UNL     1       7.174  -9.058   8.932  1.00  0.00     0.014 A 
ATOM     33  C   UNL     1       7.871  -6.581   9.999  1.00  0.00     0.010 A 
ATOM     34  C   UNL     1       7.033  -8.827  10.296  1.00  0.00     0.010 A 
ATOM     35  C   UNL     1       7.393  -7.591  10.849  1.00  0.00    -0.014 A 
BRANCH  35  36
ATOM     36  C   UNL     1       7.282  -7.388  12.316  1.00  0.00     0.031 A 
ATOM     37  C   UNL     1       8.063  -8.263  13.262  1.00  0.00     0.074 A 
ATOM     38  C   UNL     1       6.426  -6.467  12.800  1.00  0.00     0.049 A 
ATOM     39  N   UNL     1       8.043  -8.288  14.571  1.00  0.00    -0.248 NA
ATOM     40  C   UNL     1       8.960  -9.262  12.658  1.00  0.00     0.031 C 
ATOM     41  C   UNL     1       5.577  -5.588  11.993  1.00  0.00     0.029 A 
ATOM     42  N   UNL     1       6.125  -6.122  14.094  1.00  0.00    -0.354 N 
ATOM     43  C   UNL     1       8.901  -9.316  14.941  1.00  0.00     0.074 A 
ATOM     44  C   UNL     1       9.381  -9.927  13.722  1.00  0.00     0.031 C 
ATOM     45  C   UNL     1       4.878  -4.782  12.808  1.00  0.00     0.029 A 
ATOM     46  C   UNL     1       5.194  -5.116  14.193  1.00  0.00     0.049 A 
ATOM     47  H   UNL     1       6.536  -6.554  14.877  1.00  0.00     0.167 HD
ATOM     48  C   UNL     1       9.277  -9.704  16.183  1.00  0.00     0.031 A 
ATOM     49  C   UNL     1       4.653  -4.529  15.277  1.00  0.00     0.031 A 
ATOM     50  C   UNL     1       8.814  -9.085  17.396  1.00  0.00     0.049 A 
ATOM     51  C   UNL     1       5.084  -4.979  16.645  1.00  0.00     0.074 A 
ATOM     52  C   UNL     1       9.180  -9.364  18.701  1.00  0.00     0.029 A 
ATOM     53  N   UNL     1       7.884  -8.059  17.451  1.00  0.00    -0.354 N 
ATOM     54  N   UNL     1       5.948  -5.907  16.976  1.00  0.00    -0.248 NA
ATOM     55  C   UNL     1       4.474  -4.287  17.789  1.00  0.00     0.031 C 
ATOM     56  C   UNL     1       8.432  -8.540  19.549  1.00  0.00     0.029 A 
ATOM     57  C   UNL     1       7.646  -7.707  18.768  1.00  0.00     0.049 A 
ATOM     58  H   UNL     1       7.455  -7.642  16.668  1.00  0.00     0.167 HD
ATOM     59  C   UNL     1       6.008  -5.891  18.363  1.00  0.00     0.074 A 
ATOM     60  C   UNL     1       5.106  -4.849  18.809  1.00  0.00     0.031 C 
ATOM     61  C   UNL     1       6.745  -6.668  19.194  1.00  0.00     0.031 A 
BRANCH  48  62
ATOM     62  C   UNL     1      10.237 -10.858  16.288  1.00  0.00    -0.014 A 
ATOM     63  C   UNL     1      11.573 -10.735  15.872  1.00  0.00     0.009 A 
ATOM     64  C   UNL     1       9.808 -12.078  16.834  1.00  0.00     0.009 A 
ATOM     65  C   UNL     1      12.447 -11.821  15.962  1.00  0.00     0.001 A 
ATOM     66  C   UNL     1      10.692 -13.152  16.953  1.00  0.00     0.001 A 
ATOM     67  C   UNL     1      12.007 -13.026  16.507  1.00  0.00     0.000 A 
ENDBRANCH  48  62
BRANCH  49  68
ATOM     68  C   UNL     1       3.660  -3.435  15.115  1.00  0.00    -0.014 A 
ATOM     69  C   UNL     1       3.998  -2.114  15.448  1.00  0.00     0.009 A 
ATOM     70  C   UNL     1       2.370  -3.703  14.633  1.00  0.00     0.009 A 
ATOM     71  C   UNL     1       3.056  -1.090  15.330  1.00  0.00     0.001 A 
ATOM     72  C   UNL     1       1.439  -2.671  14.486  1.00  0.00     0.001 A 
ATOM     73  C   UNL     1       1.779  -1.368  14.845  1.00  0.00     0.000 A 
ENDBRANCH  49  68
BRANCH  61  74
ATOM     74  C   UNL     1       6.636  -6.392  20.667  1.00  0.00    -0.014 A 
ATOM     75  C   UNL     1       5.479  -6.721  21.390  1.00  0.00     0.009 A 
ATOM     76  C   UNL     1       7.726  -5.824  21.347  1.00  0.00     0.009 A 
ATOM     77  C   UNL     1       5.402  -6.451  22.758  1.00  0.00     0.001 A 
ATOM     78  C   UNL     1       7.657  -5.585  22.720  1.00  0.00     0.001 A 
ATOM     79  C   UNL     1       6.492  -5.889  23.422  1.00  0.00     0.000 A 
ENDBRANCH  61  74
ENDBRANCH  35  36
ENDBRANCH  27  30
ENDBRANCH  25  26
ENDBRANCH  24  25
ENDBRANCH   1  24
TORSDOF 14
