REMARK SMILES CC(C)(C)OC(=O)N1CCC[C@@H](CC2CCCCC2)[C@@H]1C(=O)NCCCNC(=O)c1ccc(-c2c3nc(c(-c4ccccc4)c4ccc([nH]4)c(-c4ccccc4)c4nc(c(-c5ccccc5)c5ccc2[nH]5)C=C4)C=C3)cc1
REMARK SMILES IDX 24 1 23 2 21 3 22 4 20 6 8 7 9 8 10 9 12 10 11 11 6 12 7 13
REMARK SMILES IDX 5 14 2 15 1 16 3 17 4 18 13 19 14 20 15 21 19 22 16 23 18 24
REMARK SMILES IDX 17 25 25 26 26 27 27 28 28 29 29 31 30 32 31 33 77 34 32 35
REMARK SMILES IDX 76 36 33 37 34 38 35 39 70 40 36 41 75 42 69 43 71 44 37 45
REMARK SMILES IDX 74 46 68 47 67 48 38 50 60 51 45 52 59 53 46 54 49 55 58 56
REMARK SMILES IDX 72 57 47 58 48 59 57 61 73 62 50 63 39 64 40 65 44 66 41 67
REMARK SMILES IDX 43 68 42 69 61 70 62 71 66 72 63 73 65 74 64 75 51 76 52 77
REMARK SMILES IDX 56 78 53 79 55 80 54 81
REMARK H PARENT 23 5 27 30 71 49 49 60
REMARK Flexibility Score: inf
ROOT
ATOM      1  C   UNL     1       2.717   4.658  -0.077  1.00  0.00     0.117 C 
ENDROOT
BRANCH   1   2
ATOM      2  N   UNL     1       3.241   3.530   0.671  1.00  0.00    -0.354 N 
ATOM      3  C   UNL     1       2.996   3.145   1.954  1.00  0.00     0.243 C 
ATOM      4  O   UNL     1       3.663   2.207   2.401  1.00  0.00    -0.273 OA
ATOM      5  H   UNL     1       3.869   2.956   0.175  1.00  0.00     0.163 HD
BRANCH   3   6
ATOM      6  C   UNL     1       2.040   3.952   2.859  1.00  0.00     0.181 C 
ATOM      7  N   UNL     1       0.711   4.242   2.240  1.00  0.00    -0.296 N 
ATOM      8  C   UNL     1      -0.102   5.251   2.903  1.00  0.00     0.124 C 
ATOM      9  C   UNL     1       0.638   6.565   3.016  1.00  0.00     0.022 C 
ATOM     10  C   UNL     1       2.797   5.279   3.267  1.00  0.00     0.022 C 
ATOM     11  C   UNL     1       1.880   6.352   3.867  1.00  0.00     0.008 C 
BRANCH   7  12
ATOM     12  C   UNL     1       0.032   3.420   1.339  1.00  0.00     0.410 C 
ATOM     13  O   UNL     1      -1.005   3.777   0.789  1.00  0.00    -0.224 OA
BRANCH  12  14
ATOM     14  O   UNL     1       0.641   2.235   1.089  1.00  0.00    -0.444 OA
BRANCH  14  15
ATOM     15  C   UNL     1       0.193   1.374   0.001  1.00  0.00     0.106 C 
ATOM     16  C   UNL     1       0.944   0.049   0.201  1.00  0.00     0.056 C 
ATOM     17  C   UNL     1       0.611   1.967  -1.350  1.00  0.00     0.056 C 
ATOM     18  C   UNL     1      -1.313   1.080   0.023  1.00  0.00     0.056 C 
ENDBRANCH  14  15
ENDBRANCH  12  14
ENDBRANCH   7  12
BRANCH  10  19
ATOM     19  C   UNL     1       4.150   5.139   4.029  1.00  0.00     0.010 C 
BRANCH  19  20
ATOM     20  C   UNL     1       4.260   4.668   5.499  1.00  0.00    -0.011 C 
ATOM     21  C   UNL     1       3.774   5.697   6.534  1.00  0.00     0.003 C 
ATOM     22  C   UNL     1       3.667   3.278   5.737  1.00  0.00     0.003 C 
ATOM     23  C   UNL     1       3.872   5.189   7.973  1.00  0.00     0.000 C 
ATOM     24  C   UNL     1       3.836   2.815   7.179  1.00  0.00     0.000 C 
ATOM     25  C   UNL     1       3.210   3.825   8.132  1.00  0.00     0.000 C 
ENDBRANCH  19  20
ENDBRANCH  10  19
ENDBRANCH   3   6
ENDBRANCH   1   2
BRANCH   1  26
ATOM     26  C   UNL     1       3.839   5.507  -0.640  1.00  0.00     0.042 C 
BRANCH  26  27
ATOM     27  C   UNL     1       4.740   4.736  -1.591  1.00  0.00     0.118 C 
BRANCH  27  28
ATOM     28  N   UNL     1       4.012   4.178  -2.725  1.00  0.00    -0.352 N 
ATOM     29  C   UNL     1       4.147   4.449  -4.063  1.00  0.00     0.251 C 
ATOM     30  H   UNL     1       3.324   3.511  -2.498  1.00  0.00     0.163 HD
ATOM     31  O   UNL     1       3.318   4.045  -4.870  1.00  0.00    -0.269 OA
BRANCH  29  32
ATOM     32  C   UNL     1       5.299   5.250  -4.512  1.00  0.00     0.039 A 
ATOM     33  C   UNL     1       5.095   6.299  -5.409  1.00  0.00     0.014 A 
ATOM     34  C   UNL     1       6.573   4.981  -4.007  1.00  0.00     0.014 A 
ATOM     35  C   UNL     1       6.165   7.128  -5.744  1.00  0.00     0.010 A 
ATOM     36  C   UNL     1       7.609   5.867  -4.257  1.00  0.00     0.010 A 
ATOM     37  C   UNL     1       7.419   6.940  -5.139  1.00  0.00    -0.014 A 
BRANCH  37  38
ATOM     38  C   UNL     1       8.565   7.832  -5.435  1.00  0.00     0.031 A 
ATOM     39  C   UNL     1       9.803   7.260  -6.069  1.00  0.00     0.074 A 
ATOM     40  C   UNL     1       8.518   9.128  -5.073  1.00  0.00     0.049 A 
ATOM     41  N   UNL     1      10.945   7.844  -6.325  1.00  0.00    -0.248 NA
ATOM     42  C   UNL     1       9.763   5.833  -6.436  1.00  0.00     0.031 C 
ATOM     43  C   UNL     1       7.387   9.791  -4.419  1.00  0.00     0.029 A 
ATOM     44  N   UNL     1       9.455  10.122  -5.202  1.00  0.00    -0.354 N 
ATOM     45  C   UNL     1      11.758   6.856  -6.865  1.00  0.00     0.074 A 
ATOM     46  C   UNL     1      11.006   5.622  -6.840  1.00  0.00     0.031 C 
ATOM     47  C   UNL     1       7.683  11.089  -4.239  1.00  0.00     0.029 A 
ATOM     48  C   UNL     1       9.037  11.338  -4.720  1.00  0.00     0.049 A 
ATOM     49  H   UNL     1      10.342   9.977  -5.603  1.00  0.00     0.167 HD
ATOM     50  C   UNL     1      13.010   6.969  -7.367  1.00  0.00     0.031 A 
ATOM     51  C   UNL     1       9.679  12.520  -4.668  1.00  0.00     0.031 A 
ATOM     52  C   UNL     1      13.751   8.199  -7.405  1.00  0.00     0.049 A 
ATOM     53  C   UNL     1      11.081  12.612  -5.206  1.00  0.00     0.074 A 
ATOM     54  C   UNL     1      15.013   8.430  -7.922  1.00  0.00     0.029 A 
ATOM     55  N   UNL     1      13.290   9.409  -6.910  1.00  0.00    -0.354 N 
ATOM     56  N   UNL     1      11.818  11.679  -5.759  1.00  0.00    -0.248 NA
ATOM     57  C   UNL     1      11.735  13.925  -5.121  1.00  0.00     0.031 C 
ATOM     58  C   UNL     1      15.333   9.774  -7.702  1.00  0.00     0.029 A 
ATOM     59  C   UNL     1      14.248  10.389  -7.098  1.00  0.00     0.049 A 
ATOM     60  H   UNL     1      12.412   9.550  -6.487  1.00  0.00     0.167 HD
ATOM     61  C   UNL     1      13.006  12.301  -6.120  1.00  0.00     0.074 A 
ATOM     62  C   UNL     1      12.885  13.692  -5.736  1.00  0.00     0.031 C 
ATOM     63  C   UNL     1      14.100  11.770  -6.718  1.00  0.00     0.031 A 
BRANCH  50  64
ATOM     64  C   UNL     1      13.645   5.726  -7.922  1.00  0.00    -0.014 A 
ATOM     65  C   UNL     1      13.176   5.143  -9.111  1.00  0.00     0.009 A 
ATOM     66  C   UNL     1      14.740   5.143  -7.267  1.00  0.00     0.009 A 
ATOM     67  C   UNL     1      13.766   3.981  -9.611  1.00  0.00     0.001 A 
ATOM     68  C   UNL     1      15.348   3.998  -7.786  1.00  0.00     0.001 A 
ATOM     69  C   UNL     1      14.855   3.413  -8.952  1.00  0.00     0.000 A 
ENDBRANCH  50  64
BRANCH  51  70
ATOM     70  C   UNL     1       9.006  13.720  -4.106  1.00  0.00    -0.014 A 
ATOM     71  C   UNL     1       8.646  14.788  -4.944  1.00  0.00     0.009 A 
ATOM     72  C   UNL     1       8.744  13.820  -2.732  1.00  0.00     0.009 A 
ATOM     73  C   UNL     1       8.072  15.945  -4.411  1.00  0.00     0.001 A 
ATOM     74  C   UNL     1       8.142  14.966  -2.206  1.00  0.00     0.001 A 
ATOM     75  C   UNL     1       7.819  16.032  -3.044  1.00  0.00     0.000 A 
ENDBRANCH  51  70
BRANCH  63  76
ATOM     76  C   UNL     1      15.229  12.707  -7.039  1.00  0.00    -0.014 A 
ATOM     77  C   UNL     1      16.056  13.227  -6.032  1.00  0.00     0.009 A 
ATOM     78  C   UNL     1      15.492  13.038  -8.377  1.00  0.00     0.009 A 
ATOM     79  C   UNL     1      17.104  14.089  -6.357  1.00  0.00     0.001 A 
ATOM     80  C   UNL     1      16.560  13.875  -8.702  1.00  0.00     0.001 A 
ATOM     81  C   UNL     1      17.358  14.407  -7.692  1.00  0.00     0.000 A 
ENDBRANCH  63  76
ENDBRANCH  37  38
ENDBRANCH  29  32
ENDBRANCH  27  28
ENDBRANCH  26  27
ENDBRANCH   1  26
TORSDOF 15
