REMARK SMILES [NH3+][C@H](Cc1ccc(O)c(F)c1)C(=O)NCCCNC(=O)c1ccc(-c2c3nc(c(-c4ccccc4)c4ccc([nH]4)c(-c4ccccc4)c4nc(c(-c5ccccc5)c5ccc2[nH]5)C=C4)C=C3)cc1
REMARK SMILES IDX 15 1 14 2 12 3 13 4 2 6 1 7 3 11 4 12 5 13 11 14 6 15 9 16
REMARK SMILES IDX 7 17 10 18 8 19 16 21 17 22 18 23 19 24 20 26 21 27 22 28
REMARK SMILES IDX 68 29 23 30 67 31 24 32 25 33 26 34 61 35 27 36 66 37 60 38
REMARK SMILES IDX 62 39 28 40 65 41 59 42 58 43 29 45 51 46 36 47 50 48 37 49
REMARK SMILES IDX 40 50 49 51 63 52 38 53 39 54 48 56 64 57 41 58 30 59 31 60
REMARK SMILES IDX 35 61 32 62 34 63 33 64 52 65 53 66 57 67 54 68 56 69 55 70
REMARK SMILES IDX 42 71 43 72 47 73 44 74 46 75 45 76
REMARK H PARENT 14 5 1 8 1 9 1 10 8 20 18 25 62 44 40 55
REMARK Flexibility Score: inf
ROOT
ATOM      1  C   UNL     1      -1.412   1.019  -1.705  1.00  0.00     0.118 C 
ENDROOT
BRANCH   1   2
ATOM      2  N   UNL     1      -1.660   1.031  -0.282  1.00  0.00    -0.351 N 
ATOM      3  C   UNL     1      -0.798   1.227   0.759  1.00  0.00     0.278 C 
ATOM      4  O   UNL     1      -1.272   1.149   1.896  1.00  0.00    -0.268 OA
ATOM      5  H   UNL     1      -2.596   0.873  -0.022  1.00  0.00     0.163 HD
BRANCH   3   6
ATOM      6  C   UNL     1       0.707   1.550   0.537  1.00  0.00     0.275 C 
BRANCH   6   7
ATOM      7  N   UNL     1       0.867   2.932   0.062  1.00  0.00    -0.347 N 
ATOM      8  H   UNL     1       0.291   3.555   0.628  1.00  0.00     0.345 HD
ATOM      9  H   UNL     1       0.575   2.992  -0.914  1.00  0.00     0.345 HD
ATOM     10  H   UNL     1       1.846   3.207   0.141  1.00  0.00     0.345 HD
ENDBRANCH   6   7
BRANCH   6  11
ATOM     11  C   UNL     1       1.484   0.402  -0.165  1.00  0.00     0.111 C 
BRANCH  11  12
ATOM     12  C   UNL     1       2.365   0.593  -1.393  1.00  0.00    -0.038 A 
ATOM     13  C   UNL     1       3.456  -0.286  -1.560  1.00  0.00     0.008 A 
ATOM     14  C   UNL     1       2.097   1.478  -2.445  1.00  0.00     0.047 A 
ATOM     15  C   UNL     1       4.231  -0.289  -2.728  1.00  0.00     0.049 A 
ATOM     16  C   UNL     1       2.850   1.458  -3.618  1.00  0.00     0.165 A 
ATOM     17  C   UNL     1       3.912   0.578  -3.765  1.00  0.00     0.151 A 
ATOM     18  F   UNL     1       2.511   2.291  -4.613  1.00  0.00    -0.203 F 
BRANCH  17  19
ATOM     19  O   UNL     1       4.616   0.576  -4.933  1.00  0.00    -0.505 OA
ATOM     20  H   UNL     1       5.336  -0.014  -5.046  1.00  0.00     0.293 HD
ENDBRANCH  17  19
ENDBRANCH  11  12
ENDBRANCH   6  11
ENDBRANCH   3   6
ENDBRANCH   1   2
BRANCH   1  21
ATOM     21  C   UNL     1      -1.628  -0.354  -2.324  1.00  0.00     0.042 C 
BRANCH  21  22
ATOM     22  C   UNL     1      -3.084  -0.620  -2.674  1.00  0.00     0.118 C 
BRANCH  22  23
ATOM     23  N   UNL     1      -3.551   0.215  -3.776  1.00  0.00    -0.352 N 
ATOM     24  C   UNL     1      -4.058  -0.130  -5.007  1.00  0.00     0.251 C 
ATOM     25  H   UNL     1      -3.494   1.184  -3.611  1.00  0.00     0.163 HD
ATOM     26  O   UNL     1      -4.226   0.733  -5.858  1.00  0.00    -0.269 OA
BRANCH  24  27
ATOM     27  C   UNL     1      -4.384  -1.540  -5.312  1.00  0.00     0.039 A 
ATOM     28  C   UNL     1      -4.093  -2.044  -6.584  1.00  0.00     0.014 A 
ATOM     29  C   UNL     1      -4.991  -2.359  -4.359  1.00  0.00     0.014 A 
ATOM     30  C   UNL     1      -4.347  -3.387  -6.873  1.00  0.00     0.010 A 
ATOM     31  C   UNL     1      -5.151  -3.715  -4.614  1.00  0.00     0.010 A 
ATOM     32  C   UNL     1      -4.843  -4.242  -5.877  1.00  0.00    -0.014 A 
BRANCH  32  33
ATOM     33  C   UNL     1      -5.078  -5.686  -6.126  1.00  0.00     0.031 A 
ATOM     34  C   UNL     1      -6.466  -6.251  -5.981  1.00  0.00     0.074 A 
ATOM     35  C   UNL     1      -4.040  -6.504  -6.386  1.00  0.00     0.049 A 
ATOM     36  N   UNL     1      -6.860  -7.498  -6.014  1.00  0.00    -0.248 NA
ATOM     37  C   UNL     1      -7.550  -5.286  -5.729  1.00  0.00     0.031 C 
ATOM     38  C   UNL     1      -2.640  -6.091  -6.513  1.00  0.00     0.029 A 
ATOM     39  N   UNL     1      -4.003  -7.862  -6.578  1.00  0.00    -0.354 N 
ATOM     40  C   UNL     1      -8.223  -7.469  -5.747  1.00  0.00     0.074 A 
ATOM     41  C   UNL     1      -8.580  -6.088  -5.509  1.00  0.00     0.031 C 
ATOM     42  C   UNL     1      -1.887  -7.169  -6.787  1.00  0.00     0.029 A 
ATOM     43  C   UNL     1      -2.741  -8.352  -6.809  1.00  0.00     0.049 A 
ATOM     44  H   UNL     1      -4.806  -8.432  -6.551  1.00  0.00     0.167 HD
ATOM     45  C   UNL     1      -9.105  -8.495  -5.722  1.00  0.00     0.031 A 
ATOM     46  C   UNL     1      -2.317  -9.614  -7.008  1.00  0.00     0.031 A 
ATOM     47  C   UNL     1      -8.758  -9.863  -5.996  1.00  0.00     0.049 A 
ATOM     48  C   UNL     1      -3.318 -10.735  -6.991  1.00  0.00     0.074 A 
ATOM     49  C   UNL     1      -9.590 -10.967  -6.062  1.00  0.00     0.029 A 
ATOM     50  N   UNL     1      -7.473 -10.310  -6.258  1.00  0.00    -0.354 N 
ATOM     51  N   UNL     1      -4.612 -10.685  -6.788  1.00  0.00    -0.248 NA
ATOM     52  C   UNL     1      -2.798 -12.088  -7.240  1.00  0.00     0.031 C 
ATOM     53  C   UNL     1      -8.800 -12.091  -6.327  1.00  0.00     0.029 A 
ATOM     54  C   UNL     1      -7.486 -11.677  -6.473  1.00  0.00     0.049 A 
ATOM     55  H   UNL     1      -6.671  -9.740  -6.287  1.00  0.00     0.167 HD
ATOM     56  C   UNL     1      -5.066 -11.991  -6.912  1.00  0.00     0.074 A 
ATOM     57  C   UNL     1      -3.910 -12.809  -7.221  1.00  0.00     0.031 C 
ATOM     58  C   UNL     1      -6.326 -12.471  -6.784  1.00  0.00     0.031 A 
BRANCH  45  59
ATOM     59  C   UNL     1     -10.534  -8.169  -5.385  1.00  0.00    -0.014 A 
ATOM     60  C   UNL     1     -11.348  -7.453  -6.277  1.00  0.00     0.009 A 
ATOM     61  C   UNL     1     -11.079  -8.601  -4.166  1.00  0.00     0.009 A 
ATOM     62  C   UNL     1     -12.665  -7.138  -5.937  1.00  0.00     0.001 A 
ATOM     63  C   UNL     1     -12.406  -8.311  -3.841  1.00  0.00     0.001 A 
ATOM     64  C   UNL     1     -13.194  -7.571  -4.722  1.00  0.00     0.000 A 
ENDBRANCH  45  59
BRANCH  46  65
ATOM     65  C   UNL     1      -0.879  -9.886  -7.260  1.00  0.00    -0.014 A 
ATOM     66  C   UNL     1      -0.444 -10.261  -8.541  1.00  0.00     0.009 A 
ATOM     67  C   UNL     1       0.065  -9.778  -6.227  1.00  0.00     0.009 A 
ATOM     68  C   UNL     1       0.902 -10.547  -8.775  1.00  0.00     0.001 A 
ATOM     69  C   UNL     1       1.415 -10.039  -6.471  1.00  0.00     0.001 A 
ATOM     70  C   UNL     1       1.831 -10.433  -7.742  1.00  0.00     0.000 A 
ENDBRANCH  46  65
BRANCH  58  71
ATOM     71  C   UNL     1      -6.527 -13.941  -7.016  1.00  0.00    -0.014 A 
ATOM     72  C   UNL     1      -6.113 -14.891  -6.071  1.00  0.00     0.009 A 
ATOM     73  C   UNL     1      -7.182 -14.375  -8.180  1.00  0.00     0.009 A 
ATOM     74  C   UNL     1      -6.324 -16.252  -6.301  1.00  0.00     0.001 A 
ATOM     75  C   UNL     1      -7.415 -15.733  -8.394  1.00  0.00     0.001 A 
ATOM     76  C   UNL     1      -6.979 -16.671  -7.459  1.00  0.00     0.000 A 
ENDBRANCH  58  71
ENDBRANCH  32  33
ENDBRANCH  24  27
ENDBRANCH  22  23
ENDBRANCH  21  22
ENDBRANCH   1  21
TORSDOF 14
