REMARK SMILES Cc1ccc(NC(=O)C[N@H+]2CCC[C@@H](C(=O)NCCCNC(=O)c3ccc(-c4c5nc(c(-c6ccccc6)c6ccc([nH]6)c(-c6ccccc6)c6nc(c(-c7ccccc7)c7ccc4[nH]7)C=C6)C=C5)cc3)C2)cc1Cl
REMARK SMILES IDX 18 1 17 2 15 3 16 4 14 6 10 7 11 8 72 9 12 11 13 12 9 13
REMARK SMILES IDX 7 14 6 15 8 17 5 18 1 19 2 20 3 21 74 22 4 23 73 24 75 25
REMARK SMILES IDX 19 26 20 27 21 28 22 29 23 31 24 32 25 33 71 34 26 35 70 36
REMARK SMILES IDX 27 37 28 38 29 39 64 40 30 41 69 42 63 43 65 44 31 45 68 46
REMARK SMILES IDX 62 47 61 48 32 50 54 51 39 52 53 53 40 54 43 55 52 56 66 57
REMARK SMILES IDX 41 58 42 59 51 61 67 62 44 63 33 64 34 65 38 66 35 67 37 68
REMARK SMILES IDX 36 69 55 70 56 71 60 72 57 73 59 74 58 75 45 76 46 77 50 78
REMARK SMILES IDX 47 79 49 80 48 81
REMARK H PARENT 17 5 10 10 6 16 21 30 65 49 43 60
REMARK Flexibility Score: inf
ROOT
ATOM      1  C   UNL     1       1.830   0.883  -2.446  1.00  0.00     0.117 C 
ENDROOT
BRANCH   1   2
ATOM      2  N   UNL     1       0.399   0.866  -2.690  1.00  0.00    -0.356 N 
ATOM      3  C   UNL     1      -0.389  -0.118  -3.207  1.00  0.00     0.228 C 
ATOM      4  O   UNL     1      -1.529   0.194  -3.556  1.00  0.00    -0.275 OA
ATOM      5  H   UNL     1      -0.075   1.693  -2.445  1.00  0.00     0.163 HD
BRANCH   3   6
ATOM      6  C   UNL     1       0.094  -1.563  -3.191  1.00  0.00     0.133 C 
ATOM      7  N   UNL     1      -0.134  -3.526  -1.595  1.00  0.00    -0.326 N 
ATOM      8  C   UNL     1      -0.812  -4.307  -2.635  1.00  0.00     0.262 C 
ATOM      9  C   UNL     1      -0.292  -2.087  -1.804  1.00  0.00     0.276 C 
ATOM     10  H   UNL     1       0.862  -3.730  -1.678  1.00  0.00     0.348 HD
ATOM     11  C   UNL     1      -0.327  -3.888  -4.027  1.00  0.00     0.062 C 
ATOM     12  C   UNL     1      -0.579  -2.403  -4.277  1.00  0.00     0.025 C 
BRANCH   7  13
ATOM     13  C   UNL     1      -0.530  -3.944  -0.220  1.00  0.00     0.363 C 
BRANCH  13  14
ATOM     14  C   UNL     1      -1.999  -3.684   0.162  1.00  0.00     0.279 C 
ATOM     15  N   UNL     1      -2.469  -2.476   0.613  1.00  0.00    -0.321 N 
ATOM     16  H   UNL     1      -3.438  -2.470   0.789  1.00  0.00     0.170 HD
ATOM     17  O   UNL     1      -2.844  -4.574  -0.008  1.00  0.00    -0.268 OA
BRANCH  15  18
ATOM     18  C   UNL     1      -1.840  -1.247   0.871  1.00  0.00     0.042 A 
ATOM     19  C   UNL     1       0.072   2.633   0.817  1.00  0.00     0.046 C 
ATOM     20  C   UNL     1      -0.596   1.293   0.941  1.00  0.00    -0.032 A 
ATOM     21  C   UNL     1      -1.933   1.160   0.543  1.00  0.00     0.007 A 
ATOM     22  C   UNL     1       0.084   0.143   1.365  1.00  0.00     0.046 A 
ATOM     23  C   UNL     1      -2.554  -0.093   0.530  1.00  0.00     0.026 A 
ATOM     24  C   UNL     1      -0.545  -1.111   1.362  1.00  0.00     0.047 A 
ATOM     25  Cl  UNL     1       1.746   0.197   1.838  1.00  0.00    -0.084 Cl
ENDBRANCH  15  18
ENDBRANCH  13  14
ENDBRANCH   7  13
ENDBRANCH   3   6
ENDBRANCH   1   2
BRANCH   1  26
ATOM     26  C   UNL     1       2.555   1.626  -3.564  1.00  0.00     0.042 C 
BRANCH  26  27
ATOM     27  C   UNL     1       2.153   3.096  -3.692  1.00  0.00     0.118 C 
BRANCH  27  28
ATOM     28  N   UNL     1       2.607   3.914  -2.574  1.00  0.00    -0.352 N 
ATOM     29  C   UNL     1       3.449   5.000  -2.562  1.00  0.00     0.251 C 
ATOM     30  H   UNL     1       2.257   3.647  -1.693  1.00  0.00     0.163 HD
ATOM     31  O   UNL     1       3.820   5.478  -1.494  1.00  0.00    -0.269 OA
BRANCH  29  32
ATOM     32  C   UNL     1       3.941   5.570  -3.834  1.00  0.00     0.039 A 
ATOM     33  C   UNL     1       5.309   5.816  -3.977  1.00  0.00     0.014 A 
ATOM     34  C   UNL     1       3.065   5.837  -4.889  1.00  0.00     0.014 A 
ATOM     35  C   UNL     1       5.812   6.235  -5.211  1.00  0.00     0.010 A 
ATOM     36  C   UNL     1       3.575   6.183  -6.137  1.00  0.00     0.010 A 
ATOM     37  C   UNL     1       4.955   6.368  -6.316  1.00  0.00    -0.014 A 
BRANCH  37  38
ATOM     38  C   UNL     1       5.482   6.653  -7.675  1.00  0.00     0.031 A 
ATOM     39  C   UNL     1       5.095   7.914  -8.394  1.00  0.00     0.074 A 
ATOM     40  C   UNL     1       6.237   5.728  -8.301  1.00  0.00     0.049 A 
ATOM     41  N   UNL     1       5.366   8.282  -9.621  1.00  0.00    -0.248 NA
ATOM     42  C   UNL     1       4.275   8.879  -7.643  1.00  0.00     0.031 C 
ATOM     43  C   UNL     1       6.657   4.445  -7.731  1.00  0.00     0.029 A 
ATOM     44  N   UNL     1       6.774   5.719  -9.565  1.00  0.00    -0.354 N 
ATOM     45  C   UNL     1       4.736   9.507  -9.795  1.00  0.00     0.074 A 
ATOM     46  C   UNL     1       4.035   9.801  -8.564  1.00  0.00     0.031 C 
ATOM     47  C   UNL     1       7.401   3.785  -8.633  1.00  0.00     0.029 A 
ATOM     48  C   UNL     1       7.471   4.571  -9.859  1.00  0.00     0.049 A 
ATOM     49  H   UNL     1       6.670   6.464 -10.200  1.00  0.00     0.167 HD
ATOM     50  C   UNL     1       4.751  10.321 -10.878  1.00  0.00     0.031 A 
ATOM     51  C   UNL     1       8.084   4.185 -10.994  1.00  0.00     0.031 A 
ATOM     52  C   UNL     1       5.453  10.034 -12.100  1.00  0.00     0.049 A 
ATOM     53  C   UNL     1       8.058   5.092 -12.191  1.00  0.00     0.074 A 
ATOM     54  C   UNL     1       5.575  10.826 -13.229  1.00  0.00     0.029 A 
ATOM     55  N   UNL     1       6.146   8.862 -12.356  1.00  0.00    -0.354 N 
ATOM     56  N   UNL     1       7.512   6.277 -12.318  1.00  0.00    -0.248 NA
ATOM     57  C   UNL     1       8.738   4.609 -13.402  1.00  0.00     0.031 C 
ATOM     58  C   UNL     1       6.299  10.110 -14.188  1.00  0.00     0.029 A 
ATOM     59  C   UNL     1       6.673   8.896 -13.636  1.00  0.00     0.049 A 
ATOM     60  H   UNL     1       6.249   8.116 -11.722  1.00  0.00     0.167 HD
ATOM     61  C   UNL     1       7.801   6.690 -13.611  1.00  0.00     0.074 A 
ATOM     62  C   UNL     1       8.584   5.637 -14.225  1.00  0.00     0.031 C 
ATOM     63  C   UNL     1       7.447   7.840 -14.235  1.00  0.00     0.031 A 
BRANCH  50  64
ATOM     64  C   UNL     1       3.970  11.603 -10.790  1.00  0.00    -0.014 A 
ATOM     65  C   UNL     1       4.396  12.660  -9.970  1.00  0.00     0.009 A 
ATOM     66  C   UNL     1       2.812  11.770 -11.566  1.00  0.00     0.009 A 
ATOM     67  C   UNL     1       3.659  13.844  -9.901  1.00  0.00     0.001 A 
ATOM     68  C   UNL     1       2.093  12.966 -11.517  1.00  0.00     0.001 A 
ATOM     69  C   UNL     1       2.512  13.997 -10.678  1.00  0.00     0.000 A 
ENDBRANCH  50  64
BRANCH  51  70
ATOM     70  C   UNL     1       8.776   2.871 -11.056  1.00  0.00    -0.014 A 
ATOM     71  C   UNL     1      10.176   2.808 -11.114  1.00  0.00     0.009 A 
ATOM     72  C   UNL     1       8.041   1.674 -11.066  1.00  0.00     0.009 A 
ATOM     73  C   UNL     1      10.826   1.575 -11.204  1.00  0.00     0.001 A 
ATOM     74  C   UNL     1       8.695   0.442 -11.128  1.00  0.00     0.001 A 
ATOM     75  C   UNL     1      10.086   0.394 -11.207  1.00  0.00     0.000 A 
ENDBRANCH  51  70
BRANCH  63  76
ATOM     76  C   UNL     1       7.927   8.033 -15.646  1.00  0.00    -0.014 A 
ATOM     77  C   UNL     1       7.359   7.318 -16.711  1.00  0.00     0.009 A 
ATOM     78  C   UNL     1       8.930   8.978 -15.916  1.00  0.00     0.009 A 
ATOM     79  C   UNL     1       7.805   7.528 -18.018  1.00  0.00     0.001 A 
ATOM     80  C   UNL     1       9.354   9.205 -17.226  1.00  0.00     0.001 A 
ATOM     81  C   UNL     1       8.797   8.474 -18.274  1.00  0.00     0.000 A 
ENDBRANCH  63  76
ENDBRANCH  37  38
ENDBRANCH  29  32
ENDBRANCH  27  28
ENDBRANCH  26  27
ENDBRANCH   1  26
TORSDOF 13
