REMARK SMILES O=C(NCCCNC(=O)c1ccc(-c2c3nc(c(-c4ccccc4)c4ccc([nH]4)c(-c4ccccc4)c4nc(c(-c5ccccc5)c5ccc2[nH]5)C=C4)C=C3)cc1)C1=Cc2cc(Cl)cc(Cl)c2O[C@@H]1C(F)(F)F
REMARK SMILES IDX 5 1 4 2 3 3 1 4 2 5 58 7 59 8 69 9 60 10 68 11 61 12 67 13
REMARK SMILES IDX 62 14 65 15 63 16 64 17 66 18 70 19 71 20 72 21 73 22 6 23
REMARK SMILES IDX 7 24 8 25 9 27 10 28 11 29 57 30 12 31 56 32 13 33 14 34
REMARK SMILES IDX 15 35 50 36 16 37 55 38 49 39 51 40 17 41 54 42 48 43 47 44
REMARK SMILES IDX 18 46 40 47 25 48 39 49 26 50 29 51 38 52 52 53 27 54 28 55
REMARK SMILES IDX 37 57 53 58 30 59 19 60 20 61 24 62 21 63 23 64 22 65 41 66
REMARK SMILES IDX 42 67 46 68 43 69 45 70 44 71 31 72 32 73 36 74 33 75 35 76
REMARK SMILES IDX 34 77
REMARK H PARENT 3 6 7 26 51 45 29 56
REMARK Flexibility Score: inf
ROOT
ATOM      1  C   UNL     1       4.038  -1.615   2.286  1.00  0.00     0.042 C 
ENDROOT
BRANCH   1   2
ATOM      2  C   UNL     1       3.242  -1.308   1.023  1.00  0.00     0.118 C 
BRANCH   2   3
ATOM      3  N   UNL     1       2.286  -0.211   1.202  1.00  0.00    -0.352 N 
ATOM      4  O   UNL     1       1.189   1.703   0.676  1.00  0.00    -0.270 OA
ATOM      5  C   UNL     1       2.169   0.986   0.537  1.00  0.00     0.251 C 
ATOM      6  H   UNL     1       1.621  -0.355   1.913  1.00  0.00     0.163 HD
BRANCH   5   7
ATOM      7  C   UNL     1       3.257   1.342  -0.388  1.00  0.00     0.067 C 
ATOM      8  C   UNL     1       4.443   1.620   0.164  1.00  0.00     0.025 C 
ATOM      9  C   UNL     1       3.084   0.974  -1.827  1.00  0.00     0.314 C 
ATOM     10  C   UNL     1       5.560   0.922  -0.482  1.00  0.00     0.020 A 
ATOM     11  O   UNL     1       4.141   0.106  -2.301  1.00  0.00    -0.474 OA
ATOM     12  C   UNL     1       6.727   0.764   0.273  1.00  0.00     0.032 A 
ATOM     13  C   UNL     1       5.318   0.083  -1.589  1.00  0.00     0.146 A 
ATOM     14  C   UNL     1       7.588  -0.295  -0.003  1.00  0.00     0.043 A 
ATOM     15  C   UNL     1       6.214  -0.959  -1.868  1.00  0.00     0.085 A 
ATOM     16  Cl  UNL     1       8.904  -0.607   1.060  1.00  0.00    -0.084 Cl
ATOM     17  C   UNL     1       7.330  -1.166  -1.058  1.00  0.00     0.045 A 
ATOM     18  Cl  UNL     1       5.869  -2.125  -3.097  1.00  0.00    -0.080 Cl
BRANCH   9  19
ATOM     19  C   UNL     1       2.963   2.223  -2.715  1.00  0.00     0.429 C 
ATOM     20  F   UNL     1       2.660   1.886  -3.992  1.00  0.00    -0.167 F 
ATOM     21  F   UNL     1       1.985   3.054  -2.287  1.00  0.00    -0.167 F 
ATOM     22  F   UNL     1       4.113   2.937  -2.750  1.00  0.00    -0.167 F 
ENDBRANCH   9  19
ENDBRANCH   5   7
ENDBRANCH   2   3
ENDBRANCH   1   2
BRANCH   1  23
ATOM     23  C   UNL     1       3.983  -3.089   2.671  1.00  0.00     0.118 C 
BRANCH  23  24
ATOM     24  N   UNL     1       4.652  -3.983   1.734  1.00  0.00    -0.352 N 
ATOM     25  C   UNL     1       5.550  -5.011   1.960  1.00  0.00     0.251 C 
ATOM     26  H   UNL     1       4.429  -3.830   0.787  1.00  0.00     0.163 HD
ATOM     27  O   UNL     1       6.045  -5.600   1.019  1.00  0.00    -0.269 OA
BRANCH  25  28
ATOM     28  C   UNL     1       5.949  -5.363   3.347  1.00  0.00     0.039 A 
ATOM     29  C   UNL     1       7.289  -5.667   3.610  1.00  0.00     0.014 A 
ATOM     30  C   UNL     1       5.026  -5.361   4.391  1.00  0.00     0.014 A 
ATOM     31  C   UNL     1       7.715  -5.856   4.929  1.00  0.00     0.010 A 
ATOM     32  C   UNL     1       5.471  -5.420   5.705  1.00  0.00     0.010 A 
ATOM     33  C   UNL     1       6.821  -5.670   5.994  1.00  0.00    -0.014 A 
BRANCH  33  34
ATOM     34  C   UNL     1       7.255  -5.734   7.416  1.00  0.00     0.031 A 
ATOM     35  C   UNL     1       6.584  -6.696   8.364  1.00  0.00     0.074 A 
ATOM     36  C   UNL     1       8.168  -4.860   7.884  1.00  0.00     0.049 A 
ATOM     37  N   UNL     1       6.706  -6.800   9.663  1.00  0.00    -0.248 NA
ATOM     38  C   UNL     1       5.608  -7.631   7.779  1.00  0.00     0.031 C 
ATOM     39  C   UNL     1       8.852  -3.833   7.093  1.00  0.00     0.029 A 
ATOM     40  N   UNL     1       8.673  -4.689   9.150  1.00  0.00    -0.354 N 
ATOM     41  C   UNL     1       5.790  -7.771  10.050  1.00  0.00     0.074 A 
ATOM     42  C   UNL     1       5.081  -8.183   8.860  1.00  0.00     0.031 C 
ATOM     43  C   UNL     1       9.713  -3.168   7.881  1.00  0.00     0.029 A 
ATOM     44  C   UNL     1       9.610  -3.687   9.240  1.00  0.00     0.049 A 
ATOM     45  H   UNL     1       8.391  -5.232   9.920  1.00  0.00     0.167 HD
ATOM     46  C   UNL     1       5.574  -8.296  11.279  1.00  0.00     0.031 A 
ATOM     47  C   UNL     1      10.307  -3.233  10.299  1.00  0.00     0.031 A 
ATOM     48  C   UNL     1       6.318  -7.928  12.452  1.00  0.00     0.049 A 
ATOM     49  C   UNL     1      10.086  -3.865  11.645  1.00  0.00     0.074 A 
ATOM     50  C   UNL     1       6.237  -8.459  13.727  1.00  0.00     0.029 A 
ATOM     51  N   UNL     1       7.294  -6.945  12.487  1.00  0.00    -0.354 N 
ATOM     52  N   UNL     1       9.259  -4.824  11.981  1.00  0.00    -0.248 NA
ATOM     53  C   UNL     1      10.905  -3.357  12.755  1.00  0.00     0.031 C 
ATOM     54  C   UNL     1       7.142  -7.772  14.543  1.00  0.00     0.029 A 
ATOM     55  C   UNL     1       7.817  -6.846  13.764  1.00  0.00     0.049 A 
ATOM     56  H   UNL     1       7.574  -6.399  11.717  1.00  0.00     0.167 HD
ATOM     57  C   UNL     1       9.476  -5.054  13.333  1.00  0.00     0.074 A 
ATOM     58  C   UNL     1      10.523  -4.144  13.751  1.00  0.00     0.031 C 
ATOM     59  C   UNL     1       8.862  -5.938  14.157  1.00  0.00     0.031 A 
BRANCH  46  60
ATOM     60  C   UNL     1       4.491  -9.332  11.408  1.00  0.00    -0.014 A 
ATOM     61  C   UNL     1       4.631 -10.607  10.836  1.00  0.00     0.009 A 
ATOM     62  C   UNL     1       3.320  -9.035  12.122  1.00  0.00     0.009 A 
ATOM     63  C   UNL     1       3.602 -11.546  10.935  1.00  0.00     0.001 A 
ATOM     64  C   UNL     1       2.306  -9.987  12.248  1.00  0.00     0.001 A 
ATOM     65  C   UNL     1       2.442 -11.236  11.644  1.00  0.00     0.000 A 
ENDBRANCH  46  60
BRANCH  47  66
ATOM     66  C   UNL     1      11.305  -2.145  10.127  1.00  0.00    -0.014 A 
ATOM     67  C   UNL     1      12.678  -2.427  10.199  1.00  0.00     0.009 A 
ATOM     68  C   UNL     1      10.896  -0.824   9.891  1.00  0.00     0.009 A 
ATOM     69  C   UNL     1      13.620  -1.405  10.066  1.00  0.00     0.001 A 
ATOM     70  C   UNL     1      11.841   0.193   9.731  1.00  0.00     0.001 A 
ATOM     71  C   UNL     1      13.201  -0.097   9.828  1.00  0.00     0.000 A 
ENDBRANCH  47  66
BRANCH  59  72
ATOM     72  C   UNL     1       9.335  -5.989  15.581  1.00  0.00    -0.014 A 
ATOM     73  C   UNL     1       9.011  -4.973  16.492  1.00  0.00     0.009 A 
ATOM     74  C   UNL     1      10.076  -7.095  16.025  1.00  0.00     0.009 A 
ATOM     75  C   UNL     1       9.449  -5.049  17.815  1.00  0.00     0.001 A 
ATOM     76  C   UNL     1      10.489  -7.181  17.355  1.00  0.00     0.001 A 
ATOM     77  C   UNL     1      10.183  -6.154  18.246  1.00  0.00     0.000 A 
ENDBRANCH  59  72
ENDBRANCH  33  34
ENDBRANCH  25  28
ENDBRANCH  23  24
ENDBRANCH   1  23
TORSDOF 11
