REMARK SMILES O=C(NCCCNC(=O)c1ccccc1/N=C/c1coc2ccccc2c1=O)c1ccc(-c2c3nc(c(-c4ccccc4)c4ccc([nH]4)c(-c4ccccc4)c4nc(c(-c5ccccc5)c5ccc2[nH]5)C=C4)C=C3)cc1
REMARK SMILES IDX 5 1 4 2 3 3 1 4 2 5 29 7 30 8 76 9 31 10 75 11 32 12 33 13
REMARK SMILES IDX 34 14 69 15 35 16 74 17 68 18 70 19 36 20 73 21 67 22 66 23
REMARK SMILES IDX 37 25 59 26 44 27 58 28 45 29 48 30 57 31 71 32 46 33 47 34
REMARK SMILES IDX 56 36 72 37 49 38 38 39 39 40 43 41 40 42 42 43 41 44 60 45
REMARK SMILES IDX 61 46 65 47 62 48 64 49 63 50 50 51 51 52 55 53 52 54 54 55
REMARK SMILES IDX 53 56 6 57 7 58 8 59 9 61 10 62 11 63 15 64 12 65 14 66
REMARK SMILES IDX 13 67 16 68 17 69 18 70 19 71 27 72 20 73 26 74 28 75 21 76
REMARK SMILES IDX 25 77 22 78 24 79 23 80
REMARK H PARENT 3 6 70 24 48 35 7 60
REMARK Flexibility Score: inf
ROOT
ATOM      1  C   UNL     1       6.066   1.395   1.903  1.00  0.00     0.042 C 
ENDROOT
BRANCH   1   2
ATOM      2  C   UNL     1       5.303   0.440   0.991  1.00  0.00     0.118 C 
BRANCH   2   3
ATOM      3  N   UNL     1       3.853   0.534   1.031  1.00  0.00    -0.352 N 
ATOM      4  O   UNL     1       1.735   0.349   0.244  1.00  0.00    -0.269 OA
ATOM      5  C   UNL     1       2.940   0.267   0.030  1.00  0.00     0.251 C 
ATOM      6  H   UNL     1       3.470   0.829   1.889  1.00  0.00     0.163 HD
BRANCH   5   7
ATOM      7  C   UNL     1       3.397  -0.038  -1.350  1.00  0.00     0.039 A 
ATOM      8  C   UNL     1       4.441  -0.924  -1.622  1.00  0.00     0.014 A 
ATOM      9  C   UNL     1       2.761   0.625  -2.409  1.00  0.00     0.014 A 
ATOM     10  C   UNL     1       4.958  -1.011  -2.916  1.00  0.00     0.010 A 
ATOM     11  C   UNL     1       3.240   0.490  -3.716  1.00  0.00     0.010 A 
ATOM     12  C   UNL     1       4.383  -0.280  -3.968  1.00  0.00    -0.014 A 
BRANCH  12  13
ATOM     13  C   UNL     1       5.030  -0.284  -5.304  1.00  0.00     0.031 A 
ATOM     14  C   UNL     1       5.742   0.944  -5.809  1.00  0.00     0.074 A 
ATOM     15  C   UNL     1       5.049  -1.411  -6.039  1.00  0.00     0.049 A 
ATOM     16  N   UNL     1       6.427   1.103  -6.915  1.00  0.00    -0.248 NA
ATOM     17  C   UNL     1       5.675   2.150  -4.968  1.00  0.00     0.031 C 
ATOM     18  C   UNL     1       4.405  -2.673  -5.671  1.00  0.00     0.029 A 
ATOM     19  N   UNL     1       5.673  -1.686  -7.230  1.00  0.00    -0.354 N 
ATOM     20  C   UNL     1       6.840   2.429  -6.918  1.00  0.00     0.074 A 
ATOM     21  C   UNL     1       6.334   3.033  -5.705  1.00  0.00     0.031 C 
ATOM     22  C   UNL     1       4.728  -3.607  -6.580  1.00  0.00     0.029 A 
ATOM     23  C   UNL     1       5.578  -3.003  -7.602  1.00  0.00     0.049 A 
ATOM     24  H   UNL     1       6.142  -1.005  -7.764  1.00  0.00     0.167 HD
ATOM     25  C   UNL     1       7.575   3.089  -7.844  1.00  0.00     0.031 A 
ATOM     26  C   UNL     1       6.133  -3.659  -8.636  1.00  0.00     0.031 A 
ATOM     27  C   UNL     1       8.122   2.499  -9.034  1.00  0.00     0.049 A 
ATOM     28  C   UNL     1       6.993  -2.923  -9.618  1.00  0.00     0.074 A 
ATOM     29  C   UNL     1       8.879   3.097 -10.027  1.00  0.00     0.029 A 
ATOM     30  N   UNL     1       7.986   1.166  -9.381  1.00  0.00    -0.354 N 
ATOM     31  N   UNL     1       7.349  -1.663  -9.617  1.00  0.00    -0.248 NA
ATOM     32  C   UNL     1       7.521  -3.702 -10.748  1.00  0.00     0.031 C 
ATOM     33  C   UNL     1       9.201   2.122 -10.980  1.00  0.00     0.029 A 
ATOM     34  C   UNL     1       8.649   0.920 -10.571  1.00  0.00     0.049 A 
ATOM     35  H   UNL     1       7.490   0.494  -8.860  1.00  0.00     0.167 HD
ATOM     36  C   UNL     1       8.133  -1.494 -10.749  1.00  0.00     0.074 A 
ATOM     37  C   UNL     1       8.219  -2.784 -11.403  1.00  0.00     0.031 C 
ATOM     38  C   UNL     1       8.721  -0.364 -11.210  1.00  0.00     0.031 A 
BRANCH  25  39
ATOM     39  C   UNL     1       7.818   4.548  -7.604  1.00  0.00    -0.014 A 
ATOM     40  C   UNL     1       8.878   4.977  -6.793  1.00  0.00     0.009 A 
ATOM     41  C   UNL     1       6.990   5.502  -8.216  1.00  0.00     0.009 A 
ATOM     42  C   UNL     1       9.094   6.340  -6.583  1.00  0.00     0.001 A 
ATOM     43  C   UNL     1       7.215   6.864  -8.011  1.00  0.00     0.001 A 
ATOM     44  C   UNL     1       8.263   7.282  -7.192  1.00  0.00     0.000 A 
ENDBRANCH  25  39
BRANCH  26  45
ATOM     45  C   UNL     1       5.922  -5.118  -8.770  1.00  0.00    -0.014 A 
ATOM     46  C   UNL     1       6.884  -6.011  -8.275  1.00  0.00     0.009 A 
ATOM     47  C   UNL     1       4.757  -5.621  -9.365  1.00  0.00     0.009 A 
ATOM     48  C   UNL     1       6.684  -7.388  -8.380  1.00  0.00     0.001 A 
ATOM     49  C   UNL     1       4.558  -6.999  -9.461  1.00  0.00     0.001 A 
ATOM     50  C   UNL     1       5.521  -7.881  -8.970  1.00  0.00     0.000 A 
ENDBRANCH  26  45
BRANCH  38  51
ATOM     51  C   UNL     1       9.494  -0.476 -12.487  1.00  0.00    -0.014 A 
ATOM     52  C   UNL     1       8.838  -0.370 -13.722  1.00  0.00     0.009 A 
ATOM     53  C   UNL     1      10.883  -0.663 -12.459  1.00  0.00     0.009 A 
ATOM     54  C   UNL     1       9.561  -0.467 -14.912  1.00  0.00     0.001 A 
ATOM     55  C   UNL     1      11.603  -0.754 -13.651  1.00  0.00     0.001 A 
ATOM     56  C   UNL     1      10.942  -0.659 -14.875  1.00  0.00     0.000 A 
ENDBRANCH  38  51
ENDBRANCH  12  13
ENDBRANCH   5   7
ENDBRANCH   2   3
ENDBRANCH   1   2
BRANCH   1  57
ATOM     57  C   UNL     1       5.797   1.280   3.397  1.00  0.00     0.118 C 
BRANCH  57  58
ATOM     58  N   UNL     1       5.943  -0.057   3.941  1.00  0.00    -0.352 N 
ATOM     59  C   UNL     1       6.255  -0.419   5.228  1.00  0.00     0.253 C 
ATOM     60  H   UNL     1       5.801  -0.797   3.307  1.00  0.00     0.163 HD
ATOM     61  O   UNL     1       6.274  -1.605   5.546  1.00  0.00    -0.269 OA
BRANCH  59  62
ATOM     62  C   UNL     1       6.614   0.593   6.240  1.00  0.00     0.065 A 
ATOM     63  C   UNL     1       7.903   0.505   6.790  1.00  0.00     0.016 A 
ATOM     64  C   UNL     1       5.727   1.582   6.683  1.00  0.00     0.076 A 
ATOM     65  C   UNL     1       8.330   1.433   7.742  1.00  0.00     0.001 A 
ATOM     66  C   UNL     1       6.178   2.507   7.638  1.00  0.00     0.029 A 
ATOM     67  C   UNL     1       7.467   2.438   8.164  1.00  0.00     0.002 A 
BRANCH  64  68
ATOM     68  N   UNL     1       4.466   1.846   6.151  1.00  0.00    -0.255 NA
ATOM     69  C   UNL     1       3.499   0.987   6.191  1.00  0.00     0.127 C 
BRANCH  69  70
ATOM     70  C   UNL     1       2.200   1.474   5.690  1.00  0.00     0.076 A 
ATOM     71  C   UNL     1       1.379   1.887   6.669  1.00  0.00     0.209 A 
ATOM     72  C   UNL     1       2.152   2.252   4.429  1.00  0.00     0.201 A 
ATOM     73  O   UNL     1       0.569   3.009   6.573  1.00  0.00    -0.463 OA
ATOM     74  C   UNL     1       1.851   3.675   4.639  1.00  0.00     0.065 A 
ATOM     75  O   UNL     1       2.461   1.782   3.342  1.00  0.00    -0.288 OA
ATOM     76  C   UNL     1       1.085   3.999   5.760  1.00  0.00     0.137 A 
ATOM     77  C   UNL     1       2.450   4.663   3.859  1.00  0.00     0.016 A 
ATOM     78  C   UNL     1       0.908   5.331   6.117  1.00  0.00     0.048 A 
ATOM     79  C   UNL     1       2.301   5.997   4.237  1.00  0.00     0.001 A 
ATOM     80  C   UNL     1       1.536   6.328   5.363  1.00  0.00     0.004 A 
ENDBRANCH  69  70
ENDBRANCH  64  68
ENDBRANCH  59  62
ENDBRANCH  57  58
ENDBRANCH   1  57
TORSDOF 12
