REMARK SMILES Nc1oc(-c2ccccc2)cc1C(=O)NCCCNC(=O)c1ccc(-c2c3nc(c(-c4ccccc4)c4ccc([nH]4)c(-c4ccccc4)c4nc(c(-c5ccccc5)c5ccc2[nH]5)C=C4)C=C3)cc1
REMARK SMILES IDX 17 1 16 2 15 3 13 4 14 5 12 7 2 8 3 9 4 10 11 11 1 12 5 15
REMARK SMILES IDX 6 16 10 17 7 18 9 19 8 20 18 21 19 22 20 23 21 25 22 26
REMARK SMILES IDX 23 27 69 28 24 29 68 30 25 31 26 32 27 33 62 34 28 35 67 36
REMARK SMILES IDX 61 37 63 38 29 39 66 40 60 41 59 42 30 44 52 45 37 46 51 47
REMARK SMILES IDX 38 48 41 49 50 50 64 51 39 52 40 53 49 55 65 56 42 57 31 58
REMARK SMILES IDX 32 59 36 60 33 61 35 62 34 63 53 64 54 65 58 66 55 67 57 68
REMARK SMILES IDX 56 69 43 70 44 71 48 72 45 73 47 74 46 75
REMARK H PARENT 15 6 1 13 1 14 19 24 63 43 41 54
REMARK Flexibility Score: inf
ROOT
ATOM      1  C   UNL     1      -4.124  -3.250   0.274  1.00  0.00     0.042 C 
ENDROOT
BRANCH   1   2
ATOM      2  C   UNL     1      -2.905  -3.476  -0.634  1.00  0.00     0.118 C 
BRANCH   2   3
ATOM      3  N   UNL     1      -2.425  -2.243  -1.242  1.00  0.00    -0.352 N 
ATOM      4  C   UNL     1      -1.458  -1.349  -0.837  1.00  0.00     0.256 C 
ATOM      5  O   UNL     1      -1.175  -0.438  -1.617  1.00  0.00    -0.269 OA
ATOM      6  H   UNL     1      -2.869  -2.007  -2.088  1.00  0.00     0.163 HD
BRANCH   4   7
ATOM      7  C   UNL     1      -0.789  -1.512   0.444  1.00  0.00     0.103 A 
ATOM      8  C   UNL     1       0.410  -0.907   0.794  1.00  0.00     0.203 A 
ATOM      9  O   UNL     1       0.837  -1.322   2.019  1.00  0.00    -0.440 OA
ATOM     10  C   UNL     1      -0.103  -2.186   2.479  1.00  0.00     0.137 A 
ATOM     11  C   UNL     1      -1.149  -2.259   1.594  1.00  0.00     0.067 A 
BRANCH   8  12
ATOM     12  N   UNL     1       1.209  -0.043   0.162  1.00  0.00    -0.369 N 
ATOM     13  H   UNL     1       2.035   0.272   0.595  1.00  0.00     0.159 HD
ATOM     14  H   UNL     1       0.971   0.280  -0.738  1.00  0.00     0.159 HD
ENDBRANCH   8  12
BRANCH  10  15
ATOM     15  C   UNL     1       0.134  -2.891   3.719  1.00  0.00     0.017 A 
ATOM     16  C   UNL     1       0.185  -2.216   4.939  1.00  0.00     0.012 A 
ATOM     17  C   UNL     1       0.167  -4.294   3.703  1.00  0.00     0.012 A 
ATOM     18  C   UNL     1       0.239  -2.940   6.132  1.00  0.00     0.001 A 
ATOM     19  C   UNL     1       0.229  -5.016   4.893  1.00  0.00     0.001 A 
ATOM     20  C   UNL     1       0.255  -4.337   6.109  1.00  0.00     0.000 A 
ENDBRANCH  10  15
ENDBRANCH   4   7
ENDBRANCH   2   3
ENDBRANCH   1   2
BRANCH   1  21
ATOM     21  C   UNL     1      -5.414  -3.211  -0.521  1.00  0.00     0.118 C 
BRANCH  21  22
ATOM     22  N   UNL     1      -5.776  -4.524  -1.083  1.00  0.00    -0.352 N 
ATOM     23  C   UNL     1      -6.844  -4.867  -1.903  1.00  0.00     0.251 C 
ATOM     24  H   UNL     1      -5.174  -5.265  -0.842  1.00  0.00     0.163 HD
ATOM     25  O   UNL     1      -7.201  -6.024  -2.025  1.00  0.00    -0.269 OA
BRANCH  23  26
ATOM     26  C   UNL     1      -7.527  -3.788  -2.637  1.00  0.00     0.039 A 
ATOM     27  C   UNL     1      -8.904  -3.758  -2.873  1.00  0.00     0.014 A 
ATOM     28  C   UNL     1      -6.723  -2.736  -3.039  1.00  0.00     0.014 A 
ATOM     29  C   UNL     1      -9.438  -2.626  -3.488  1.00  0.00     0.010 A 
ATOM     30  C   UNL     1      -7.291  -1.525  -3.258  1.00  0.00     0.010 A 
ATOM     31  C   UNL     1      -8.604  -1.515  -3.677  1.00  0.00    -0.014 A 
BRANCH  31  32
ATOM     32  C   UNL     1      -9.028  -0.270  -4.284  1.00  0.00     0.031 A 
ATOM     33  C   UNL     1     -10.085   0.429  -3.529  1.00  0.00     0.074 A 
ATOM     34  C   UNL     1      -8.319   0.322  -5.272  1.00  0.00     0.049 A 
ATOM     35  N   UNL     1     -11.330   0.519  -3.845  1.00  0.00    -0.248 NA
ATOM     36  C   UNL     1      -9.766   0.933  -2.183  1.00  0.00     0.031 C 
ATOM     37  C   UNL     1      -7.030  -0.076  -5.865  1.00  0.00     0.029 A 
ATOM     38  N   UNL     1      -8.559   1.506  -5.885  1.00  0.00    -0.354 N 
ATOM     39  C   UNL     1     -11.916   1.289  -2.850  1.00  0.00     0.074 A 
ATOM     40  C   UNL     1     -10.972   1.321  -1.761  1.00  0.00     0.031 C 
ATOM     41  C   UNL     1      -6.507   0.960  -6.561  1.00  0.00     0.029 A 
ATOM     42  C   UNL     1      -7.494   2.022  -6.612  1.00  0.00     0.049 A 
ATOM     43  H   UNL     1      -9.426   1.968  -5.819  1.00  0.00     0.167 HD
ATOM     44  C   UNL     1     -13.003   2.064  -3.116  1.00  0.00     0.031 A 
ATOM     45  C   UNL     1      -7.432   3.250  -7.186  1.00  0.00     0.031 A 
ATOM     46  C   UNL     1     -13.555   1.759  -4.415  1.00  0.00     0.049 A 
ATOM     47  C   UNL     1      -8.828   3.739  -7.306  1.00  0.00     0.074 A 
ATOM     48  C   UNL     1     -14.089   0.630  -5.004  1.00  0.00     0.029 A 
ATOM     49  N   UNL     1     -13.189   2.591  -5.449  1.00  0.00    -0.354 N 
ATOM     50  N   UNL     1      -9.716   3.172  -8.074  1.00  0.00    -0.248 NA
ATOM     51  C   UNL     1      -9.368   4.523  -6.204  1.00  0.00     0.031 C 
ATOM     52  C   UNL     1     -13.568   0.634  -6.332  1.00  0.00     0.029 A 
ATOM     53  C   UNL     1     -12.825   1.803  -6.510  1.00  0.00     0.049 A 
ATOM     54  H   UNL     1     -13.188   3.575  -5.430  1.00  0.00     0.167 HD
ATOM     55  C   UNL     1     -10.879   3.149  -7.316  1.00  0.00     0.074 A 
ATOM     56  C   UNL     1     -10.628   4.075  -6.210  1.00  0.00     0.031 C 
ATOM     57  C   UNL     1     -11.812   2.163  -7.480  1.00  0.00     0.031 A 
BRANCH  44  58
ATOM     58  C   UNL     1     -13.295   3.375  -2.432  1.00  0.00    -0.014 A 
ATOM     59  C   UNL     1     -14.464   4.066  -2.799  1.00  0.00     0.009 A 
ATOM     60  C   UNL     1     -12.352   4.087  -1.669  1.00  0.00     0.009 A 
ATOM     61  C   UNL     1     -14.633   5.422  -2.500  1.00  0.00     0.001 A 
ATOM     62  C   UNL     1     -12.536   5.430  -1.334  1.00  0.00     0.001 A 
ATOM     63  C   UNL     1     -13.662   6.106  -1.778  1.00  0.00     0.000 A 
ENDBRANCH  44  58
BRANCH  45  64
ATOM     64  C   UNL     1      -6.257   4.141  -7.329  1.00  0.00    -0.014 A 
ATOM     65  C   UNL     1      -6.260   5.216  -8.233  1.00  0.00     0.009 A 
ATOM     66  C   UNL     1      -5.227   4.102  -6.370  1.00  0.00     0.009 A 
ATOM     67  C   UNL     1      -5.288   6.226  -8.158  1.00  0.00     0.001 A 
ATOM     68  C   UNL     1      -4.260   5.111  -6.292  1.00  0.00     0.001 A 
ATOM     69  C   UNL     1      -4.298   6.181  -7.179  1.00  0.00     0.000 A 
ENDBRANCH  45  64
BRANCH  57  70
ATOM     70  C   UNL     1     -11.644   1.209  -8.640  1.00  0.00    -0.014 A 
ATOM     71  C   UNL     1     -10.568   0.309  -8.750  1.00  0.00     0.009 A 
ATOM     72  C   UNL     1     -12.708   1.082  -9.543  1.00  0.00     0.009 A 
ATOM     73  C   UNL     1     -10.556  -0.678  -9.743  1.00  0.00     0.001 A 
ATOM     74  C   UNL     1     -12.706   0.086 -10.522  1.00  0.00     0.001 A 
ATOM     75  C   UNL     1     -11.630  -0.793 -10.624  1.00  0.00     0.000 A 
ENDBRANCH  57  70
ENDBRANCH  31  32
ENDBRANCH  23  26
ENDBRANCH  21  22
ENDBRANCH   1  21
TORSDOF 12
