REMARK SMILES O=C(CN(CC(=O)NCc1ccccc1)c1ccccc1)NCCCNC(=O)c1ccc(-c2c3nc(c(-c4ccccc4)c4ccc([nH]4)c(-c4ccccc4)c4nc(c(-c5ccccc5)c5ccc2[nH]5)C=C4)C=C3)cc1
REMARK SMILES IDX 1 1 2 2 22 3 3 5 4 6 5 7 6 8 7 9 8 10 9 12 10 13 11 14 15 15
REMARK SMILES IDX 12 16 14 17 13 18 16 19 17 20 21 21 18 22 20 23 19 24 23 25
REMARK SMILES IDX 24 26 25 27 26 28 27 29 28 31 29 32 30 33 76 34 31 35 75 36
REMARK SMILES IDX 32 37 33 38 34 39 69 40 35 41 74 42 68 43 70 44 36 45 73 46
REMARK SMILES IDX 67 47 66 48 37 50 59 51 44 52 58 53 45 54 48 55 57 56 71 57
REMARK SMILES IDX 46 58 47 59 56 61 72 62 49 63 38 64 39 65 43 66 40 67 42 68
REMARK SMILES IDX 41 69 60 70 61 71 65 72 62 73 64 74 63 75 50 76 51 77 55 78
REMARK SMILES IDX 52 79 54 80 53 81
REMARK H PARENT 22 4 8 11 26 30 70 49 48 60
REMARK Flexibility Score: inf
ROOT
ATOM      1  O   UNL     1       1.113  -0.344   0.814  1.00  0.00    -0.273 OA
ATOM      2  C   UNL     1       2.130  -0.009   0.206  1.00  0.00     0.239 C 
ATOM      3  N   UNL     1       2.753   1.200   0.414  1.00  0.00    -0.354 N 
ATOM      4  H   UNL     1       3.650   1.352   0.037  1.00  0.00     0.163 HD
ENDROOT
BRANCH   2   5
ATOM      5  C   UNL     1       2.796  -0.940  -0.805  1.00  0.00     0.217 C 
BRANCH   5   6
ATOM      6  N   UNL     1       3.704  -0.318  -1.810  1.00  0.00    -0.353 N 
BRANCH   6   7
ATOM      7  C   UNL     1       5.128  -0.751  -1.762  1.00  0.00     0.217 C 
BRANCH   7   8
ATOM      8  C   UNL     1       5.643  -1.653  -2.899  1.00  0.00     0.239 C 
ATOM      9  O   UNL     1       6.614  -1.300  -3.579  1.00  0.00    -0.273 OA
ATOM     10  N   UNL     1       5.102  -2.865  -3.193  1.00  0.00    -0.350 N 
ATOM     11  H   UNL     1       5.389  -3.247  -4.054  1.00  0.00     0.163 HD
BRANCH  10  12
ATOM     12  C   UNL     1       4.176  -3.682  -2.449  1.00  0.00     0.151 C 
BRANCH  12  13
ATOM     13  C   UNL     1       2.931  -4.026  -3.225  1.00  0.00    -0.029 A 
ATOM     14  C   UNL     1       2.084  -3.026  -3.719  1.00  0.00     0.005 A 
ATOM     15  C   UNL     1       2.550  -5.363  -3.408  1.00  0.00     0.005 A 
ATOM     16  C   UNL     1       0.875  -3.339  -4.341  1.00  0.00     0.000 A 
ATOM     17  C   UNL     1       1.347  -5.681  -4.046  1.00  0.00     0.000 A 
ATOM     18  C   UNL     1       0.504  -4.669  -4.501  1.00  0.00     0.000 A 
ENDBRANCH  12  13
ENDBRANCH  10  12
ENDBRANCH   7   8
ENDBRANCH   6   7
BRANCH   6  19
ATOM     19  C   UNL     1       3.186   0.436  -2.866  1.00  0.00     0.038 A 
ATOM     20  C   UNL     1       3.751   0.445  -4.154  1.00  0.00     0.026 A 
ATOM     21  C   UNL     1       2.025   1.219  -2.732  1.00  0.00     0.026 A 
ATOM     22  C   UNL     1       3.177   1.130  -5.237  1.00  0.00     0.002 A 
ATOM     23  C   UNL     1       1.469   1.951  -3.793  1.00  0.00     0.002 A 
ATOM     24  C   UNL     1       2.035   1.891  -5.055  1.00  0.00     0.000 A 
ENDBRANCH   6  19
ENDBRANCH   5   6
ENDBRANCH   2   5
BRANCH   3  25
ATOM     25  C   UNL     1       2.113   2.250   1.176  1.00  0.00     0.117 C 
BRANCH  25  26
ATOM     26  C   UNL     1       2.403   2.178   2.668  1.00  0.00     0.042 C 
BRANCH  26  27
ATOM     27  C   UNL     1       3.879   2.313   3.021  1.00  0.00     0.118 C 
BRANCH  27  28
ATOM     28  N   UNL     1       4.461   3.569   2.566  1.00  0.00    -0.352 N 
ATOM     29  C   UNL     1       5.136   4.541   3.254  1.00  0.00     0.251 C 
ATOM     30  H   UNL     1       4.350   3.748   1.604  1.00  0.00     0.163 HD
ATOM     31  O   UNL     1       5.413   5.601   2.685  1.00  0.00    -0.269 OA
BRANCH  29  32
ATOM     32  C   UNL     1       5.522   4.354   4.668  1.00  0.00     0.039 A 
ATOM     33  C   UNL     1       5.414   5.442   5.539  1.00  0.00     0.014 A 
ATOM     34  C   UNL     1       6.024   3.136   5.136  1.00  0.00     0.014 A 
ATOM     35  C   UNL     1       5.749   5.293   6.886  1.00  0.00     0.010 A 
ATOM     36  C   UNL     1       6.286   2.967   6.494  1.00  0.00     0.010 A 
ATOM     37  C   UNL     1       6.156   4.044   7.382  1.00  0.00    -0.014 A 
BRANCH  37  38
ATOM     38  C   UNL     1       6.444   3.853   8.826  1.00  0.00     0.031 A 
ATOM     39  C   UNL     1       7.832   3.501   9.287  1.00  0.00     0.074 A 
ATOM     40  C   UNL     1       5.442   3.945   9.721  1.00  0.00     0.049 A 
ATOM     41  N   UNL     1       8.262   3.262  10.501  1.00  0.00    -0.248 NA
ATOM     42  C   UNL     1       8.867   3.378   8.249  1.00  0.00     0.031 C 
ATOM     43  C   UNL     1       4.043   4.239   9.402  1.00  0.00     0.029 A 
ATOM     44  N   UNL     1       5.447   3.798  11.086  1.00  0.00    -0.354 N 
ATOM     45  C   UNL     1       9.608   2.946  10.370  1.00  0.00     0.074 A 
ATOM     46  C   UNL     1       9.913   2.977   8.956  1.00  0.00     0.031 C 
ATOM     47  C   UNL     1       3.333   4.281  10.541  1.00  0.00     0.029 A 
ATOM     48  C   UNL     1       4.215   3.980  11.664  1.00  0.00     0.049 A 
ATOM     49  H   UNL     1       6.258   3.582  11.602  1.00  0.00     0.167 HD
ATOM     50  C   UNL     1      10.515   2.672  11.338  1.00  0.00     0.031 A 
ATOM     51  C   UNL     1       3.835   3.912  12.953  1.00  0.00     0.031 A 
ATOM     52  C   UNL     1      10.218   2.654  12.746  1.00  0.00     0.049 A 
ATOM     53  C   UNL     1       4.859   3.604  14.008  1.00  0.00     0.074 A 
ATOM     54  C   UNL     1      11.083   2.444  13.807  1.00  0.00     0.029 A 
ATOM     55  N   UNL     1       8.959   2.852  13.290  1.00  0.00    -0.354 N 
ATOM     56  N   UNL     1       6.142   3.374  13.872  1.00  0.00    -0.248 NA
ATOM     57  C   UNL     1       4.382   3.559  15.398  1.00  0.00     0.031 C 
ATOM     58  C   UNL     1      10.338   2.470  14.990  1.00  0.00     0.029 A 
ATOM     59  C   UNL     1       9.019   2.748  14.669  1.00  0.00     0.049 A 
ATOM     60  H   UNL     1       8.143   3.039  12.772  1.00  0.00     0.167 HD
ATOM     61  C   UNL     1       6.630   3.184  15.158  1.00  0.00     0.074 A 
ATOM     62  C   UNL     1       5.509   3.342  16.061  1.00  0.00     0.031 C 
ATOM     63  C   UNL     1       7.895   2.905  15.555  1.00  0.00     0.031 A 
BRANCH  50  64
ATOM     64  C   UNL     1      11.920   2.365  10.902  1.00  0.00    -0.014 A 
ATOM     65  C   UNL     1      12.755   3.367  10.381  1.00  0.00     0.009 A 
ATOM     66  C   UNL     1      12.429   1.065  11.046  1.00  0.00     0.009 A 
ATOM     67  C   UNL     1      14.057   3.064   9.978  1.00  0.00     0.001 A 
ATOM     68  C   UNL     1      13.741   0.771  10.669  1.00  0.00     0.001 A 
ATOM     69  C   UNL     1      14.550   1.768  10.127  1.00  0.00     0.000 A 
ENDBRANCH  50  64
BRANCH  51  70
ATOM     70  C   UNL     1       2.418   4.163  13.324  1.00  0.00    -0.014 A 
ATOM     71  C   UNL     1       2.059   5.340  13.998  1.00  0.00     0.009 A 
ATOM     72  C   UNL     1       1.421   3.226  13.013  1.00  0.00     0.009 A 
ATOM     73  C   UNL     1       0.733   5.562  14.376  1.00  0.00     0.001 A 
ATOM     74  C   UNL     1       0.091   3.464  13.368  1.00  0.00     0.001 A 
ATOM     75  C   UNL     1      -0.250   4.627  14.057  1.00  0.00     0.000 A 
ENDBRANCH  51  70
BRANCH  63  76
ATOM     76  C   UNL     1       8.139   2.787  17.033  1.00  0.00    -0.014 A 
ATOM     77  C   UNL     1       7.687   1.674  17.759  1.00  0.00     0.009 A 
ATOM     78  C   UNL     1       8.860   3.789  17.700  1.00  0.00     0.009 A 
ATOM     79  C   UNL     1       7.923   1.586  19.133  1.00  0.00     0.001 A 
ATOM     80  C   UNL     1       9.118   3.685  19.067  1.00  0.00     0.001 A 
ATOM     81  C   UNL     1       8.641   2.588  19.784  1.00  0.00     0.000 A 
ENDBRANCH  63  76
ENDBRANCH  37  38
ENDBRANCH  29  32
ENDBRANCH  27  28
ENDBRANCH  26  27
ENDBRANCH  25  26
ENDBRANCH   3  25
TORSDOF 16
