REMARK SMILES CSc1cccc([C@@H](C(=O)NCCCNC(=O)c2ccc(-c3c4nc(c(-c5ccccc5)c5ccc([nH]5)c(-c5ccccc5)c5nc(c(-c6ccccc6)c6ccc3[nH]6)C=C5)C=C4)cc2)[N@@H+](C)Cc2ccon2)c1
REMARK SMILES IDX 12 1 11 2 9 3 10 4 8 6 7 7 3 8 4 9 74 10 5 11 6 12 2 13 1 14
REMARK SMILES IDX 66 15 67 16 68 18 69 19 70 20 73 21 71 22 72 23 13 24 14 25
REMARK SMILES IDX 15 26 16 27 17 29 18 30 19 31 65 32 20 33 64 34 21 35 22 36
REMARK SMILES IDX 23 37 58 38 24 39 63 40 57 41 59 42 25 43 62 44 56 45 55 46
REMARK SMILES IDX 26 48 48 49 33 50 47 51 34 52 37 53 46 54 60 55 35 56 36 57
REMARK SMILES IDX 45 59 61 60 38 61 27 62 28 63 32 64 29 65 31 66 30 67 49 68
REMARK SMILES IDX 50 69 54 70 51 71 53 72 52 73 39 74 40 75 44 76 41 77 43 78
REMARK SMILES IDX 42 79
REMARK H PARENT 11 5 66 17 15 28 59 47 37 58
REMARK Flexibility Score: inf
ROOT
ATOM      1  C   UNL     1      -1.932   4.738   2.826  1.00  0.00     0.118 C 
ENDROOT
BRANCH   1   2
ATOM      2  N   UNL     1      -1.553   5.444   4.027  1.00  0.00    -0.351 N 
ATOM      3  C   UNL     1      -0.343   5.775   4.552  1.00  0.00     0.283 C 
ATOM      4  O   UNL     1      -0.438   6.524   5.528  1.00  0.00    -0.268 OA
ATOM      5  H   UNL     1      -2.317   5.742   4.572  1.00  0.00     0.163 HD
BRANCH   3   6
ATOM      6  C   UNL     1       1.011   5.366   3.888  1.00  0.00     0.305 C 
BRANCH   6   7
ATOM      7  C   UNL     1       1.154   3.881   3.514  1.00  0.00     0.020 A 
ATOM      8  C   UNL     1       1.140   2.143   1.756  1.00  0.00     0.007 A 
ATOM      9  C   UNL     1       1.263   1.160   2.736  1.00  0.00     0.015 A 
ATOM     10  C   UNL     1       1.135   3.493   2.155  1.00  0.00     0.025 A 
ATOM     11  C   UNL     1       1.340   1.516   4.080  1.00  0.00     0.002 A 
ATOM     12  C   UNL     1       1.258   2.857   4.459  1.00  0.00     0.010 A 
BRANCH   8  13
ATOM     13  S   UNL     1       0.906   1.814   0.013  1.00  0.00    -0.130 SA
ATOM     14  C   UNL     1       1.048   0.009  -0.102  1.00  0.00     0.091 C 
ENDBRANCH   8  13
ENDBRANCH   6   7
BRANCH   6  15
ATOM     15  N   UNL     1       2.226   5.950   4.533  1.00  0.00    -0.318 N 
ATOM     16  C   UNL     1       2.265   7.412   4.453  1.00  0.00     0.334 C 
ATOM     17  H   UNL     1       2.933   5.533   3.928  1.00  0.00     0.349 HD
BRANCH  15  18
ATOM     18  C   UNL     1       2.690   5.463   5.848  1.00  0.00     0.324 C 
BRANCH  18  19
ATOM     19  C   UNL     1       1.778   5.657   7.027  1.00  0.00     0.138 A 
ATOM     20  C   UNL     1       0.915   4.719   7.653  1.00  0.00     0.075 A 
ATOM     21  N   UNL     1       1.755   6.826   7.690  1.00  0.00    -0.079 NA
ATOM     22  C   UNL     1       0.283   5.433   8.634  1.00  0.00     0.231 A 
ATOM     23  O   UNL     1       0.782   6.690   8.666  1.00  0.00    -0.364 OA
ENDBRANCH  18  19
ENDBRANCH  15  18
ENDBRANCH   6  15
ENDBRANCH   3   6
ENDBRANCH   1   2
BRANCH   1  24
ATOM     24  C   UNL     1      -2.394   3.318   3.123  1.00  0.00     0.042 C 
BRANCH  24  25
ATOM     25  C   UNL     1      -3.563   3.243   4.101  1.00  0.00     0.118 C 
BRANCH  25  26
ATOM     26  N   UNL     1      -4.744   3.950   3.625  1.00  0.00    -0.352 N 
ATOM     27  C   UNL     1      -6.002   3.483   3.354  1.00  0.00     0.251 C 
ATOM     28  H   UNL     1      -4.617   4.914   3.474  1.00  0.00     0.163 HD
ATOM     29  O   UNL     1      -6.807   4.207   2.765  1.00  0.00    -0.269 OA
BRANCH  27  30
ATOM     30  C   UNL     1      -6.401   2.120   3.754  1.00  0.00     0.039 A 
ATOM     31  C   UNL     1      -7.185   1.363   2.879  1.00  0.00     0.014 A 
ATOM     32  C   UNL     1      -6.044   1.601   5.001  1.00  0.00     0.014 A 
ATOM     33  C   UNL     1      -7.575   0.072   3.239  1.00  0.00     0.010 A 
ATOM     34  C   UNL     1      -6.356   0.284   5.321  1.00  0.00     0.010 A 
ATOM     35  C   UNL     1      -7.144  -0.486   4.453  1.00  0.00    -0.014 A 
BRANCH  35  36
ATOM     36  C   UNL     1      -7.543  -1.859   4.851  1.00  0.00     0.031 A 
ATOM     37  C   UNL     1      -8.402  -2.071   6.068  1.00  0.00     0.074 A 
ATOM     38  C   UNL     1      -7.101  -2.916   4.144  1.00  0.00     0.049 A 
ATOM     39  N   UNL     1      -8.834  -3.192   6.590  1.00  0.00    -0.248 NA
ATOM     40  C   UNL     1      -8.804  -0.868   6.814  1.00  0.00     0.031 C 
ATOM     41  C   UNL     1      -6.237  -2.847   2.964  1.00  0.00     0.029 A 
ATOM     42  N   UNL     1      -7.323  -4.259   4.317  1.00  0.00    -0.354 N 
ATOM     43  C   UNL     1      -9.542  -2.828   7.729  1.00  0.00     0.074 A 
ATOM     44  C   UNL     1      -9.426  -1.392   7.858  1.00  0.00     0.031 C 
ATOM     45  C   UNL     1      -6.038  -4.089   2.494  1.00  0.00     0.029 A 
ATOM     46  C   UNL     1      -6.724  -5.042   3.361  1.00  0.00     0.049 A 
ATOM     47  H   UNL     1      -7.861  -4.626   5.055  1.00  0.00     0.167 HD
ATOM     48  C   UNL     1     -10.247  -3.611   8.579  1.00  0.00     0.031 A 
ATOM     49  C   UNL     1      -6.730  -6.378   3.198  1.00  0.00     0.031 A 
ATOM     50  C   UNL     1     -10.366  -5.039   8.449  1.00  0.00     0.049 A 
ATOM     51  C   UNL     1      -7.502  -7.231   4.166  1.00  0.00     0.074 A 
ATOM     52  C   UNL     1     -11.092  -5.921   9.230  1.00  0.00     0.029 A 
ATOM     53  N   UNL     1      -9.736  -5.795   7.471  1.00  0.00    -0.354 N 
ATOM     54  N   UNL     1      -8.216  -6.867   5.203  1.00  0.00    -0.248 NA
ATOM     55  C   UNL     1      -7.480  -8.681   3.926  1.00  0.00     0.031 C 
ATOM     56  C   UNL     1     -10.858  -7.217   8.757  1.00  0.00     0.029 A 
ATOM     57  C   UNL     1     -10.039  -7.135   7.642  1.00  0.00     0.049 A 
ATOM     58  H   UNL     1      -9.159  -5.432   6.761  1.00  0.00     0.167 HD
ATOM     59  C   UNL     1      -8.757  -8.038   5.720  1.00  0.00     0.074 A 
ATOM     60  C   UNL     1      -8.297  -9.120   4.873  1.00  0.00     0.031 C 
ATOM     61  C   UNL     1      -9.569  -8.201   6.793  1.00  0.00     0.031 A 
BRANCH  48  62
ATOM     62  C   UNL     1     -10.931  -2.928   9.734  1.00  0.00    -0.014 A 
ATOM     63  C   UNL     1     -12.007  -2.048   9.529  1.00  0.00     0.009 A 
ATOM     64  C   UNL     1     -10.491  -3.164  11.046  1.00  0.00     0.009 A 
ATOM     65  C   UNL     1     -12.591  -1.379  10.607  1.00  0.00     0.001 A 
ATOM     66  C   UNL     1     -11.101  -2.520  12.125  1.00  0.00     0.001 A 
ATOM     67  C   UNL     1     -12.139  -1.617  11.903  1.00  0.00     0.000 A 
ENDBRANCH  48  62
BRANCH  49  68
ATOM     68  C   UNL     1      -6.015  -6.987   2.047  1.00  0.00    -0.014 A 
ATOM     69  C   UNL     1      -6.737  -7.547   0.981  1.00  0.00     0.009 A 
ATOM     70  C   UNL     1      -4.613  -7.006   2.001  1.00  0.00     0.009 A 
ATOM     71  C   UNL     1      -6.069  -8.133  -0.096  1.00  0.00     0.001 A 
ATOM     72  C   UNL     1      -3.947  -7.568   0.909  1.00  0.00     0.001 A 
ATOM     73  C   UNL     1      -4.675  -8.138  -0.134  1.00  0.00     0.000 A 
ENDBRANCH  49  68
BRANCH  61  74
ATOM     74  C   UNL     1     -10.049  -9.596   7.086  1.00  0.00    -0.014 A 
ATOM     75  C   UNL     1      -9.183 -10.583   7.580  1.00  0.00     0.009 A 
ATOM     76  C   UNL     1     -11.402  -9.915   6.891  1.00  0.00     0.009 A 
ATOM     77  C   UNL     1      -9.655 -11.873   7.836  1.00  0.00     0.001 A 
ATOM     78  C   UNL     1     -11.878 -11.195   7.178  1.00  0.00     0.001 A 
ATOM     79  C   UNL     1     -11.002 -12.176   7.639  1.00  0.00     0.000 A 
ENDBRANCH  61  74
ENDBRANCH  35  36
ENDBRANCH  27  30
ENDBRANCH  25  26
ENDBRANCH  24  25
ENDBRANCH   1  24
TORSDOF 15
