REMARK SMILES Cc1ccc(-c2nc(C)cc(N3CCCC[C@H]3C(=O)NCCCNC(=O)c3ccc(-c4c5nc(c(-c6ccccc6)c6ccc([nH]6)c(-c6ccccc6)c6nc(c(-c7ccccc7)c7ccc4[nH]7)C=C6)C=C5)cc3)n2)cc1
REMARK SMILES IDX 22 1 21 2 20 3 18 4 19 5 17 7 12 8 13 9 14 10 16 11 15 12
REMARK SMILES IDX 11 13 6 14 7 15 75 16 8 17 9 18 10 19 5 20 1 21 2 22 3 23
REMARK SMILES IDX 77 24 4 25 76 26 23 27 24 28 25 29 26 31 27 32 28 33 74 34
REMARK SMILES IDX 29 35 73 36 30 37 31 38 32 39 67 40 33 41 72 42 66 43 68 44
REMARK SMILES IDX 34 45 71 46 65 47 64 48 35 50 57 51 42 52 56 53 43 54 46 55
REMARK SMILES IDX 55 56 69 57 44 58 45 59 54 61 70 62 47 63 36 64 37 65 41 66
REMARK SMILES IDX 38 67 40 68 39 69 58 70 59 71 63 72 60 73 62 74 61 75 48 76
REMARK SMILES IDX 49 77 53 78 50 79 52 80 51 81
REMARK H PARENT 20 6 24 30 68 49 46 60
REMARK Flexibility Score: inf
ROOT
ATOM      1  C   UNL     1      -8.008   4.456  -5.115  1.00  0.00     0.042 C 
ENDROOT
BRANCH   1   2
ATOM      2  C   UNL     1      -8.523   4.517  -3.682  1.00  0.00     0.117 C 
BRANCH   2   3
ATOM      3  N   UNL     1      -8.814   3.189  -3.172  1.00  0.00    -0.354 N 
ATOM      4  C   UNL     1      -8.093   2.231  -2.535  1.00  0.00     0.242 C 
ATOM      5  O   UNL     1      -8.745   1.202  -2.291  1.00  0.00    -0.273 OA
ATOM      6  H   UNL     1      -9.749   2.922  -3.322  1.00  0.00     0.163 HD
BRANCH   4   7
ATOM      7  C   UNL     1      -6.618   2.347  -2.018  1.00  0.00     0.173 C 
ATOM      8  N   UNL     1      -5.965   1.021  -2.152  1.00  0.00    -0.344 N 
ATOM      9  C   UNL     1      -5.464   0.650  -3.471  1.00  0.00     0.119 C 
ATOM     10  C   UNL     1      -4.444   1.666  -3.970  1.00  0.00     0.022 C 
ATOM     11  C   UNL     1      -5.626   3.398  -2.538  1.00  0.00     0.035 C 
ATOM     12  C   UNL     1      -5.004   3.080  -3.899  1.00  0.00     0.004 C 
BRANCH   8  13
ATOM     13  C   UNL     1      -5.285   0.519  -1.053  1.00  0.00     0.133 A 
ATOM     14  C   UNL     1      -3.321  -0.051  -0.017  1.00  0.00     0.161 A 
ATOM     15  N   UNL     1      -3.933  -0.591   1.051  1.00  0.00    -0.233 NA
ATOM     16  N   UNL     1      -3.945   0.499  -1.072  1.00  0.00    -0.211 NA
ATOM     17  C   UNL     1      -5.279  -0.541   1.056  1.00  0.00     0.043 A 
ATOM     18  C   UNL     1      -5.968  -1.152   2.236  1.00  0.00     0.067 C 
ATOM     19  C   UNL     1      -5.999   0.019   0.019  1.00  0.00     0.070 A 
BRANCH  14  20
ATOM     20  C   UNL     1      -1.857  -0.038  -0.025  1.00  0.00     0.019 A 
ATOM     21  C   UNL     1       2.474  -0.001  -0.021  1.00  0.00     0.044 C 
ATOM     22  C   UNL     1       0.974  -0.004  -0.019  1.00  0.00    -0.051 A 
ATOM     23  C   UNL     1       0.277  -1.212   0.098  1.00  0.00     0.004 A 
ATOM     24  C   UNL     1       0.251   1.186  -0.152  1.00  0.00     0.004 A 
ATOM     25  C   UNL     1      -1.121  -1.226   0.105  1.00  0.00     0.012 A 
ATOM     26  C   UNL     1      -1.147   1.166  -0.162  1.00  0.00     0.012 A 
ENDBRANCH  14  20
ENDBRANCH   8  13
ENDBRANCH   4   7
ENDBRANCH   2   3
ENDBRANCH   1   2
BRANCH   1  27
ATOM     27  C   UNL     1      -9.079   4.690  -6.173  1.00  0.00     0.118 C 
BRANCH  27  28
ATOM     28  N   UNL     1      -9.050   6.032  -6.756  1.00  0.00    -0.352 N 
ATOM     29  C   UNL     1      -9.725   6.495  -7.879  1.00  0.00     0.251 C 
ATOM     30  H   UNL     1      -8.480   6.689  -6.295  1.00  0.00     0.163 HD
ATOM     31  O   UNL     1      -9.703   7.668  -8.197  1.00  0.00    -0.269 OA
BRANCH  29  32
ATOM     32  C   UNL     1     -10.590   5.533  -8.599  1.00  0.00     0.039 A 
ATOM     33  C   UNL     1     -11.967   5.755  -8.540  1.00  0.00     0.014 A 
ATOM     34  C   UNL     1     -10.074   4.293  -8.968  1.00  0.00     0.014 A 
ATOM     35  C   UNL     1     -12.818   4.658  -8.552  1.00  0.00     0.010 A 
ATOM     36  C   UNL     1     -10.908   3.194  -8.877  1.00  0.00     0.010 A 
ATOM     37  C   UNL     1     -12.261   3.377  -8.573  1.00  0.00    -0.014 A 
BRANCH  37  38
ATOM     38  C   UNL     1     -13.014   2.208  -8.126  1.00  0.00     0.031 A 
ATOM     39  C   UNL     1     -13.557   1.260  -9.118  1.00  0.00     0.074 A 
ATOM     40  C   UNL     1     -13.255   2.012  -6.807  1.00  0.00     0.049 A 
ATOM     41  N   UNL     1     -14.669   0.618  -8.985  1.00  0.00    -0.248 NA
ATOM     42  C   UNL     1     -12.896   1.017 -10.395  1.00  0.00     0.031 C 
ATOM     43  C   UNL     1     -13.881   0.839  -6.199  1.00  0.00     0.029 A 
ATOM     44  N   UNL     1     -13.197   2.939  -5.760  1.00  0.00    -0.354 N 
ATOM     45  C   UNL     1     -14.717  -0.327  -9.987  1.00  0.00     0.074 A 
ATOM     46  C   UNL     1     -13.650   0.034 -10.892  1.00  0.00     0.031 C 
ATOM     47  C   UNL     1     -14.431   1.208  -5.031  1.00  0.00     0.029 A 
ATOM     48  C   UNL     1     -14.282   2.650  -4.918  1.00  0.00     0.049 A 
ATOM     49  H   UNL     1     -12.529   3.652  -5.639  1.00  0.00     0.167 HD
ATOM     50  C   UNL     1     -15.545  -1.405  -9.869  1.00  0.00     0.031 A 
ATOM     51  C   UNL     1     -15.290   3.527  -4.643  1.00  0.00     0.031 A 
ATOM     52  C   UNL     1     -16.372  -1.329  -8.666  1.00  0.00     0.049 A 
ATOM     53  C   UNL     1     -16.662   3.001  -5.021  1.00  0.00     0.074 A 
ATOM     54  C   UNL     1     -16.271  -1.927  -7.420  1.00  0.00     0.029 A 
ATOM     55  N   UNL     1     -17.320  -0.321  -8.543  1.00  0.00    -0.354 N 
ATOM     56  N   UNL     1     -16.855   1.963  -5.786  1.00  0.00    -0.248 NA
ATOM     57  C   UNL     1     -17.916   3.651  -4.641  1.00  0.00     0.031 C 
ATOM     58  C   UNL     1     -17.102  -1.211  -6.521  1.00  0.00     0.029 A 
ATOM     59  C   UNL     1     -17.729  -0.201  -7.229  1.00  0.00     0.049 A 
ATOM     60  H   UNL     1     -17.652   0.231  -9.288  1.00  0.00     0.167 HD
ATOM     61  C   UNL     1     -18.194   1.813  -6.025  1.00  0.00     0.074 A 
ATOM     62  C   UNL     1     -18.822   2.884  -5.274  1.00  0.00     0.031 C 
ATOM     63  C   UNL     1     -18.676   0.836  -6.845  1.00  0.00     0.031 A 
BRANCH  50  64
ATOM     64  C   UNL     1     -15.364  -2.676 -10.673  1.00  0.00    -0.014 A 
ATOM     65  C   UNL     1     -15.770  -3.909 -10.127  1.00  0.00     0.009 A 
ATOM     66  C   UNL     1     -14.741  -2.745 -11.931  1.00  0.00     0.009 A 
ATOM     67  C   UNL     1     -15.465  -5.134 -10.738  1.00  0.00     0.001 A 
ATOM     68  C   UNL     1     -14.394  -3.966 -12.529  1.00  0.00     0.001 A 
ATOM     69  C   UNL     1     -14.743  -5.163 -11.922  1.00  0.00     0.000 A 
ENDBRANCH  50  64
BRANCH  51  70
ATOM     70  C   UNL     1     -14.913   4.963  -4.703  1.00  0.00    -0.014 A 
ATOM     71  C   UNL     1     -14.070   5.483  -3.704  1.00  0.00     0.009 A 
ATOM     72  C   UNL     1     -15.106   5.710  -5.874  1.00  0.00     0.009 A 
ATOM     73  C   UNL     1     -13.363   6.671  -3.910  1.00  0.00     0.001 A 
ATOM     74  C   UNL     1     -14.397   6.900  -6.076  1.00  0.00     0.001 A 
ATOM     75  C   UNL     1     -13.503   7.363  -5.110  1.00  0.00     0.000 A 
ENDBRANCH  51  70
BRANCH  63  76
ATOM     76  C   UNL     1     -20.098   0.724  -7.321  1.00  0.00    -0.014 A 
ATOM     77  C   UNL     1     -20.937   1.826  -7.533  1.00  0.00     0.009 A 
ATOM     78  C   UNL     1     -20.584  -0.539  -7.722  1.00  0.00     0.009 A 
ATOM     79  C   UNL     1     -22.218   1.667  -8.079  1.00  0.00     0.001 A 
ATOM     80  C   UNL     1     -21.844  -0.696  -8.302  1.00  0.00     0.001 A 
ATOM     81  C   UNL     1     -22.667   0.409  -8.472  1.00  0.00     0.000 A 
ENDBRANCH  63  76
ENDBRANCH  37  38
ENDBRANCH  29  32
ENDBRANCH  27  28
ENDBRANCH   1  27
TORSDOF 12
