REMARK SMILES Cc1cccc(-c2ncc([C@@H]3[NH2+][C@H](C(=O)NCCCNC(=O)c4ccc(-c5c6nc(c(-c7ccccc7)c7ccc([nH]7)c(-c7ccccc7)c7nc(c(-c8ccccc8)c8ccc5[nH]8)C=C7)C=C6)cc4)C(C)(C)S3)s2)c1
REMARK SMILES IDX 18 1 17 2 16 3 14 4 15 5 13 7 11 8 12 9 74 10 71 13 72 14
REMARK SMILES IDX 73 15 10 16 7 17 8 18 75 19 9 20 6 21 1 22 2 23 3 24 76 25
REMARK SMILES IDX 4 26 5 27 19 28 20 29 21 30 22 32 23 33 24 34 70 35 25 36
REMARK SMILES IDX 69 37 26 38 27 39 28 40 63 41 29 42 68 43 62 44 64 45 30 46
REMARK SMILES IDX 67 47 61 48 60 49 31 51 53 52 38 53 52 54 39 55 42 56 51 57
REMARK SMILES IDX 65 58 40 59 41 60 50 62 66 63 43 64 32 65 33 66 37 67 34 68
REMARK SMILES IDX 36 69 35 70 54 71 55 72 59 73 56 74 58 75 57 76 44 77 45 78
REMARK SMILES IDX 49 79 46 80 48 81 47 82
REMARK H PARENT 16 6 12 11 12 12 20 31 64 50 42 61
REMARK Flexibility Score: inf
ROOT
ATOM      1  C   UNL     1      -8.394   8.901   1.013  1.00  0.00     0.042 C 
ENDROOT
BRANCH   1   2
ATOM      2  C   UNL     1      -7.213   9.617   1.658  1.00  0.00     0.118 C 
BRANCH   2   3
ATOM      3  N   UNL     1      -6.505   8.714   2.531  1.00  0.00    -0.351 N 
ATOM      4  C   UNL     1      -5.405   7.940   2.402  1.00  0.00     0.279 C 
ATOM      5  O   UNL     1      -5.109   7.384   3.471  1.00  0.00    -0.268 OA
ATOM      6  H   UNL     1      -6.915   8.646   3.424  1.00  0.00     0.163 HD
BRANCH   4   7
ATOM      7  C   UNL     1      -4.445   7.857   1.153  1.00  0.00     0.289 C 
ATOM      8  C   UNL     1      -3.806   5.514   1.071  1.00  0.00     0.286 C 
ATOM      9  N   UNL     1      -3.378   6.850   1.514  1.00  0.00    -0.319 N 
ATOM     10  S   UNL     1      -4.724   5.722  -0.470  1.00  0.00    -0.080 SA
ATOM     11  H   UNL     1      -2.504   7.099   1.053  1.00  0.00     0.348 HD
ATOM     12  H   UNL     1      -3.237   6.847   2.524  1.00  0.00     0.348 HD
ATOM     13  C   UNL     1      -4.791   7.540  -0.335  1.00  0.00     0.077 C 
ATOM     14  C   UNL     1      -3.683   8.095  -1.266  1.00  0.00     0.030 C 
ATOM     15  C   UNL     1      -6.114   7.971  -0.938  1.00  0.00     0.030 C 
BRANCH   8  16
ATOM     16  C   UNL     1      -4.584   4.714   2.074  1.00  0.00     0.093 A 
ATOM     17  C   UNL     1      -5.310   3.071   3.745  1.00  0.00     0.123 A 
ATOM     18  N   UNL     1      -6.342   3.774   3.320  1.00  0.00    -0.244 NA
ATOM     19  S   UNL     1      -3.806   3.504   3.019  1.00  0.00    -0.112 S 
ATOM     20  C   UNL     1      -5.929   4.713   2.398  1.00  0.00     0.134 A 
BRANCH  17  21
ATOM     21  C   UNL     1      -5.419   1.950   4.699  1.00  0.00     0.011 A 
ATOM     22  C   UNL     1      -8.184  -0.391   5.938  1.00  0.00     0.044 C 
ATOM     23  C   UNL     1      -6.842   0.255   5.760  1.00  0.00    -0.050 A 
ATOM     24  C   UNL     1      -5.736  -0.222   6.468  1.00  0.00     0.003 A 
ATOM     25  C   UNL     1      -6.674   1.340   4.887  1.00  0.00     0.014 A 
ATOM     26  C   UNL     1      -4.488   0.378   6.310  1.00  0.00     0.001 A 
ATOM     27  C   UNL     1      -4.331   1.456   5.434  1.00  0.00     0.011 A 
ENDBRANCH  17  21
ENDBRANCH   8  16
ENDBRANCH   4   7
ENDBRANCH   2   3
ENDBRANCH   1   2
BRANCH   1  28
ATOM     28  C   UNL     1      -9.729   9.146   1.698  1.00  0.00     0.118 C 
BRANCH  28  29
ATOM     29  N   UNL     1     -10.580  10.019   0.888  1.00  0.00    -0.352 N 
ATOM     30  C   UNL     1     -11.955  10.014   0.715  1.00  0.00     0.251 C 
ATOM     31  H   UNL     1     -10.101  10.720   0.389  1.00  0.00     0.163 HD
ATOM     32  O   UNL     1     -12.515  10.872   0.066  1.00  0.00    -0.269 OA
BRANCH  30  33
ATOM     33  C   UNL     1     -12.730   9.007   1.468  1.00  0.00     0.039 A 
ATOM     34  C   UNL     1     -13.438   9.489   2.570  1.00  0.00     0.014 A 
ATOM     35  C   UNL     1     -12.403   7.659   1.336  1.00  0.00     0.014 A 
ATOM     36  C   UNL     1     -13.549   8.679   3.689  1.00  0.00     0.010 A 
ATOM     37  C   UNL     1     -12.450   6.878   2.477  1.00  0.00     0.010 A 
ATOM     38  C   UNL     1     -12.922   7.433   3.674  1.00  0.00    -0.014 A 
BRANCH  38  39
ATOM     39  C   UNL     1     -12.567   6.742   4.908  1.00  0.00     0.031 A 
ATOM     40  C   UNL     1     -13.330   5.557   5.330  1.00  0.00     0.074 A 
ATOM     41  C   UNL     1     -11.557   7.202   5.684  1.00  0.00     0.049 A 
ATOM     42  N   UNL     1     -13.407   5.152   6.552  1.00  0.00    -0.248 NA
ATOM     43  C   UNL     1     -14.173   4.794   4.413  1.00  0.00     0.031 C 
ATOM     44  C   UNL     1     -10.922   6.525   6.812  1.00  0.00     0.029 A 
ATOM     45  N   UNL     1     -11.069   8.513   5.747  1.00  0.00    -0.354 N 
ATOM     46  C   UNL     1     -14.026   3.929   6.533  1.00  0.00     0.074 A 
ATOM     47  C   UNL     1     -14.617   3.829   5.223  1.00  0.00     0.031 C 
ATOM     48  C   UNL     1     -10.355   7.445   7.608  1.00  0.00     0.029 A 
ATOM     49  C   UNL     1     -10.725   8.752   7.093  1.00  0.00     0.049 A 
ATOM     50  H   UNL     1     -10.984   9.145   4.998  1.00  0.00     0.167 HD
ATOM     51  C   UNL     1     -13.830   3.075   7.574  1.00  0.00     0.031 A 
ATOM     52  C   UNL     1     -11.320   9.737   7.824  1.00  0.00     0.031 A 
ATOM     53  C   UNL     1     -13.220   3.748   8.722  1.00  0.00     0.049 A 
ATOM     54  C   UNL     1     -12.042   9.242   9.057  1.00  0.00     0.074 A 
ATOM     55  C   UNL     1     -11.961   3.717   9.295  1.00  0.00     0.029 A 
ATOM     56  N   UNL     1     -13.887   4.826   9.298  1.00  0.00    -0.354 N 
ATOM     57  N   UNL     1     -12.350   7.993   9.275  1.00  0.00    -0.248 NA
ATOM     58  C   UNL     1     -12.519  10.123  10.120  1.00  0.00     0.031 C 
ATOM     59  C   UNL     1     -11.851   4.834  10.171  1.00  0.00     0.029 A 
ATOM     60  C   UNL     1     -13.057   5.514  10.159  1.00  0.00     0.049 A 
ATOM     61  H   UNL     1     -14.824   5.065   9.115  1.00  0.00     0.167 HD
ATOM     62  C   UNL     1     -13.061   7.887  10.443  1.00  0.00     0.074 A 
ATOM     63  C   UNL     1     -13.119   9.248  10.947  1.00  0.00     0.031 C 
ATOM     64  C   UNL     1     -13.556   6.687  10.873  1.00  0.00     0.031 A 
BRANCH  51  65
ATOM     65  C   UNL     1     -13.983   1.573   7.467  1.00  0.00    -0.014 A 
ATOM     66  C   UNL     1     -13.608   0.758   8.551  1.00  0.00     0.009 A 
ATOM     67  C   UNL     1     -14.367   0.887   6.298  1.00  0.00     0.009 A 
ATOM     68  C   UNL     1     -13.600  -0.643   8.461  1.00  0.00     0.001 A 
ATOM     69  C   UNL     1     -14.388  -0.511   6.208  1.00  0.00     0.001 A 
ATOM     70  C   UNL     1     -13.993  -1.278   7.289  1.00  0.00     0.000 A 
ENDBRANCH  51  65
BRANCH  52  71
ATOM     71  C   UNL     1     -11.719  10.925   7.022  1.00  0.00    -0.014 A 
ATOM     72  C   UNL     1     -10.703  11.728   6.466  1.00  0.00     0.009 A 
ATOM     73  C   UNL     1     -13.022  11.053   6.523  1.00  0.00     0.009 A 
ATOM     74  C   UNL     1     -10.960  12.547   5.363  1.00  0.00     0.001 A 
ATOM     75  C   UNL     1     -13.277  11.882   5.423  1.00  0.00     0.001 A 
ATOM     76  C   UNL     1     -12.241  12.599   4.822  1.00  0.00     0.000 A 
ENDBRANCH  52  71
BRANCH  64  77
ATOM     77  C   UNL     1     -14.527   6.459  12.016  1.00  0.00    -0.014 A 
ATOM     78  C   UNL     1     -15.290   7.454  12.641  1.00  0.00     0.009 A 
ATOM     79  C   UNL     1     -14.783   5.130  12.431  1.00  0.00     0.009 A 
ATOM     80  C   UNL     1     -16.222   7.145  13.645  1.00  0.00     0.001 A 
ATOM     81  C   UNL     1     -15.742   4.811  13.396  1.00  0.00     0.001 A 
ATOM     82  C   UNL     1     -16.456   5.825  14.014  1.00  0.00     0.000 A 
ENDBRANCH  64  77
ENDBRANCH  38  39
ENDBRANCH  30  33
ENDBRANCH  28  29
ENDBRANCH   1  28
TORSDOF 12
