REMARK SMILES O=C(NCCCNC(=O)[C@H](c1ccccc1)N1C(=O)/C(=C/c2ccc(-c3nc4ccccc4s3)o2)SC1=S)c1ccc(-c2c3nc(c(-c4ccccc4)c4ccc([nH]4)c(-c4ccccc4)c4nc(c(-c5ccccc5)c5ccc2[nH]5)C=C4)C=C3)cc1
REMARK SMILES IDX 5 1 4 2 3 3 1 4 2 5 39 7 40 8 86 9 41 10 85 11 42 12 43 13
REMARK SMILES IDX 44 14 79 15 45 16 84 17 78 18 80 19 46 20 83 21 77 22 76 23
REMARK SMILES IDX 47 25 69 26 54 27 68 28 55 29 58 30 67 31 81 32 56 33 57 34
REMARK SMILES IDX 66 36 82 37 59 38 48 39 49 40 53 41 50 42 52 43 51 44 70 45
REMARK SMILES IDX 71 46 75 47 72 48 74 49 73 50 60 51 61 52 65 53 62 54 64 55
REMARK SMILES IDX 63 56 6 57 7 58 8 59 9 61 10 62 17 63 18 64 37 65 19 66
REMARK SMILES IDX 20 67 36 68 38 69 21 70 22 71 23 72 35 73 24 74 25 75 26 76
REMARK SMILES IDX 27 77 34 78 28 79 33 80 29 81 32 82 30 83 31 84 11 85 12 86
REMARK SMILES IDX 16 87 13 88 15 89 14 90
REMARK H PARENT 3 6 80 24 58 35 7 60
REMARK Flexibility Score: inf
ROOT
ATOM      1  C   UNL     1       6.938   2.724  -7.457  1.00  0.00     0.042 C 
ENDROOT
BRANCH   1   2
ATOM      2  C   UNL     1       8.309   2.151  -7.783  1.00  0.00     0.118 C 
BRANCH   2   3
ATOM      3  N   UNL     1       8.268   0.743  -8.164  1.00  0.00    -0.352 N 
ATOM      4  O   UNL     1       8.239  -1.069  -9.498  1.00  0.00    -0.269 OA
ATOM      5  C   UNL     1       8.481   0.129  -9.376  1.00  0.00     0.251 C 
ATOM      6  H   UNL     1       8.050   0.127  -7.428  1.00  0.00     0.163 HD
BRANCH   5   7
ATOM      7  C   UNL     1       8.975   0.897 -10.540  1.00  0.00     0.039 A 
ATOM      8  C   UNL     1       9.952   1.878 -10.387  1.00  0.00     0.014 A 
ATOM      9  C   UNL     1       8.476   0.610 -11.816  1.00  0.00     0.014 A 
ATOM     10  C   UNL     1      10.287   2.694 -11.459  1.00  0.00     0.010 A 
ATOM     11  C   UNL     1       8.908   1.353 -12.921  1.00  0.00     0.010 A 
ATOM     12  C   UNL     1       9.791   2.427 -12.745  1.00  0.00    -0.014 A 
BRANCH  12  13
ATOM     13  C   UNL     1      10.291   3.247 -13.879  1.00  0.00     0.031 A 
ATOM     14  C   UNL     1       9.374   4.130 -14.678  1.00  0.00     0.074 A 
ATOM     15  C   UNL     1      11.616   3.244 -14.130  1.00  0.00     0.049 A 
ATOM     16  N   UNL     1       9.679   4.974 -15.634  1.00  0.00    -0.248 NA
ATOM     17  C   UNL     1       7.936   4.060 -14.379  1.00  0.00     0.031 C 
ATOM     18  C   UNL     1      12.604   2.417 -13.429  1.00  0.00     0.029 A 
ATOM     19  N   UNL     1      12.367   3.986 -15.002  1.00  0.00    -0.354 N 
ATOM     20  C   UNL     1       8.475   5.520 -16.060  1.00  0.00     0.074 A 
ATOM     21  C   UNL     1       7.430   4.899 -15.275  1.00  0.00     0.031 C 
ATOM     22  C   UNL     1      13.833   2.757 -13.839  1.00  0.00     0.029 A 
ATOM     23  C   UNL     1      13.719   3.769 -14.880  1.00  0.00     0.049 A 
ATOM     24  H   UNL     1      11.977   4.614 -15.653  1.00  0.00     0.167 HD
ATOM     25  C   UNL     1       8.262   6.457 -17.015  1.00  0.00     0.031 A 
ATOM     26  C   UNL     1      14.757   4.316 -15.537  1.00  0.00     0.031 A 
ATOM     27  C   UNL     1       9.303   7.077 -17.794  1.00  0.00     0.049 A 
ATOM     28  C   UNL     1      14.487   5.344 -16.593  1.00  0.00     0.074 A 
ATOM     29  C   UNL     1       9.184   8.044 -18.778  1.00  0.00     0.029 A 
ATOM     30  N   UNL     1      10.654   6.794 -17.675  1.00  0.00    -0.354 N 
ATOM     31  N   UNL     1      13.341   5.857 -16.969  1.00  0.00    -0.248 NA
ATOM     32  C   UNL     1      15.653   5.863 -17.319  1.00  0.00     0.031 C 
ATOM     33  C   UNL     1      10.460   8.316 -19.283  1.00  0.00     0.029 A 
ATOM     34  C   UNL     1      11.378   7.553 -18.579  1.00  0.00     0.049 A 
ATOM     35  H   UNL     1      11.042   6.148 -17.041  1.00  0.00     0.167 HD
ATOM     36  C   UNL     1      13.647   6.760 -17.976  1.00  0.00     0.074 A 
ATOM     37  C   UNL     1      15.089   6.751 -18.125  1.00  0.00     0.031 C 
ATOM     38  C   UNL     1      12.809   7.519 -18.722  1.00  0.00     0.031 A 
BRANCH  25  39
ATOM     39  C   UNL     1       6.841   6.863 -17.291  1.00  0.00    -0.014 A 
ATOM     40  C   UNL     1       6.139   7.696 -16.406  1.00  0.00     0.009 A 
ATOM     41  C   UNL     1       6.220   6.463 -18.485  1.00  0.00     0.009 A 
ATOM     42  C   UNL     1       4.836   8.104 -16.703  1.00  0.00     0.001 A 
ATOM     43  C   UNL     1       4.926   6.890 -18.789  1.00  0.00     0.001 A 
ATOM     44  C   UNL     1       4.233   7.706 -17.896  1.00  0.00     0.000 A 
ENDBRANCH  25  39
BRANCH  26  45
ATOM     45  C   UNL     1      16.143   3.879 -15.229  1.00  0.00    -0.014 A 
ATOM     46  C   UNL     1      17.047   4.749 -14.601  1.00  0.00     0.009 A 
ATOM     47  C   UNL     1      16.565   2.582 -15.560  1.00  0.00     0.009 A 
ATOM     48  C   UNL     1      18.353   4.334 -14.332  1.00  0.00     0.001 A 
ATOM     49  C   UNL     1      17.861   2.160 -15.261  1.00  0.00     0.001 A 
ATOM     50  C   UNL     1      18.757   3.039 -14.657  1.00  0.00     0.000 A 
ENDBRANCH  26  45
BRANCH  38  51
ATOM     51  C   UNL     1      13.445   8.403 -19.755  1.00  0.00    -0.014 A 
ATOM     52  C   UNL     1      13.984   7.863 -20.933  1.00  0.00     0.009 A 
ATOM     53  C   UNL     1      13.505   9.789 -19.547  1.00  0.00     0.009 A 
ATOM     54  C   UNL     1      14.609   8.692 -21.865  1.00  0.00     0.001 A 
ATOM     55  C   UNL     1      14.107  10.618 -20.494  1.00  0.00     0.001 A 
ATOM     56  C   UNL     1      14.668  10.068 -21.646  1.00  0.00     0.000 A 
ENDBRANCH  38  51
ENDBRANCH  12  13
ENDBRANCH   5   7
ENDBRANCH   2   3
ENDBRANCH   1   2
BRANCH   1  57
ATOM     57  C   UNL     1       6.299   2.113  -6.223  1.00  0.00     0.117 C 
BRANCH  57  58
ATOM     58  N   UNL     1       7.075   2.316  -5.016  1.00  0.00    -0.354 N 
ATOM     59  C   UNL     1       6.982   3.118  -3.924  1.00  0.00     0.247 C 
ATOM     60  H   UNL     1       7.863   1.727  -4.978  1.00  0.00     0.163 HD
ATOM     61  O   UNL     1       7.868   2.907  -3.081  1.00  0.00    -0.272 OA
BRANCH  59  62
ATOM     62  C   UNL     1       6.027   4.339  -3.759  1.00  0.00     0.211 C 
BRANCH  62  63
ATOM     63  N   UNL     1       4.842   4.517  -4.613  1.00  0.00    -0.276 N 
ATOM     64  C   UNL     1       3.851   3.547  -4.632  1.00  0.00     0.267 C 
ATOM     65  C   UNL     1       4.585   5.661  -5.345  1.00  0.00     0.149 C 
ATOM     66  O   UNL     1       3.868   2.477  -4.050  1.00  0.00    -0.268 OA
ATOM     67  C   UNL     1       2.805   3.902  -5.629  1.00  0.00     0.084 C 
ATOM     68  S   UNL     1       3.071   5.488  -6.220  1.00  0.00    -0.054 SA
ATOM     69  S   UNL     1       5.494   7.054  -5.486  1.00  0.00    -0.052 S 
ATOM     70  C   UNL     1       1.887   3.006  -6.010  1.00  0.00     0.068 C 
BRANCH  70  71
ATOM     71  C   UNL     1       0.958   3.224  -7.062  1.00  0.00     0.129 A 
ATOM     72  C   UNL     1       1.172   3.630  -8.373  1.00  0.00     0.051 A 
ATOM     73  O   UNL     1      -0.387   2.994  -6.913  1.00  0.00    -0.454 OA
ATOM     74  C   UNL     1      -0.081   3.666  -9.020  1.00  0.00     0.054 A 
ATOM     75  C   UNL     1      -1.028   3.284  -8.089  1.00  0.00     0.163 A 
BRANCH  75  76
ATOM     76  C   UNL     1      -2.448   3.205  -8.275  1.00  0.00     0.160 A 
ATOM     77  N   UNL     1      -2.991   3.199  -9.474  1.00  0.00    -0.233 NA
ATOM     78  S   UNL     1      -3.540   3.174  -6.956  1.00  0.00    -0.111 S 
ATOM     79  C   UNL     1      -4.369   3.193  -9.361  1.00  0.00     0.082 A 
ATOM     80  C   UNL     1      -4.864   3.207  -8.056  1.00  0.00     0.055 A 
ATOM     81  C   UNL     1      -5.282   3.189 -10.435  1.00  0.00     0.030 A 
ATOM     82  C   UNL     1      -6.242   3.244  -7.786  1.00  0.00     0.021 A 
ATOM     83  C   UNL     1      -6.656   3.223 -10.178  1.00  0.00     0.002 A 
ATOM     84  C   UNL     1      -7.127   3.256  -8.869  1.00  0.00     0.002 A 
ENDBRANCH  75  76
ENDBRANCH  70  71
ENDBRANCH  62  63
BRANCH  62  85
ATOM     85  C   UNL     1       5.700   4.627  -2.287  1.00  0.00    -0.016 A 
ATOM     86  C   UNL     1       5.008   3.699  -1.492  1.00  0.00     0.006 A 
ATOM     87  C   UNL     1       6.104   5.837  -1.695  1.00  0.00     0.006 A 
ATOM     88  C   UNL     1       4.699   3.983  -0.161  1.00  0.00     0.000 A 
ATOM     89  C   UNL     1       5.811   6.111  -0.357  1.00  0.00     0.000 A 
ATOM     90  C   UNL     1       5.100   5.189   0.406  1.00  0.00     0.000 A 
ENDBRANCH  62  85
ENDBRANCH  59  62
ENDBRANCH  57  58
ENDBRANCH   1  57
TORSDOF 14
