REMARK SMILES O=C(NCCCNC(=O)[C@H]1[C@H]2CC[C@H](C2)[C@@H]1C(=O)N[C@H]1CCCc2ccccc21)c1ccc(-c2c3nc(c(-c4ccccc4)c4ccc([nH]4)c(-c4ccccc4)c4nc(c(-c5ccccc5)c5ccc2[nH]5)C=C4)C=C3)cc1
REMARK SMILES IDX 5 1 4 2 3 3 1 4 2 5 30 7 31 8 77 9 32 10 76 11 33 12 34 13
REMARK SMILES IDX 35 14 70 15 36 16 75 17 69 18 71 19 37 20 74 21 68 22 67 23
REMARK SMILES IDX 38 25 60 26 45 27 59 28 46 29 49 30 58 31 72 32 47 33 48 34
REMARK SMILES IDX 57 36 73 37 50 38 39 39 40 40 44 41 41 42 43 43 42 44 61 45
REMARK SMILES IDX 62 46 66 47 63 48 65 49 64 50 51 51 52 52 56 53 53 54 55 55
REMARK SMILES IDX 54 56 6 57 7 58 8 59 9 61 10 62 11 63 16 64 12 65 15 66
REMARK SMILES IDX 14 67 13 68 17 69 18 70 19 71 20 73 21 74 29 75 22 76 24 77
REMARK SMILES IDX 28 78 23 79 25 80 27 81 26 82
REMARK H PARENT 3 6 71 24 49 35 7 60 19 72
REMARK Flexibility Score: inf
ROOT
ATOM      1  C   UNL     1      -0.415  -4.682  -2.561  1.00  0.00     0.042 C 
ENDROOT
BRANCH   1   2
ATOM      2  C   UNL     1      -1.536  -5.444  -1.875  1.00  0.00     0.118 C 
BRANCH   2   3
ATOM      3  N   UNL     1      -1.654  -5.170  -0.446  1.00  0.00    -0.352 N 
ATOM      4  O   UNL     1      -2.362  -4.368   1.520  1.00  0.00    -0.269 OA
ATOM      5  C   UNL     1      -2.595  -4.521   0.319  1.00  0.00     0.251 C 
ATOM      6  H   UNL     1      -0.902  -5.525   0.081  1.00  0.00     0.163 HD
BRANCH   5   7
ATOM      7  C   UNL     1      -3.849  -3.959  -0.246  1.00  0.00     0.039 A 
ATOM      8  C   UNL     1      -4.496  -4.524  -1.339  1.00  0.00     0.014 A 
ATOM      9  C   UNL     1      -4.425  -2.834   0.365  1.00  0.00     0.014 A 
ATOM     10  C   UNL     1      -5.548  -3.853  -1.956  1.00  0.00     0.010 A 
ATOM     11  C   UNL     1      -5.571  -2.234  -0.177  1.00  0.00     0.010 A 
ATOM     12  C   UNL     1      -6.110  -2.702  -1.382  1.00  0.00    -0.014 A 
BRANCH  12  13
ATOM     13  C   UNL     1      -7.268  -2.052  -2.058  1.00  0.00     0.031 A 
ATOM     14  C   UNL     1      -7.190  -0.633  -2.561  1.00  0.00     0.074 A 
ATOM     15  C   UNL     1      -8.379  -2.779  -2.295  1.00  0.00     0.049 A 
ATOM     16  N   UNL     1      -8.076   0.043  -3.252  1.00  0.00    -0.248 NA
ATOM     17  C   UNL     1      -5.973   0.131  -2.246  1.00  0.00     0.031 C 
ATOM     18  C   UNL     1      -8.593  -4.160  -1.852  1.00  0.00     0.029 A 
ATOM     19  N   UNL     1      -9.515  -2.481  -3.004  1.00  0.00    -0.354 N 
ATOM     20  C   UNL     1      -7.538   1.312  -3.428  1.00  0.00     0.074 A 
ATOM     21  C   UNL     1      -6.258   1.322  -2.756  1.00  0.00     0.031 C 
ATOM     22  C   UNL     1      -9.743  -4.615  -2.369  1.00  0.00     0.029 A 
ATOM     23  C   UNL     1     -10.384  -3.540  -3.117  1.00  0.00     0.049 A 
ATOM     24  H   UNL     1      -9.691  -1.595  -3.394  1.00  0.00     0.167 HD
ATOM     25  C   UNL     1      -8.059   2.373  -4.093  1.00  0.00     0.031 A 
ATOM     26  C   UNL     1     -11.570  -3.644  -3.744  1.00  0.00     0.031 A 
ATOM     27  C   UNL     1      -9.324   2.366  -4.780  1.00  0.00     0.049 A 
ATOM     28  C   UNL     1     -12.122  -2.456  -4.472  1.00  0.00     0.074 A 
ATOM     29  C   UNL     1      -9.915   3.386  -5.507  1.00  0.00     0.029 A 
ATOM     30  N   UNL     1     -10.193   1.288  -4.827  1.00  0.00    -0.354 N 
ATOM     31  N   UNL     1     -11.584  -1.273  -4.644  1.00  0.00    -0.248 NA
ATOM     32  C   UNL     1     -13.447  -2.615  -5.087  1.00  0.00     0.031 C 
ATOM     33  C   UNL     1     -11.162   2.939  -5.956  1.00  0.00     0.029 A 
ATOM     34  C   UNL     1     -11.325   1.625  -5.551  1.00  0.00     0.049 A 
ATOM     35  H   UNL     1     -10.030   0.412  -4.408  1.00  0.00     0.167 HD
ATOM     36  C   UNL     1     -12.503  -0.547  -5.389  1.00  0.00     0.074 A 
ATOM     37  C   UNL     1     -13.618  -1.432  -5.661  1.00  0.00     0.031 C 
ATOM     38  C   UNL     1     -12.432   0.741  -5.803  1.00  0.00     0.031 A 
BRANCH  25  39
ATOM     39  C   UNL     1      -7.269   3.653  -4.090  1.00  0.00    -0.014 A 
ATOM     40  C   UNL     1      -6.110   3.800  -4.867  1.00  0.00     0.009 A 
ATOM     41  C   UNL     1      -7.728   4.749  -3.342  1.00  0.00     0.009 A 
ATOM     42  C   UNL     1      -5.413   5.011  -4.874  1.00  0.00     0.001 A 
ATOM     43  C   UNL     1      -7.043   5.965  -3.369  1.00  0.00     0.001 A 
ATOM     44  C   UNL     1      -5.882   6.093  -4.130  1.00  0.00     0.000 A 
ENDBRANCH  25  39
BRANCH  26  45
ATOM     45  C   UNL     1     -12.320  -4.925  -3.691  1.00  0.00    -0.014 A 
ATOM     46  C   UNL     1     -12.457  -5.725  -4.835  1.00  0.00     0.009 A 
ATOM     47  C   UNL     1     -12.885  -5.364  -2.483  1.00  0.00     0.009 A 
ATOM     48  C   UNL     1     -13.156  -6.933  -4.772  1.00  0.00     0.001 A 
ATOM     49  C   UNL     1     -13.556  -6.585  -2.416  1.00  0.00     0.001 A 
ATOM     50  C   UNL     1     -13.698  -7.365  -3.562  1.00  0.00     0.000 A 
ENDBRANCH  26  45
BRANCH  38  51
ATOM     51  C   UNL     1     -13.590   1.262  -6.603  1.00  0.00    -0.014 A 
ATOM     52  C   UNL     1     -14.819   1.556  -5.991  1.00  0.00     0.009 A 
ATOM     53  C   UNL     1     -13.444   1.480  -7.981  1.00  0.00     0.009 A 
ATOM     54  C   UNL     1     -15.890   2.026  -6.752  1.00  0.00     0.001 A 
ATOM     55  C   UNL     1     -14.510   1.973  -8.735  1.00  0.00     0.001 A 
ATOM     56  C   UNL     1     -15.734   2.237  -8.122  1.00  0.00     0.000 A 
ENDBRANCH  38  51
ENDBRANCH  12  13
ENDBRANCH   5   7
ENDBRANCH   2   3
ENDBRANCH   1   2
BRANCH   1  57
ATOM     57  C   UNL     1       0.986  -5.047  -2.103  1.00  0.00     0.117 C 
BRANCH  57  58
ATOM     58  N   UNL     1       1.552  -6.235  -2.717  1.00  0.00    -0.356 N 
ATOM     59  C   UNL     1       2.881  -6.528  -2.910  1.00  0.00     0.224 C 
ATOM     60  H   UNL     1       0.908  -6.910  -3.032  1.00  0.00     0.163 HD
ATOM     61  O   UNL     1       3.167  -7.623  -3.393  1.00  0.00    -0.275 OA
BRANCH  59  62
ATOM     62  C   UNL     1       3.935  -5.471  -2.577  1.00  0.00     0.094 C 
ATOM     63  C   UNL     1       5.029  -5.819  -1.542  1.00  0.00     0.002 C 
ATOM     64  C   UNL     1       4.747  -5.040  -3.809  1.00  0.00     0.094 C 
ATOM     65  C   UNL     1       5.798  -7.091  -1.905  1.00  0.00     0.005 C 
ATOM     66  C   UNL     1       6.102  -4.760  -1.861  1.00  0.00     0.009 C 
ATOM     67  C   UNL     1       6.215  -5.178  -3.321  1.00  0.00     0.002 C 
ATOM     68  C   UNL     1       6.585  -6.665  -3.154  1.00  0.00     0.005 C 
BRANCH  64  69
ATOM     69  C   UNL     1       4.450  -3.625  -4.340  1.00  0.00     0.224 C 
ATOM     70  O   UNL     1       4.972  -3.220  -5.379  1.00  0.00    -0.275 OA
ATOM     71  N   UNL     1       3.439  -2.887  -3.771  1.00  0.00    -0.349 N 
ATOM     72  H   UNL     1       2.513  -3.119  -4.013  1.00  0.00     0.164 HD
BRANCH  71  73
ATOM     73  C   UNL     1       3.642  -1.756  -2.813  1.00  0.00     0.112 C 
ATOM     74  C   UNL     1       3.246  -0.435  -3.532  1.00  0.00     0.030 C 
ATOM     75  C   UNL     1       2.860  -1.957  -1.505  1.00  0.00    -0.022 A 
ATOM     76  C   UNL     1       2.611   0.596  -2.606  1.00  0.00     0.007 C 
ATOM     77  C   UNL     1       1.692  -1.235  -1.208  1.00  0.00    -0.043 A 
ATOM     78  C   UNL     1       3.301  -2.851  -0.518  1.00  0.00     0.006 A 
ATOM     79  C   UNL     1       1.347   0.006  -1.984  1.00  0.00     0.036 C 
ATOM     80  C   UNL     1       0.878  -1.607  -0.121  1.00  0.00     0.004 A 
ATOM     81  C   UNL     1       2.512  -3.208   0.578  1.00  0.00     0.000 A 
ATOM     82  C   UNL     1       1.270  -2.619   0.749  1.00  0.00     0.000 A 
ENDBRANCH  71  73
ENDBRANCH  64  69
ENDBRANCH  59  62
ENDBRANCH  57  58
ENDBRANCH   1  57
TORSDOF 12
