REMARK SMILES CCS(=O)(=O)c1ccccc1NC[C@H]1CC[C@H](C(=O)NCCCNC(=O)c2ccc(-c3c4nc(c(-c5ccccc5)c5ccc([nH]5)c(-c5ccccc5)c5nc(c(-c6ccccc6)c6ccc3[nH]6)C=C5)C=C4)cc2)O1
REMARK SMILES IDX 18 1 19 2 20 3 17 5 14 6 15 7 75 8 16 9 13 10 12 11 11 13
REMARK SMILES IDX 6 14 7 15 8 16 10 17 9 18 3 19 4 20 5 21 2 22 1 23 21 24
REMARK SMILES IDX 22 25 23 26 24 27 25 28 26 30 27 31 28 32 74 33 29 34 73 35
REMARK SMILES IDX 30 36 31 37 32 38 67 39 33 40 72 41 66 42 68 43 34 44 71 45
REMARK SMILES IDX 65 46 64 47 35 49 57 50 42 51 56 52 43 53 46 54 55 55 69 56
REMARK SMILES IDX 44 57 45 58 54 60 70 61 47 62 36 63 37 64 41 65 38 66 40 67
REMARK SMILES IDX 39 68 58 69 59 70 63 71 60 72 62 73 61 74 48 75 49 76 53 77
REMARK SMILES IDX 50 78 52 79 51 80
REMARK H PARENT 20 4 12 12 24 29 68 48 46 59
REMARK Flexibility Score: inf
ROOT
ATOM      1  C   UNL     1       3.687   8.165   1.859  1.00  0.00     0.249 C 
ATOM      2  O   UNL     1       3.470   9.359   1.625  1.00  0.00    -0.272 OA
ATOM      3  N   UNL     1       4.457   7.875   2.946  1.00  0.00    -0.354 N 
ATOM      4  H   UNL     1       4.753   8.657   3.467  1.00  0.00     0.163 HD
ENDROOT
BRANCH   1   5
ATOM      5  C   UNL     1       3.166   7.066   0.907  1.00  0.00     0.207 C 
ATOM      6  C   UNL     1       3.243   4.719   0.870  1.00  0.00     0.138 C 
ATOM      7  C   UNL     1       4.518   5.227   0.215  1.00  0.00     0.037 C 
ATOM      8  O   UNL     1       2.670   5.873   1.525  1.00  0.00    -0.363 OA
ATOM      9  C   UNL     1       4.210   6.661  -0.123  1.00  0.00     0.045 C 
BRANCH   6  10
ATOM     10  C   UNL     1       2.190   4.105  -0.070  1.00  0.00     0.145 C 
BRANCH  10  11
ATOM     11  N   UNL     1       2.782   3.419  -1.203  1.00  0.00    -0.381 N 
ATOM     12  H   UNL     1       2.850   3.944  -2.033  1.00  0.00     0.160 HD
BRANCH  11  13
ATOM     13  C   UNL     1       3.264   2.129  -1.269  1.00  0.00     0.053 A 
ATOM     14  C   UNL     1       4.060   1.685  -2.347  1.00  0.00     0.090 A 
ATOM     15  C   UNL     1       4.452   0.340  -2.472  1.00  0.00     0.022 A 
ATOM     16  C   UNL     1       4.090  -0.584  -1.500  1.00  0.00     0.001 A 
ATOM     17  C   UNL     1       2.937   1.171  -0.296  1.00  0.00     0.027 A 
ATOM     18  C   UNL     1       3.341  -0.166  -0.407  1.00  0.00     0.002 A 
BRANCH  14  19
ATOM     19  S   UNL     1       4.619   2.795  -3.633  1.00  0.00     0.180 S 
ATOM     20  O   UNL     1       4.342   4.165  -3.227  1.00  0.00    -0.224 OA
ATOM     21  O   UNL     1       4.081   2.284  -4.878  1.00  0.00    -0.224 OA
BRANCH  19  22
ATOM     22  C   UNL     1       6.389   2.619  -3.700  1.00  0.00     0.139 C 
ATOM     23  C   UNL     1       7.100   2.922  -2.397  1.00  0.00     0.021 C 
ENDBRANCH  19  22
ENDBRANCH  14  19
ENDBRANCH  11  13
ENDBRANCH  10  11
ENDBRANCH   6  10
ENDBRANCH   1   5
BRANCH   3  24
ATOM     24  C   UNL     1       4.907   6.597   3.453  1.00  0.00     0.117 C 
BRANCH  24  25
ATOM     25  C   UNL     1       6.359   6.327   3.081  1.00  0.00     0.042 C 
BRANCH  25  26
ATOM     26  C   UNL     1       7.346   7.023   4.003  1.00  0.00     0.118 C 
BRANCH  26  27
ATOM     27  N   UNL     1       7.292   6.484   5.356  1.00  0.00    -0.352 N 
ATOM     28  C   UNL     1       8.260   5.860   6.099  1.00  0.00     0.251 C 
ATOM     29  H   UNL     1       6.423   6.585   5.807  1.00  0.00     0.163 HD
ATOM     30  O   UNL     1       7.945   5.258   7.121  1.00  0.00    -0.269 OA
BRANCH  28  31
ATOM     31  C   UNL     1       9.673   5.902   5.673  1.00  0.00     0.039 A 
ATOM     32  C   UNL     1      10.473   4.774   5.879  1.00  0.00     0.014 A 
ATOM     33  C   UNL     1      10.222   7.056   5.109  1.00  0.00     0.014 A 
ATOM     34  C   UNL     1      11.807   4.790   5.476  1.00  0.00     0.010 A 
ATOM     35  C   UNL     1      11.521   7.037   4.618  1.00  0.00     0.010 A 
ATOM     36  C   UNL     1      12.333   5.911   4.814  1.00  0.00    -0.014 A 
BRANCH  36  37
ATOM     37  C   UNL     1      13.734   5.933   4.332  1.00  0.00     0.031 A 
ATOM     38  C   UNL     1      14.706   6.938   4.883  1.00  0.00     0.074 A 
ATOM     39  C   UNL     1      14.109   5.093   3.350  1.00  0.00     0.049 A 
ATOM     40  N   UNL     1      15.954   7.148   4.549  1.00  0.00    -0.248 NA
ATOM     41  C   UNL     1      14.200   7.850   5.921  1.00  0.00     0.031 C 
ATOM     42  C   UNL     1      13.242   4.110   2.699  1.00  0.00     0.029 A 
ATOM     43  N   UNL     1      15.318   4.942   2.720  1.00  0.00    -0.354 N 
ATOM     44  C   UNL     1      16.373   8.223   5.322  1.00  0.00     0.074 A 
ATOM     45  C   UNL     1      15.230   8.662   6.091  1.00  0.00     0.031 C 
ATOM     46  C   UNL     1      13.952   3.442   1.777  1.00  0.00     0.029 A 
ATOM     47  C   UNL     1      15.309   3.978   1.743  1.00  0.00     0.049 A 
ATOM     48  H   UNL     1      16.115   5.474   2.946  1.00  0.00     0.167 HD
ATOM     49  C   UNL     1      17.605   8.783   5.402  1.00  0.00     0.031 A 
ATOM     50  C   UNL     1      16.281   3.576   0.904  1.00  0.00     0.031 A 
ATOM     51  C   UNL     1      18.736   8.345   4.628  1.00  0.00     0.049 A 
ATOM     52  C   UNL     1      17.637   4.213   0.998  1.00  0.00     0.074 A 
ATOM     53  C   UNL     1      20.041   8.803   4.672  1.00  0.00     0.029 A 
ATOM     54  N   UNL     1      18.692   7.353   3.659  1.00  0.00    -0.354 N 
ATOM     55  N   UNL     1      18.043   5.175   1.792  1.00  0.00    -0.248 NA
ATOM     56  C   UNL     1      18.673   3.700   0.093  1.00  0.00     0.031 C 
ATOM     57  C   UNL     1      20.771   8.131   3.685  1.00  0.00     0.029 A 
ATOM     58  C   UNL     1      19.938   7.206   3.074  1.00  0.00     0.049 A 
ATOM     59  H   UNL     1      17.892   6.830   3.423  1.00  0.00     0.167 HD
ATOM     60  C   UNL     1      19.386   5.369   1.498  1.00  0.00     0.074 A 
ATOM     61  C   UNL     1      19.728   4.411   0.466  1.00  0.00     0.031 C 
ATOM     62  C   UNL     1      20.258   6.259   2.035  1.00  0.00     0.031 A 
BRANCH  49  63
ATOM     63  C   UNL     1      17.770   9.944   6.346  1.00  0.00    -0.014 A 
ATOM     64  C   UNL     1      17.650   9.782   7.737  1.00  0.00     0.009 A 
ATOM     65  C   UNL     1      18.039  11.224   5.837  1.00  0.00     0.009 A 
ATOM     66  C   UNL     1      17.735  10.884   8.590  1.00  0.00     0.001 A 
ATOM     67  C   UNL     1      18.162  12.319   6.696  1.00  0.00     0.001 A 
ATOM     68  C   UNL     1      17.993  12.151   8.069  1.00  0.00     0.000 A 
ENDBRANCH  49  63
BRANCH  50  69
ATOM     69  C   UNL     1      15.994   2.507  -0.087  1.00  0.00    -0.014 A 
ATOM     70  C   UNL     1      16.532   1.221   0.070  1.00  0.00     0.009 A 
ATOM     71  C   UNL     1      15.142   2.759  -1.175  1.00  0.00     0.009 A 
ATOM     72  C   UNL     1      16.233   0.213  -0.851  1.00  0.00     0.001 A 
ATOM     73  C   UNL     1      14.822   1.742  -2.076  1.00  0.00     0.001 A 
ATOM     74  C   UNL     1      15.373   0.472  -1.917  1.00  0.00     0.000 A 
ENDBRANCH  50  69
BRANCH  62  75
ATOM     75  C   UNL     1      21.674   6.221   1.531  1.00  0.00    -0.014 A 
ATOM     76  C   UNL     1      22.003   6.663   0.240  1.00  0.00     0.009 A 
ATOM     77  C   UNL     1      22.700   5.775   2.379  1.00  0.00     0.009 A 
ATOM     78  C   UNL     1      23.327   6.626  -0.203  1.00  0.00     0.001 A 
ATOM     79  C   UNL     1      24.026   5.770   1.945  1.00  0.00     0.001 A 
ATOM     80  C   UNL     1      24.337   6.186   0.651  1.00  0.00     0.000 A 
ENDBRANCH  62  75
ENDBRANCH  36  37
ENDBRANCH  28  31
ENDBRANCH  26  27
ENDBRANCH  25  26
ENDBRANCH  24  25
ENDBRANCH   3  24
TORSDOF 15
