REMARK SMILES N#C/C(=C/c1ccc(-c2cccc(C(=O)NCCCNC(=O)c3ccc(-c4c5nc(c(-c6ccccc6)c6ccc([nH]6)c(-c6ccccc6)c6nc(c(-c7ccccc7)c7ccc4[nH]7)C=C6)C=C5)cc3)c2)o1)c1ccc(F)cc1
REMARK SMILES IDX 17 1 16 2 14 3 15 4 13 6 9 7 10 8 71 9 11 10 12 11 8 12 5 13
REMARK SMILES IDX 6 14 72 15 7 16 4 17 3 18 2 19 1 20 73 21 74 22 79 23 75 24
REMARK SMILES IDX 78 25 76 26 77 27 18 28 19 29 20 30 21 31 22 33 23 34 24 35
REMARK SMILES IDX 70 36 25 37 69 38 26 39 27 40 28 41 63 42 29 43 68 44 62 45
REMARK SMILES IDX 64 46 30 47 67 48 61 49 60 50 31 52 53 53 38 54 52 55 39 56
REMARK SMILES IDX 42 57 51 58 65 59 40 60 41 61 50 63 66 64 43 65 32 66 33 67
REMARK SMILES IDX 37 68 34 69 36 70 35 71 54 72 55 73 59 74 56 75 58 76 57 77
REMARK SMILES IDX 44 78 45 79 49 80 46 81 48 82 47 83
REMARK H PARENT 16 5 20 32 64 51 42 62
REMARK Flexibility Score: inf
ROOT
ATOM      1  C   UNL     1      10.840  -1.988  -3.874  1.00  0.00     0.118 C 
ENDROOT
BRANCH   1   2
ATOM      2  N   UNL     1      11.866  -1.030  -4.279  1.00  0.00    -0.352 N 
ATOM      3  C   UNL     1      12.066   0.321  -4.074  1.00  0.00     0.251 C 
ATOM      4  O   UNL     1      13.061   0.833  -4.587  1.00  0.00    -0.269 OA
ATOM      5  H   UNL     1      12.578  -1.441  -4.822  1.00  0.00     0.163 HD
BRANCH   3   6
ATOM      6  C   UNL     1      11.112   1.192  -3.333  1.00  0.00     0.040 A 
ATOM      7  C   UNL     1       9.101   1.404  -1.984  1.00  0.00     0.018 A 
ATOM      8  C   UNL     1       9.023   2.758  -2.301  1.00  0.00     0.012 A 
ATOM      9  C   UNL     1      10.239   0.693  -2.381  1.00  0.00     0.025 A 
ATOM     10  C   UNL     1      10.036   3.350  -3.066  1.00  0.00     0.002 A 
ATOM     11  C   UNL     1      11.048   2.558  -3.624  1.00  0.00     0.014 A 
BRANCH   7  12
ATOM     12  C   UNL     1       8.021   0.626  -1.386  1.00  0.00     0.134 A 
ATOM     13  C   UNL     1       5.893  -0.009  -1.209  1.00  0.00     0.128 A 
ATOM     14  C   UNL     1       6.691  -1.004  -0.651  1.00  0.00     0.051 A 
ATOM     15  O   UNL     1       6.735   0.974  -1.696  1.00  0.00    -0.457 OA
ATOM     16  C   UNL     1       8.026  -0.568  -0.697  1.00  0.00     0.051 A 
BRANCH  13  17
ATOM     17  C   UNL     1       4.465   0.065  -1.225  1.00  0.00     0.067 C 
ATOM     18  C   UNL     1       3.753  -0.048  -0.083  1.00  0.00     0.063 C 
BRANCH  18  19
ATOM     19  C   UNL     1       2.233  -0.048  -0.083  1.00  0.00     0.100 C 
ATOM     20  N   UNL     1       0.972  -0.048  -0.083  1.00  0.00    -0.192 NA
ENDBRANCH  18  19
BRANCH  18  21
ATOM     21  C   UNL     1       4.389  -0.120   1.270  1.00  0.00    -0.007 A 
ATOM     22  C   UNL     1       5.353   0.830   1.668  1.00  0.00     0.012 A 
ATOM     23  C   UNL     1       4.076  -1.165   2.154  1.00  0.00     0.012 A 
ATOM     24  C   UNL     1       6.061   0.678   2.862  1.00  0.00     0.040 A 
ATOM     25  C   UNL     1       4.764  -1.296   3.365  1.00  0.00     0.040 A 
ATOM     26  C   UNL     1       5.765  -0.390   3.696  1.00  0.00     0.123 A 
ATOM     27  F   UNL     1       6.459  -0.553   4.829  1.00  0.00    -0.207 F 
ENDBRANCH  18  21
ENDBRANCH  13  17
ENDBRANCH   7  12
ENDBRANCH   3   6
ENDBRANCH   1   2
BRANCH   1  28
ATOM     28  C   UNL     1      10.047  -2.583  -5.025  1.00  0.00     0.042 C 
BRANCH  28  29
ATOM     29  C   UNL     1      10.818  -3.599  -5.848  1.00  0.00     0.118 C 
BRANCH  29  30
ATOM     30  N   UNL     1      11.219  -4.767  -5.067  1.00  0.00    -0.352 N 
ATOM     31  C   UNL     1      10.752  -6.060  -5.069  1.00  0.00     0.251 C 
ATOM     32  H   UNL     1      11.951  -4.600  -4.430  1.00  0.00     0.163 HD
ATOM     33  O   UNL     1      11.084  -6.825  -4.170  1.00  0.00    -0.269 OA
BRANCH  31  34
ATOM     34  C   UNL     1       9.841  -6.532  -6.134  1.00  0.00     0.039 A 
ATOM     35  C   UNL     1       8.803  -7.411  -5.809  1.00  0.00     0.014 A 
ATOM     36  C   UNL     1      10.020  -6.129  -7.457  1.00  0.00     0.014 A 
ATOM     37  C   UNL     1       7.900  -7.814  -6.796  1.00  0.00     0.010 A 
ATOM     38  C   UNL     1       9.059  -6.439  -8.412  1.00  0.00     0.010 A 
ATOM     39  C   UNL     1       7.993  -7.291  -8.096  1.00  0.00    -0.014 A 
BRANCH  39  40
ATOM     40  C   UNL     1       7.003  -7.625  -9.150  1.00  0.00     0.031 A 
ATOM     41  C   UNL     1       7.455  -8.304 -10.416  1.00  0.00     0.074 A 
ATOM     42  C   UNL     1       5.719  -7.244  -9.007  1.00  0.00     0.049 A 
ATOM     43  N   UNL     1       6.769  -8.579 -11.496  1.00  0.00    -0.248 NA
ATOM     44  C   UNL     1       8.873  -8.697 -10.491  1.00  0.00     0.031 C 
ATOM     45  C   UNL     1       5.162  -6.547  -7.845  1.00  0.00     0.029 A 
ATOM     46  N   UNL     1       4.647  -7.380  -9.854  1.00  0.00    -0.354 N 
ATOM     47  C   UNL     1       7.673  -9.157 -12.379  1.00  0.00     0.074 A 
ATOM     48  C   UNL     1       8.967  -9.137 -11.736  1.00  0.00     0.031 C 
ATOM     49  C   UNL     1       3.849  -6.346  -8.039  1.00  0.00     0.029 A 
ATOM     50  C   UNL     1       3.481  -6.851  -9.357  1.00  0.00     0.049 A 
ATOM     51  H   UNL     1       4.709  -7.816 -10.735  1.00  0.00     0.167 HD
ATOM     52  C   UNL     1       7.443  -9.680 -13.607  1.00  0.00     0.031 A 
ATOM     53  C   UNL     1       2.255  -6.770  -9.908  1.00  0.00     0.031 A 
ATOM     54  C   UNL     1       6.154  -9.709 -14.241  1.00  0.00     0.049 A 
ATOM     55  C   UNL     1       2.034  -7.328 -11.287  1.00  0.00     0.074 A 
ATOM     56  C   UNL     1       5.806 -10.258 -15.463  1.00  0.00     0.029 A 
ATOM     57  N   UNL     1       4.998  -9.166 -13.701  1.00  0.00    -0.354 N 
ATOM     58  N   UNL     1       2.887  -7.926 -12.083  1.00  0.00    -0.248 NA
ATOM     59  C   UNL     1       0.678  -7.208 -11.839  1.00  0.00     0.031 C 
ATOM     60  C   UNL     1       4.451  -9.998 -15.687  1.00  0.00     0.029 A 
ATOM     61  C   UNL     1       3.941  -9.346 -14.576  1.00  0.00     0.049 A 
ATOM     62  H   UNL     1       4.938  -8.719 -12.826  1.00  0.00     0.167 HD
ATOM     63  C   UNL     1       2.163  -8.284 -13.213  1.00  0.00     0.074 A 
ATOM     64  C   UNL     1       0.799  -7.850 -12.992  1.00  0.00     0.031 C 
ATOM     65  C   UNL     1       2.588  -8.916 -14.334  1.00  0.00     0.031 A 
BRANCH  52  66
ATOM     66  C   UNL     1       8.617 -10.264 -14.344  1.00  0.00    -0.014 A 
ATOM     67  C   UNL     1       9.237 -11.445 -13.904  1.00  0.00     0.009 A 
ATOM     68  C   UNL     1       9.086  -9.649 -15.515  1.00  0.00     0.009 A 
ATOM     69  C   UNL     1      10.324 -11.977 -14.601  1.00  0.00     0.001 A 
ATOM     70  C   UNL     1      10.152 -10.201 -16.228  1.00  0.00     0.001 A 
ATOM     71  C   UNL     1      10.776 -11.358 -15.765  1.00  0.00     0.000 A 
ENDBRANCH  52  66
BRANCH  53  72
ATOM     72  C   UNL     1       1.133  -6.144  -9.157  1.00  0.00    -0.014 A 
ATOM     73  C   UNL     1       0.054  -6.924  -8.710  1.00  0.00     0.009 A 
ATOM     74  C   UNL     1       1.119  -4.764  -8.904  1.00  0.00     0.009 A 
ATOM     75  C   UNL     1      -1.029  -6.330  -8.059  1.00  0.00     0.001 A 
ATOM     76  C   UNL     1       0.050  -4.177  -8.223  1.00  0.00     0.001 A 
ATOM     77  C   UNL     1      -1.029  -4.958  -7.813  1.00  0.00     0.000 A 
ENDBRANCH  53  72
BRANCH  65  78
ATOM     78  C   UNL     1       1.559  -9.223 -15.385  1.00  0.00    -0.014 A 
ATOM     79  C   UNL     1       0.994  -8.211 -16.176  1.00  0.00     0.009 A 
ATOM     80  C   UNL     1       1.188 -10.557 -15.619  1.00  0.00     0.009 A 
ATOM     81  C   UNL     1       0.052  -8.527 -17.157  1.00  0.00     0.001 A 
ATOM     82  C   UNL     1       0.272 -10.873 -16.622  1.00  0.00     0.001 A 
ATOM     83  C   UNL     1      -0.302  -9.857 -17.384  1.00  0.00     0.000 A 
ENDBRANCH  65  78
ENDBRANCH  39  40
ENDBRANCH  31  34
ENDBRANCH  29  30
ENDBRANCH  28  29
ENDBRANCH   1  28
TORSDOF 14
