REMARK SMILES C[C@@]1(O)CC(NCCCNC(=O)c2ccc(-c3c4nc(c(-c5ccccc5)c5ccc([nH]5)c(-c5ccccc5)c5nc(c(-c6ccccc6)c6ccc3[nH]6)C=C5)C=C4)cc2)=C(C(=O)Nc2ccccc2)[C@H](c2ccccc2C(=O)[O-])[C@@H]1C(=O)Nc1ccccc1
REMARK SMILES IDX 8 1 7 2 6 3 5 5 1 6 2 7 4 8 81 9 71 10 61 11 3 12 82 14
REMARK SMILES IDX 83 15 84 16 85 18 86 19 90 20 87 21 89 22 88 23 72 24 73 25
REMARK SMILES IDX 77 26 74 27 76 28 75 29 78 30 79 31 80 32 62 33 63 34 64 35
REMARK SMILES IDX 65 37 66 38 70 39 67 40 69 41 68 42 9 43 10 44 11 45 12 47
REMARK SMILES IDX 13 48 14 49 60 50 15 51 59 52 16 53 17 54 18 55 53 56 19 57
REMARK SMILES IDX 58 58 52 59 54 60 20 61 57 62 51 63 50 64 21 66 43 67 28 68
REMARK SMILES IDX 42 69 29 70 32 71 41 72 55 73 30 74 31 75 40 77 56 78 33 79
REMARK SMILES IDX 22 80 23 81 27 82 24 83 26 84 25 85 44 86 45 87 49 88 46 89
REMARK SMILES IDX 48 90 47 91 34 92 35 93 39 94 36 95 38 96 37 97
REMARK H PARENT 6 4 3 13 84 17 64 36 10 46 54 65 32 76
REMARK Flexibility Score: inf
ROOT
ATOM      1  C   UNL     1       4.254   2.651  -3.835  1.00  0.00     0.042 C 
ENDROOT
BRANCH   1   2
ATOM      2  C   UNL     1       2.895   2.022  -4.081  1.00  0.00     0.114 C 
BRANCH   2   3
ATOM      3  N   UNL     1       2.940   0.579  -3.851  1.00  0.00    -0.388 N 
ATOM      4  H   UNL     1       3.716   0.093  -4.213  1.00  0.00     0.160 HD
BRANCH   3   5
ATOM      5  C   UNL     1       1.987  -0.173  -3.167  1.00  0.00     0.023 C 
ATOM      6  C   UNL     1       1.142   0.059   0.309  1.00  0.00     0.043 C 
ATOM      7  C   UNL     1       0.447  -0.173  -1.050  1.00  0.00     0.080 C 
ATOM      8  C   UNL     1       1.192   0.601  -2.149  1.00  0.00     0.089 C 
ATOM      9  C   UNL     1       0.322  -1.713  -1.302  1.00  0.00     0.123 C 
ATOM     10  C   UNL     1       0.448  -2.131  -2.810  1.00  0.00     0.073 C 
ATOM     11  C   UNL     1       1.726  -1.488  -3.383  1.00  0.00     0.045 C 
BRANCH   7  12
ATOM     12  O   UNL     1      -0.813   0.504  -0.955  1.00  0.00    -0.389 OA
ATOM     13  H   UNL     1      -0.661   1.450  -0.799  1.00  0.00     0.211 HD
ENDBRANCH   7  12
BRANCH   9  14
ATOM     14  C   UNL     1      -0.822  -2.347  -0.488  1.00  0.00     0.231 C 
ATOM     15  O   UNL     1      -1.557  -1.689   0.253  1.00  0.00    -0.274 OA
ATOM     16  N   UNL     1      -1.175  -3.648  -0.672  1.00  0.00    -0.326 N 
ATOM     17  H   UNL     1      -2.124  -3.777  -0.899  1.00  0.00     0.169 HD
BRANCH  16  18
ATOM     18  C   UNL     1      -0.442  -4.834  -0.599  1.00  0.00     0.041 A 
ATOM     19  C   UNL     1      -1.123  -6.006  -0.953  1.00  0.00     0.026 A 
ATOM     20  C   UNL     1       0.827  -4.915  -0.034  1.00  0.00     0.026 A 
ATOM     21  C   UNL     1      -0.548  -7.256  -0.730  1.00  0.00     0.002 A 
ATOM     22  C   UNL     1       1.395  -6.171   0.206  1.00  0.00     0.002 A 
ATOM     23  C   UNL     1       0.707  -7.337  -0.136  1.00  0.00     0.000 A 
ENDBRANCH  16  18
ENDBRANCH   9  14
BRANCH  10  24
ATOM     24  C   UNL     1      -0.722  -2.174  -3.870  1.00  0.00    -0.030 A 
ATOM     25  C   UNL     1      -0.360  -2.322  -5.236  1.00  0.00     0.005 A 
ATOM     26  C   UNL     1      -2.067  -2.502  -3.597  1.00  0.00     0.001 A 
ATOM     27  C   UNL     1      -1.146  -3.029  -6.158  1.00  0.00     0.000 A 
ATOM     28  C   UNL     1      -2.845  -3.246  -4.510  1.00  0.00     0.010 A 
ATOM     29  C   UNL     1      -2.361  -3.560  -5.769  1.00  0.00     0.001 A 
BRANCH  26  30
ATOM     30  C   UNL     1      -2.852  -2.025  -2.452  1.00  0.00     0.072 C 
ATOM     31  O   UNL     1      -3.646  -2.689  -1.808  1.00  0.00    -0.545 OA
ATOM     32  O   UNL     1      -2.626  -0.723  -2.225  1.00  0.00    -0.545 OA
ENDBRANCH  26  30
ENDBRANCH  10  24
BRANCH  11  33
ATOM     33  C   UNL     1       2.692  -2.235  -4.285  1.00  0.00     0.253 C 
ATOM     34  O   UNL     1       3.175  -1.676  -5.276  1.00  0.00    -0.269 OA
ATOM     35  N   UNL     1       3.294  -3.375  -3.826  1.00  0.00    -0.322 N 
ATOM     36  H   UNL     1       4.222  -3.263  -3.516  1.00  0.00     0.170 HD
BRANCH  35  37
ATOM     37  C   UNL     1       2.784  -4.687  -3.729  1.00  0.00     0.041 A 
ATOM     38  C   UNL     1       3.636  -5.681  -3.236  1.00  0.00     0.026 A 
ATOM     39  C   UNL     1       1.520  -5.062  -4.171  1.00  0.00     0.026 A 
ATOM     40  C   UNL     1       3.192  -7.002  -3.115  1.00  0.00     0.002 A 
ATOM     41  C   UNL     1       1.061  -6.372  -4.031  1.00  0.00     0.002 A 
ATOM     42  C   UNL     1       1.897  -7.343  -3.495  1.00  0.00     0.000 A 
ENDBRANCH  35  37
ENDBRANCH  11  33
ENDBRANCH   3   5
ENDBRANCH   2   3
ENDBRANCH   1   2
BRANCH   1  43
ATOM     43  C   UNL     1       5.303   2.231  -4.850  1.00  0.00     0.118 C 
BRANCH  43  44
ATOM     44  N   UNL     1       5.015   2.721  -6.194  1.00  0.00    -0.352 N 
ATOM     45  C   UNL     1       5.773   3.514  -7.018  1.00  0.00     0.251 C 
ATOM     46  H   UNL     1       4.147   2.441  -6.564  1.00  0.00     0.163 HD
ATOM     47  O   UNL     1       5.295   3.972  -8.050  1.00  0.00    -0.269 OA
BRANCH  45  48
ATOM     48  C   UNL     1       7.167   3.834  -6.647  1.00  0.00     0.039 A 
ATOM     49  C   UNL     1       7.624   5.146  -6.793  1.00  0.00     0.014 A 
ATOM     50  C   UNL     1       8.019   2.844  -6.152  1.00  0.00     0.014 A 
ATOM     51  C   UNL     1       8.914   5.478  -6.376  1.00  0.00     0.010 A 
ATOM     52  C   UNL     1       9.270   3.192  -5.657  1.00  0.00     0.010 A 
ATOM     53  C   UNL     1       9.733   4.511  -5.769  1.00  0.00    -0.014 A 
BRANCH  53  54
ATOM     54  C   UNL     1      11.085   4.850  -5.261  1.00  0.00     0.031 A 
ATOM     55  C   UNL     1      12.298   4.201  -5.869  1.00  0.00     0.074 A 
ATOM     56  C   UNL     1      11.217   5.693  -4.218  1.00  0.00     0.049 A 
ATOM     57  N   UNL     1      13.554   4.300  -5.512  1.00  0.00    -0.248 NA
ATOM     58  C   UNL     1      12.069   3.304  -7.014  1.00  0.00     0.031 C 
ATOM     59  C   UNL     1      10.118   6.363  -3.519  1.00  0.00     0.029 A 
ATOM     60  N   UNL     1      12.341   6.126  -3.559  1.00  0.00    -0.354 N 
ATOM     61  C   UNL     1      14.257   3.473  -6.379  1.00  0.00     0.074 A 
ATOM     62  C   UNL     1      13.288   2.837  -7.242  1.00  0.00     0.031 C 
ATOM     63  C   UNL     1      10.623   7.143  -2.550  1.00  0.00     0.029 A 
ATOM     64  C   UNL     1      12.075   6.997  -2.530  1.00  0.00     0.049 A 
ATOM     65  H   UNL     1      13.251   5.840  -3.801  1.00  0.00     0.167 HD
ATOM     66  C   UNL     1      15.594   3.280  -6.468  1.00  0.00     0.031 A 
ATOM     67  C   UNL     1      12.909   7.604  -1.665  1.00  0.00     0.031 A 
ATOM     68  C   UNL     1      16.562   3.922  -5.622  1.00  0.00     0.049 A 
ATOM     69  C   UNL     1      14.387   7.351  -1.772  1.00  0.00     0.074 A 
ATOM     70  C   UNL     1      17.942   3.811  -5.650  1.00  0.00     0.029 A 
ATOM     71  N   UNL     1      16.251   4.805  -4.600  1.00  0.00    -0.354 N 
ATOM     72  N   UNL     1      15.038   6.598  -2.625  1.00  0.00    -0.248 NA
ATOM     73  C   UNL     1      15.247   8.041  -0.800  1.00  0.00     0.031 C 
ATOM     74  C   UNL     1      18.464   4.601  -4.622  1.00  0.00     0.029 A 
ATOM     75  C   UNL     1      17.413   5.240  -3.986  1.00  0.00     0.049 A 
ATOM     76  H   UNL     1      15.340   5.081  -4.349  1.00  0.00     0.167 HD
ATOM     77  C   UNL     1      16.383   6.753  -2.316  1.00  0.00     0.074 A 
ATOM     78  C   UNL     1      16.455   7.682  -1.207  1.00  0.00     0.031 C 
ATOM     79  C   UNL     1      17.463   6.177  -2.896  1.00  0.00     0.031 A 
BRANCH  66  80
ATOM     80  C   UNL     1      16.089   2.344  -7.534  1.00  0.00    -0.014 A 
ATOM     81  C   UNL     1      16.046   2.709  -8.889  1.00  0.00     0.009 A 
ATOM     82  C   UNL     1      16.647   1.106  -7.180  1.00  0.00     0.009 A 
ATOM     83  C   UNL     1      16.526   1.842  -9.871  1.00  0.00     0.001 A 
ATOM     84  C   UNL     1      17.151   0.252  -8.163  1.00  0.00     0.001 A 
ATOM     85  C   UNL     1      17.084   0.617  -9.507  1.00  0.00     0.000 A 
ENDBRANCH  66  80
BRANCH  67  86
ATOM     86  C   UNL     1      12.379   8.521  -0.622  1.00  0.00    -0.014 A 
ATOM     87  C   UNL     1      12.639   9.899  -0.688  1.00  0.00     0.009 A 
ATOM     88  C   UNL     1      11.649   8.021   0.467  1.00  0.00     0.009 A 
ATOM     89  C   UNL     1      12.215  10.751   0.334  1.00  0.00     0.001 A 
ATOM     90  C   UNL     1      11.199   8.880   1.473  1.00  0.00     0.001 A 
ATOM     91  C   UNL     1      11.495  10.241   1.413  1.00  0.00     0.000 A 
ENDBRANCH  67  86
BRANCH  79  92
ATOM     92  C   UNL     1      18.815   6.577  -2.376  1.00  0.00    -0.014 A 
ATOM     93  C   UNL     1      19.280   6.128  -1.131  1.00  0.00     0.009 A 
ATOM     94  C   UNL     1      19.647   7.386  -3.165  1.00  0.00     0.009 A 
ATOM     95  C   UNL     1      20.541   6.512  -0.671  1.00  0.00     0.001 A 
ATOM     96  C   UNL     1      20.918   7.745  -2.715  1.00  0.00     0.001 A 
ATOM     97  C   UNL     1      21.359   7.315  -1.465  1.00  0.00     0.000 A 
ENDBRANCH  79  92
ENDBRANCH  53  54
ENDBRANCH  45  48
ENDBRANCH  43  44
ENDBRANCH   1  43
TORSDOF 17
