REMARK SMILES O=C(Cc1cccn1-c1ccccc1F)NCCCNC(=O)c1ccc(-c2c3nc(c(-c4ccccc4)c4ccc([nH]4)c(-c4ccccc4)c4nc(c(-c5ccccc5)c5ccc2[nH]5)C=C4)C=C3)cc1
REMARK SMILES IDX 18 1 17 2 16 3 1 4 2 5 3 7 4 8 5 9 8 10 6 11 7 12 9 13 10 14
REMARK SMILES IDX 14 15 11 16 13 17 15 18 12 19 19 20 20 21 21 22 22 24 23 25
REMARK SMILES IDX 24 26 70 27 25 28 69 29 26 30 27 31 28 32 63 33 29 34 68 35
REMARK SMILES IDX 62 36 64 37 30 38 67 39 61 40 60 41 31 43 53 44 38 45 52 46
REMARK SMILES IDX 39 47 42 48 51 49 65 50 40 51 41 52 50 54 66 55 43 56 32 57
REMARK SMILES IDX 33 58 37 59 34 60 36 61 35 62 54 63 55 64 59 65 56 66 58 67
REMARK SMILES IDX 57 68 44 69 45 70 49 71 46 72 48 73 47 74
REMARK H PARENT 16 6 20 23 64 42 42 53
REMARK Flexibility Score: inf
ROOT
ATOM      1  C   UNL     1       2.321   2.745   2.208  1.00  0.00     0.042 C 
ENDROOT
BRANCH   1   2
ATOM      2  C   UNL     1       2.037   2.357   0.757  1.00  0.00     0.117 C 
BRANCH   2   3
ATOM      3  N   UNL     1       2.740   1.155   0.353  1.00  0.00    -0.356 N 
ATOM      4  O   UNL     1       0.855  -0.052  -0.149  1.00  0.00    -0.275 OA
ATOM      5  C   UNL     1       2.079   0.045  -0.136  1.00  0.00     0.225 C 
ATOM      6  H   UNL     1       3.721   1.130   0.428  1.00  0.00     0.163 HD
BRANCH   5   7
ATOM      7  C   UNL     1       2.987  -1.085  -0.599  1.00  0.00     0.154 C 
BRANCH   7   8
ATOM      8  C   UNL     1       3.801  -0.749  -1.826  1.00  0.00     0.032 A 
ATOM      9  C   UNL     1       4.014   0.469  -2.458  1.00  0.00     0.024 A 
ATOM     10  N   UNL     1       4.601  -1.689  -2.478  1.00  0.00    -0.318 N 
ATOM     11  C   UNL     1       5.044   0.304  -3.406  1.00  0.00     0.020 A 
ATOM     12  C   UNL     1       5.422  -1.015  -3.361  1.00  0.00     0.091 A 
BRANCH  10  13
ATOM     13  C   UNL     1       4.649  -3.089  -2.274  1.00  0.00     0.081 A 
ATOM     14  C   UNL     1       5.889  -3.726  -2.133  1.00  0.00     0.030 A 
ATOM     15  C   UNL     1       3.479  -3.849  -2.272  1.00  0.00     0.147 A 
ATOM     16  C   UNL     1       5.938  -5.108  -1.931  1.00  0.00     0.002 A 
ATOM     17  C   UNL     1       3.530  -5.227  -2.086  1.00  0.00     0.041 A 
ATOM     18  F   UNL     1       2.289  -3.292  -2.537  1.00  0.00    -0.205 F 
ATOM     19  C   UNL     1       4.761  -5.857  -1.903  1.00  0.00     0.003 A 
ENDBRANCH  10  13
ENDBRANCH   7   8
ENDBRANCH   5   7
ENDBRANCH   2   3
ENDBRANCH   1   2
BRANCH   1  20
ATOM     20  C   UNL     1       3.763   3.195   2.441  1.00  0.00     0.118 C 
BRANCH  20  21
ATOM     21  N   UNL     1       4.037   4.469   1.795  1.00  0.00    -0.352 N 
ATOM     22  C   UNL     1       5.113   5.312   1.917  1.00  0.00     0.251 C 
ATOM     23  H   UNL     1       3.340   4.775   1.171  1.00  0.00     0.163 HD
ATOM     24  O   UNL     1       4.995   6.479   1.564  1.00  0.00    -0.269 OA
BRANCH  22  25
ATOM     25  C   UNL     1       6.410   4.851   2.461  1.00  0.00     0.039 A 
ATOM     26  C   UNL     1       7.175   5.770   3.195  1.00  0.00     0.014 A 
ATOM     27  C   UNL     1       6.928   3.586   2.166  1.00  0.00     0.014 A 
ATOM     28  C   UNL     1       8.428   5.406   3.679  1.00  0.00     0.010 A 
ATOM     29  C   UNL     1       8.171   3.210   2.662  1.00  0.00     0.010 A 
ATOM     30  C   UNL     1       8.910   4.116   3.433  1.00  0.00    -0.014 A 
BRANCH  30  31
ATOM     31  C   UNL     1      10.092   3.631   4.178  1.00  0.00     0.031 A 
ATOM     32  C   UNL     1       9.694   3.137   5.593  1.00  0.00     0.074 A 
ATOM     33  C   UNL     1      11.293   3.668   3.521  1.00  0.00     0.049 A 
ATOM     34  N   UNL     1      10.436   2.871   6.622  1.00  0.00    -0.248 NA
ATOM     35  C   UNL     1       8.253   2.910   5.916  1.00  0.00     0.031 C 
ATOM     36  C   UNL     1      11.480   4.135   2.124  1.00  0.00     0.029 A 
ATOM     37  N   UNL     1      12.588   3.328   3.861  1.00  0.00    -0.354 N 
ATOM     38  C   UNL     1       9.613   2.292   7.618  1.00  0.00     0.074 A 
ATOM     39  C   UNL     1       8.267   2.408   7.153  1.00  0.00     0.031 C 
ATOM     40  C   UNL     1      12.788   4.127   1.777  1.00  0.00     0.029 A 
ATOM     41  C   UNL     1      13.580   3.638   2.889  1.00  0.00     0.049 A 
ATOM     42  H   UNL     1      12.809   2.900   4.719  1.00  0.00     0.167 HD
ATOM     43  C   UNL     1      10.108   1.638   8.711  1.00  0.00     0.031 A 
ATOM     44  C   UNL     1      14.943   3.539   2.987  1.00  0.00     0.031 A 
ATOM     45  C   UNL     1      11.518   1.798   8.777  1.00  0.00     0.049 A 
ATOM     46  C   UNL     1      15.192   2.816   4.238  1.00  0.00     0.074 A 
ATOM     47  C   UNL     1      12.310   2.885   9.038  1.00  0.00     0.029 A 
ATOM     48  N   UNL     1      12.266   0.827   8.161  1.00  0.00    -0.354 N 
ATOM     49  N   UNL     1      14.997   1.545   4.407  1.00  0.00    -0.248 NA
ATOM     50  C   UNL     1      15.643   3.568   5.415  1.00  0.00     0.031 C 
ATOM     51  C   UNL     1      13.347   2.746   8.092  1.00  0.00     0.029 A 
ATOM     52  C   UNL     1      13.271   1.481   7.499  1.00  0.00     0.049 A 
ATOM     53  H   UNL     1      12.111  -0.145   8.189  1.00  0.00     0.167 HD
ATOM     54  C   UNL     1      14.902   1.454   5.771  1.00  0.00     0.074 A 
ATOM     55  C   UNL     1      15.626   2.585   6.312  1.00  0.00     0.031 C 
ATOM     56  C   UNL     1      13.819   0.853   6.324  1.00  0.00     0.031 A 
BRANCH  43  57
ATOM     57  C   UNL     1       9.490   0.629   9.642  1.00  0.00    -0.014 A 
ATOM     58  C   UNL     1      10.231   0.273  10.797  1.00  0.00     0.009 A 
ATOM     59  C   UNL     1       8.440  -0.216   9.273  1.00  0.00     0.009 A 
ATOM     60  C   UNL     1      10.024  -0.933  11.468  1.00  0.00     0.001 A 
ATOM     61  C   UNL     1       8.204  -1.411   9.972  1.00  0.00     0.001 A 
ATOM     62  C   UNL     1       9.019  -1.787  11.040  1.00  0.00     0.000 A 
ENDBRANCH  43  57
BRANCH  44  63
ATOM     63  C   UNL     1      16.188   3.977   2.249  1.00  0.00    -0.014 A 
ATOM     64  C   UNL     1      16.241   4.609   1.006  1.00  0.00     0.009 A 
ATOM     65  C   UNL     1      17.447   3.826   2.905  1.00  0.00     0.009 A 
ATOM     66  C   UNL     1      17.456   5.137   0.509  1.00  0.00     0.001 A 
ATOM     67  C   UNL     1      18.640   4.390   2.446  1.00  0.00     0.001 A 
ATOM     68  C   UNL     1      18.641   5.065   1.244  1.00  0.00     0.000 A 
ENDBRANCH  44  63
BRANCH  56  69
ATOM     69  C   UNL     1      13.072  -0.123   5.423  1.00  0.00    -0.014 A 
ATOM     70  C   UNL     1      13.737  -1.236   4.888  1.00  0.00     0.009 A 
ATOM     71  C   UNL     1      11.745   0.086   5.004  1.00  0.00     0.009 A 
ATOM     72  C   UNL     1      13.113  -2.090   3.967  1.00  0.00     0.001 A 
ATOM     73  C   UNL     1      11.114  -0.764   4.081  1.00  0.00     0.001 A 
ATOM     74  C   UNL     1      11.802  -1.854   3.562  1.00  0.00     0.000 A 
ENDBRANCH  56  69
ENDBRANCH  30  31
ENDBRANCH  22  25
ENDBRANCH  20  21
ENDBRANCH   1  20
TORSDOF 12
