REMARK SMILES C[C@@H]1CN(c2cc(C(=O)NCCCNC(=O)c3ccc(-c4c5nc(c(-c6ccccc6)c6ccc([nH]6)c(-c6ccccc6)c6nc(c(-c7ccccc7)c7ccc4[nH]7)C=C6)C=C5)cc3)c(F)cc2F)S(=O)(=O)C1
REMARK SMILES IDX 12 1 11 2 10 3 8 4 9 5 7 7 5 8 6 9 68 10 67 11 69 12 65 13
REMARK SMILES IDX 66 14 4 15 1 16 2 17 3 18 73 19 70 20 71 21 72 22 13 23
REMARK SMILES IDX 14 24 15 25 16 27 17 28 18 29 64 30 19 31 63 32 20 33 21 34
REMARK SMILES IDX 22 35 57 36 23 37 62 38 56 39 58 40 24 41 61 42 55 43 54 44
REMARK SMILES IDX 25 46 47 47 32 48 46 49 33 50 36 51 45 52 59 53 34 54 35 55
REMARK SMILES IDX 44 57 60 58 37 59 26 60 27 61 31 62 28 63 30 64 29 65 48 66
REMARK SMILES IDX 49 67 53 68 50 69 52 70 51 71 38 72 39 73 43 74 40 75 42 76
REMARK SMILES IDX 41 77
REMARK H PARENT 10 6 14 26 58 45 36 56
REMARK Flexibility Score: inf
ROOT
ATOM      1  C   UNL     1       2.451  10.641  -1.258  1.00  0.00     0.042 C 
ENDROOT
BRANCH   1   2
ATOM      2  C   UNL     1       1.735   9.916  -2.398  1.00  0.00     0.118 C 
BRANCH   2   3
ATOM      3  N   UNL     1       2.509   8.773  -2.833  1.00  0.00    -0.352 N 
ATOM      4  C   UNL     1       2.431   7.440  -2.554  1.00  0.00     0.254 C 
ATOM      5  O   UNL     1       3.296   6.722  -3.064  1.00  0.00    -0.269 OA
ATOM      6  H   UNL     1       3.237   9.004  -3.455  1.00  0.00     0.163 HD
BRANCH   4   7
ATOM      7  C   UNL     1       1.374   6.788  -1.740  1.00  0.00     0.077 A 
ATOM      8  C   UNL     1       0.225   4.666  -1.331  1.00  0.00     0.088 A 
ATOM      9  C   UNL     1       1.131   5.439  -2.058  1.00  0.00     0.047 A 
ATOM     10  C   UNL     1      -0.425   5.236  -0.236  1.00  0.00     0.150 A 
ATOM     11  C   UNL     1      -0.227   6.574   0.081  1.00  0.00     0.081 A 
ATOM     12  F   UNL     1      -1.185   4.490   0.578  1.00  0.00    -0.205 F 
ATOM     13  C   UNL     1       0.685   7.333  -0.655  1.00  0.00     0.139 A 
ATOM     14  F   UNL     1       0.920   8.571  -0.209  1.00  0.00    -0.206 F 
BRANCH   8  15
ATOM     15  N   UNL     1       0.170   3.277  -1.668  1.00  0.00    -0.267 N 
ATOM     16  C   UNL     1       0.984  -0.038  -0.045  1.00  0.00     0.011 C 
ATOM     17  C   UNL     1       0.455   0.949  -1.071  1.00  0.00     0.023 C 
ATOM     18  C   UNL     1       1.046   2.354  -0.899  1.00  0.00     0.140 C 
ATOM     19  C   UNL     1      -1.058   1.139  -0.989  1.00  0.00     0.165 C 
ATOM     20  S   UNL     1      -1.350   2.568  -2.017  1.00  0.00     0.235 S 
ATOM     21  O   UNL     1      -2.439   3.347  -1.482  1.00  0.00    -0.206 OA
ATOM     22  O   UNL     1      -1.320   2.142  -3.401  1.00  0.00    -0.206 OA
ENDBRANCH   8  15
ENDBRANCH   4   7
ENDBRANCH   2   3
ENDBRANCH   1   2
BRANCH   1  23
ATOM     23  C   UNL     1       3.623  11.495  -1.733  1.00  0.00     0.118 C 
BRANCH  23  24
ATOM     24  N   UNL     1       3.178  12.619  -2.545  1.00  0.00    -0.352 N 
ATOM     25  C   UNL     1       3.306  13.967  -2.337  1.00  0.00     0.251 C 
ATOM     26  H   UNL     1       2.711  12.371  -3.375  1.00  0.00     0.163 HD
ATOM     27  O   UNL     1       2.630  14.748  -3.001  1.00  0.00    -0.269 OA
BRANCH  25  28
ATOM     28  C   UNL     1       4.251  14.488  -1.328  1.00  0.00     0.039 A 
ATOM     29  C   UNL     1       3.892  15.620  -0.591  1.00  0.00     0.014 A 
ATOM     30  C   UNL     1       5.510  13.908  -1.150  1.00  0.00     0.014 A 
ATOM     31  C   UNL     1       4.779  16.146   0.348  1.00  0.00     0.010 A 
ATOM     32  C   UNL     1       6.357  14.379  -0.152  1.00  0.00     0.010 A 
ATOM     33  C   UNL     1       6.010  15.515   0.593  1.00  0.00    -0.014 A 
BRANCH  33  34
ATOM     34  C   UNL     1       6.953  16.045   1.608  1.00  0.00     0.031 A 
ATOM     35  C   UNL     1       8.311  16.542   1.192  1.00  0.00     0.074 A 
ATOM     36  C   UNL     1       6.603  16.036   2.908  1.00  0.00     0.049 A 
ATOM     37  N   UNL     1       9.283  17.008   1.935  1.00  0.00    -0.248 NA
ATOM     38  C   UNL     1       8.631  16.485  -0.244  1.00  0.00     0.031 C 
ATOM     39  C   UNL     1       5.329  15.545   3.440  1.00  0.00     0.029 A 
ATOM     40  N   UNL     1       7.288  16.454   4.021  1.00  0.00    -0.354 N 
ATOM     41  C   UNL     1      10.329  17.281   1.062  1.00  0.00     0.074 A 
ATOM     42  C   UNL     1       9.897  16.876  -0.257  1.00  0.00     0.031 C 
ATOM     43  C   UNL     1       5.311  15.723   4.770  1.00  0.00     0.029 A 
ATOM     44  C   UNL     1       6.585  16.296   5.191  1.00  0.00     0.049 A 
ATOM     45  H   UNL     1       8.196  16.830   3.985  1.00  0.00     0.167 HD
ATOM     46  C   UNL     1      11.533  17.840   1.329  1.00  0.00     0.031 A 
ATOM     47  C   UNL     1       6.930  16.577   6.461  1.00  0.00     0.031 A 
ATOM     48  C   UNL     1      11.957  18.247   2.642  1.00  0.00     0.049 A 
ATOM     49  C   UNL     1       8.281  17.179   6.732  1.00  0.00     0.074 A 
ATOM     50  C   UNL     1      13.137  18.868   3.012  1.00  0.00     0.029 A 
ATOM     51  N   UNL     1      11.216  18.071   3.800  1.00  0.00    -0.354 N 
ATOM     52  N   UNL     1       9.233  17.494   5.886  1.00  0.00    -0.248 NA
ATOM     53  C   UNL     1       8.597  17.482   8.134  1.00  0.00     0.031 C 
ATOM     54  C   UNL     1      13.136  19.012   4.403  1.00  0.00     0.029 A 
ATOM     55  C   UNL     1      11.924  18.549   4.890  1.00  0.00     0.049 A 
ATOM     56  H   UNL     1      10.319  17.666   3.841  1.00  0.00     0.167 HD
ATOM     57  C   UNL     1      10.244  18.064   6.649  1.00  0.00     0.074 A 
ATOM     58  C   UNL     1       9.781  18.067   8.021  1.00  0.00     0.031 C 
ATOM     59  C   UNL     1      11.447  18.545   6.249  1.00  0.00     0.031 A 
BRANCH  46  60
ATOM     60  C   UNL     1      12.482  18.033   0.176  1.00  0.00    -0.014 A 
ATOM     61  C   UNL     1      12.215  18.962  -0.843  1.00  0.00     0.009 A 
ATOM     62  C   UNL     1      13.678  17.301   0.126  1.00  0.00     0.009 A 
ATOM     63  C   UNL     1      13.107  19.124  -1.906  1.00  0.00     0.001 A 
ATOM     64  C   UNL     1      14.584  17.489  -0.919  1.00  0.00     0.001 A 
ATOM     65  C   UNL     1      14.293  18.393  -1.940  1.00  0.00     0.000 A 
ENDBRANCH  46  60
BRANCH  47  66
ATOM     66  C   UNL     1       5.980  16.307   7.572  1.00  0.00    -0.014 A 
ATOM     67  C   UNL     1       5.402  17.364   8.292  1.00  0.00     0.009 A 
ATOM     68  C   UNL     1       5.657  14.989   7.931  1.00  0.00     0.009 A 
ATOM     69  C   UNL     1       4.551  17.108   9.369  1.00  0.00     0.001 A 
ATOM     70  C   UNL     1       4.778  14.735   8.986  1.00  0.00     0.001 A 
ATOM     71  C   UNL     1       4.236  15.794   9.713  1.00  0.00     0.000 A 
ENDBRANCH  47  66
BRANCH  59  72
ATOM     72  C   UNL     1      12.324  19.163   7.304  1.00  0.00    -0.014 A 
ATOM     73  C   UNL     1      12.933  18.388   8.303  1.00  0.00     0.009 A 
ATOM     74  C   UNL     1      12.565  20.546   7.275  1.00  0.00     0.009 A 
ATOM     75  C   UNL     1      13.729  18.993   9.278  1.00  0.00     0.001 A 
ATOM     76  C   UNL     1      13.390  21.142   8.228  1.00  0.00     0.001 A 
ATOM     77  C   UNL     1      13.961  20.368   9.236  1.00  0.00     0.000 A 
ENDBRANCH  59  72
ENDBRANCH  33  34
ENDBRANCH  25  28
ENDBRANCH  23  24
ENDBRANCH   1  23
TORSDOF 11
