REMARK SMILES CC1=C(C(=O)NCCCNC(=O)c2ccc(-c3c4nc(c(-c5ccccc5)c5ccc([nH]5)c(-c5ccccc5)c5nc(c(-c6ccccc6)c6ccc3[nH]6)C=C5)C=C4)cc2)[C@H](c2ccc(Cl)cc2)n2ncnc2N1
REMARK SMILES IDX 8 1 7 2 6 3 4 4 5 5 3 7 1 8 2 9 74 10 61 11 73 12 69 14
REMARK SMILES IDX 72 15 70 16 71 17 62 18 63 19 68 20 64 21 67 22 65 23 66 24
REMARK SMILES IDX 9 25 10 26 11 27 12 29 13 30 14 31 60 32 15 33 59 34 16 35
REMARK SMILES IDX 17 36 18 37 53 38 19 39 58 40 52 41 54 42 20 43 57 44 51 45
REMARK SMILES IDX 50 46 21 48 43 49 28 50 42 51 29 52 32 53 41 54 55 55 30 56
REMARK SMILES IDX 31 57 40 59 56 60 33 61 22 62 23 63 27 64 24 65 26 66 25 67
REMARK SMILES IDX 44 68 45 69 49 70 46 71 48 72 47 73 34 74 35 75 39 76 36 77
REMARK SMILES IDX 38 78 37 79
REMARK H PARENT 6 6 74 13 10 28 54 47 32 58
REMARK Flexibility Score: inf
ROOT
ATOM      1  C   UNL     1       2.924   1.647  -0.783  1.00  0.00     0.042 C 
ENDROOT
BRANCH   1   2
ATOM      2  C   UNL     1       1.612   0.901  -0.597  1.00  0.00     0.118 C 
BRANCH   2   3
ATOM      3  N   UNL     1       0.851   0.629  -1.796  1.00  0.00    -0.352 N 
ATOM      4  C   UNL     1       0.071  -0.428  -2.150  1.00  0.00     0.251 C 
ATOM      5  O   UNL     1      -0.379  -0.374  -3.296  1.00  0.00    -0.270 OA
ATOM      6  H   UNL     1       0.907   1.336  -2.478  1.00  0.00     0.163 HD
BRANCH   4   7
ATOM      7  C   UNL     1      -0.112  -1.677  -1.328  1.00  0.00     0.065 C 
ATOM      8  C   UNL     1      -0.041  -0.878   1.112  1.00  0.00     0.065 C 
ATOM      9  C   UNL     1       0.023  -1.901   0.010  1.00  0.00     0.026 C 
ATOM     10  N   UNL     1       0.194  -3.205   0.479  1.00  0.00    -0.328 N 
ATOM     11  C   UNL     1      -0.589  -2.886  -2.193  1.00  0.00     0.179 C 
ATOM     12  C   UNL     1       0.304  -4.273  -0.331  1.00  0.00     0.226 A 
ATOM     13  H   UNL     1       0.235  -3.351   1.452  1.00  0.00     0.169 HD
ATOM     14  N   UNL     1      -0.015  -4.125  -1.652  1.00  0.00    -0.219 N 
ATOM     15  N   UNL     1       0.638  -5.514  -0.095  1.00  0.00    -0.200 NA
ATOM     16  N   UNL     1       0.123  -5.287  -2.324  1.00  0.00    -0.157 NA
ATOM     17  C   UNL     1       0.517  -6.097  -1.332  1.00  0.00     0.248 A 
BRANCH  11  18
ATOM     18  C   UNL     1      -2.145  -2.952  -2.210  1.00  0.00    -0.018 A 
ATOM     19  C   UNL     1      -2.887  -3.848  -1.412  1.00  0.00     0.008 A 
ATOM     20  C   UNL     1      -2.880  -2.030  -2.982  1.00  0.00     0.008 A 
ATOM     21  C   UNL     1      -4.286  -3.802  -1.367  1.00  0.00     0.021 A 
ATOM     22  C   UNL     1      -4.276  -1.964  -2.917  1.00  0.00     0.021 A 
ATOM     23  C   UNL     1      -4.974  -2.849  -2.107  1.00  0.00     0.041 A 
ATOM     24  Cl  UNL     1      -6.689  -2.762  -2.016  1.00  0.00    -0.084 Cl
ENDBRANCH  11  18
ENDBRANCH   4   7
ENDBRANCH   2   3
ENDBRANCH   1   2
BRANCH   1  25
ATOM     25  C   UNL     1       2.757   3.113  -1.121  1.00  0.00     0.118 C 
BRANCH  25  26
ATOM     26  N   UNL     1       2.210   3.946  -0.045  1.00  0.00    -0.352 N 
ATOM     27  C   UNL     1       2.105   5.331  -0.055  1.00  0.00     0.251 C 
ATOM     28  H   UNL     1       1.886   3.480   0.759  1.00  0.00     0.163 HD
ATOM     29  O   UNL     1       1.839   5.975   0.952  1.00  0.00    -0.269 OA
BRANCH  27  30
ATOM     30  C   UNL     1       2.345   6.000  -1.345  1.00  0.00     0.039 A 
ATOM     31  C   UNL     1       3.406   6.891  -1.515  1.00  0.00     0.014 A 
ATOM     32  C   UNL     1       1.659   5.474  -2.430  1.00  0.00     0.014 A 
ATOM     33  C   UNL     1       3.867   7.142  -2.808  1.00  0.00     0.010 A 
ATOM     34  C   UNL     1       2.246   5.564  -3.667  1.00  0.00     0.010 A 
ATOM     35  C   UNL     1       3.320   6.430  -3.886  1.00  0.00    -0.014 A 
BRANCH  35  36
ATOM     36  C   UNL     1       3.903   6.504  -5.229  1.00  0.00     0.031 A 
ATOM     37  C   UNL     1       5.388   6.387  -5.355  1.00  0.00     0.074 A 
ATOM     38  C   UNL     1       3.152   6.470  -6.352  1.00  0.00     0.049 A 
ATOM     39  N   UNL     1       6.202   7.289  -5.796  1.00  0.00    -0.248 NA
ATOM     40  C   UNL     1       6.057   5.154  -4.915  1.00  0.00     0.031 C 
ATOM     41  C   UNL     1       1.697   6.316  -6.482  1.00  0.00     0.029 A 
ATOM     42  N   UNL     1       3.571   6.423  -7.646  1.00  0.00    -0.354 N 
ATOM     43  C   UNL     1       7.467   6.707  -5.838  1.00  0.00     0.074 A 
ATOM     44  C   UNL     1       7.339   5.429  -5.180  1.00  0.00     0.031 C 
ATOM     45  C   UNL     1       1.396   5.910  -7.732  1.00  0.00     0.029 A 
ATOM     46  C   UNL     1       2.600   5.991  -8.535  1.00  0.00     0.049 A 
ATOM     47  H   UNL     1       4.481   6.674  -7.925  1.00  0.00     0.167 HD
ATOM     48  C   UNL     1       8.485   7.246  -6.571  1.00  0.00     0.031 A 
ATOM     49  C   UNL     1       2.756   5.715  -9.848  1.00  0.00     0.031 A 
ATOM     50  C   UNL     1       8.163   8.566  -7.048  1.00  0.00     0.049 A 
ATOM     51  C   UNL     1       3.952   6.453 -10.310  1.00  0.00     0.074 A 
ATOM     52  C   UNL     1       7.838   9.767  -6.452  1.00  0.00     0.029 A 
ATOM     53  N   UNL     1       7.774   8.681  -8.362  1.00  0.00    -0.354 N 
ATOM     54  N   UNL     1       4.002   7.754 -10.369  1.00  0.00    -0.248 NA
ATOM     55  C   UNL     1       5.242   5.784 -10.287  1.00  0.00     0.031 C 
ATOM     56  C   UNL     1       6.823  10.320  -7.288  1.00  0.00     0.029 A 
ATOM     57  C   UNL     1       6.644   9.457  -8.372  1.00  0.00     0.049 A 
ATOM     58  H   UNL     1       8.220   8.283  -9.144  1.00  0.00     0.167 HD
ATOM     59  C   UNL     1       5.277   8.078  -9.930  1.00  0.00     0.074 A 
ATOM     60  C   UNL     1       6.033   6.830 -10.024  1.00  0.00     0.031 C 
ATOM     61  C   UNL     1       5.522   9.245  -9.260  1.00  0.00     0.031 A 
BRANCH  48  62
ATOM     62  C   UNL     1       9.639   6.478  -7.162  1.00  0.00    -0.014 A 
ATOM     63  C   UNL     1      10.691   7.191  -7.771  1.00  0.00     0.009 A 
ATOM     64  C   UNL     1       9.597   5.092  -7.391  1.00  0.00     0.009 A 
ATOM     65  C   UNL     1      11.608   6.561  -8.621  1.00  0.00     0.001 A 
ATOM     66  C   UNL     1      10.536   4.453  -8.208  1.00  0.00     0.001 A 
ATOM     67  C   UNL     1      11.524   5.192  -8.846  1.00  0.00     0.000 A 
ENDBRANCH  48  62
BRANCH  49  68
ATOM     68  C   UNL     1       2.015   4.736 -10.663  1.00  0.00    -0.014 A 
ATOM     69  C   UNL     1       2.013   4.809 -12.061  1.00  0.00     0.009 A 
ATOM     70  C   UNL     1       1.488   3.573 -10.065  1.00  0.00     0.009 A 
ATOM     71  C   UNL     1       1.534   3.743 -12.833  1.00  0.00     0.001 A 
ATOM     72  C   UNL     1       1.004   2.512 -10.834  1.00  0.00     0.001 A 
ATOM     73  C   UNL     1       1.042   2.591 -12.221  1.00  0.00     0.000 A 
ENDBRANCH  49  68
BRANCH  61  74
ATOM     74  C   UNL     1       4.415  10.272  -9.189  1.00  0.00    -0.014 A 
ATOM     75  C   UNL     1       3.164  10.002  -8.606  1.00  0.00     0.009 A 
ATOM     76  C   UNL     1       4.699  11.595  -9.557  1.00  0.00     0.009 A 
ATOM     77  C   UNL     1       2.216  11.015  -8.427  1.00  0.00     0.001 A 
ATOM     78  C   UNL     1       3.762  12.613  -9.358  1.00  0.00     0.001 A 
ATOM     79  C   UNL     1       2.519  12.322  -8.800  1.00  0.00     0.000 A 
ENDBRANCH  61  74
ENDBRANCH  35  36
ENDBRANCH  27  30
ENDBRANCH  25  26
ENDBRANCH   1  25
TORSDOF 11
