REMARK SMILES O=C(CN(CC(F)(F)F)c1nc(-c2ccccc2)cs1)NCCCNC(=O)c1ccc(-c2c3nc(c(-c4ccccc4)c4ccc([nH]4)c(-c4ccccc4)c4nc(c(-c5ccccc5)c5ccc2[nH]5)C=C4)C=C3)cc1
REMARK SMILES IDX 22 1 21 2 1 3 2 4 3 6 4 7 5 8 6 9 7 10 8 11 9 12 10 13 11 14
REMARK SMILES IDX 20 15 12 16 19 17 13 18 14 19 18 20 15 21 17 22 16 23 23 24
REMARK SMILES IDX 24 25 25 26 26 27 27 29 28 30 29 31 75 32 30 33 74 34 31 35
REMARK SMILES IDX 32 36 33 37 68 38 34 39 73 40 67 41 69 42 35 43 72 44 66 45
REMARK SMILES IDX 65 46 36 48 58 49 43 50 57 51 44 52 47 53 56 54 70 55 45 56
REMARK SMILES IDX 46 57 55 59 71 60 48 61 37 62 38 63 42 64 39 65 41 66 40 67
REMARK SMILES IDX 59 68 60 69 64 70 61 71 63 72 62 73 49 74 50 75 54 76 51 77
REMARK SMILES IDX 53 78 52 79
REMARK H PARENT 21 5 25 28 69 47 47 58
REMARK Flexibility Score: inf
ROOT
ATOM      1  C   UNL     1       2.098   1.361  -2.110  1.00  0.00     0.117 C 
ENDROOT
BRANCH   1   2
ATOM      2  N   UNL     1       2.764   0.462  -1.195  1.00  0.00    -0.354 N 
ATOM      3  O   UNL     1       1.250   0.688   0.511  1.00  0.00    -0.273 OA
ATOM      4  C   UNL     1       2.219   0.111   0.022  1.00  0.00     0.239 C 
ATOM      5  H   UNL     1       3.638   0.086  -1.450  1.00  0.00     0.163 HD
BRANCH   4   6
ATOM      6  C   UNL     1       2.964  -1.002   0.779  1.00  0.00     0.219 C 
BRANCH   6   7
ATOM      7  N   UNL     1       3.893  -1.797  -0.053  1.00  0.00    -0.330 N 
BRANCH   7   8
ATOM      8  C   UNL     1       5.337  -1.738   0.255  1.00  0.00     0.234 C 
BRANCH   8   9
ATOM      9  C   UNL     1       5.879  -2.709   1.317  1.00  0.00     0.406 C 
ATOM     10  F   UNL     1       6.249  -3.893   0.784  1.00  0.00    -0.169 F 
ATOM     11  F   UNL     1       6.985  -2.183   1.901  1.00  0.00    -0.169 F 
ATOM     12  F   UNL     1       4.983  -2.946   2.299  1.00  0.00    -0.169 F 
ENDBRANCH   8   9
ENDBRANCH   7   8
BRANCH   7  13
ATOM     13  C   UNL     1       3.356  -2.740  -0.876  1.00  0.00     0.186 A 
ATOM     14  N   UNL     1       2.403  -2.458  -1.736  1.00  0.00    -0.220 NA
ATOM     15  S   UNL     1       3.836  -4.399  -0.887  1.00  0.00    -0.105 S 
ATOM     16  C   UNL     1       2.018  -3.585  -2.440  1.00  0.00     0.083 A 
ATOM     17  C   UNL     1       2.669  -4.745  -2.082  1.00  0.00     0.097 A 
BRANCH  16  18
ATOM     18  C   UNL     1       1.056  -3.523  -3.527  1.00  0.00     0.001 A 
ATOM     19  C   UNL     1       0.035  -4.474  -3.652  1.00  0.00     0.010 A 
ATOM     20  C   UNL     1       1.180  -2.520  -4.497  1.00  0.00     0.010 A 
ATOM     21  C   UNL     1      -0.833  -4.436  -4.746  1.00  0.00     0.001 A 
ATOM     22  C   UNL     1       0.318  -2.490  -5.595  1.00  0.00     0.001 A 
ATOM     23  C   UNL     1      -0.685  -3.450  -5.721  1.00  0.00     0.000 A 
ENDBRANCH  16  18
ENDBRANCH   7  13
ENDBRANCH   6   7
ENDBRANCH   4   6
ENDBRANCH   1   2
BRANCH   1  24
ATOM     24  C   UNL     1       2.376   2.838  -1.845  1.00  0.00     0.042 C 
BRANCH  24  25
ATOM     25  C   UNL     1       3.840   3.253  -1.968  1.00  0.00     0.118 C 
BRANCH  25  26
ATOM     26  N   UNL     1       4.399   3.020  -3.293  1.00  0.00    -0.352 N 
ATOM     27  C   UNL     1       5.063   3.851  -4.156  1.00  0.00     0.251 C 
ATOM     28  H   UNL     1       4.277   2.102  -3.627  1.00  0.00     0.163 HD
ATOM     29  O   UNL     1       5.337   3.435  -5.285  1.00  0.00    -0.269 OA
BRANCH  27  30
ATOM     30  C   UNL     1       5.449   5.233  -3.785  1.00  0.00     0.039 A 
ATOM     31  C   UNL     1       5.394   6.224  -4.774  1.00  0.00     0.014 A 
ATOM     32  C   UNL     1       5.934   5.559  -2.517  1.00  0.00     0.014 A 
ATOM     33  C   UNL     1       5.777   7.537  -4.482  1.00  0.00     0.010 A 
ATOM     34  C   UNL     1       6.254   6.884  -2.206  1.00  0.00     0.010 A 
ATOM     35  C   UNL     1       6.189   7.885  -3.188  1.00  0.00    -0.014 A 
BRANCH  35  36
ATOM     36  C   UNL     1       6.576   9.281  -2.856  1.00  0.00     0.031 A 
ATOM     37  C   UNL     1       7.995   9.609  -2.471  1.00  0.00     0.074 A 
ATOM     38  C   UNL     1       5.645  10.256  -2.856  1.00  0.00     0.049 A 
ATOM     39  N   UNL     1       8.508  10.757  -2.105  1.00  0.00    -0.248 NA
ATOM     40  C   UNL     1       8.957   8.496  -2.479  1.00  0.00     0.031 C 
ATOM     41  C   UNL     1       4.229  10.076  -3.181  1.00  0.00     0.029 A 
ATOM     42  N   UNL     1       5.754  11.594  -2.569  1.00  0.00    -0.354 N 
ATOM     43  C   UNL     1       9.844  10.501  -1.819  1.00  0.00     0.074 A 
ATOM     44  C   UNL     1      10.052   9.082  -2.015  1.00  0.00     0.031 C 
ATOM     45  C   UNL     1       3.606  11.263  -3.097  1.00  0.00     0.029 A 
ATOM     46  C   UNL     1       4.568  12.279  -2.682  1.00  0.00     0.049 A 
ATOM     47  H   UNL     1       6.601  12.022  -2.307  1.00  0.00     0.167 HD
ATOM     48  C   UNL     1      10.816  11.367  -1.444  1.00  0.00     0.031 A 
ATOM     49  C   UNL     1       4.285  13.579  -2.472  1.00  0.00     0.031 A 
ATOM     50  C   UNL     1      10.623  12.782  -1.266  1.00  0.00     0.049 A 
ATOM     51  C   UNL     1       5.380  14.520  -2.056  1.00  0.00     0.074 A 
ATOM     52  C   UNL     1      11.561  13.745  -0.937  1.00  0.00     0.029 A 
ATOM     53  N   UNL     1       9.409  13.436  -1.403  1.00  0.00    -0.354 N 
ATOM     54  N   UNL     1       6.649  14.270  -1.845  1.00  0.00    -0.248 NA
ATOM     55  C   UNL     1       5.003  15.928  -1.864  1.00  0.00     0.031 C 
ATOM     56  C   UNL     1      10.907  14.978  -0.837  1.00  0.00     0.029 A 
ATOM     57  C   UNL     1       9.571  14.788  -1.151  1.00  0.00     0.049 A 
ATOM     58  H   UNL     1       8.558  13.003  -1.645  1.00  0.00     0.167 HD
ATOM     59  C   UNL     1       7.227  15.492  -1.525  1.00  0.00     0.074 A 
ATOM     60  C   UNL     1       6.174  16.484  -1.582  1.00  0.00     0.031 C 
ATOM     61  C   UNL     1       8.517  15.766  -1.216  1.00  0.00     0.031 A 
BRANCH  48  62
ATOM     62  C   UNL     1      12.185  10.800  -1.194  1.00  0.00    -0.014 A 
ATOM     63  C   UNL     1      12.990  10.350  -2.253  1.00  0.00     0.009 A 
ATOM     64  C   UNL     1      12.691  10.743   0.114  1.00  0.00     0.009 A 
ATOM     65  C   UNL     1      14.257   9.820  -2.003  1.00  0.00     0.001 A 
ATOM     66  C   UNL     1      13.969  10.238   0.358  1.00  0.00     0.001 A 
ATOM     67  C   UNL     1      14.747   9.768  -0.699  1.00  0.00     0.000 A 
ENDBRANCH  48  62
BRANCH  49  68
ATOM     68  C   UNL     1       2.900  14.079  -2.675  1.00  0.00    -0.014 A 
ATOM     69  C   UNL     1       2.594  14.889  -3.779  1.00  0.00     0.009 A 
ATOM     70  C   UNL     1       1.883  13.758  -1.762  1.00  0.00     0.009 A 
ATOM     71  C   UNL     1       1.301  15.389  -3.951  1.00  0.00     0.001 A 
ATOM     72  C   UNL     1       0.586  14.239  -1.952  1.00  0.00     0.001 A 
ATOM     73  C   UNL     1       0.298  15.061  -3.041  1.00  0.00     0.000 A 
ENDBRANCH  49  68
BRANCH  61  74
ATOM     74  C   UNL     1       8.871  17.203  -0.957  1.00  0.00    -0.014 A 
ATOM     75  C   UNL     1       8.489  17.846   0.230  1.00  0.00     0.009 A 
ATOM     76  C   UNL     1       9.631  17.910  -1.902  1.00  0.00     0.009 A 
ATOM     77  C   UNL     1       8.833  19.182   0.450  1.00  0.00     0.001 A 
ATOM     78  C   UNL     1       9.995  19.237  -1.667  1.00  0.00     0.001 A 
ATOM     79  C   UNL     1       9.589  19.874  -0.496  1.00  0.00     0.000 A 
ENDBRANCH  61  74
ENDBRANCH  35  36
ENDBRANCH  27  30
ENDBRANCH  25  26
ENDBRANCH  24  25
ENDBRANCH   1  24
TORSDOF 15
