REMARK SMILES O=C(CCCNC(=O)COc1ccc2c3c(c(=O)oc2c1)CCC3)NCCCNC(=O)c1ccc(-c2c3nc(c(-c4ccccc4)c4ccc([nH]4)c(-c4ccccc4)c4nc(c(-c5ccccc5)c5ccc2[nH]5)C=C4)C=C3)cc1
REMARK SMILES IDX 1 1 2 2 25 3 3 5 4 6 5 7 6 8 7 9 8 11 9 12 10 13 11 14 12 15
REMARK SMILES IDX 21 16 13 17 20 18 14 19 19 20 15 21 17 22 16 23 24 24 18 25
REMARK SMILES IDX 22 26 23 27 26 28 27 29 28 30 29 31 30 32 31 34 32 35 33 36
REMARK SMILES IDX 79 37 34 38 78 39 35 40 36 41 37 42 72 43 38 44 77 45 71 46
REMARK SMILES IDX 73 47 39 48 76 49 70 50 69 51 40 53 62 54 47 55 61 56 48 57
REMARK SMILES IDX 51 58 60 59 74 60 49 61 50 62 59 64 75 65 52 66 41 67 42 68
REMARK SMILES IDX 46 69 43 70 45 71 44 72 63 73 64 74 68 75 65 76 67 77 66 78
REMARK SMILES IDX 53 79 54 80 58 81 55 82 57 83 56 84
REMARK H PARENT 25 4 6 10 29 33 73 52 51 63
REMARK Flexibility Score: inf
ROOT
ATOM      1  O   UNL     1       0.971  -0.517   0.235  1.00  0.00    -0.275 OA
ATOM      2  C   UNL     1       2.121  -0.161   0.011  1.00  0.00     0.220 C 
ATOM      3  N   UNL     1       2.708  -0.194  -1.233  1.00  0.00    -0.356 N 
ATOM      4  H   UNL     1       3.616   0.173  -1.333  1.00  0.00     0.163 HD
ENDROOT
BRANCH   2   5
ATOM      5  C   UNL     1       3.052   0.323   1.105  1.00  0.00     0.102 C 
BRANCH   5   6
ATOM      6  C   UNL     1       3.947  -0.795   1.646  1.00  0.00     0.031 C 
BRANCH   6   7
ATOM      7  C   UNL     1       4.954  -1.377   0.650  1.00  0.00     0.116 C 
BRANCH   7   8
ATOM      8  N   UNL     1       5.841  -0.371   0.094  1.00  0.00    -0.353 N 
ATOM      9  C   UNL     1       7.201  -0.302   0.135  1.00  0.00     0.257 C 
ATOM     10  H   UNL     1       5.396   0.368  -0.380  1.00  0.00     0.163 HD
ATOM     11  O   UNL     1       7.746   0.581  -0.531  1.00  0.00    -0.271 OA
BRANCH   9  12
ATOM     12  C   UNL     1       8.017  -1.291   0.973  1.00  0.00     0.329 C 
BRANCH  12  13
ATOM     13  O   UNL     1       7.564  -1.649   2.268  1.00  0.00    -0.484 OA
BRANCH  13  14
ATOM     14  C   UNL     1       7.662  -0.714   3.259  1.00  0.00     0.123 A 
ATOM     15  C   UNL     1       7.806  -1.236   4.550  1.00  0.00     0.047 A 
ATOM     16  C   UNL     1       7.549   0.662   3.090  1.00  0.00     0.094 A 
ATOM     17  C   UNL     1       7.850  -0.394   5.668  1.00  0.00     0.016 A 
ATOM     18  C   UNL     1       7.569   1.488   4.212  1.00  0.00     0.142 A 
ATOM     19  C   UNL     1       7.721   0.984   5.505  1.00  0.00     0.021 A 
ATOM     20  O   UNL     1       7.403   2.876   3.978  1.00  0.00    -0.422 OA
ATOM     21  C   UNL     1       7.723   1.936   6.595  1.00  0.00    -0.027 A 
ATOM     22  C   UNL     1       7.382   3.801   5.017  1.00  0.00     0.339 A 
ATOM     23  C   UNL     1       7.567   3.240   6.356  1.00  0.00     0.042 A 
ATOM     24  C   UNL     1       7.884   1.653   8.047  1.00  0.00     0.037 C 
ATOM     25  O   UNL     1       7.220   5.000   4.828  1.00  0.00    -0.246 OA
ATOM     26  C   UNL     1       7.601   4.054   7.598  1.00  0.00     0.044 C 
ATOM     27  C   UNL     1       7.453   2.982   8.683  1.00  0.00     0.010 C 
ENDBRANCH  13  14
ENDBRANCH  12  13
ENDBRANCH   9  12
ENDBRANCH   7   8
ENDBRANCH   6   7
ENDBRANCH   5   6
ENDBRANCH   2   5
BRANCH   3  28
ATOM     28  C   UNL     1       2.054  -0.743  -2.403  1.00  0.00     0.117 C 
BRANCH  28  29
ATOM     29  C   UNL     1       2.376   0.051  -3.662  1.00  0.00     0.042 C 
BRANCH  29  30
ATOM     30  C   UNL     1       3.856   0.097  -4.035  1.00  0.00     0.118 C 
BRANCH  30  31
ATOM     31  N   UNL     1       4.397  -1.187  -4.456  1.00  0.00    -0.352 N 
ATOM     32  C   UNL     1       5.145  -1.479  -5.574  1.00  0.00     0.251 C 
ATOM     33  H   UNL     1       4.203  -1.947  -3.861  1.00  0.00     0.163 HD
ATOM     34  O   UNL     1       5.437  -2.641  -5.840  1.00  0.00    -0.269 OA
BRANCH  32  35
ATOM     35  C   UNL     1       5.557  -0.387  -6.481  1.00  0.00     0.039 A 
ATOM     36  C   UNL     1       5.287  -0.502  -7.848  1.00  0.00     0.014 A 
ATOM     37  C   UNL     1       6.161   0.768  -5.977  1.00  0.00     0.014 A 
ATOM     38  C   UNL     1       5.538   0.579  -8.697  1.00  0.00     0.010 A 
ATOM     39  C   UNL     1       6.345   1.867  -6.811  1.00  0.00     0.010 A 
ATOM     40  C   UNL     1       6.022   1.790  -8.176  1.00  0.00    -0.014 A 
BRANCH  40  41
ATOM     41  C   UNL     1       6.185   3.000  -9.024  1.00  0.00     0.031 A 
ATOM     42  C   UNL     1       7.548   3.607  -9.213  1.00  0.00     0.074 A 
ATOM     43  C   UNL     1       5.100   3.613  -9.538  1.00  0.00     0.049 A 
ATOM     44  N   UNL     1       7.877   4.739  -9.782  1.00  0.00    -0.248 NA
ATOM     45  C   UNL     1       8.687   2.853  -8.666  1.00  0.00     0.031 C 
ATOM     46  C   UNL     1       3.718   3.144  -9.413  1.00  0.00     0.029 A 
ATOM     47  N   UNL     1       4.990   4.780 -10.254  1.00  0.00    -0.354 N 
ATOM     48  C   UNL     1       9.254   4.846  -9.637  1.00  0.00     0.074 A 
ATOM     49  C   UNL     1       9.693   3.684  -8.894  1.00  0.00     0.031 C 
ATOM     50  C   UNL     1       2.903   4.008 -10.040  1.00  0.00     0.029 A 
ATOM     51  C   UNL     1       3.694   5.115 -10.566  1.00  0.00     0.049 A 
ATOM     52  H   UNL     1       5.766   5.325 -10.518  1.00  0.00     0.167 HD
ATOM     53  C   UNL     1      10.081   5.818 -10.090  1.00  0.00     0.031 A 
ATOM     54  C   UNL     1       3.194   6.201 -11.186  1.00  0.00     0.031 A 
ATOM     55  C   UNL     1       9.649   6.968 -10.838  1.00  0.00     0.049 A 
ATOM     56  C   UNL     1       4.130   7.281 -11.656  1.00  0.00     0.074 A 
ATOM     57  C   UNL     1      10.419   7.981 -11.380  1.00  0.00     0.029 A 
ATOM     58  N   UNL     1       8.329   7.257 -11.147  1.00  0.00    -0.354 N 
ATOM     59  N   UNL     1       5.435   7.344 -11.552  1.00  0.00    -0.248 NA
ATOM     60  C   UNL     1       3.524   8.436 -12.334  1.00  0.00     0.031 C 
ATOM     61  C   UNL     1       9.562   8.910 -11.978  1.00  0.00     0.029 A 
ATOM     62  C   UNL     1       8.262   8.444 -11.857  1.00  0.00     0.049 A 
ATOM     63  H   UNL     1       7.555   6.702 -10.898  1.00  0.00     0.167 HD
ATOM     64  C   UNL     1       5.809   8.523 -12.185  1.00  0.00     0.074 A 
ATOM     65  C   UNL     1       4.594   9.143 -12.671  1.00  0.00     0.031 C 
ATOM     66  C   UNL     1       7.049   9.041 -12.351  1.00  0.00     0.031 A 
BRANCH  53  67
ATOM     67  C   UNL     1      11.545   5.683  -9.774  1.00  0.00    -0.014 A 
ATOM     68  C   UNL     1      12.334   4.697 -10.386  1.00  0.00     0.009 A 
ATOM     69  C   UNL     1      12.150   6.580  -8.879  1.00  0.00     0.009 A 
ATOM     70  C   UNL     1      13.692   4.587 -10.079  1.00  0.00     0.001 A 
ATOM     71  C   UNL     1      13.514   6.487  -8.597  1.00  0.00     0.001 A 
ATOM     72  C   UNL     1      14.281   5.484  -9.189  1.00  0.00     0.000 A 
ENDBRANCH  53  67
BRANCH  54  73
ATOM     73  C   UNL     1       1.729   6.326 -11.405  1.00  0.00    -0.014 A 
ATOM     74  C   UNL     1       1.193   6.217 -12.698  1.00  0.00     0.009 A 
ATOM     75  C   UNL     1       0.860   6.564 -10.329  1.00  0.00     0.009 A 
ATOM     76  C   UNL     1      -0.179   6.370 -12.911  1.00  0.00     0.001 A 
ATOM     77  C   UNL     1      -0.515   6.687 -10.541  1.00  0.00     0.001 A 
ATOM     78  C   UNL     1      -1.032   6.600 -11.832  1.00  0.00     0.000 A 
ENDBRANCH  54  73
BRANCH  66  79
ATOM     79  C   UNL     1       7.172  10.312 -13.144  1.00  0.00    -0.014 A 
ATOM     80  C   UNL     1       6.785  11.550 -12.610  1.00  0.00     0.009 A 
ATOM     81  C   UNL     1       7.748  10.271 -14.424  1.00  0.00     0.009 A 
ATOM     82  C   UNL     1       6.953  12.720 -13.354  1.00  0.00     0.001 A 
ATOM     83  C   UNL     1       7.939  11.444 -15.153  1.00  0.00     0.001 A 
ATOM     84  C   UNL     1       7.535  12.667 -14.621  1.00  0.00     0.000 A 
ENDBRANCH  66  79
ENDBRANCH  40  41
ENDBRANCH  32  35
ENDBRANCH  30  31
ENDBRANCH  29  30
ENDBRANCH  28  29
ENDBRANCH   3  28
TORSDOF 16
