REMARK SMILES O=C(NCCCNC(=O)[C@@H]1CC=CC[C@H]1C(=O)N1CC[NH+](Cc2ccc3c(c2)OCO3)CC1)c1ccc(-c2c3nc(c(-c4ccccc4)c4ccc([nH]4)c(-c4ccccc4)c4nc(c(-c5ccccc5)c5ccc2[nH]5)C=C4)C=C3)cc1
REMARK SMILES IDX 5 1 4 2 3 3 1 4 2 5 34 7 35 8 81 9 36 10 80 11 37 12 38 13
REMARK SMILES IDX 39 14 74 15 40 16 79 17 73 18 75 19 41 20 78 21 72 22 71 23
REMARK SMILES IDX 42 25 64 26 49 27 63 28 50 29 53 30 62 31 76 32 51 33 52 34
REMARK SMILES IDX 61 36 77 37 54 38 43 39 44 40 48 41 45 42 47 43 46 44 65 45
REMARK SMILES IDX 66 46 70 47 67 48 69 49 68 50 55 51 56 52 60 53 57 54 59 55
REMARK SMILES IDX 58 56 6 57 7 58 8 59 9 61 10 62 11 63 15 64 12 65 14 66
REMARK SMILES IDX 13 67 16 68 17 69 18 70 19 71 33 72 20 73 32 74 21 75 22 77
REMARK SMILES IDX 23 78 24 79 28 80 25 81 27 82 26 83 29 84 31 85 30 86
REMARK H PARENT 3 6 75 24 53 35 7 60 21 76
REMARK Flexibility Score: inf
ROOT
ATOM      1  C   UNL     1       6.353   9.207  -2.004  1.00  0.00     0.042 C 
ENDROOT
BRANCH   1   2
ATOM      2  C   UNL     1       5.335  10.330  -1.893  1.00  0.00     0.118 C 
BRANCH   2   3
ATOM      3  N   UNL     1       5.940  11.627  -1.614  1.00  0.00    -0.352 N 
ATOM      4  O   UNL     1       6.818  13.658  -2.031  1.00  0.00    -0.269 OA
ATOM      5  C   UNL     1       6.131  12.718  -2.427  1.00  0.00     0.251 C 
ATOM      6  H   UNL     1       6.266  11.739  -0.691  1.00  0.00     0.163 HD
BRANCH   5   7
ATOM      7  C   UNL     1       5.536  12.765  -3.780  1.00  0.00     0.039 A 
ATOM      8  C   UNL     1       4.236  12.315  -4.005  1.00  0.00     0.014 A 
ATOM      9  C   UNL     1       6.275  13.308  -4.837  1.00  0.00     0.014 A 
ATOM     10  C   UNL     1       3.738  12.246  -5.299  1.00  0.00     0.010 A 
ATOM     11  C   UNL     1       5.728  13.347  -6.124  1.00  0.00     0.010 A 
ATOM     12  C   UNL     1       4.462  12.793  -6.370  1.00  0.00    -0.014 A 
BRANCH  12  13
ATOM     13  C   UNL     1       3.816  12.872  -7.703  1.00  0.00     0.031 A 
ATOM     14  C   UNL     1       4.367  12.137  -8.892  1.00  0.00     0.074 A 
ATOM     15  C   UNL     1       2.690  13.605  -7.819  1.00  0.00     0.049 A 
ATOM     16  N   UNL     1       3.897  12.090 -10.114  1.00  0.00    -0.248 NA
ATOM     17  C   UNL     1       5.601  11.362  -8.695  1.00  0.00     0.031 C 
ATOM     18  C   UNL     1       2.065  14.370  -6.734  1.00  0.00     0.029 A 
ATOM     19  N   UNL     1       1.857  13.812  -8.888  1.00  0.00    -0.354 N 
ATOM     20  C   UNL     1       4.784  11.300 -10.834  1.00  0.00     0.074 A 
ATOM     21  C   UNL     1       5.832  10.902  -9.919  1.00  0.00     0.031 C 
ATOM     22  C   UNL     1       0.925  14.916  -7.178  1.00  0.00     0.029 A 
ATOM     23  C   UNL     1       0.776  14.609  -8.594  1.00  0.00     0.049 A 
ATOM     24  H   UNL     1       2.017  13.427  -9.780  1.00  0.00     0.167 HD
ATOM     25  C   UNL     1       4.724  10.941 -12.139  1.00  0.00     0.031 A 
ATOM     26  C   UNL     1      -0.214  15.068  -9.379  1.00  0.00     0.031 A 
ATOM     27  C   UNL     1       3.675  11.337 -13.044  1.00  0.00     0.049 A 
ATOM     28  C   UNL     1      -0.224  14.683 -10.829  1.00  0.00     0.074 A 
ATOM     29  C   UNL     1       3.507  10.985 -14.373  1.00  0.00     0.029 A 
ATOM     30  N   UNL     1       2.622  12.177 -12.717  1.00  0.00    -0.354 N 
ATOM     31  N   UNL     1       0.595  13.893 -11.478  1.00  0.00    -0.248 NA
ATOM     32  C   UNL     1      -1.295  15.256 -11.654  1.00  0.00     0.031 C 
ATOM     33  C   UNL     1       2.389  11.664 -14.867  1.00  0.00     0.029 A 
ATOM     34  C   UNL     1       1.823  12.386 -13.830  1.00  0.00     0.049 A 
ATOM     35  H   UNL     1       2.466  12.568 -11.827  1.00  0.00     0.167 HD
ATOM     36  C   UNL     1       0.129  13.861 -12.784  1.00  0.00     0.074 A 
ATOM     37  C   UNL     1      -1.061  14.685 -12.826  1.00  0.00     0.031 C 
ATOM     38  C   UNL     1       0.645  13.212 -13.856  1.00  0.00     0.031 A 
BRANCH  25  39
ATOM     39  C   UNL     1       5.838  10.094 -12.693  1.00  0.00    -0.014 A 
ATOM     40  C   UNL     1       5.950   8.732 -12.375  1.00  0.00     0.009 A 
ATOM     41  C   UNL     1       6.732  10.649 -13.623  1.00  0.00     0.009 A 
ATOM     42  C   UNL     1       6.944   7.948 -12.966  1.00  0.00     0.001 A 
ATOM     43  C   UNL     1       7.709   9.858 -14.230  1.00  0.00     0.001 A 
ATOM     44  C   UNL     1       7.817   8.509 -13.898  1.00  0.00     0.000 A 
ENDBRANCH  25  39
BRANCH  26  45
ATOM     45  C   UNL     1      -1.249  15.978  -8.822  1.00  0.00    -0.014 A 
ATOM     46  C   UNL     1      -2.589  15.576  -8.733  1.00  0.00     0.009 A 
ATOM     47  C   UNL     1      -0.898  17.269  -8.394  1.00  0.00     0.009 A 
ATOM     48  C   UNL     1      -3.562  16.460  -8.261  1.00  0.00     0.001 A 
ATOM     49  C   UNL     1      -1.865  18.137  -7.887  1.00  0.00     0.001 A 
ATOM     50  C   UNL     1      -3.199  17.737  -7.835  1.00  0.00     0.000 A 
ENDBRANCH  26  45
BRANCH  38  51
ATOM     51  C   UNL     1      -0.097  13.350 -15.155  1.00  0.00    -0.014 A 
ATOM     52  C   UNL     1      -0.096  14.559 -15.868  1.00  0.00     0.009 A 
ATOM     53  C   UNL     1      -0.791  12.249 -15.679  1.00  0.00     0.009 A 
ATOM     54  C   UNL     1      -0.809  14.673 -17.063  1.00  0.00     0.001 A 
ATOM     55  C   UNL     1      -1.476  12.357 -16.890  1.00  0.00     0.001 A 
ATOM     56  C   UNL     1      -1.494  13.571 -17.575  1.00  0.00     0.000 A 
ENDBRANCH  38  51
ENDBRANCH  12  13
ENDBRANCH   5   7
ENDBRANCH   2   3
ENDBRANCH   1   2
BRANCH   1  57
ATOM     57  C   UNL     1       7.097   8.896  -0.716  1.00  0.00     0.117 C 
BRANCH  57  58
ATOM     58  N   UNL     1       6.224   8.609   0.409  1.00  0.00    -0.356 N 
ATOM     59  C   UNL     1       5.995   7.485   1.132  1.00  0.00     0.224 C 
ATOM     60  H   UNL     1       5.694   9.384   0.705  1.00  0.00     0.163 HD
ATOM     61  O   UNL     1       5.266   7.608   2.121  1.00  0.00    -0.275 OA
BRANCH  59  62
ATOM     62  C   UNL     1       6.562   6.118   0.763  1.00  0.00     0.095 C 
ATOM     63  C   UNL     1       8.093   6.068   0.848  1.00  0.00     0.041 C 
ATOM     64  C   UNL     1       5.962   5.596  -0.546  1.00  0.00     0.095 C 
ATOM     65  C   UNL     1       8.703   4.909   0.121  1.00  0.00    -0.030 C 
ATOM     66  C   UNL     1       6.562   4.248  -0.986  1.00  0.00     0.041 C 
ATOM     67  C   UNL     1       8.020   4.094  -0.692  1.00  0.00    -0.030 C 
BRANCH  64  68
ATOM     68  C   UNL     1       4.434   5.437  -0.550  1.00  0.00     0.227 C 
ATOM     69  O   UNL     1       3.756   5.990  -1.417  1.00  0.00    -0.275 OA
ATOM     70  N   UNL     1       3.917   4.454   0.281  1.00  0.00    -0.331 N 
ATOM     71  C   UNL     1       2.967   3.509  -0.297  1.00  0.00     0.181 C 
ATOM     72  C   UNL     1       3.670   4.715   1.695  1.00  0.00     0.181 C 
ATOM     73  C   UNL     1       2.839   2.218   0.548  1.00  0.00     0.284 C 
ATOM     74  C   UNL     1       3.641   3.413   2.513  1.00  0.00     0.284 C 
ATOM     75  N   UNL     1       2.725   2.379   2.009  1.00  0.00    -0.328 N 
ATOM     76  H   UNL     1       3.045   1.492   2.397  1.00  0.00     0.348 HD
BRANCH  75  77
ATOM     77  C   UNL     1       1.363   2.433   2.554  1.00  0.00     0.299 C 
BRANCH  77  78
ATOM     78  C   UNL     1       0.535   3.645   2.190  1.00  0.00     0.010 A 
ATOM     79  C   UNL     1      -0.156   3.686   0.957  1.00  0.00     0.013 A 
ATOM     80  C   UNL     1       0.517   4.773   3.029  1.00  0.00     0.060 A 
ATOM     81  C   UNL     1      -0.754   4.865   0.505  1.00  0.00     0.051 A 
ATOM     82  C   UNL     1      -0.081   5.922   2.555  1.00  0.00     0.166 A 
ATOM     83  C   UNL     1      -0.679   5.972   1.319  1.00  0.00     0.165 A 
ATOM     84  O   UNL     1      -0.104   7.123   3.192  1.00  0.00    -0.454 OA
ATOM     85  O   UNL     1      -1.144   7.213   1.016  1.00  0.00    -0.454 OA
ATOM     86  C   UNL     1      -0.731   7.948   2.187  1.00  0.00     0.468 C 
ENDBRANCH  77  78
ENDBRANCH  75  77
ENDBRANCH  64  68
ENDBRANCH  59  62
ENDBRANCH  57  58
ENDBRANCH   1  57
TORSDOF 13
