REMARK SMILES CC1(C)[C@H](C(=O)NCCCNC(=O)c2ccc(-c3c4nc(c(-c5ccccc5)c5ccc([nH]5)c(-c5ccccc5)c5nc(c(-c6ccccc6)c6ccc3[nH]6)C=C5)C=C4)cc2)[C@H]1C(=O)Nc1cccc2[nH]ccc12
REMARK SMILES IDX 9 1 8 2 7 3 5 4 6 5 4 7 1 8 2 9 3 10 62 11 63 12 64 13 65 14
REMARK SMILES IDX 66 16 67 17 74 18 68 19 70 20 73 21 69 22 71 23 72 24 10 26
REMARK SMILES IDX 11 27 12 28 13 30 14 31 15 32 61 33 16 34 60 35 17 36 18 37
REMARK SMILES IDX 19 38 54 39 20 40 59 41 53 42 55 43 21 44 58 45 52 46 51 47
REMARK SMILES IDX 22 49 44 50 29 51 43 52 30 53 33 54 42 55 56 56 31 57 32 58
REMARK SMILES IDX 41 60 57 61 34 62 23 63 24 64 28 65 25 66 27 67 26 68 45 69
REMARK SMILES IDX 46 70 50 71 47 72 49 73 48 74 35 75 36 76 40 77 37 78 39 79
REMARK SMILES IDX 38 80
REMARK H PARENT 7 6 65 15 71 25 11 29 55 48 33 59
REMARK Flexibility Score: inf
ROOT
ATOM      1  C   UNL     1      -0.679   4.057  -0.625  1.00  0.00     0.042 C 
ENDROOT
BRANCH   1   2
ATOM      2  C   UNL     1      -1.844   3.171  -0.194  1.00  0.00     0.117 C 
BRANCH   2   3
ATOM      3  N   UNL     1      -2.169   2.195  -1.208  1.00  0.00    -0.356 N 
ATOM      4  C   UNL     1      -1.792   0.909  -1.459  1.00  0.00     0.224 C 
ATOM      5  O   UNL     1      -2.287   0.416  -2.477  1.00  0.00    -0.275 OA
ATOM      6  H   UNL     1      -2.811   2.537  -1.870  1.00  0.00     0.163 HD
BRANCH   4   7
ATOM      7  C   UNL     1      -0.883   0.038  -0.666  1.00  0.00     0.098 C 
ATOM      8  C   UNL     1       1.567  -0.457  -0.327  1.00  0.00     0.013 C 
ATOM      9  C   UNL     1       0.394   0.378   0.113  1.00  0.00    -0.011 C 
ATOM     10  C   UNL     1       0.907   1.649   0.728  1.00  0.00     0.013 C 
ATOM     11  C   UNL     1      -0.880  -0.149   0.805  1.00  0.00     0.098 C 
BRANCH  11  12
ATOM     12  C   UNL     1      -0.891  -1.381   1.655  1.00  0.00     0.228 C 
ATOM     13  O   UNL     1      -0.815  -1.212   2.872  1.00  0.00    -0.274 OA
ATOM     14  N   UNL     1      -1.260  -2.620   1.190  1.00  0.00    -0.325 N 
ATOM     15  H   UNL     1      -1.891  -3.115   1.760  1.00  0.00     0.169 HD
BRANCH  14  16
ATOM     16  C   UNL     1      -0.865  -3.276   0.020  1.00  0.00     0.050 A 
ATOM     17  C   UNL     1      -1.864  -3.808  -0.802  1.00  0.00     0.027 A 
ATOM     18  C   UNL     1       0.485  -3.564  -0.287  1.00  0.00     0.023 A 
ATOM     19  C   UNL     1      -1.538  -4.421  -2.011  1.00  0.00     0.004 A 
ATOM     20  C   UNL     1       0.781  -4.115  -1.537  1.00  0.00     0.047 A 
ATOM     21  C   UNL     1       1.725  -3.491   0.415  1.00  0.00     0.030 A 
ATOM     22  C   UNL     1      -0.210  -4.527  -2.432  1.00  0.00     0.027 A 
ATOM     23  N   UNL     1       2.153  -4.135  -1.661  1.00  0.00    -0.361 N 
ATOM     24  C   UNL     1       2.736  -3.802  -0.468  1.00  0.00     0.083 A 
ATOM     25  H   UNL     1       2.642  -4.356  -2.486  1.00  0.00     0.166 HD
ENDBRANCH  14  16
ENDBRANCH  11  12
ENDBRANCH   4   7
ENDBRANCH   2   3
ENDBRANCH   1   2
BRANCH   1  26
ATOM     26  C   UNL     1      -1.060   5.166  -1.597  1.00  0.00     0.118 C 
BRANCH  26  27
ATOM     27  N   UNL     1      -1.854   6.208  -0.964  1.00  0.00    -0.352 N 
ATOM     28  C   UNL     1      -1.540   7.508  -0.655  1.00  0.00     0.251 C 
ATOM     29  H   UNL     1      -2.767   5.935  -0.716  1.00  0.00     0.163 HD
ATOM     30  O   UNL     1      -2.284   8.144   0.087  1.00  0.00    -0.269 OA
BRANCH  28  31
ATOM     31  C   UNL     1      -0.322   8.155  -1.194  1.00  0.00     0.039 A 
ATOM     32  C   UNL     1       0.379   9.053  -0.382  1.00  0.00     0.014 A 
ATOM     33  C   UNL     1       0.098   7.943  -2.509  1.00  0.00     0.014 A 
ATOM     34  C   UNL     1       1.521   9.697  -0.870  1.00  0.00     0.010 A 
ATOM     35  C   UNL     1       1.283   8.516  -2.966  1.00  0.00     0.010 A 
ATOM     36  C   UNL     1       1.998   9.413  -2.158  1.00  0.00    -0.014 A 
BRANCH  36  37
ATOM     37  C   UNL     1       3.216  10.068  -2.700  1.00  0.00     0.031 A 
ATOM     38  C   UNL     1       3.114  10.961  -3.909  1.00  0.00     0.074 A 
ATOM     39  C   UNL     1       4.419   9.818  -2.146  1.00  0.00     0.049 A 
ATOM     40  N   UNL     1       4.068  11.543  -4.591  1.00  0.00    -0.248 NA
ATOM     41  C   UNL     1       1.762  11.214  -4.434  1.00  0.00     0.031 C 
ATOM     42  C   UNL     1       4.660   8.957  -0.987  1.00  0.00     0.029 A 
ATOM     43  N   UNL     1       5.671  10.262  -2.494  1.00  0.00    -0.354 N 
ATOM     44  C   UNL     1       3.434  12.208  -5.634  1.00  0.00     0.074 A 
ATOM     45  C   UNL     1       2.022  11.920  -5.525  1.00  0.00     0.031 C 
ATOM     46  C   UNL     1       5.973   8.955  -0.705  1.00  0.00     0.029 A 
ATOM     47  C   UNL     1       6.672   9.775  -1.688  1.00  0.00     0.049 A 
ATOM     48  H   UNL     1       5.836  10.871  -3.250  1.00  0.00     0.167 HD
ATOM     49  C   UNL     1       3.974  13.008  -6.584  1.00  0.00     0.031 A 
ATOM     50  C   UNL     1       8.005   9.960  -1.742  1.00  0.00     0.031 A 
ATOM     51  C   UNL     1       5.376  13.312  -6.683  1.00  0.00     0.049 A 
ATOM     52  C   UNL     1       8.581  10.832  -2.825  1.00  0.00     0.074 A 
ATOM     53  C   UNL     1       6.017  14.141  -7.587  1.00  0.00     0.029 A 
ATOM     54  N   UNL     1       6.353  12.804  -5.841  1.00  0.00    -0.354 N 
ATOM     55  N   UNL     1       7.962  11.488  -3.776  1.00  0.00    -0.248 NA
ATOM     56  C   UNL     1      10.043  10.995  -2.833  1.00  0.00     0.031 C 
ATOM     57  C   UNL     1       7.389  14.102  -7.318  1.00  0.00     0.029 A 
ATOM     58  C   UNL     1       7.593  13.292  -6.213  1.00  0.00     0.049 A 
ATOM     59  H   UNL     1       6.188  12.189  -5.090  1.00  0.00     0.167 HD
ATOM     60  C   UNL     1       8.953  12.169  -4.471  1.00  0.00     0.074 A 
ATOM     61  C   UNL     1      10.211  11.857  -3.826  1.00  0.00     0.031 C 
ATOM     62  C   UNL     1       8.832  12.983  -5.548  1.00  0.00     0.031 A 
BRANCH  49  63
ATOM     63  C   UNL     1       3.041  13.616  -7.594  1.00  0.00    -0.014 A 
ATOM     64  C   UNL     1       2.140  14.629  -7.230  1.00  0.00     0.009 A 
ATOM     65  C   UNL     1       3.094  13.204  -8.935  1.00  0.00     0.009 A 
ATOM     66  C   UNL     1       1.288  15.195  -8.181  1.00  0.00     0.001 A 
ATOM     67  C   UNL     1       2.261  13.792  -9.890  1.00  0.00     0.001 A 
ATOM     68  C   UNL     1       1.354  14.780  -9.511  1.00  0.00     0.000 A 
ENDBRANCH  49  63
BRANCH  50  69
ATOM     69  C   UNL     1       8.896   9.318  -0.739  1.00  0.00    -0.014 A 
ATOM     70  C   UNL     1       9.571  10.097   0.213  1.00  0.00     0.009 A 
ATOM     71  C   UNL     1       9.100   7.929  -0.747  1.00  0.00     0.009 A 
ATOM     72  C   UNL     1      10.459   9.503   1.114  1.00  0.00     0.001 A 
ATOM     73  C   UNL     1       9.964   7.335   0.175  1.00  0.00     0.001 A 
ATOM     74  C   UNL     1      10.653   8.123   1.096  1.00  0.00     0.000 A 
ENDBRANCH  50  69
BRANCH  62  75
ATOM     75  C   UNL     1      10.083  13.636  -6.062  1.00  0.00    -0.014 A 
ATOM     76  C   UNL     1      11.055  12.905  -6.762  1.00  0.00     0.009 A 
ATOM     77  C   UNL     1      10.264  15.016  -5.883  1.00  0.00     0.009 A 
ATOM     78  C   UNL     1      12.200  13.540  -7.245  1.00  0.00     0.001 A 
ATOM     79  C   UNL     1      11.396  15.654  -6.393  1.00  0.00     0.001 A 
ATOM     80  C   UNL     1      12.367  14.914  -7.065  1.00  0.00     0.000 A 
ENDBRANCH  62  75
ENDBRANCH  36  37
ENDBRANCH  28  31
ENDBRANCH  26  27
ENDBRANCH   1  26
TORSDOF 12
