REMARK SMILES CC1=C([C@@H](NC(=O)c2cc3c(s2)CCCCC3)C(=O)NCCCNC(=O)c2ccc(-c3c4nc(c(-c5ccccc5)c5ccc([nH]5)c(-c5ccccc5)c5nc(c(-c6ccccc6)c6ccc3[nH]6)C=C5)C=C4)cc2)[C@H](C)N=N1
REMARK SMILES IDX 18 1 19 2 20 3 4 5 3 6 1 7 2 8 78 9 75 10 77 11 76 12 5 13
REMARK SMILES IDX 6 14 7 16 8 17 9 18 12 19 10 20 11 21 17 22 13 24 14 25
REMARK SMILES IDX 15 26 16 27 21 29 22 30 23 31 24 32 25 33 26 35 27 36 28 37
REMARK SMILES IDX 74 38 29 39 73 40 30 41 31 42 32 43 67 44 33 45 72 46 66 47
REMARK SMILES IDX 68 48 34 49 71 50 65 51 64 52 35 54 57 55 42 56 56 57 43 58
REMARK SMILES IDX 46 59 55 60 69 61 44 62 45 63 54 65 70 66 47 67 36 68 37 69
REMARK SMILES IDX 41 70 38 71 40 72 39 73 58 74 59 75 63 76 60 77 62 78 61 79
REMARK SMILES IDX 48 80 49 81 53 82 50 83 52 84 51 85
REMARK H PARENT 20 4 5 15 24 34 68 53 46 64
REMARK Flexibility Score: 80.00
ROOT
ATOM      1  C   UNL     1       1.688   3.527   1.943  1.00  0.00     0.247 C 
ATOM      2  O   UNL     1       1.280   2.974   2.971  1.00  0.00    -0.272 OA
ATOM      3  N   UNL     1       1.387   4.851   1.792  1.00  0.00    -0.354 N 
ATOM      4  H   UNL     1       1.020   5.273   2.602  1.00  0.00     0.163 HD
ENDROOT
BRANCH   1   5
ATOM      5  C   UNL     1       2.362   2.707   0.824  1.00  0.00     0.202 C 
BRANCH   5   6
ATOM      6  C   UNL     1       1.278   2.130  -0.058  1.00  0.00     0.011 C 
ATOM      7  C   UNL     1       1.620  -0.403   0.060  1.00  0.00     0.069 C 
ATOM      8  C   UNL     1       1.011   0.865  -0.416  1.00  0.00     0.064 C 
ATOM      9  N   UNL     1       0.005   0.778  -1.349  1.00  0.00    -0.160 NA
ATOM     10  C   UNL     1       0.121   2.895  -0.637  1.00  0.00     0.156 C 
ATOM     11  N   UNL     1      -0.445   1.923  -1.609  1.00  0.00    -0.181 NA
ATOM     12  C   UNL     1      -1.032   3.163   0.348  1.00  0.00     0.040 C 
ENDBRANCH   5   6
BRANCH   5  13
ATOM     13  N   UNL     1       3.364   3.410   0.010  1.00  0.00    -0.336 N 
ATOM     14  C   UNL     1       4.458   4.178   0.403  1.00  0.00     0.262 C 
ATOM     15  H   UNL     1       3.245   3.324  -0.964  1.00  0.00     0.165 HD
ATOM     16  O   UNL     1       5.234   4.528  -0.487  1.00  0.00    -0.268 OA
BRANCH  14  17
ATOM     17  C   UNL     1       4.532   4.714   1.754  1.00  0.00     0.092 A 
ATOM     18  C   UNL     1       4.525   6.050   2.129  1.00  0.00     0.029 A 
ATOM     19  S   UNL     1       4.664   3.727   3.142  1.00  0.00    -0.135 S 
ATOM     20  C   UNL     1       4.085   6.212   3.489  1.00  0.00    -0.033 A 
ATOM     21  C   UNL     1       4.045   4.985   4.129  1.00  0.00     0.009 A 
BRANCH  20  22
ATOM     22  C   UNL     1       3.551   7.494   4.064  1.00  0.00     0.037 CG0
ATOM     23  G   UNL     1       3.869   7.819   5.527  1.00  0.00     0.000 G0
ENDBRANCH  20  22
BRANCH  21  24
ATOM     24  C   UNL     1       3.439   4.689   5.463  1.00  0.00     0.047 C 
BRANCH  24  25
ATOM     25  C   UNL     1       4.019   5.488   6.628  1.00  0.00     0.006 C 
BRANCH  25  26
ATOM     26  C   UNL     1       4.709   6.816   6.311  1.00  0.00     0.001 C 
BRANCH  26  27
ATOM     27  C   UNL     1       3.869   7.819   5.527  1.00  0.00     0.005 CG0
ATOM     28  G   UNL     1       3.551   7.494   4.064  1.00  0.00     0.000 G0
ENDBRANCH  26  27
ENDBRANCH  25  26
ENDBRANCH  24  25
ENDBRANCH  21  24
ENDBRANCH  14  17
ENDBRANCH   5  13
ENDBRANCH   1   5
BRANCH   3  29
ATOM     29  C   UNL     1       1.508   5.759   0.653  1.00  0.00     0.117 C 
BRANCH  29  30
ATOM     30  C   UNL     1       0.196   6.460   0.309  1.00  0.00     0.042 C 
BRANCH  30  31
ATOM     31  C   UNL     1      -0.290   7.353   1.432  1.00  0.00     0.118 C 
BRANCH  31  32
ATOM     32  N   UNL     1       0.365   8.653   1.444  1.00  0.00    -0.352 N 
ATOM     33  C   UNL     1      -0.008   9.738   2.205  1.00  0.00     0.251 C 
ATOM     34  H   UNL     1       1.145   8.767   0.854  1.00  0.00     0.163 HD
ATOM     35  O   UNL     1       0.308  10.881   1.879  1.00  0.00    -0.269 OA
BRANCH  33  36
ATOM     36  C   UNL     1      -0.790   9.499   3.429  1.00  0.00     0.039 A 
ATOM     37  C   UNL     1      -1.867  10.316   3.770  1.00  0.00     0.014 A 
ATOM     38  C   UNL     1      -0.443   8.408   4.229  1.00  0.00     0.014 A 
ATOM     39  C   UNL     1      -2.621   9.989   4.892  1.00  0.00     0.010 A 
ATOM     40  C   UNL     1      -1.259   8.010   5.256  1.00  0.00     0.010 A 
ATOM     41  C   UNL     1      -2.319   8.824   5.622  1.00  0.00    -0.014 A 
BRANCH  41  42
ATOM     42  C   UNL     1      -3.228   8.351   6.661  1.00  0.00     0.031 A 
ATOM     43  C   UNL     1      -4.612   8.166   6.157  1.00  0.00     0.074 A 
ATOM     44  C   UNL     1      -2.825   7.920   7.878  1.00  0.00     0.049 A 
ATOM     45  N   UNL     1      -5.633   8.917   6.397  1.00  0.00    -0.248 NA
ATOM     46  C   UNL     1      -4.850   7.156   5.107  1.00  0.00     0.031 C 
ATOM     47  C   UNL     1      -1.443   7.732   8.339  1.00  0.00     0.029 A 
ATOM     48  N   UNL     1      -3.555   7.444   8.929  1.00  0.00    -0.354 N 
ATOM     49  C   UNL     1      -6.702   8.301   5.754  1.00  0.00     0.074 A 
ATOM     50  C   UNL     1      -6.125   7.396   4.796  1.00  0.00     0.031 C 
ATOM     51  C   UNL     1      -1.435   6.961   9.449  1.00  0.00     0.029 A 
ATOM     52  C   UNL     1      -2.805   6.751   9.877  1.00  0.00     0.049 A 
ATOM     53  H   UNL     1      -4.527   7.579   9.010  1.00  0.00     0.167 HD
ATOM     54  C   UNL     1      -7.931   8.300   6.342  1.00  0.00     0.031 A 
ATOM     55  C   UNL     1      -3.274   6.037  10.931  1.00  0.00     0.031 A 
ATOM     56  C   UNL     1      -7.973   9.253   7.425  1.00  0.00     0.049 A 
ATOM     57  C   UNL     1      -4.645   6.507  11.210  1.00  0.00     0.074 A 
ATOM     58  C   UNL     1      -7.976  10.622   7.569  1.00  0.00     0.029 A 
ATOM     59  N   UNL     1      -7.567   8.717   8.619  1.00  0.00    -0.354 N 
ATOM     60  N   UNL     1      -4.911   7.697  11.665  1.00  0.00    -0.248 NA
ATOM     61  C   UNL     1      -5.778   5.780  10.654  1.00  0.00     0.031 C 
ATOM     62  C   UNL     1      -7.399  10.886   8.850  1.00  0.00     0.029 A 
ATOM     63  C   UNL     1      -7.123   9.675   9.484  1.00  0.00     0.049 A 
ATOM     64  H   UNL     1      -7.592   7.755   8.828  1.00  0.00     0.167 HD
ATOM     65  C   UNL     1      -6.094   8.038  11.039  1.00  0.00     0.074 A 
ATOM     66  C   UNL     1      -6.669   6.773  10.595  1.00  0.00     0.031 C 
ATOM     67  C   UNL     1      -6.323   9.322  10.638  1.00  0.00     0.031 A 
BRANCH  54  68
ATOM     68  C   UNL     1      -8.840   7.079   6.375  1.00  0.00    -0.014 A 
ATOM     69  C   UNL     1     -10.022   7.157   7.138  1.00  0.00     0.009 A 
ATOM     70  C   UNL     1      -8.449   5.790   5.967  1.00  0.00     0.009 A 
ATOM     71  C   UNL     1     -10.719   6.007   7.537  1.00  0.00     0.001 A 
ATOM     72  C   UNL     1      -9.158   4.642   6.337  1.00  0.00     0.001 A 
ATOM     73  C   UNL     1     -10.279   4.749   7.144  1.00  0.00     0.000 A 
ENDBRANCH  54  68
BRANCH  55  74
ATOM     74  C   UNL     1      -2.720   4.837  11.598  1.00  0.00    -0.014 A 
ATOM     75  C   UNL     1      -3.219   4.420  12.846  1.00  0.00     0.009 A 
ATOM     76  C   UNL     1      -1.922   3.929  10.880  1.00  0.00     0.009 A 
ATOM     77  C   UNL     1      -2.986   3.123  13.322  1.00  0.00     0.001 A 
ATOM     78  C   UNL     1      -1.685   2.635  11.359  1.00  0.00     0.001 A 
ATOM     79  C   UNL     1      -2.235   2.225  12.569  1.00  0.00     0.000 A 
ENDBRANCH  55  74
BRANCH  67  80
ATOM     80  C   UNL     1      -5.587  10.419  11.353  1.00  0.00    -0.014 A 
ATOM     81  C   UNL     1      -4.189  10.554  11.377  1.00  0.00     0.009 A 
ATOM     82  C   UNL     1      -6.364  11.395  11.994  1.00  0.00     0.009 A 
ATOM     83  C   UNL     1      -3.592  11.621  12.058  1.00  0.00     0.001 A 
ATOM     84  C   UNL     1      -5.770  12.471  12.651  1.00  0.00     0.001 A 
ATOM     85  C   UNL     1      -4.383  12.579  12.691  1.00  0.00     0.000 A 
ENDBRANCH  67  80
ENDBRANCH  41  42
ENDBRANCH  33  36
ENDBRANCH  31  32
ENDBRANCH  30  31
ENDBRANCH  29  30
ENDBRANCH   3  29
TORSDOF 13
