REMARK SMILES COc1ccc(/C=C(\NC(=O)c2ccccc2Br)C(=O)NCCCNC(=O)c2ccc(-c3c4nc(c(-c5ccccc5)c5ccc([nH]5)c(-c5ccccc5)c5nc(c(-c6ccccc6)c6ccc3[nH]6)C=C5)C=C4)cc2)cc1
REMARK SMILES IDX 23 1 22 2 21 3 19 4 20 5 8 7 7 8 6 9 3 10 4 11 77 12 5 13
REMARK SMILES IDX 76 14 2 15 1 16 9 17 10 18 11 20 12 21 13 22 17 23 14 24
REMARK SMILES IDX 16 25 18 26 15 27 24 28 25 29 26 30 27 32 28 33 29 34 75 35
REMARK SMILES IDX 30 36 74 37 31 38 32 39 33 40 68 41 34 42 73 43 67 44 69 45
REMARK SMILES IDX 35 46 72 47 66 48 65 49 36 51 58 52 43 53 57 54 44 55 47 56
REMARK SMILES IDX 56 57 70 58 45 59 46 60 55 62 71 63 48 64 37 65 38 66 42 67
REMARK SMILES IDX 39 68 41 69 40 70 59 71 60 72 64 73 61 74 63 75 62 76 49 77
REMARK SMILES IDX 50 78 54 79 51 80 53 81 52 82
REMARK H PARENT 21 6 9 19 25 31 69 50 47 61
REMARK Flexibility Score: inf
ROOT
ATOM      1  C   UNL     1      -2.508  -8.151  -5.019  1.00  0.00     0.042 C 
ENDROOT
BRANCH   1   2
ATOM      2  C   UNL     1      -1.558  -8.463  -3.873  1.00  0.00     0.118 C 
BRANCH   2   3
ATOM      3  N   UNL     1      -0.176  -8.143  -4.090  1.00  0.00    -0.351 N 
ATOM      4  C   UNL     1       0.737  -7.753  -3.154  1.00  0.00     0.267 C 
ATOM      5  O   UNL     1       1.928  -7.961  -3.387  1.00  0.00    -0.268 OA
ATOM      6  H   UNL     1       0.149  -8.212  -5.017  1.00  0.00     0.163 HD
BRANCH   4   7
ATOM      7  C   UNL     1       0.312  -6.894  -1.991  1.00  0.00     0.107 C 
ATOM      8  C   UNL     1       0.897  -5.678  -2.071  1.00  0.00     0.040 C 
BRANCH   8   9
ATOM      9  C   UNL     1       0.898  -4.479  -1.204  1.00  0.00    -0.023 A 
ATOM     10  C   UNL     1       1.039  -2.040   0.212  1.00  0.00     0.118 A 
ATOM     11  C   UNL     1      -0.052  -2.887   0.373  1.00  0.00     0.047 A 
ATOM     12  C   UNL     1       2.089  -2.420  -0.615  1.00  0.00     0.047 A 
ATOM     13  C   UNL     1      -0.140  -4.079  -0.356  1.00  0.00     0.012 A 
ATOM     14  C   UNL     1       2.016  -3.629  -1.313  1.00  0.00     0.012 A 
BRANCH  10  15
ATOM     15  O   UNL     1       1.012  -0.866   0.912  1.00  0.00    -0.497 OA
ATOM     16  C   UNL     1       1.349   0.264   0.108  1.00  0.00     0.278 C 
ENDBRANCH  10  15
ENDBRANCH   8   9
BRANCH   7  17
ATOM     17  N   UNL     1      -0.545  -7.258  -0.978  1.00  0.00    -0.317 N 
ATOM     18  C   UNL     1      -1.121  -8.421  -0.532  1.00  0.00     0.256 C 
ATOM     19  H   UNL     1      -0.815  -6.484  -0.432  1.00  0.00     0.170 HD
ATOM     20  O   UNL     1      -2.079  -8.332   0.239  1.00  0.00    -0.269 OA
BRANCH  18  21
ATOM     21  C   UNL     1      -0.684  -9.766  -0.940  1.00  0.00     0.054 A 
ATOM     22  C   UNL     1      -1.701 -10.663  -1.316  1.00  0.00     0.015 A 
ATOM     23  C   UNL     1       0.636 -10.215  -0.883  1.00  0.00     0.030 A 
ATOM     24  C   UNL     1      -1.389 -11.943  -1.770  1.00  0.00     0.001 A 
ATOM     25  C   UNL     1       0.947 -11.498  -1.347  1.00  0.00     0.016 A 
ATOM     26  Br  UNL     1       2.033  -9.233  -0.050  1.00  0.00    -0.050 Br
ATOM     27  C   UNL     1      -0.060 -12.350  -1.810  1.00  0.00     0.001 A 
ENDBRANCH  18  21
ENDBRANCH   7  17
ENDBRANCH   4   7
ENDBRANCH   2   3
ENDBRANCH   1   2
BRANCH   1  28
ATOM     28  C   UNL     1      -3.394  -9.354  -5.345  1.00  0.00     0.118 C 
BRANCH  28  29
ATOM     29  N   UNL     1      -3.873 -10.096  -4.181  1.00  0.00    -0.352 N 
ATOM     30  C   UNL     1      -4.607 -11.255  -4.105  1.00  0.00     0.251 C 
ATOM     31  H   UNL     1      -3.632  -9.701  -3.312  1.00  0.00     0.163 HD
ATOM     32  O   UNL     1      -4.765 -11.805  -3.019  1.00  0.00    -0.269 OA
BRANCH  30  33
ATOM     33  C   UNL     1      -5.335 -11.739  -5.294  1.00  0.00     0.039 A 
ATOM     34  C   UNL     1      -6.690 -12.041  -5.125  1.00  0.00     0.014 A 
ATOM     35  C   UNL     1      -4.773 -11.725  -6.568  1.00  0.00     0.014 A 
ATOM     36  C   UNL     1      -7.511 -12.153  -6.241  1.00  0.00     0.010 A 
ATOM     37  C   UNL     1      -5.607 -11.722  -7.676  1.00  0.00     0.010 A 
ATOM     38  C   UNL     1      -6.989 -11.889  -7.516  1.00  0.00    -0.014 A 
BRANCH  38  39
ATOM     39  C   UNL     1      -7.887 -11.676  -8.671  1.00  0.00     0.031 A 
ATOM     40  C   UNL     1      -7.798 -12.557  -9.879  1.00  0.00     0.074 A 
ATOM     41  C   UNL     1      -8.716 -10.613  -8.655  1.00  0.00     0.049 A 
ATOM     42  N   UNL     1      -8.477 -12.491 -10.994  1.00  0.00    -0.248 NA
ATOM     43  C   UNL     1      -6.788 -13.627  -9.847  1.00  0.00     0.031 C 
ATOM     44  C   UNL     1      -8.818  -9.628  -7.571  1.00  0.00     0.029 A 
ATOM     45  N   UNL     1      -9.637 -10.184  -9.574  1.00  0.00    -0.354 N 
ATOM     46  C   UNL     1      -7.958 -13.491 -11.805  1.00  0.00     0.074 A 
ATOM     47  C   UNL     1      -6.875 -14.113 -11.075  1.00  0.00     0.031 C 
ATOM     48  C   UNL     1      -9.790  -8.750  -7.862  1.00  0.00     0.029 A 
ATOM     49  C   UNL     1     -10.355  -9.087  -9.161  1.00  0.00     0.049 A 
ATOM     50  H   UNL     1      -9.771 -10.619 -10.447  1.00  0.00     0.167 HD
ATOM     51  C   UNL     1      -8.363 -13.871 -13.039  1.00  0.00     0.031 A 
ATOM     52  C   UNL     1     -11.372  -8.441  -9.757  1.00  0.00     0.031 A 
ATOM     53  C   UNL     1      -9.455 -13.264 -13.748  1.00  0.00     0.049 A 
ATOM     54  C   UNL     1     -11.857  -8.933 -11.088  1.00  0.00     0.074 A 
ATOM     55  C   UNL     1      -9.982 -13.599 -14.982  1.00  0.00     0.029 A 
ATOM     56  N   UNL     1     -10.199 -12.195 -13.270  1.00  0.00    -0.354 N 
ATOM     57  N   UNL     1     -11.400  -9.923 -11.816  1.00  0.00    -0.248 NA
ATOM     58  C   UNL     1     -13.009  -8.232 -11.670  1.00  0.00     0.031 C 
ATOM     59  C   UNL     1     -11.037 -12.721 -15.258  1.00  0.00     0.029 A 
ATOM     60  C   UNL     1     -11.184 -11.860 -14.181  1.00  0.00     0.049 A 
ATOM     61  H   UNL     1     -10.048 -11.742 -12.409  1.00  0.00     0.167 HD
ATOM     62  C   UNL     1     -12.220  -9.978 -12.933  1.00  0.00     0.074 A 
ATOM     63  C   UNL     1     -13.212  -8.932 -12.776  1.00  0.00     0.031 C 
ATOM     64  C   UNL     1     -12.157 -10.816 -13.996  1.00  0.00     0.031 A 
BRANCH  51  65
ATOM     65  C   UNL     1      -7.609 -15.002 -13.677  1.00  0.00    -0.014 A 
ATOM     66  C   UNL     1      -7.739 -16.317 -13.197  1.00  0.00     0.009 A 
ATOM     67  C   UNL     1      -6.737 -14.752 -14.746  1.00  0.00     0.009 A 
ATOM     68  C   UNL     1      -6.973 -17.348 -13.742  1.00  0.00     0.001 A 
ATOM     69  C   UNL     1      -5.992 -15.791 -15.307  1.00  0.00     0.001 A 
ATOM     70  C   UNL     1      -6.101 -17.085 -14.797  1.00  0.00     0.000 A 
ENDBRANCH  51  65
BRANCH  52  71
ATOM     71  C   UNL     1     -12.041  -7.309  -9.068  1.00  0.00    -0.014 A 
ATOM     72  C   UNL     1     -13.303  -7.491  -8.481  1.00  0.00     0.009 A 
ATOM     73  C   UNL     1     -11.425  -6.052  -8.979  1.00  0.00     0.009 A 
ATOM     74  C   UNL     1     -13.945  -6.431  -7.839  1.00  0.00     0.001 A 
ATOM     75  C   UNL     1     -12.061  -4.999  -8.318  1.00  0.00     0.001 A 
ATOM     76  C   UNL     1     -13.323  -5.186  -7.756  1.00  0.00     0.000 A 
ENDBRANCH  52  71
BRANCH  64  77
ATOM     77  C   UNL     1     -13.210 -10.644 -15.048  1.00  0.00    -0.014 A 
ATOM     78  C   UNL     1     -13.152  -9.581 -15.962  1.00  0.00     0.009 A 
ATOM     79  C   UNL     1     -14.262 -11.569 -15.135  1.00  0.00     0.009 A 
ATOM     80  C   UNL     1     -14.149  -9.430 -16.926  1.00  0.00     0.001 A 
ATOM     81  C   UNL     1     -15.245 -11.426 -16.113  1.00  0.00     0.001 A 
ATOM     82  C   UNL     1     -15.192 -10.353 -17.003  1.00  0.00     0.000 A 
ENDBRANCH  64  77
ENDBRANCH  38  39
ENDBRANCH  30  33
ENDBRANCH  28  29
ENDBRANCH   1  28
TORSDOF 14
