REMARK SMILES Cc1cc2c(cc1C)O[C@@H](C(=O)NCCCNC(=O)c1ccc(-c3c4nc(c(-c5ccccc5)c5ccc([nH]5)c(-c5ccccc5)c5nc(c(-c6ccccc6)c6ccc3[nH]6)C=C5)C=C4)cc1)C2
REMARK SMILES IDX 16 1 15 2 14 3 13 4 11 5 12 6 10 8 1 9 2 10 3 11 7 12 4 13
REMARK SMILES IDX 6 14 8 15 5 16 68 17 9 18 17 19 18 20 19 22 20 23 21 24
REMARK SMILES IDX 67 25 22 26 66 27 23 28 24 29 25 30 60 31 26 32 65 33 59 34
REMARK SMILES IDX 61 35 27 36 64 37 58 38 57 39 28 41 50 42 35 43 49 44 36 45
REMARK SMILES IDX 39 46 48 47 62 48 37 49 38 50 47 52 63 53 40 54 29 55 30 56
REMARK SMILES IDX 34 57 31 58 33 59 32 60 51 61 52 62 56 63 53 64 55 65 54 66
REMARK SMILES IDX 41 67 42 68 46 69 43 70 45 71 44 72
REMARK H PARENT 13 7 17 21 61 40 39 51
REMARK Flexibility Score: inf
ROOT
ATOM      1  C   UNL     1       2.372  -5.422  -7.555  1.00  0.00     0.118 C 
ENDROOT
BRANCH   1   2
ATOM      2  C   UNL     1       2.420  -4.434  -6.394  1.00  0.00     0.042 C 
BRANCH   2   3
ATOM      3  C   UNL     1       2.116  -2.993  -6.803  1.00  0.00     0.118 C 
BRANCH   3   4
ATOM      4  N   UNL     1       0.795  -2.909  -7.393  1.00  0.00    -0.353 N 
ATOM      5  C   UNL     1      -0.426  -2.754  -6.816  1.00  0.00     0.261 C 
ATOM      6  O   UNL     1      -1.402  -3.064  -7.509  1.00  0.00    -0.271 OA
ATOM      7  H   UNL     1       0.779  -2.974  -8.375  1.00  0.00     0.163 HD
BRANCH   5   8
ATOM      8  C   UNL     1      -0.625  -2.167  -5.419  1.00  0.00     0.266 C 
ATOM      9  C   UNL     1       0.748  -0.240   0.105  1.00  0.00     0.044 C 
ATOM     10  C   UNL     1       0.477  -0.319  -1.374  1.00  0.00    -0.048 A 
ATOM     11  C   UNL     1       0.387  -1.594  -1.971  1.00  0.00     0.011 A 
ATOM     12  C   UNL     1       0.358   0.849  -2.176  1.00  0.00    -0.045 A 
ATOM     13  C   UNL     1       0.140  -1.681  -3.328  1.00  0.00    -0.001 A 
ATOM     14  C   UNL     1       0.139   0.724  -3.558  1.00  0.00     0.050 A 
ATOM     15  C   UNL     1       0.396   2.244  -1.614  1.00  0.00     0.045 C 
ATOM     16  C   UNL     1       0.033  -0.536  -4.097  1.00  0.00     0.124 A 
ATOM     17  C   UNL     1      -0.004  -2.868  -4.207  1.00  0.00     0.095 C 
ATOM     18  O   UNL     1      -0.185  -0.787  -5.425  1.00  0.00    -0.480 OA
ENDBRANCH   5   8
ENDBRANCH   3   4
ENDBRANCH   2   3
ENDBRANCH   1   2
BRANCH   1  19
ATOM     19  N   UNL     1       3.597  -5.439  -8.338  1.00  0.00    -0.352 N 
ATOM     20  C   UNL     1       4.525  -6.443  -8.488  1.00  0.00     0.251 C 
ATOM     21  H   UNL     1       3.790  -4.610  -8.834  1.00  0.00     0.163 HD
ATOM     22  O   UNL     1       5.588  -6.218  -9.059  1.00  0.00    -0.269 OA
BRANCH  20  23
ATOM     23  C   UNL     1       4.261  -7.788  -7.926  1.00  0.00     0.039 A 
ATOM     24  C   UNL     1       3.009  -8.386  -8.063  1.00  0.00     0.014 A 
ATOM     25  C   UNL     1       5.280  -8.457  -7.241  1.00  0.00     0.014 A 
ATOM     26  C   UNL     1       2.718  -9.546  -7.354  1.00  0.00     0.010 A 
ATOM     27  C   UNL     1       5.017  -9.685  -6.623  1.00  0.00     0.010 A 
ATOM     28  C   UNL     1       3.719 -10.217  -6.631  1.00  0.00    -0.014 A 
BRANCH  28  29
ATOM     29  C   UNL     1       3.374 -11.483  -5.929  1.00  0.00     0.031 A 
ATOM     30  C   UNL     1       3.474 -11.604  -4.431  1.00  0.00     0.074 A 
ATOM     31  C   UNL     1       2.892 -12.513  -6.652  1.00  0.00     0.049 A 
ATOM     32  N   UNL     1       3.116 -12.605  -3.665  1.00  0.00    -0.248 NA
ATOM     33  C   UNL     1       4.052 -10.468  -3.695  1.00  0.00     0.031 C 
ATOM     34  C   UNL     1       2.752 -12.520  -8.111  1.00  0.00     0.029 A 
ATOM     35  N   UNL     1       2.390 -13.730  -6.265  1.00  0.00    -0.354 N 
ATOM     36  C   UNL     1       3.439 -12.229  -2.367  1.00  0.00     0.074 A 
ATOM     37  C   UNL     1       4.051 -10.921  -2.448  1.00  0.00     0.031 C 
ATOM     38  C   UNL     1       2.124 -13.643  -8.486  1.00  0.00     0.029 A 
ATOM     39  C   UNL     1       1.885 -14.470  -7.308  1.00  0.00     0.049 A 
ATOM     40  H   UNL     1       2.391 -14.043  -5.332  1.00  0.00     0.167 HD
ATOM     41  C   UNL     1       3.234 -12.907  -1.212  1.00  0.00     0.031 A 
ATOM     42  C   UNL     1       1.295 -15.680  -7.327  1.00  0.00     0.031 A 
ATOM     43  C   UNL     1       2.614 -14.204  -1.132  1.00  0.00     0.049 A 
ATOM     44  C   UNL     1       1.101 -16.419  -6.036  1.00  0.00     0.074 A 
ATOM     45  C   UNL     1       2.331 -14.950  -0.000  1.00  0.00     0.029 A 
ATOM     46  N   UNL     1       2.182 -14.949  -2.219  1.00  0.00    -0.354 N 
ATOM     47  N   UNL     1       1.386 -16.033  -4.817  1.00  0.00    -0.248 NA
ATOM     48  C   UNL     1       0.507 -17.760  -6.122  1.00  0.00     0.031 C 
ATOM     49  C   UNL     1       1.792 -16.173  -0.406  1.00  0.00     0.029 A 
ATOM     50  C   UNL     1       1.669 -16.160  -1.786  1.00  0.00     0.049 A 
ATOM     51  H   UNL     1       2.233 -14.659  -3.159  1.00  0.00     0.167 HD
ATOM     52  C   UNL     1       1.006 -17.080  -3.989  1.00  0.00     0.074 A 
ATOM     53  C   UNL     1       0.439 -18.105  -4.843  1.00  0.00     0.031 C 
ATOM     54  C   UNL     1       1.126 -17.184  -2.643  1.00  0.00     0.031 A 
BRANCH  41  55
ATOM     55  C   UNL     1       3.691 -12.274   0.075  1.00  0.00    -0.014 A 
ATOM     56  C   UNL     1       4.747 -12.852   0.798  1.00  0.00     0.009 A 
ATOM     57  C   UNL     1       3.016 -11.174   0.626  1.00  0.00     0.009 A 
ATOM     58  C   UNL     1       5.110 -12.351   2.050  1.00  0.00     0.001 A 
ATOM     59  C   UNL     1       3.400 -10.657   1.866  1.00  0.00     0.001 A 
ATOM     60  C   UNL     1       4.439 -11.252   2.581  1.00  0.00     0.000 A 
ENDBRANCH  41  55
BRANCH  42  61
ATOM     61  C   UNL     1       0.842 -16.246  -8.625  1.00  0.00    -0.014 A 
ATOM     62  C   UNL     1       1.777 -16.606  -9.610  1.00  0.00     0.009 A 
ATOM     63  C   UNL     1      -0.525 -16.363  -8.915  1.00  0.00     0.009 A 
ATOM     64  C   UNL     1       1.354 -17.034 -10.869  1.00  0.00     0.001 A 
ATOM     65  C   UNL     1      -0.946 -16.825 -10.165  1.00  0.00     0.001 A 
ATOM     66  C   UNL     1      -0.007 -17.147 -11.144  1.00  0.00     0.000 A 
ENDBRANCH  42  61
BRANCH  54  67
ATOM     67  C   UNL     1       0.649 -18.455  -1.997  1.00  0.00    -0.014 A 
ATOM     68  C   UNL     1      -0.473 -18.434  -1.153  1.00  0.00     0.009 A 
ATOM     69  C   UNL     1       1.357 -19.656  -2.155  1.00  0.00     0.009 A 
ATOM     70  C   UNL     1      -0.868 -19.585  -0.470  1.00  0.00     0.001 A 
ATOM     71  C   UNL     1       0.940 -20.814  -1.497  1.00  0.00     0.001 A 
ATOM     72  C   UNL     1      -0.165 -20.776  -0.648  1.00  0.00     0.000 A 
ENDBRANCH  54  67
ENDBRANCH  28  29
ENDBRANCH  20  23
ENDBRANCH   1  19
TORSDOF 10
