REMARK SMILES CCN(C(=O)C[NH2+][C@](C)(CC)C(=O)NCCCNC(=O)c1ccc(-c2c3nc(c(-c4ccccc4)c4ccc([nH]4)c(-c4ccccc4)c4nc(c(-c5ccccc5)c5ccc2[nH]5)C=C4)C=C3)cc1)C1CC1
REMARK SMILES IDX 12 1 13 2 14 3 8 5 9 6 7 7 6 10 4 11 5 12 3 13 2 14 1 15
REMARK SMILES IDX 69 16 70 17 71 18 10 19 11 20 15 21 16 22 17 23 18 24 19 25
REMARK SMILES IDX 20 27 21 28 22 29 68 30 23 31 67 32 24 33 25 34 26 35 61 36
REMARK SMILES IDX 27 37 66 38 60 39 62 40 28 41 65 42 59 43 58 44 29 46 51 47
REMARK SMILES IDX 36 48 50 49 37 50 40 51 49 52 63 53 38 54 39 55 48 57 64 58
REMARK SMILES IDX 41 59 30 60 31 61 35 62 32 63 34 64 33 65 52 66 53 67 57 68
REMARK SMILES IDX 54 69 56 70 55 71 42 72 43 73 47 74 44 75 46 76 45 77
REMARK H PARENT 14 4 7 8 7 9 18 26 62 45 40 56
REMARK Flexibility Score: inf
ROOT
ATOM      1  C   UNL     1      -3.701  -0.935  -1.075  1.00  0.00     0.281 C 
ATOM      2  O   UNL     1      -2.952  -0.570  -1.986  1.00  0.00    -0.268 OA
ATOM      3  N   UNL     1      -4.993  -0.501  -1.152  1.00  0.00    -0.351 N 
ATOM      4  H   UNL     1      -5.157   0.176  -1.848  1.00  0.00     0.163 HD
ENDROOT
BRANCH   1   5
ATOM      5  C   UNL     1      -3.213  -1.846   0.098  1.00  0.00     0.172 C 
ATOM      6  C   UNL     1      -1.724  -2.230  -0.088  1.00  0.00     0.090 C 
BRANCH   5   7
ATOM      7  N   UNL     1      -3.966  -3.135   0.168  1.00  0.00    -0.326 N 
ATOM      8  H   UNL     1      -3.356  -3.840   0.583  1.00  0.00     0.347 HD
ATOM      9  H   UNL     1      -4.801  -2.955   0.726  1.00  0.00     0.347 HD
BRANCH   7  10
ATOM     10  C   UNL     1      -4.432  -3.640  -1.139  1.00  0.00     0.362 C 
BRANCH  10  11
ATOM     11  C   UNL     1      -5.287  -4.889  -0.928  1.00  0.00     0.277 C 
ATOM     12  O   UNL     1      -6.465  -4.751  -0.574  1.00  0.00    -0.268 OA
BRANCH  11  13
ATOM     13  N   UNL     1      -4.706  -6.130  -1.156  1.00  0.00    -0.335 N 
BRANCH  13  14
ATOM     14  C   UNL     1      -3.258  -6.360  -1.175  1.00  0.00     0.116 C 
ATOM     15  C   UNL     1      -2.743  -6.790   0.189  1.00  0.00     0.027 C 
ENDBRANCH  13  14
BRANCH  13  16
ATOM     16  C   UNL     1      -5.546  -7.306  -1.121  1.00  0.00     0.085 C 
ATOM     17  C   UNL     1      -6.725  -7.461  -2.049  1.00  0.00     0.027 C 
ATOM     18  C   UNL     1      -5.515  -8.321  -2.235  1.00  0.00     0.027 C 
ENDBRANCH  13  16
ENDBRANCH  11  13
ENDBRANCH  10  11
ENDBRANCH   7  10
ENDBRANCH   5   7
BRANCH   5  19
ATOM     19  C   UNL     1      -3.360  -1.080   1.447  1.00  0.00     0.075 C 
ATOM     20  C   UNL     1      -2.681   0.288   1.474  1.00  0.00     0.011 C 
ENDBRANCH   5  19
ENDBRANCH   1   5
BRANCH   3  21
ATOM     21  C   UNL     1      -6.167  -0.870  -0.380  1.00  0.00     0.118 C 
BRANCH  21  22
ATOM     22  C   UNL     1      -6.898   0.346   0.149  1.00  0.00     0.042 C 
BRANCH  22  23
ATOM     23  C   UNL     1      -7.492   1.202  -0.956  1.00  0.00     0.118 C 
BRANCH  23  24
ATOM     24  N   UNL     1      -8.469   0.482  -1.764  1.00  0.00    -0.352 N 
ATOM     25  C   UNL     1      -9.786   0.771  -2.010  1.00  0.00     0.251 C 
ATOM     26  H   UNL     1      -8.132  -0.334  -2.199  1.00  0.00     0.163 HD
ATOM     27  O   UNL     1     -10.506  -0.055  -2.567  1.00  0.00    -0.269 OA
BRANCH  25  28
ATOM     28  C   UNL     1     -10.341   2.067  -1.582  1.00  0.00     0.039 A 
ATOM     29  C   UNL     1     -11.609   2.100  -0.999  1.00  0.00     0.014 A 
ATOM     30  C   UNL     1      -9.604   3.244  -1.738  1.00  0.00     0.014 A 
ATOM     31  C   UNL     1     -12.105   3.307  -0.511  1.00  0.00     0.010 A 
ATOM     32  C   UNL     1     -10.051   4.420  -1.151  1.00  0.00     0.010 A 
ATOM     33  C   UNL     1     -11.312   4.467  -0.544  1.00  0.00    -0.014 A 
BRANCH  33  34
ATOM     34  C   UNL     1     -11.792   5.733   0.057  1.00  0.00     0.031 A 
ATOM     35  C   UNL     1     -11.985   6.955  -0.799  1.00  0.00     0.074 A 
ATOM     36  C   UNL     1     -12.014   5.789   1.385  1.00  0.00     0.049 A 
ATOM     37  N   UNL     1     -12.414   8.142  -0.454  1.00  0.00    -0.248 NA
ATOM     38  C   UNL     1     -11.626   6.840  -2.223  1.00  0.00     0.031 C 
ATOM     39  C   UNL     1     -11.803   4.687   2.329  1.00  0.00     0.029 A 
ATOM     40  N   UNL     1     -12.476   6.813   2.171  1.00  0.00    -0.354 N 
ATOM     41  C   UNL     1     -12.361   8.913  -1.608  1.00  0.00     0.074 A 
ATOM     42  C   UNL     1     -11.803   8.081  -2.650  1.00  0.00     0.031 C 
ATOM     43  C   UNL     1     -12.189   5.077   3.554  1.00  0.00     0.029 A 
ATOM     44  C   UNL     1     -12.631   6.465   3.491  1.00  0.00     0.049 A 
ATOM     45  H   UNL     1     -12.679   7.711   1.822  1.00  0.00     0.167 HD
ATOM     46  C   UNL     1     -12.763  10.192  -1.791  1.00  0.00     0.031 A 
ATOM     47  C   UNL     1     -13.086   7.185   4.533  1.00  0.00     0.031 A 
ATOM     48  C   UNL     1     -13.332  11.012  -0.755  1.00  0.00     0.049 A 
ATOM     49  C   UNL     1     -13.526   8.603   4.300  1.00  0.00     0.074 A 
ATOM     50  C   UNL     1     -13.836  12.297  -0.852  1.00  0.00     0.029 A 
ATOM     51  N   UNL     1     -13.466  10.627   0.570  1.00  0.00    -0.354 N 
ATOM     52  N   UNL     1     -13.555   9.287   3.182  1.00  0.00    -0.248 NA
ATOM     53  C   UNL     1     -14.009   9.341   5.473  1.00  0.00     0.031 C 
ATOM     54  C   UNL     1     -14.219  12.712   0.427  1.00  0.00     0.029 A 
ATOM     55  C   UNL     1     -14.015  11.662   1.308  1.00  0.00     0.049 A 
ATOM     56  H   UNL     1     -13.209   9.748   0.932  1.00  0.00     0.167 HD
ATOM     57  C   UNL     1     -14.084  10.528   3.512  1.00  0.00     0.074 A 
ATOM     58  C   UNL     1     -14.388  10.488   4.928  1.00  0.00     0.031 C 
ATOM     59  C   UNL     1     -14.298  11.606   2.719  1.00  0.00     0.031 A 
BRANCH  46  60
ATOM     60  C   UNL     1     -12.597  10.785  -3.164  1.00  0.00    -0.014 A 
ATOM     61  C   UNL     1     -13.372  10.345  -4.249  1.00  0.00     0.009 A 
ATOM     62  C   UNL     1     -11.681  11.829  -3.365  1.00  0.00     0.009 A 
ATOM     63  C   UNL     1     -13.210  10.916  -5.513  1.00  0.00     0.001 A 
ATOM     64  C   UNL     1     -11.543  12.419  -4.623  1.00  0.00     0.001 A 
ATOM     65  C   UNL     1     -12.300  11.956  -5.698  1.00  0.00     0.000 A 
ENDBRANCH  46  60
BRANCH  47  66
ATOM     66  C   UNL     1     -13.175   6.576   5.887  1.00  0.00    -0.014 A 
ATOM     67  C   UNL     1     -14.425   6.333   6.478  1.00  0.00     0.009 A 
ATOM     68  C   UNL     1     -12.013   6.255   6.605  1.00  0.00     0.009 A 
ATOM     69  C   UNL     1     -14.509   5.817   7.773  1.00  0.00     0.001 A 
ATOM     70  C   UNL     1     -12.100   5.708   7.887  1.00  0.00     0.001 A 
ATOM     71  C   UNL     1     -13.347   5.502   8.475  1.00  0.00     0.000 A 
ENDBRANCH  47  66
BRANCH  59  72
ATOM     72  C   UNL     1     -14.914  12.815   3.366  1.00  0.00    -0.014 A 
ATOM     73  C   UNL     1     -14.200  13.588   4.295  1.00  0.00     0.009 A 
ATOM     74  C   UNL     1     -16.225  13.189   3.034  1.00  0.00     0.009 A 
ATOM     75  C   UNL     1     -14.806  14.682   4.916  1.00  0.00     0.001 A 
ATOM     76  C   UNL     1     -16.815  14.305   3.629  1.00  0.00     0.001 A 
ATOM     77  C   UNL     1     -16.111  15.041   4.580  1.00  0.00     0.000 A 
ENDBRANCH  59  72
ENDBRANCH  33  34
ENDBRANCH  25  28
ENDBRANCH  23  24
ENDBRANCH  22  23
ENDBRANCH  21  22
ENDBRANCH   3  21
TORSDOF 17
