REMARK SMILES CCCCCCNC(=O)Oc1cccc(-c2ccc([C@@H](C)C(=O)NCCCNC(=O)c3ccc(-c4c5nc(c(-c6ccccc6)c6ccc([nH]6)c(-c6ccccc6)c6nc(c(-c7ccccc7)c7ccc4[nH]7)C=C6)C=C5)cc3)cc2[N+](=O)[O-])c1
REMARK SMILES IDX 16 1 17 2 18 3 19 4 79 5 80 6 15 7 11 8 12 9 84 10 13 11
REMARK SMILES IDX 14 12 10 13 8 14 7 15 9 17 6 18 5 19 4 20 3 21 2 22 1 23
REMARK SMILES IDX 81 24 82 25 83 26 20 27 21 28 22 29 23 30 24 31 25 33 26 34
REMARK SMILES IDX 27 35 28 36 29 37 30 39 31 40 32 41 78 42 33 43 77 44 34 45
REMARK SMILES IDX 35 46 36 47 71 48 37 49 76 50 70 51 72 52 38 53 75 54 69 55
REMARK SMILES IDX 68 56 39 58 61 59 46 60 60 61 47 62 50 63 59 64 73 65 48 66
REMARK SMILES IDX 49 67 58 69 74 70 51 71 40 72 41 73 45 74 42 75 44 76 43 77
REMARK SMILES IDX 62 78 63 79 67 80 64 81 66 82 65 83 52 84 53 85 57 86 54 87
REMARK SMILES IDX 56 88 55 89
REMARK H PARENT 7 16 24 32 28 38 72 57 50 68
REMARK Flexibility Score: inf
ROOT
ATOM      1  C   UNL     1      -5.244   7.106  -6.730  1.00  0.00     0.060 A 
ATOM      2  C   UNL     1      -5.573   8.371  -7.250  1.00  0.00     0.016 A 
ATOM      3  C   UNL     1      -5.516   8.650  -8.621  1.00  0.00     0.005 A 
ATOM      4  C   UNL     1      -5.038   7.709  -9.534  1.00  0.00    -0.029 A 
ATOM      5  C   UNL     1      -4.753   6.424  -9.049  1.00  0.00     0.090 A 
ATOM      6  C   UNL     1      -4.896   6.125  -7.677  1.00  0.00     0.277 A 
ENDROOT
BRANCH   1   7
ATOM      7  C   UNL     1      -5.249   6.918  -5.261  1.00  0.00    -0.008 A 
ATOM      8  C   UNL     1      -4.198   6.164  -3.204  1.00  0.00     0.133 A 
ATOM      9  C   UNL     1      -5.278   6.611  -2.449  1.00  0.00     0.047 A 
ATOM     10  C   UNL     1      -4.168   6.319  -4.591  1.00  0.00     0.056 A 
ATOM     11  C   UNL     1      -6.344   7.231  -3.091  1.00  0.00     0.004 A 
ATOM     12  C   UNL     1      -6.333   7.372  -4.482  1.00  0.00     0.009 A 
BRANCH   8  13
ATOM     13  O   UNL     1      -3.224   5.416  -2.520  1.00  0.00    -0.410 OA
BRANCH  13  14
ATOM     14  C   UNL     1      -1.880   5.689  -2.722  1.00  0.00     0.412 C 
ATOM     15  N   UNL     1      -1.058   4.787  -2.104  1.00  0.00    -0.321 N 
ATOM     16  H   UNL     1      -0.089   4.947  -2.178  1.00  0.00     0.167 HD
ATOM     17  O   UNL     1      -1.427   6.629  -3.364  1.00  0.00    -0.224 OA
BRANCH  15  18
ATOM     18  C   UNL     1      -1.468   3.617  -1.350  1.00  0.00     0.119 C 
BRANCH  18  19
ATOM     19  C   UNL     1      -0.879   2.328  -1.923  1.00  0.00     0.021 C 
BRANCH  19  20
ATOM     20  C   UNL     1       0.649   2.226  -1.845  1.00  0.00     0.002 C 
BRANCH  20  21
ATOM     21  C   UNL     1       1.245   2.321  -0.436  1.00  0.00    -0.000 C 
BRANCH  21  22
ATOM     22  C   UNL     1       0.754   1.267   0.559  1.00  0.00    -0.003 C 
ATOM     23  C   UNL     1       1.115  -0.155   0.157  1.00  0.00     0.004 C 
ENDBRANCH  21  22
ENDBRANCH  20  21
ENDBRANCH  19  20
ENDBRANCH  18  19
ENDBRANCH  15  18
ENDBRANCH  13  14
ENDBRANCH   8  13
ENDBRANCH   1   7
BRANCH   6  24
ATOM     24  N   UNL     1      -4.740   4.725  -7.293  1.00  0.00     0.063 N 
ATOM     25  O   UNL     1      -3.769   4.113  -7.762  1.00  0.00    -0.258 OA
ATOM     26  O   UNL     1      -5.613   4.225  -6.571  1.00  0.00    -0.258 OA
ENDBRANCH   6  24
BRANCH   4  27
ATOM     27  C   UNL     1      -4.801   8.037 -11.001  1.00  0.00     0.105 C 
ATOM     28  C   UNL     1      -5.987   8.664 -11.730  1.00  0.00     0.023 C 
BRANCH  27  29
ATOM     29  C   UNL     1      -3.445   8.710 -11.270  1.00  0.00     0.227 C 
ATOM     30  O   UNL     1      -2.500   8.034 -11.696  1.00  0.00    -0.274 OA
ATOM     31  N   UNL     1      -3.186  10.030 -11.069  1.00  0.00    -0.356 N 
ATOM     32  H   UNL     1      -2.288  10.307 -11.363  1.00  0.00     0.163 HD
BRANCH  31  33
ATOM     33  C   UNL     1      -3.976  11.108 -10.507  1.00  0.00     0.117 C 
BRANCH  33  34
ATOM     34  C   UNL     1      -3.627  11.374  -9.044  1.00  0.00     0.042 C 
BRANCH  34  35
ATOM     35  C   UNL     1      -2.383  12.230  -8.847  1.00  0.00     0.118 C 
BRANCH  35  36
ATOM     36  N   UNL     1      -2.606  13.618  -9.226  1.00  0.00    -0.352 N 
ATOM     37  C   UNL     1      -2.600  14.766  -8.473  1.00  0.00     0.251 C 
ATOM     38  H   UNL     1      -2.793  13.757 -10.183  1.00  0.00     0.163 HD
ATOM     39  O   UNL     1      -3.032  15.804  -8.968  1.00  0.00    -0.269 OA
BRANCH  37  40
ATOM     40  C   UNL     1      -2.096  14.777  -7.079  1.00  0.00     0.039 A 
ATOM     41  C   UNL     1      -2.725  15.611  -6.147  1.00  0.00     0.014 A 
ATOM     42  C   UNL     1      -0.978  14.036  -6.693  1.00  0.00     0.014 A 
ATOM     43  C   UNL     1      -2.267  15.661  -4.827  1.00  0.00     0.010 A 
ATOM     44  C   UNL     1      -0.572  14.022  -5.360  1.00  0.00     0.010 A 
ATOM     45  C   UNL     1      -1.202  14.845  -4.415  1.00  0.00    -0.014 A 
BRANCH  45  46
ATOM     46  C   UNL     1      -0.722  14.852  -3.010  1.00  0.00     0.031 A 
ATOM     47  C   UNL     1       0.675  15.311  -2.687  1.00  0.00     0.074 A 
ATOM     48  C   UNL     1      -1.519  14.387  -2.028  1.00  0.00     0.049 A 
ATOM     49  N   UNL     1       1.296  15.324  -1.534  1.00  0.00    -0.248 NA
ATOM     50  C   UNL     1       1.490  15.798  -3.812  1.00  0.00     0.031 C 
ATOM     51  C   UNL     1      -2.879  13.876  -2.210  1.00  0.00     0.029 A 
ATOM     52  N   UNL     1      -1.294  14.259  -0.680  1.00  0.00    -0.354 N 
ATOM     53  C   UNL     1       2.577  15.792  -1.800  1.00  0.00     0.074 A 
ATOM     54  C   UNL     1       2.659  16.014  -3.227  1.00  0.00     0.031 C 
ATOM     55  C   UNL     1      -3.374  13.512  -1.016  1.00  0.00     0.029 A 
ATOM     56  C   UNL     1      -2.356  13.725   0.007  1.00  0.00     0.049 A 
ATOM     57  H   UNL     1      -0.451  14.526  -0.247  1.00  0.00     0.167 HD
ATOM     58  C   UNL     1       3.591  16.031  -0.933  1.00  0.00     0.031 A 
ATOM     59  C   UNL     1      -2.494  13.430   1.313  1.00  0.00     0.031 A 
ATOM     60  C   UNL     1       3.506  15.830   0.488  1.00  0.00     0.049 A 
ATOM     61  C   UNL     1      -1.355  13.707   2.255  1.00  0.00     0.074 A 
ATOM     62  C   UNL     1       4.457  16.104   1.456  1.00  0.00     0.029 A 
ATOM     63  N   UNL     1       2.405  15.304   1.145  1.00  0.00    -0.354 N 
ATOM     64  N   UNL     1      -0.174  14.212   1.996  1.00  0.00    -0.248 NA
ATOM     65  C   UNL     1      -1.575  13.381   3.671  1.00  0.00     0.031 C 
ATOM     66  C   UNL     1       3.947  15.702   2.695  1.00  0.00     0.029 A 
ATOM     67  C   UNL     1       2.660  15.226   2.504  1.00  0.00     0.049 A 
ATOM     68  H   UNL     1       1.566  15.027   0.711  1.00  0.00     0.167 HD
ATOM     69  C   UNL     1       0.480  14.289   3.219  1.00  0.00     0.074 A 
ATOM     70  C   UNL     1      -0.441  13.794   4.220  1.00  0.00     0.031 C 
ATOM     71  C   UNL     1       1.733  14.731   3.487  1.00  0.00     0.031 A 
BRANCH  58  72
ATOM     72  C   UNL     1       4.887  16.535  -1.506  1.00  0.00    -0.014 A 
ATOM     73  C   UNL     1       4.999  17.838  -2.017  1.00  0.00     0.009 A 
ATOM     74  C   UNL     1       6.021  15.708  -1.501  1.00  0.00     0.009 A 
ATOM     75  C   UNL     1       6.211  18.289  -2.546  1.00  0.00     0.001 A 
ATOM     76  C   UNL     1       7.238  16.171  -2.005  1.00  0.00     0.001 A 
ATOM     77  C   UNL     1       7.329  17.457  -2.536  1.00  0.00     0.000 A 
ENDBRANCH  58  72
BRANCH  59  78
ATOM     78  C   UNL     1      -3.768  12.852   1.815  1.00  0.00    -0.014 A 
ATOM     79  C   UNL     1      -4.634  13.622   2.606  1.00  0.00     0.009 A 
ATOM     80  C   UNL     1      -4.123  11.530   1.507  1.00  0.00     0.009 A 
ATOM     81  C   UNL     1      -5.818  13.070   3.100  1.00  0.00     0.001 A 
ATOM     82  C   UNL     1      -5.320  10.990   1.981  1.00  0.00     0.001 A 
ATOM     83  C   UNL     1      -6.162  11.757   2.784  1.00  0.00     0.000 A 
ENDBRANCH  59  78
BRANCH  71  84
ATOM     84  C   UNL     1       2.166  14.732   4.925  1.00  0.00    -0.014 A 
ATOM     85  C   UNL     1       2.478  13.537   5.592  1.00  0.00     0.009 A 
ATOM     86  C   UNL     1       2.302  15.950   5.609  1.00  0.00     0.009 A 
ATOM     87  C   UNL     1       2.888  13.562   6.927  1.00  0.00     0.001 A 
ATOM     88  C   UNL     1       2.738  15.973   6.934  1.00  0.00     0.001 A 
ATOM     89  C   UNL     1       3.022  14.779   7.594  1.00  0.00     0.000 A 
ENDBRANCH  71  84
ENDBRANCH  45  46
ENDBRANCH  37  40
ENDBRANCH  35  36
ENDBRANCH  34  35
ENDBRANCH  33  34
ENDBRANCH  31  33
ENDBRANCH  27  29
ENDBRANCH   4  27
TORSDOF 20
