REMARK SMILES O=C(NCCCNC(=O)C1(C/C=C/c2ccccc2)Cc2ccccc2C1)c1ccc(-c2c3nc(c(-c4ccccc4)c4ccc([nH]4)c(-c4ccccc4)c4nc(c(-c5ccccc5)c5ccc2[nH]5)C=C4)C=C3)cc1
REMARK SMILES IDX 5 1 4 2 3 3 1 4 2 5 28 7 29 8 75 9 30 10 74 11 31 12 32 13
REMARK SMILES IDX 33 14 68 15 34 16 73 17 67 18 69 19 35 20 72 21 66 22 65 23
REMARK SMILES IDX 36 25 58 26 43 27 57 28 44 29 47 30 56 31 70 32 45 33 46 34
REMARK SMILES IDX 55 36 71 37 48 38 37 39 38 40 42 41 39 42 41 43 40 44 59 45
REMARK SMILES IDX 60 46 64 47 61 48 63 49 62 50 49 51 50 52 54 53 51 54 53 55
REMARK SMILES IDX 52 56 6 57 7 58 8 59 9 61 10 62 20 63 27 64 21 65 26 66
REMARK SMILES IDX 22 67 25 68 23 69 24 70 11 71 12 72 13 73 14 74 15 75 19 76
REMARK SMILES IDX 16 77 18 78 17 79
REMARK H PARENT 3 6 69 24 47 35 7 60
REMARK Flexibility Score: inf
ROOT
ATOM      1  C   UNL     1       4.290  -0.986   2.370  1.00  0.00     0.042 C 
ENDROOT
BRANCH   1   2
ATOM      2  C   UNL     1       4.210  -1.042   0.845  1.00  0.00     0.118 C 
BRANCH   2   3
ATOM      3  N   UNL     1       2.838  -1.032   0.372  1.00  0.00    -0.352 N 
ATOM      4  O   UNL     1       0.935  -0.135  -0.413  1.00  0.00    -0.269 OA
ATOM      5  C   UNL     1       2.157  -0.067  -0.326  1.00  0.00     0.251 C 
ATOM      6  H   UNL     1       2.317  -1.839   0.584  1.00  0.00     0.163 HD
BRANCH   5   7
ATOM      7  C   UNL     1       2.873   1.056  -0.973  1.00  0.00     0.039 A 
ATOM      8  C   UNL     1       4.039   0.849  -1.718  1.00  0.00     0.014 A 
ATOM      9  C   UNL     1       2.303   2.331  -0.912  1.00  0.00     0.014 A 
ATOM     10  C   UNL     1       4.675   1.927  -2.335  1.00  0.00     0.010 A 
ATOM     11  C   UNL     1       2.911   3.401  -1.574  1.00  0.00     0.010 A 
ATOM     12  C   UNL     1       4.108   3.209  -2.281  1.00  0.00    -0.014 A 
BRANCH  12  13
ATOM     13  C   UNL     1       4.726   4.343  -3.012  1.00  0.00     0.031 A 
ATOM     14  C   UNL     1       5.329   5.498  -2.265  1.00  0.00     0.074 A 
ATOM     15  C   UNL     1       4.697   4.355  -4.358  1.00  0.00     0.049 A 
ATOM     16  N   UNL     1       5.835   6.610  -2.735  1.00  0.00    -0.248 NA
ATOM     17  C   UNL     1       5.360   5.392  -0.798  1.00  0.00     0.031 C 
ATOM     18  C   UNL     1       4.133   3.298  -5.199  1.00  0.00     0.029 A 
ATOM     19  N   UNL     1       5.139   5.296  -5.253  1.00  0.00    -0.354 N 
ATOM     20  C   UNL     1       6.222   7.348  -1.623  1.00  0.00     0.074 A 
ATOM     21  C   UNL     1       5.876   6.564  -0.456  1.00  0.00     0.031 C 
ATOM     22  C   UNL     1       4.271   3.645  -6.488  1.00  0.00     0.029 A 
ATOM     23  C   UNL     1       4.884   4.967  -6.561  1.00  0.00     0.049 A 
ATOM     24  H   UNL     1       5.595   6.126  -4.984  1.00  0.00     0.167 HD
ATOM     25  C   UNL     1       6.811   8.567  -1.580  1.00  0.00     0.031 A 
ATOM     26  C   UNL     1       5.093   5.661  -7.696  1.00  0.00     0.031 A 
ATOM     27  C   UNL     1       7.149   9.348  -2.740  1.00  0.00     0.049 A 
ATOM     28  C   UNL     1       5.716   7.024  -7.623  1.00  0.00     0.074 A 
ATOM     29  C   UNL     1       7.782  10.579  -2.798  1.00  0.00     0.029 A 
ATOM     30  N   UNL     1       6.874   8.979  -4.048  1.00  0.00    -0.354 N 
ATOM     31  N   UNL     1       6.111   7.692  -6.566  1.00  0.00    -0.248 NA
ATOM     32  C   UNL     1       5.925   7.726  -8.896  1.00  0.00     0.031 C 
ATOM     33  C   UNL     1       7.848  10.974  -4.139  1.00  0.00     0.029 A 
ATOM     34  C   UNL     1       7.302   9.967  -4.918  1.00  0.00     0.049 A 
ATOM     35  H   UNL     1       6.438   8.138  -4.317  1.00  0.00     0.167 HD
ATOM     36  C   UNL     1       6.636   8.883  -7.047  1.00  0.00     0.074 A 
ATOM     37  C   UNL     1       6.515   8.844  -8.491  1.00  0.00     0.031 C 
ATOM     38  C   UNL     1       7.175   9.914  -6.352  1.00  0.00     0.031 A 
BRANCH  25  39
ATOM     39  C   UNL     1       7.095   9.145  -0.222  1.00  0.00    -0.014 A 
ATOM     40  C   UNL     1       8.121   8.636   0.589  1.00  0.00     0.009 A 
ATOM     41  C   UNL     1       6.335  10.229   0.244  1.00  0.00     0.009 A 
ATOM     42  C   UNL     1       8.353   9.175   1.857  1.00  0.00     0.001 A 
ATOM     43  C   UNL     1       6.585  10.782   1.501  1.00  0.00     0.001 A 
ATOM     44  C   UNL     1       7.586  10.248   2.311  1.00  0.00     0.000 A 
ENDBRANCH  25  39
BRANCH  26  45
ATOM     45  C   UNL     1       4.691   5.067  -8.996  1.00  0.00    -0.014 A 
ATOM     46  C   UNL     1       5.658   4.567  -9.880  1.00  0.00     0.009 A 
ATOM     47  C   UNL     1       3.333   4.956  -9.336  1.00  0.00     0.009 A 
ATOM     48  C   UNL     1       5.272   3.972 -11.083  1.00  0.00     0.001 A 
ATOM     49  C   UNL     1       2.950   4.340 -10.528  1.00  0.00     0.001 A 
ATOM     50  C   UNL     1       3.920   3.852 -11.403  1.00  0.00     0.000 A 
ENDBRANCH  26  45
BRANCH  38  51
ATOM     51  C   UNL     1       7.710  11.072  -7.143  1.00  0.00    -0.014 A 
ATOM     52  C   UNL     1       6.850  12.019  -7.719  1.00  0.00     0.009 A 
ATOM     53  C   UNL     1       9.097  11.247  -7.263  1.00  0.00     0.009 A 
ATOM     54  C   UNL     1       7.371  13.110  -8.418  1.00  0.00     0.001 A 
ATOM     55  C   UNL     1       9.615  12.349  -7.944  1.00  0.00     0.001 A 
ATOM     56  C   UNL     1       8.752  13.277  -8.525  1.00  0.00     0.000 A 
ENDBRANCH  38  51
ENDBRANCH  12  13
ENDBRANCH   5   7
ENDBRANCH   2   3
ENDBRANCH   1   2
BRANCH   1  57
ATOM     57  C   UNL     1       3.851  -2.280   3.067  1.00  0.00     0.117 C 
BRANCH  57  58
ATOM     58  N   UNL     1       4.752  -3.367   2.734  1.00  0.00    -0.356 N 
ATOM     59  C   UNL     1       5.908  -3.811   3.291  1.00  0.00     0.227 C 
ATOM     60  H   UNL     1       4.470  -3.886   1.946  1.00  0.00     0.163 HD
ATOM     61  O   UNL     1       6.600  -4.484   2.521  1.00  0.00    -0.274 OA
BRANCH  59  62
ATOM     62  C   UNL     1       6.301  -3.584   4.768  1.00  0.00     0.061 C 
ATOM     63  C   UNL     1       6.335  -2.084   5.194  1.00  0.00     0.053 C 
ATOM     64  C   UNL     1       5.253  -4.273   5.691  1.00  0.00     0.053 C 
ATOM     65  C   UNL     1       5.735  -2.103   6.566  1.00  0.00    -0.044 A 
ATOM     66  C   UNL     1       5.155  -3.337   6.854  1.00  0.00    -0.044 A 
ATOM     67  C   UNL     1       5.700  -1.066   7.485  1.00  0.00     0.004 A 
ATOM     68  C   UNL     1       4.549  -3.572   8.078  1.00  0.00     0.004 A 
ATOM     69  C   UNL     1       5.092  -1.293   8.721  1.00  0.00     0.000 A 
ATOM     70  C   UNL     1       4.527  -2.541   9.019  1.00  0.00     0.000 A 
BRANCH  62  71
ATOM     71  C   UNL     1       7.747  -4.137   5.033  1.00  0.00     0.045 C 
BRANCH  71  72
ATOM     72  C   UNL     1       7.986  -5.613   4.835  1.00  0.00    -0.025 C 
ATOM     73  C   UNL     1       8.819  -6.091   3.895  1.00  0.00     0.004 C 
BRANCH  73  74
ATOM     74  C   UNL     1       9.033  -7.517   3.639  1.00  0.00    -0.026 A 
ATOM     75  C   UNL     1      10.329  -7.982   3.387  1.00  0.00     0.008 A 
ATOM     76  C   UNL     1       7.960  -8.414   3.556  1.00  0.00     0.008 A 
ATOM     77  C   UNL     1      10.551  -9.328   3.085  1.00  0.00     0.001 A 
ATOM     78  C   UNL     1       8.182  -9.758   3.252  1.00  0.00     0.001 A 
ATOM     79  C   UNL     1       9.478 -10.215   3.020  1.00  0.00     0.000 A 
ENDBRANCH  73  74
ENDBRANCH  71  72
ENDBRANCH  62  71
ENDBRANCH  59  62
ENDBRANCH  57  58
ENDBRANCH   1  57
TORSDOF 13
