REMARK SMILES Cc1ccc(C(C)(C)C)c(OCC(=O)c2nc(C)c(C(=O)NCCCNC(=O)c3ccc(-c4c5nc(c(-c6ccccc6)c6ccc([nH]6)c(-c6ccccc6)c6nc(c(-c7ccccc7)c7ccc4[nH]7)C=C6)C=C5)cc3)s2)c1
REMARK SMILES IDX 20 1 21 2 22 3 19 5 15 6 16 7 77 8 17 9 18 10 13 11 14 12
REMARK SMILES IDX 12 13 11 14 10 15 1 16 2 17 3 18 78 19 4 20 5 21 6 22 7 23
REMARK SMILES IDX 8 24 9 25 23 26 24 27 25 28 26 29 27 30 28 32 29 33 30 34
REMARK SMILES IDX 76 35 31 36 75 37 32 38 33 39 34 40 69 41 35 42 74 43 68 44
REMARK SMILES IDX 70 45 36 46 73 47 67 48 66 49 37 51 59 52 44 53 58 54 45 55
REMARK SMILES IDX 48 56 57 57 71 58 46 59 47 60 56 62 72 63 49 64 38 65 39 66
REMARK SMILES IDX 43 67 40 68 42 69 41 70 60 71 61 72 65 73 62 74 64 75 63 76
REMARK SMILES IDX 50 77 51 78 55 79 52 80 54 81 53 82
REMARK H PARENT 22 4 26 31 70 50 48 61
REMARK Flexibility Score: inf
ROOT
ATOM      1  C   UNL     1      -2.655   2.923   5.372  1.00  0.00     0.263 C 
ATOM      2  O   UNL     1      -3.594   2.213   4.984  1.00  0.00    -0.268 OA
ATOM      3  N   UNL     1      -2.664   3.069   6.736  1.00  0.00    -0.351 N 
ATOM      4  H   UNL     1      -3.414   2.595   7.162  1.00  0.00     0.163 HD
ENDROOT
BRANCH   1   5
ATOM      5  C   UNL     1      -1.681   3.498   4.439  1.00  0.00     0.115 A 
ATOM      6  C   UNL     1      -0.563   3.861   2.258  1.00  0.00     0.164 A 
ATOM      7  N   UNL     1      -0.014   4.593   3.194  1.00  0.00    -0.237 NA
ATOM      8  S   UNL     1      -1.845   2.899   2.794  1.00  0.00    -0.105 S 
ATOM      9  C   UNL     1      -0.648   4.435   4.420  1.00  0.00     0.062 A 
ATOM     10  C   UNL     1      -0.096   5.365   5.429  1.00  0.00     0.068 C 
BRANCH   6  11
ATOM     11  C   UNL     1      -0.056   3.908   0.894  1.00  0.00     0.228 C 
ATOM     12  O   UNL     1       1.084   4.308   0.623  1.00  0.00    -0.288 OA
BRANCH  11  13
ATOM     13  C   UNL     1      -0.991   3.565  -0.271  1.00  0.00     0.313 C 
BRANCH  13  14
ATOM     14  O   UNL     1      -1.702   2.349  -0.315  1.00  0.00    -0.485 OA
BRANCH  14  15
ATOM     15  C   UNL     1      -1.040   1.157  -0.254  1.00  0.00     0.123 A 
ATOM     16  C   UNL     1       2.526  -0.220  -0.147  1.00  0.00     0.044 C 
ATOM     17  C   UNL     1       1.028  -0.150  -0.139  1.00  0.00    -0.047 A 
ATOM     18  C   UNL     1       0.271  -1.305   0.015  1.00  0.00     0.004 A 
ATOM     19  C   UNL     1       0.363   1.068  -0.307  1.00  0.00     0.050 A 
ATOM     20  C   UNL     1      -1.123  -1.234   0.015  1.00  0.00     0.008 A 
ATOM     21  C   UNL     1      -1.823  -0.010  -0.112  1.00  0.00    -0.000 A 
BRANCH  21  22
ATOM     22  C   UNL     1      -3.374  -0.064  -0.105  1.00  0.00    -0.010 C 
ATOM     23  C   UNL     1      -3.842  -0.873  -1.339  1.00  0.00     0.016 C 
ATOM     24  C   UNL     1      -3.866  -0.770   1.182  1.00  0.00     0.016 C 
ATOM     25  C   UNL     1      -4.134   1.281  -0.167  1.00  0.00     0.016 C 
ENDBRANCH  21  22
ENDBRANCH  14  15
ENDBRANCH  13  14
ENDBRANCH  11  13
ENDBRANCH   6  11
ENDBRANCH   1   5
BRANCH   3  26
ATOM     26  C   UNL     1      -1.828   3.759   7.692  1.00  0.00     0.118 C 
BRANCH  26  27
ATOM     27  C   UNL     1      -2.151   5.248   7.735  1.00  0.00     0.042 C 
BRANCH  27  28
ATOM     28  C   UNL     1      -2.881   5.706   8.983  1.00  0.00     0.118 C 
BRANCH  28  29
ATOM     29  N   UNL     1      -2.006   6.427   9.910  1.00  0.00    -0.352 N 
ATOM     30  C   UNL     1      -2.314   7.017  11.126  1.00  0.00     0.251 C 
ATOM     31  H   UNL     1      -1.066   6.504   9.630  1.00  0.00     0.163 HD
ATOM     32  O   UNL     1      -1.461   7.563  11.794  1.00  0.00    -0.269 OA
BRANCH  30  33
ATOM     33  C   UNL     1      -3.683   6.823  11.651  1.00  0.00     0.039 A 
ATOM     34  C   UNL     1      -3.798   6.130  12.858  1.00  0.00     0.014 A 
ATOM     35  C   UNL     1      -4.777   6.995  10.809  1.00  0.00     0.014 A 
ATOM     36  C   UNL     1      -4.937   5.369  13.082  1.00  0.00     0.010 A 
ATOM     37  C   UNL     1      -5.856   6.152  10.975  1.00  0.00     0.010 A 
ATOM     38  C   UNL     1      -5.895   5.283  12.072  1.00  0.00    -0.014 A 
BRANCH  38  39
ATOM     39  C   UNL     1      -6.880   4.210  12.019  1.00  0.00     0.031 A 
ATOM     40  C   UNL     1      -8.304   4.497  12.271  1.00  0.00     0.074 A 
ATOM     41  C   UNL     1      -6.492   2.944  11.744  1.00  0.00     0.049 A 
ATOM     42  N   UNL     1      -9.150   3.629  12.714  1.00  0.00    -0.248 NA
ATOM     43  C   UNL     1      -8.877   5.828  12.106  1.00  0.00     0.031 C 
ATOM     44  C   UNL     1      -7.342   1.801  11.424  1.00  0.00     0.029 A 
ATOM     45  N   UNL     1      -5.234   2.384  11.912  1.00  0.00    -0.354 N 
ATOM     46  C   UNL     1     -10.402   4.189  12.626  1.00  0.00     0.074 A 
ATOM     47  C   UNL     1     -10.172   5.581  12.316  1.00  0.00     0.031 C 
ATOM     48  C   UNL     1      -6.653   0.669  11.642  1.00  0.00     0.029 A 
ATOM     49  C   UNL     1      -5.383   1.035  12.248  1.00  0.00     0.049 A 
ATOM     50  H   UNL     1      -4.377   2.858  11.812  1.00  0.00     0.167 HD
ATOM     51  C   UNL     1     -11.503   3.390  12.691  1.00  0.00     0.031 A 
ATOM     52  C   UNL     1      -4.919   0.545  13.436  1.00  0.00     0.031 A 
ATOM     53  C   UNL     1     -11.153   1.999  12.963  1.00  0.00     0.049 A 
ATOM     54  C   UNL     1      -6.010   0.026  14.352  1.00  0.00     0.074 A 
ATOM     55  C   UNL     1     -11.003   0.886  12.151  1.00  0.00     0.029 A 
ATOM     56  N   UNL     1     -10.599   1.669  14.192  1.00  0.00    -0.354 N 
ATOM     57  N   UNL     1      -7.281   0.256  14.175  1.00  0.00    -0.248 NA
ATOM     58  C   UNL     1      -5.753  -0.743  15.570  1.00  0.00     0.031 C 
ATOM     59  C   UNL     1     -10.276  -0.092  12.880  1.00  0.00     0.029 A 
ATOM     60  C   UNL     1     -10.018   0.416  14.140  1.00  0.00     0.049 A 
ATOM     61  H   UNL     1     -10.617   2.246  14.989  1.00  0.00     0.167 HD
ATOM     62  C   UNL     1      -7.995  -0.273  15.216  1.00  0.00     0.074 A 
ATOM     63  C   UNL     1      -6.997  -0.909  16.055  1.00  0.00     0.031 C 
ATOM     64  C   UNL     1      -9.347  -0.121  15.315  1.00  0.00     0.031 A 
BRANCH  51  65
ATOM     65  C   UNL     1     -12.864   3.834  12.216  1.00  0.00    -0.014 A 
ATOM     66  C   UNL     1     -13.751   2.886  11.674  1.00  0.00     0.009 A 
ATOM     67  C   UNL     1     -13.309   5.166  12.215  1.00  0.00     0.009 A 
ATOM     68  C   UNL     1     -14.959   3.260  11.071  1.00  0.00     0.001 A 
ATOM     69  C   UNL     1     -14.493   5.554  11.574  1.00  0.00     0.001 A 
ATOM     70  C   UNL     1     -15.314   4.600  10.990  1.00  0.00     0.000 A 
ENDBRANCH  51  65
BRANCH  52  71
ATOM     71  C   UNL     1      -3.666   1.201  13.904  1.00  0.00    -0.014 A 
ATOM     72  C   UNL     1      -2.485   0.983  13.165  1.00  0.00     0.009 A 
ATOM     73  C   UNL     1      -3.704   2.275  14.804  1.00  0.00     0.009 A 
ATOM     74  C   UNL     1      -1.418   1.882  13.239  1.00  0.00     0.001 A 
ATOM     75  C   UNL     1      -2.628   3.169  14.880  1.00  0.00     0.001 A 
ATOM     76  C   UNL     1      -1.503   2.992  14.075  1.00  0.00     0.000 A 
ENDBRANCH  52  71
BRANCH  64  77
ATOM     77  C   UNL     1     -10.193  -0.488  16.505  1.00  0.00    -0.014 A 
ATOM     78  C   UNL     1      -9.729  -0.490  17.827  1.00  0.00     0.009 A 
ATOM     79  C   UNL     1     -11.577  -0.696  16.313  1.00  0.00     0.009 A 
ATOM     80  C   UNL     1     -10.601  -0.722  18.900  1.00  0.00     0.001 A 
ATOM     81  C   UNL     1     -12.456  -0.885  17.381  1.00  0.00     0.001 A 
ATOM     82  C   UNL     1     -11.964  -0.907  18.678  1.00  0.00     0.000 A 
ENDBRANCH  64  77
ENDBRANCH  38  39
ENDBRANCH  30  33
ENDBRANCH  28  29
ENDBRANCH  27  28
ENDBRANCH  26  27
ENDBRANCH   3  26
TORSDOF 15
