REMARK SMILES CC1=C(C)C(=O)N([C@@](C)(C(=O)NCCCNC(=O)c2ccc(-c3c4nc(c(-c5ccccc5)c5ccc([nH]5)c(-c5ccccc5)c5nc(c(-c6ccccc6)c6ccc3[nH]6)C=C5)C=C4)cc2)C(F)(F)F)C1=O
REMARK SMILES IDX 14 1 13 2 12 3 10 4 11 5 8 7 9 8 7 9 1 10 2 11 3 12 71 13
REMARK SMILES IDX 4 14 5 15 72 16 6 17 67 18 68 19 69 20 70 21 15 22 16 23
REMARK SMILES IDX 17 24 18 26 19 27 20 28 66 29 21 30 65 31 22 32 23 33 24 34
REMARK SMILES IDX 59 35 25 36 64 37 58 38 60 39 26 40 63 41 57 42 56 43 27 45
REMARK SMILES IDX 49 46 34 47 48 48 35 49 38 50 47 51 61 52 36 53 37 54 46 56
REMARK SMILES IDX 62 57 39 58 28 59 29 60 33 61 30 62 32 63 31 64 50 65 51 66
REMARK SMILES IDX 55 67 52 68 54 69 53 70 40 71 41 72 45 73 42 74 44 75 43 76
REMARK H PARENT 12 6 16 25 60 44 38 55
REMARK Flexibility Score: inf
ROOT
ATOM      1  C   UNL     1      -2.342   0.418  -2.985  1.00  0.00     0.042 C 
ENDROOT
BRANCH   1   2
ATOM      2  C   UNL     1      -1.991   1.470  -4.035  1.00  0.00     0.117 C 
BRANCH   2   3
ATOM      3  N   UNL     1      -2.372   2.797  -3.586  1.00  0.00    -0.354 N 
ATOM      4  C   UNL     1      -1.720   3.824  -2.981  1.00  0.00     0.255 C 
ATOM      5  O   UNL     1      -2.500   4.645  -2.483  1.00  0.00    -0.272 OA
ATOM      6  H   UNL     1      -3.320   2.999  -3.759  1.00  0.00     0.163 HD
BRANCH   4   7
ATOM      7  C   UNL     1      -0.184   3.954  -2.812  1.00  0.00     0.221 C 
ATOM      8  C   UNL     1       0.614   3.573  -4.081  1.00  0.00     0.056 C 
BRANCH   7   9
ATOM      9  N   UNL     1       0.299   3.188  -1.614  1.00  0.00    -0.250 N 
ATOM     10  C   UNL     1       1.300   0.110   0.190  1.00  0.00     0.051 C 
ATOM     11  C   UNL     1       0.991   1.500  -0.218  1.00  0.00     0.023 C 
ATOM     12  C   UNL     1       1.057   2.632   0.481  1.00  0.00     0.023 C 
ATOM     13  C   UNL     1       0.553   1.855  -1.573  1.00  0.00     0.258 C 
ATOM     14  C   UNL     1       1.574   2.852   1.852  1.00  0.00     0.051 C 
ATOM     15  C   UNL     1       0.582   3.718  -0.391  1.00  0.00     0.258 C 
ATOM     16  O   UNL     1       0.501   1.032  -2.468  1.00  0.00    -0.269 OA
ATOM     17  O   UNL     1       0.521   4.869  -0.018  1.00  0.00    -0.269 OA
ENDBRANCH   7   9
BRANCH   7  18
ATOM     18  C   UNL     1       0.035   5.500  -2.704  1.00  0.00     0.421 C 
ATOM     19  F   UNL     1      -0.651   6.134  -1.738  1.00  0.00    -0.168 F 
ATOM     20  F   UNL     1       1.355   5.773  -2.511  1.00  0.00    -0.168 F 
ATOM     21  F   UNL     1      -0.295   6.111  -3.877  1.00  0.00    -0.168 F 
ENDBRANCH   7  18
ENDBRANCH   4   7
ENDBRANCH   2   3
ENDBRANCH   1   2
BRANCH   1  22
ATOM     22  C   UNL     1      -3.815   0.028  -2.989  1.00  0.00     0.118 C 
BRANCH  22  23
ATOM     23  N   UNL     1      -4.158  -0.771  -4.155  1.00  0.00    -0.352 N 
ATOM     24  C   UNL     1      -4.637  -2.053  -4.245  1.00  0.00     0.251 C 
ATOM     25  H   UNL     1      -4.024  -0.319  -5.019  1.00  0.00     0.163 HD
ATOM     26  O   UNL     1      -4.625  -2.619  -5.335  1.00  0.00    -0.269 OA
BRANCH  24  27
ATOM     27  C   UNL     1      -5.173  -2.761  -3.060  1.00  0.00     0.039 A 
ATOM     28  C   UNL     1      -4.996  -4.147  -2.975  1.00  0.00     0.014 A 
ATOM     29  C   UNL     1      -5.924  -2.100  -2.083  1.00  0.00     0.014 A 
ATOM     30  C   UNL     1      -5.557  -4.861  -1.914  1.00  0.00     0.010 A 
ATOM     31  C   UNL     1      -6.411  -2.800  -0.981  1.00  0.00     0.010 A 
ATOM     32  C   UNL     1      -6.264  -4.192  -0.903  1.00  0.00    -0.014 A 
BRANCH  32  33
ATOM     33  C   UNL     1      -6.918  -4.942   0.199  1.00  0.00     0.031 A 
ATOM     34  C   UNL     1      -8.419  -4.942   0.321  1.00  0.00     0.074 A 
ATOM     35  C   UNL     1      -6.168  -5.599   1.103  1.00  0.00     0.049 A 
ATOM     36  N   UNL     1      -9.176  -5.513   1.225  1.00  0.00    -0.248 NA
ATOM     37  C   UNL     1      -9.169  -4.177  -0.690  1.00  0.00     0.031 C 
ATOM     38  C   UNL     1      -4.704  -5.649   1.118  1.00  0.00     0.029 A 
ATOM     39  N   UNL     1      -6.538  -6.356   2.187  1.00  0.00    -0.354 N 
ATOM     40  C   UNL     1     -10.481  -5.155   0.905  1.00  0.00     0.074 A 
ATOM     41  C   UNL     1     -10.411  -4.278  -0.242  1.00  0.00     0.031 C 
ATOM     42  C   UNL     1      -4.303  -6.425   2.138  1.00  0.00     0.029 A 
ATOM     43  C   UNL     1      -5.476  -6.900   2.865  1.00  0.00     0.049 A 
ATOM     44  H   UNL     1      -7.476  -6.494   2.452  1.00  0.00     0.167 HD
ATOM     45  C   UNL     1     -11.638  -5.539   1.496  1.00  0.00     0.031 A 
ATOM     46  C   UNL     1      -5.451  -7.700   3.947  1.00  0.00     0.031 A 
ATOM     47  C   UNL     1     -11.712  -6.433   2.620  1.00  0.00     0.049 A 
ATOM     48  C   UNL     1      -6.748  -8.134   4.570  1.00  0.00     0.074 A 
ATOM     49  C   UNL     1     -12.836  -6.920   3.264  1.00  0.00     0.029 A 
ATOM     50  N   UNL     1     -10.613  -6.983   3.260  1.00  0.00    -0.354 N 
ATOM     51  N   UNL     1      -7.975  -7.828   4.224  1.00  0.00    -0.248 NA
ATOM     52  C   UNL     1      -6.655  -9.044   5.721  1.00  0.00     0.031 C 
ATOM     53  C   UNL     1     -12.415  -7.741   4.316  1.00  0.00     0.029 A 
ATOM     54  C   UNL     1     -11.030  -7.801   4.295  1.00  0.00     0.049 A 
ATOM     55  H   UNL     1      -9.674  -6.817   3.014  1.00  0.00     0.167 HD
ATOM     56  C   UNL     1      -8.800  -8.533   5.091  1.00  0.00     0.074 A 
ATOM     57  C   UNL     1      -7.933  -9.292   5.969  1.00  0.00     0.031 C 
ATOM     58  C   UNL     1     -10.153  -8.554   5.152  1.00  0.00     0.031 A 
BRANCH  45  59
ATOM     59  C   UNL     1     -12.917  -4.987   0.931  1.00  0.00    -0.014 A 
ATOM     60  C   UNL     1     -13.393  -5.396  -0.326  1.00  0.00     0.009 A 
ATOM     61  C   UNL     1     -13.667  -4.060   1.671  1.00  0.00     0.009 A 
ATOM     62  C   UNL     1     -14.572  -4.858  -0.847  1.00  0.00     0.001 A 
ATOM     63  C   UNL     1     -14.861  -3.545   1.160  1.00  0.00     0.001 A 
ATOM     64  C   UNL     1     -15.306  -3.936  -0.102  1.00  0.00     0.000 A 
ENDBRANCH  45  59
BRANCH  46  65
ATOM     65  C   UNL     1      -4.154  -8.181   4.488  1.00  0.00    -0.014 A 
ATOM     66  C   UNL     1      -3.772  -9.522   4.328  1.00  0.00     0.009 A 
ATOM     67  C   UNL     1      -3.294  -7.307   5.171  1.00  0.00     0.009 A 
ATOM     68  C   UNL     1      -2.569  -9.985   4.866  1.00  0.00     0.001 A 
ATOM     69  C   UNL     1      -2.079  -7.767   5.684  1.00  0.00     0.001 A 
ATOM     70  C   UNL     1      -1.723  -9.107   5.540  1.00  0.00     0.000 A 
ENDBRANCH  46  65
BRANCH  58  71
ATOM     71  C   UNL     1     -10.777  -9.465   6.171  1.00  0.00    -0.014 A 
ATOM     72  C   UNL     1     -10.739  -9.166   7.541  1.00  0.00     0.009 A 
ATOM     73  C   UNL     1     -11.435 -10.630   5.744  1.00  0.00     0.009 A 
ATOM     74  C   UNL     1     -11.315 -10.037   8.468  1.00  0.00     0.001 A 
ATOM     75  C   UNL     1     -12.033 -11.484   6.671  1.00  0.00     0.001 A 
ATOM     76  C   UNL     1     -11.963 -11.193   8.032  1.00  0.00     0.000 A 
ENDBRANCH  58  71
ENDBRANCH  32  33
ENDBRANCH  24  27
ENDBRANCH  22  23
ENDBRANCH   1  22
TORSDOF 12
