REMARK SMILES O=C(N/N=C\c1ccccc1C(=O)NCCCNC(=O)c1ccc(-c2c3nc(c(-c4ccccc4)c4ccc([nH]4)c(-c4ccccc4)c4nc(c(-c5ccccc5)c5ccc2[nH]5)C=C4)C=C3)cc1)C(=O)N1CCCCC1
REMARK SMILES IDX 15 1 14 2 12 3 13 4 11 6 6 7 7 8 8 9 10 10 9 11 5 12 4 13
REMARK SMILES IDX 3 14 1 15 2 16 69 18 70 19 71 20 72 21 76 22 73 23 75 24
REMARK SMILES IDX 74 25 16 26 17 27 18 28 19 29 20 31 21 32 22 33 68 34 23 35
REMARK SMILES IDX 67 36 24 37 25 38 26 39 61 40 27 41 66 42 60 43 62 44 28 45
REMARK SMILES IDX 65 46 59 47 58 48 29 50 51 51 36 52 50 53 37 54 40 55 49 56
REMARK SMILES IDX 63 57 38 58 39 59 48 61 64 62 41 63 30 64 31 65 35 66 32 67
REMARK SMILES IDX 34 68 33 69 52 70 53 71 57 72 54 73 56 74 55 75 42 76 43 77
REMARK SMILES IDX 47 78 44 79 46 80 45 81
REMARK H PARENT 14 5 3 17 18 30 62 49 40 60
REMARK Flexibility Score: inf
ROOT
ATOM      1  C   UNL     1       4.026  -0.803   2.600  1.00  0.00     0.118 C 
ENDROOT
BRANCH   1   2
ATOM      2  N   UNL     1       3.247   0.377   2.703  1.00  0.00    -0.352 N 
ATOM      3  C   UNL     1       3.020   1.352   1.795  1.00  0.00     0.251 C 
ATOM      4  O   UNL     1       2.407   2.341   2.197  1.00  0.00    -0.269 OA
ATOM      5  H   UNL     1       2.802   0.506   3.571  1.00  0.00     0.163 HD
BRANCH   3   6
ATOM      6  C   UNL     1       3.472   1.328   0.384  1.00  0.00     0.048 A 
ATOM      7  C   UNL     1       3.844  -0.068  -0.739  1.00  0.00     0.007 A 
ATOM      8  C   UNL     1       3.916   0.195  -2.568  1.00  0.00     0.010 A 
ATOM      9  C   UNL     1       3.826   1.868  -3.230  1.00  0.00     0.001 A 
ATOM     10  C   UNL     1       3.239   2.974  -0.344  1.00  0.00     0.014 A 
ATOM     11  C   UNL     1       3.511   3.267  -2.129  1.00  0.00     0.001 A 
BRANCH   7  12
ATOM     12  C   UNL     1       3.796  -1.479  -0.485  1.00  0.00     0.142 C 
ATOM     13  N   UNL     1       2.659  -2.053  -0.569  1.00  0.00    -0.180 NA
BRANCH  13  14
ATOM     14  N   UNL     1       1.623  -1.206  -0.808  1.00  0.00    -0.239 N 
ATOM     15  O   UNL     1       0.369   0.580  -0.731  1.00  0.00    -0.262 OA
ATOM     16  C   UNL     1       1.523   0.188  -0.979  1.00  0.00     0.329 C 
ATOM     17  H   UNL     1       0.755  -1.667  -0.876  1.00  0.00     0.194 HD
BRANCH  16  18
ATOM     18  C   UNL     1       2.667   1.399  -1.532  1.00  0.00     0.313 C 
ATOM     19  O   UNL     1       1.766   2.135  -2.078  1.00  0.00    -0.263 OA
ATOM     20  N   UNL     1       4.633   1.690  -1.300  1.00  0.00    -0.334 N 
ATOM     21  C   UNL     1       5.563   3.050  -0.848  1.00  0.00     0.120 C 
ATOM     22  C   UNL     1       5.988   0.638  -1.442  1.00  0.00     0.120 C 
ATOM     23  C   UNL     1       6.638   3.454  -1.870  1.00  0.00     0.022 C 
ATOM     24  C   UNL     1       6.963   1.096  -2.534  1.00  0.00     0.022 C 
ATOM     25  C   UNL     1       7.661   2.371  -2.130  1.00  0.00     0.004 C 
ENDBRANCH  16  18
ENDBRANCH  13  14
ENDBRANCH   7  12
ENDBRANCH   3   6
ENDBRANCH   1   2
BRANCH   1  26
ATOM     26  C   UNL     1       5.445  -0.615   3.081  1.00  0.00     0.042 C 
BRANCH  26  27
ATOM     27  C   UNL     1       5.699  -1.563   4.223  1.00  0.00     0.118 C 
BRANCH  27  28
ATOM     28  N   UNL     1       5.436  -2.961   3.874  1.00  0.00    -0.352 N 
ATOM     29  C   UNL     1       6.015  -4.093   4.386  1.00  0.00     0.251 C 
ATOM     30  H   UNL     1       4.754  -3.107   3.180  1.00  0.00     0.163 HD
ATOM     31  O   UNL     1       5.720  -5.201   3.958  1.00  0.00    -0.269 OA
BRANCH  29  32
ATOM     32  C   UNL     1       7.061  -3.922   5.402  1.00  0.00     0.039 A 
ATOM     33  C   UNL     1       8.278  -4.575   5.217  1.00  0.00     0.014 A 
ATOM     34  C   UNL     1       6.887  -2.989   6.424  1.00  0.00     0.014 A 
ATOM     35  C   UNL     1       9.351  -4.229   6.027  1.00  0.00     0.010 A 
ATOM     36  C   UNL     1       7.996  -2.523   7.100  1.00  0.00     0.010 A 
ATOM     37  C   UNL     1       9.228  -3.167   6.939  1.00  0.00    -0.014 A 
BRANCH  37  38
ATOM     38  C   UNL     1      10.359  -2.752   7.791  1.00  0.00     0.031 A 
ATOM     39  C   UNL     1      10.205  -2.811   9.285  1.00  0.00     0.074 A 
ATOM     40  C   UNL     1      11.485  -2.282   7.222  1.00  0.00     0.049 A 
ATOM     41  N   UNL     1      11.054  -2.461  10.215  1.00  0.00    -0.248 NA
ATOM     42  C   UNL     1       8.909  -3.283   9.809  1.00  0.00     0.031 C 
ATOM     43  C   UNL     1      11.713  -2.126   5.783  1.00  0.00     0.029 A 
ATOM     44  N   UNL     1      12.656  -1.860   7.792  1.00  0.00    -0.354 N 
ATOM     45  C   UNL     1      10.384  -2.647  11.417  1.00  0.00     0.074 A 
ATOM     46  C   UNL     1       9.036  -3.050  11.103  1.00  0.00     0.031 C 
ATOM     47  C   UNL     1      12.970  -1.698   5.582  1.00  0.00     0.029 A 
ATOM     48  C   UNL     1      13.615  -1.503   6.875  1.00  0.00     0.049 A 
ATOM     49  H   UNL     1      12.798  -1.815   8.765  1.00  0.00     0.167 HD
ATOM     50  C   UNL     1      10.862  -2.531  12.676  1.00  0.00     0.031 A 
ATOM     51  C   UNL     1      14.875  -1.073   7.065  1.00  0.00     0.031 A 
ATOM     52  C   UNL     1      12.214  -2.156  12.973  1.00  0.00     0.049 A 
ATOM     53  C   UNL     1      15.386  -0.953   8.474  1.00  0.00     0.074 A 
ATOM     54  C   UNL     1      12.833  -2.066  14.206  1.00  0.00     0.029 A 
ATOM     55  N   UNL     1      13.159  -1.809  12.018  1.00  0.00    -0.354 N 
ATOM     56  N   UNL     1      14.767  -1.208   9.603  1.00  0.00    -0.248 NA
ATOM     57  C   UNL     1      16.773  -0.499   8.634  1.00  0.00     0.031 C 
ATOM     58  C   UNL     1      14.135  -1.601  14.000  1.00  0.00     0.029 A 
ATOM     59  C   UNL     1      14.349  -1.474  12.635  1.00  0.00     0.049 A 
ATOM     60  H   UNL     1      13.004  -1.802  11.046  1.00  0.00     0.167 HD
ATOM     61  C   UNL     1      15.698  -0.974  10.606  1.00  0.00     0.074 A 
ATOM     62  C   UNL     1      16.927  -0.576   9.948  1.00  0.00     0.031 C 
ATOM     63  C   UNL     1      15.554  -1.078  11.951  1.00  0.00     0.031 A 
BRANCH  50  64
ATOM     64  C   UNL     1       9.909  -2.811  13.804  1.00  0.00    -0.014 A 
ATOM     65  C   UNL     1       9.386  -4.098  14.023  1.00  0.00     0.009 A 
ATOM     66  C   UNL     1       9.522  -1.770  14.662  1.00  0.00     0.009 A 
ATOM     67  C   UNL     1       8.462  -4.324  15.045  1.00  0.00     0.001 A 
ATOM     68  C   UNL     1       8.627  -2.008  15.706  1.00  0.00     0.001 A 
ATOM     69  C   UNL     1       8.088  -3.280  15.889  1.00  0.00     0.000 A 
ENDBRANCH  50  64
BRANCH  51  70
ATOM     70  C   UNL     1      15.740  -0.755   5.899  1.00  0.00    -0.014 A 
ATOM     71  C   UNL     1      16.846  -1.562   5.588  1.00  0.00     0.009 A 
ATOM     72  C   UNL     1      15.462   0.354   5.085  1.00  0.00     0.009 A 
ATOM     73  C   UNL     1      17.673  -1.246   4.507  1.00  0.00     0.001 A 
ATOM     74  C   UNL     1      16.271   0.648   3.985  1.00  0.00     0.001 A 
ATOM     75  C   UNL     1      17.382  -0.145   3.703  1.00  0.00     0.000 A 
ENDBRANCH  51  70
BRANCH  63  76
ATOM     76  C   UNL     1      16.765  -0.793  12.792  1.00  0.00    -0.014 A 
ATOM     77  C   UNL     1      17.273   0.507  12.928  1.00  0.00     0.009 A 
ATOM     78  C   UNL     1      17.378  -1.843  13.496  1.00  0.00     0.009 A 
ATOM     79  C   UNL     1      18.395   0.745  13.722  1.00  0.00     0.001 A 
ATOM     80  C   UNL     1      18.476  -1.596  14.318  1.00  0.00     0.001 A 
ATOM     81  C   UNL     1      18.991  -0.305  14.421  1.00  0.00     0.000 A 
ENDBRANCH  63  76
ENDBRANCH  37  38
ENDBRANCH  29  32
ENDBRANCH  27  28
ENDBRANCH  26  27
ENDBRANCH   1  26
TORSDOF 13
