REMARK SMILES O=C(CO/N=C\c1ccccc1)Nc1ccccc1C(=O)NCCCNC(=O)c1ccc(-c2c3nc(c(-c4ccccc4)c4ccc([nH]4)c(-c4ccccc4)c4nc(c(-c5ccccc5)c5ccc2[nH]5)C=C4)C=C3)cc1
REMARK SMILES IDX 20 1 21 2 22 3 19 5 14 6 15 7 16 8 18 9 17 10 13 11 1 12
REMARK SMILES IDX 2 13 3 15 4 16 5 17 6 18 7 19 8 20 12 21 9 22 11 23 10 24
REMARK SMILES IDX 23 25 24 26 25 27 26 28 27 29 28 31 29 32 30 33 76 34 31 35
REMARK SMILES IDX 75 36 32 37 33 38 34 39 69 40 35 41 74 42 68 43 70 44 36 45
REMARK SMILES IDX 73 46 67 47 66 48 37 50 59 51 44 52 58 53 45 54 48 55 57 56
REMARK SMILES IDX 71 57 46 58 47 59 56 61 72 62 49 63 38 64 39 65 43 66 40 67
REMARK SMILES IDX 42 68 41 69 60 70 61 71 65 72 62 73 64 74 63 75 50 76 51 77
REMARK SMILES IDX 55 78 52 79 54 80 53 81
REMARK H PARENT 22 4 13 14 26 30 70 49 48 60
REMARK Flexibility Score: inf
ROOT
ATOM      1  C   UNL     1       0.827  -0.159  -2.294  1.00  0.00     0.253 C 
ATOM      2  O   UNL     1      -0.264   0.208  -2.733  1.00  0.00    -0.269 OA
ATOM      3  N   UNL     1       1.841   0.774  -2.221  1.00  0.00    -0.352 N 
ATOM      4  H   UNL     1       1.615   1.673  -2.552  1.00  0.00     0.163 HD
ENDROOT
BRANCH   1   5
ATOM      5  C   UNL     1       1.077  -1.610  -2.048  1.00  0.00     0.063 A 
ATOM      6  C   UNL     1       1.839  -2.186  -1.012  1.00  0.00     0.054 A 
ATOM      7  C   UNL     1       2.260  -3.520  -1.155  1.00  0.00     0.027 A 
ATOM      8  C   UNL     1       1.813  -4.313  -2.217  1.00  0.00     0.002 A 
ATOM      9  C   UNL     1       0.593  -2.437  -3.085  1.00  0.00     0.016 A 
ATOM     10  C   UNL     1       0.944  -3.783  -3.160  1.00  0.00     0.001 A 
BRANCH   6  11
ATOM     11  N   UNL     1       2.231  -1.562   0.198  1.00  0.00    -0.322 N 
ATOM     12  O   UNL     1       0.420  -0.160   0.554  1.00  0.00    -0.271 OA
ATOM     13  C   UNL     1       1.548  -0.548   0.848  1.00  0.00     0.265 C 
ATOM     14  H   UNL     1       3.065  -1.877   0.614  1.00  0.00     0.170 HD
BRANCH  13  15
ATOM     15  C   UNL     1       2.367   0.158   1.933  1.00  0.00     0.363 C 
BRANCH  15  16
ATOM     16  O   UNL     1       3.529  -0.533   2.366  1.00  0.00    -0.386 OA
BRANCH  16  17
ATOM     17  N   UNL     1       3.255  -1.133   3.598  1.00  0.00    -0.094 NA
ATOM     18  C   UNL     1       4.319  -1.295   4.325  1.00  0.00     0.162 C 
BRANCH  18  19
ATOM     19  C   UNL     1       5.706  -0.892   4.036  1.00  0.00    -0.004 A 
ATOM     20  C   UNL     1       6.702  -1.856   4.217  1.00  0.00     0.010 A 
ATOM     21  C   UNL     1       6.041   0.420   3.694  1.00  0.00     0.010 A 
ATOM     22  C   UNL     1       8.041  -1.513   4.029  1.00  0.00     0.001 A 
ATOM     23  C   UNL     1       7.386   0.761   3.525  1.00  0.00     0.001 A 
ATOM     24  C   UNL     1       8.382  -0.204   3.688  1.00  0.00     0.000 A 
ENDBRANCH  18  19
ENDBRANCH  16  17
ENDBRANCH  15  16
ENDBRANCH  13  15
ENDBRANCH   6  11
ENDBRANCH   1   5
BRANCH   3  25
ATOM     25  C   UNL     1       3.190   0.613  -1.726  1.00  0.00     0.118 C 
BRANCH  25  26
ATOM     26  C   UNL     1       4.152   1.737  -2.054  1.00  0.00     0.042 C 
BRANCH  26  27
ATOM     27  C   UNL     1       3.721   3.114  -1.558  1.00  0.00     0.118 C 
BRANCH  27  28
ATOM     28  N   UNL     1       3.600   3.237  -0.104  1.00  0.00    -0.352 N 
ATOM     29  C   UNL     1       4.430   3.775   0.855  1.00  0.00     0.251 C 
ATOM     30  H   UNL     1       2.764   2.864   0.258  1.00  0.00     0.163 HD
ATOM     31  O   UNL     1       4.181   3.599   2.047  1.00  0.00    -0.269 OA
BRANCH  29  32
ATOM     32  C   UNL     1       5.641   4.534   0.470  1.00  0.00     0.039 A 
ATOM     33  C   UNL     1       6.812   4.423   1.227  1.00  0.00     0.014 A 
ATOM     34  C   UNL     1       5.629   5.355  -0.651  1.00  0.00     0.014 A 
ATOM     35  C   UNL     1       7.995   5.019   0.772  1.00  0.00     0.010 A 
ATOM     36  C   UNL     1       6.823   5.814  -1.181  1.00  0.00     0.010 A 
ATOM     37  C   UNL     1       8.025   5.656  -0.477  1.00  0.00    -0.014 A 
BRANCH  37  38
ATOM     38  C   UNL     1       9.271   6.186  -1.093  1.00  0.00     0.031 A 
ATOM     39  C   UNL     1       9.327   7.628  -1.530  1.00  0.00     0.074 A 
ATOM     40  C   UNL     1      10.285   5.350  -1.393  1.00  0.00     0.049 A 
ATOM     41  N   UNL     1      10.216   8.234  -2.275  1.00  0.00    -0.248 NA
ATOM     42  C   UNL     1       8.202   8.488  -1.122  1.00  0.00     0.031 C 
ATOM     43  C   UNL     1      10.338   3.920  -1.076  1.00  0.00     0.029 A 
ATOM     44  N   UNL     1      11.463   5.582  -2.059  1.00  0.00    -0.354 N 
ATOM     45  C   UNL     1       9.731   9.523  -2.463  1.00  0.00     0.074 A 
ATOM     46  C   UNL     1       8.444   9.593  -1.808  1.00  0.00     0.031 C 
ATOM     47  C   UNL     1      11.497   3.411  -1.523  1.00  0.00     0.029 A 
ATOM     48  C   UNL     1      12.245   4.460  -2.206  1.00  0.00     0.049 A 
ATOM     49  H   UNL     1      11.724   6.468  -2.400  1.00  0.00     0.167 HD
ATOM     50  C   UNL     1      10.312  10.565  -3.102  1.00  0.00     0.031 A 
ATOM     51  C   UNL     1      13.423   4.291  -2.836  1.00  0.00     0.031 A 
ATOM     52  C   UNL     1      11.611  10.505  -3.714  1.00  0.00     0.049 A 
ATOM     53  C   UNL     1      14.061   5.468  -3.522  1.00  0.00     0.074 A 
ATOM     54  C   UNL     1      12.329  11.523  -4.315  1.00  0.00     0.029 A 
ATOM     55  N   UNL     1      12.390   9.361  -3.794  1.00  0.00    -0.354 N 
ATOM     56  N   UNL     1      13.620   6.697  -3.634  1.00  0.00    -0.248 NA
ATOM     57  C   UNL     1      15.364   5.235  -4.160  1.00  0.00     0.031 C 
ATOM     58  C   UNL     1      13.523  10.984  -4.803  1.00  0.00     0.029 A 
ATOM     59  C   UNL     1      13.574   9.644  -4.451  1.00  0.00     0.049 A 
ATOM     60  H   UNL     1      12.138   8.479  -3.436  1.00  0.00     0.167 HD
ATOM     61  C   UNL     1      14.605   7.392  -4.324  1.00  0.00     0.074 A 
ATOM     62  C   UNL     1      15.671   6.449  -4.594  1.00  0.00     0.031 C 
ATOM     63  C   UNL     1      14.627   8.694  -4.699  1.00  0.00     0.031 A 
BRANCH  50  64
ATOM     64  C   UNL     1       9.546  11.858  -3.164  1.00  0.00    -0.014 A 
ATOM     65  C   UNL     1       9.297  12.618  -2.008  1.00  0.00     0.009 A 
ATOM     66  C   UNL     1       9.084  12.338  -4.399  1.00  0.00     0.009 A 
ATOM     67  C   UNL     1       8.563  13.803  -2.082  1.00  0.00     0.001 A 
ATOM     68  C   UNL     1       8.381  13.542  -4.476  1.00  0.00     0.001 A 
ATOM     69  C   UNL     1       8.110  14.267  -3.316  1.00  0.00     0.000 A 
ENDBRANCH  50  64
BRANCH  51  70
ATOM     70  C   UNL     1      14.091   2.962  -2.829  1.00  0.00    -0.014 A 
ATOM     71  C   UNL     1      15.265   2.763  -2.086  1.00  0.00     0.009 A 
ATOM     72  C   UNL     1      13.566   1.887  -3.564  1.00  0.00     0.009 A 
ATOM     73  C   UNL     1      15.915   1.526  -2.102  1.00  0.00     0.001 A 
ATOM     74  C   UNL     1      14.201   0.643  -3.553  1.00  0.00     0.001 A 
ATOM     75  C   UNL     1      15.380   0.466  -2.831  1.00  0.00     0.000 A 
ENDBRANCH  51  70
BRANCH  63  76
ATOM     76  C   UNL     1      15.861   9.192  -5.396  1.00  0.00    -0.014 A 
ATOM     77  C   UNL     1      16.151   8.831  -6.720  1.00  0.00     0.009 A 
ATOM     78  C   UNL     1      16.715  10.087  -4.731  1.00  0.00     0.009 A 
ATOM     79  C   UNL     1      17.288   9.335  -7.354  1.00  0.00     0.001 A 
ATOM     80  C   UNL     1      17.833  10.613  -5.378  1.00  0.00     0.001 A 
ATOM     81  C   UNL     1      18.123  10.230  -6.686  1.00  0.00     0.000 A 
ENDBRANCH  63  76
ENDBRANCH  37  38
ENDBRANCH  29  32
ENDBRANCH  27  28
ENDBRANCH  26  27
ENDBRANCH  25  26
ENDBRANCH   3  25
TORSDOF 15
