REMARK SMILES CSc1ccc(/C=C2\C(C)=C(CC(=O)NCCCNC(=O)c3ccc(-c4c5nc(c(-c6ccccc6)c6ccc([nH]6)c(-c6ccccc6)c6nc(c(-c7ccccc7)c7ccc4[nH]7)C=C6)C=C5)cc3)c3cc(F)ccc32)cc1
REMARK SMILES IDX 16 1 15 2 13 3 14 4 12 6 11 7 7 8 8 9 9 10 76 11 10 12 70 13
REMARK SMILES IDX 75 14 71 15 74 16 72 17 73 18 6 19 3 20 4 21 78 22 5 23
REMARK SMILES IDX 77 24 2 25 1 26 17 27 18 28 19 29 20 30 21 32 22 33 23 34
REMARK SMILES IDX 69 35 24 36 68 37 25 38 26 39 27 40 62 41 28 42 67 43 61 44
REMARK SMILES IDX 63 45 29 46 66 47 60 48 59 49 30 51 52 52 37 53 51 54 38 55
REMARK SMILES IDX 41 56 50 57 64 58 39 59 40 60 49 62 65 63 42 64 31 65 32 66
REMARK SMILES IDX 36 67 33 68 35 69 34 70 53 71 54 72 58 73 55 74 57 75 56 76
REMARK SMILES IDX 43 77 44 78 48 79 45 80 47 81 46 82
REMARK H PARENT 15 5 19 31 63 50 41 61
REMARK Flexibility Score: inf
ROOT
ATOM      1  C   UNL     1       0.999   8.174   4.457  1.00  0.00     0.117 C 
ENDROOT
BRANCH   1   2
ATOM      2  N   UNL     1       2.102   8.569   5.313  1.00  0.00    -0.356 N 
ATOM      3  C   UNL     1       3.422   8.237   5.219  1.00  0.00     0.224 C 
ATOM      4  O   UNL     1       4.181   8.569   6.131  1.00  0.00    -0.275 OA
ATOM      5  H   UNL     1       1.866   9.158   6.066  1.00  0.00     0.163 HD
BRANCH   3   6
ATOM      6  C   UNL     1       3.917   7.471   4.011  1.00  0.00     0.136 C 
BRANCH   6   7
ATOM      7  C   UNL     1       3.819   5.977   4.259  1.00  0.00    -0.027 C 
ATOM      8  C   UNL     1       3.766   4.816   0.997  1.00  0.00     0.017 C 
ATOM      9  C   UNL     1       4.039   4.888   2.310  1.00  0.00    -0.014 C 
ATOM     10  C   UNL     1       3.108   5.168   3.423  1.00  0.00    -0.039 C 
ATOM     11  C   UNL     1       5.343   4.713   2.982  1.00  0.00    -0.010 A 
ATOM     12  C   UNL     1       2.563   3.842   3.986  1.00  0.00     0.045 C 
ATOM     13  C   UNL     1       5.148   5.316   4.244  1.00  0.00    -0.011 A 
ATOM     14  C   UNL     1       6.313   3.743   2.800  1.00  0.00     0.012 A 
ATOM     15  C   UNL     1       5.893   4.962   5.354  1.00  0.00     0.048 A 
ATOM     16  C   UNL     1       7.058   3.361   3.924  1.00  0.00     0.040 A 
ATOM     17  C   UNL     1       6.836   3.959   5.178  1.00  0.00     0.123 A 
ATOM     18  F   UNL     1       7.473   3.473   6.252  1.00  0.00    -0.207 F 
BRANCH   8  19
ATOM     19  C   UNL     1       2.445   4.674   0.325  1.00  0.00    -0.025 A 
ATOM     20  C   UNL     1       0.476   3.129  -0.912  1.00  0.00     0.007 A 
ATOM     21  C   UNL     1       0.325   3.499   0.418  1.00  0.00     0.015 A 
ATOM     22  C   UNL     1       1.450   3.755  -1.688  1.00  0.00     0.015 A 
ATOM     23  C   UNL     1       1.285   4.310   1.016  1.00  0.00     0.009 A 
ATOM     24  C   UNL     1       2.437   4.529  -1.068  1.00  0.00     0.009 A 
BRANCH  20  25
ATOM     25  S   UNL     1      -0.374   1.690  -1.526  1.00  0.00    -0.130 SA
ATOM     26  C   UNL     1       0.497   0.452  -0.501  1.00  0.00     0.091 C 
ENDBRANCH  20  25
ENDBRANCH   8  19
ENDBRANCH   6   7
ENDBRANCH   3   6
ENDBRANCH   1   2
BRANCH   1  27
ATOM     27  C   UNL     1       0.387   6.846   4.885  1.00  0.00     0.042 C 
BRANCH  27  28
ATOM     28  C   UNL     1      -0.115   6.825   6.319  1.00  0.00     0.118 C 
BRANCH  28  29
ATOM     29  N   UNL     1      -1.209   7.758   6.514  1.00  0.00    -0.352 N 
ATOM     30  C   UNL     1      -2.546   7.516   6.657  1.00  0.00     0.251 C 
ATOM     31  H   UNL     1      -0.949   8.707   6.548  1.00  0.00     0.163 HD
ATOM     32  O   UNL     1      -3.349   8.439   6.492  1.00  0.00    -0.269 OA
BRANCH  30  33
ATOM     33  C   UNL     1      -3.040   6.171   7.016  1.00  0.00     0.039 A 
ATOM     34  C   UNL     1      -4.257   5.734   6.485  1.00  0.00     0.014 A 
ATOM     35  C   UNL     1      -2.356   5.374   7.939  1.00  0.00     0.014 A 
ATOM     36  C   UNL     1      -4.780   4.498   6.872  1.00  0.00     0.010 A 
ATOM     37  C   UNL     1      -2.830   4.104   8.252  1.00  0.00     0.010 A 
ATOM     38  C   UNL     1      -4.067   3.672   7.754  1.00  0.00    -0.014 A 
BRANCH  38  39
ATOM     39  C   UNL     1      -4.634   2.390   8.235  1.00  0.00     0.031 A 
ATOM     40  C   UNL     1      -4.965   2.223   9.695  1.00  0.00     0.074 A 
ATOM     41  C   UNL     1      -4.809   1.368   7.378  1.00  0.00     0.049 A 
ATOM     42  N   UNL     1      -5.419   1.170  10.326  1.00  0.00    -0.248 NA
ATOM     43  C   UNL     1      -4.725   3.385  10.569  1.00  0.00     0.031 C 
ATOM     44  C   UNL     1      -4.495   1.395   5.948  1.00  0.00     0.029 A 
ATOM     45  N   UNL     1      -5.296   0.103   7.590  1.00  0.00    -0.354 N 
ATOM     46  C   UNL     1      -5.488   1.533  11.666  1.00  0.00     0.074 A 
ATOM     47  C   UNL     1      -4.983   2.884  11.766  1.00  0.00     0.031 C 
ATOM     48  C   UNL     1      -4.827   0.212   5.405  1.00  0.00     0.029 A 
ATOM     49  C   UNL     1      -5.343  -0.664   6.452  1.00  0.00     0.049 A 
ATOM     50  H   UNL     1      -5.583  -0.223   8.473  1.00  0.00     0.167 HD
ATOM     51  C   UNL     1      -5.950   0.817  12.717  1.00  0.00     0.031 A 
ATOM     52  C   UNL     1      -5.762  -1.930   6.274  1.00  0.00     0.031 A 
ATOM     53  C   UNL     1      -6.482  -0.514  12.611  1.00  0.00     0.049 A 
ATOM     54  C   UNL     1      -6.291  -2.699   7.453  1.00  0.00     0.074 A 
ATOM     55  C   UNL     1      -7.032  -1.306  13.603  1.00  0.00     0.029 A 
ATOM     56  N   UNL     1      -6.536  -1.246  11.435  1.00  0.00    -0.354 N 
ATOM     57  N   UNL     1      -6.404  -2.320   8.703  1.00  0.00    -0.248 NA
ATOM     58  C   UNL     1      -6.767  -4.064   7.189  1.00  0.00     0.031 C 
ATOM     59  C   UNL     1      -7.384  -2.535  13.033  1.00  0.00     0.029 A 
ATOM     60  C   UNL     1      -7.099  -2.486  11.678  1.00  0.00     0.049 A 
ATOM     61  H   UNL     1      -6.220  -0.930  10.558  1.00  0.00     0.167 HD
ATOM     62  C   UNL     1      -6.997  -3.385   9.368  1.00  0.00     0.074 A 
ATOM     63  C   UNL     1      -7.228  -4.420   8.380  1.00  0.00     0.031 C 
ATOM     64  C   UNL     1      -7.327  -3.497  10.678  1.00  0.00     0.031 A 
BRANCH  51  65
ATOM     65  C   UNL     1      -5.893   1.464  14.074  1.00  0.00    -0.014 A 
ATOM     66  C   UNL     1      -6.728   2.543  14.403  1.00  0.00     0.009 A 
ATOM     67  C   UNL     1      -5.002   0.976  15.042  1.00  0.00     0.009 A 
ATOM     68  C   UNL     1      -6.642   3.148  15.660  1.00  0.00     0.001 A 
ATOM     69  C   UNL     1      -4.939   1.563  16.308  1.00  0.00     0.001 A 
ATOM     70  C   UNL     1      -5.751   2.654  16.611  1.00  0.00     0.000 A 
ENDBRANCH  51  65
BRANCH  52  71
ATOM     71  C   UNL     1      -5.735  -2.539   4.920  1.00  0.00    -0.014 A 
ATOM     72  C   UNL     1      -6.932  -2.765   4.221  1.00  0.00     0.009 A 
ATOM     73  C   UNL     1      -4.519  -2.899   4.319  1.00  0.00     0.009 A 
ATOM     74  C   UNL     1      -6.913  -3.364   2.960  1.00  0.00     0.001 A 
ATOM     75  C   UNL     1      -4.502  -3.473   3.046  1.00  0.00     0.001 A 
ATOM     76  C   UNL     1      -5.698  -3.714   2.372  1.00  0.00     0.000 A 
ENDBRANCH  52  71
BRANCH  64  77
ATOM     77  C   UNL     1      -8.017  -4.760  11.105  1.00  0.00    -0.014 A 
ATOM     78  C   UNL     1      -7.324  -5.976  11.201  1.00  0.00     0.009 A 
ATOM     79  C   UNL     1      -9.377  -4.720  11.449  1.00  0.00     0.009 A 
ATOM     80  C   UNL     1      -7.991  -7.137  11.599  1.00  0.00     0.001 A 
ATOM     81  C   UNL     1     -10.034  -5.875  11.874  1.00  0.00     0.001 A 
ATOM     82  C   UNL     1      -9.343  -7.084  11.938  1.00  0.00     0.000 A 
ENDBRANCH  64  77
ENDBRANCH  38  39
ENDBRANCH  30  33
ENDBRANCH  28  29
ENDBRANCH  27  28
ENDBRANCH   1  27
TORSDOF 13
