REMARK SMILES CC(C)C(=O)Nc1ccc2c([C@H](C(=O)NCCCNC(=O)c3ccc(-c4c5nc(c(-c6ccccc6)c6ccc([nH]6)c(-c6ccccc6)c6nc(c(-c7ccccc7)c7ccc4[nH]7)C=C6)C=C5)cc3)[NH+]3CC[NH+](CC(=O)N(C)C)CC3)c[nH]c2c1
REMARK SMILES IDX 16 1 15 2 13 3 14 4 12 6 11 7 7 8 8 9 85 10 9 11 84 12 10 13
REMARK SMILES IDX 83 14 82 15 6 17 4 18 5 19 2 21 1 22 3 23 70 24 71 25 81 26
REMARK SMILES IDX 72 28 80 29 73 30 74 32 75 33 76 34 77 35 78 36 79 37 17 38
REMARK SMILES IDX 18 39 19 40 20 41 21 43 22 44 23 45 69 46 24 47 68 48 25 49
REMARK SMILES IDX 26 50 27 51 62 52 28 53 67 54 61 55 63 56 29 57 66 58 60 59
REMARK SMILES IDX 59 60 30 62 52 63 37 64 51 65 38 66 41 67 50 68 64 69 39 70
REMARK SMILES IDX 40 71 49 73 65 74 42 75 31 76 32 77 36 78 33 79 35 80 34 81
REMARK SMILES IDX 53 82 54 83 58 84 55 85 57 86 56 87 43 88 44 89 48 90 45 91
REMARK SMILES IDX 47 92 46 93
REMARK H PARENT 15 5 83 16 6 20 70 27 73 31 19 42 63 61 41 72
REMARK Flexibility Score: inf
ROOT
ATOM      1  C   UNL     1       1.386  -1.737  -2.509  1.00  0.00     0.118 C 
ENDROOT
BRANCH   1   2
ATOM      2  N   UNL     1       0.520  -2.032  -3.647  1.00  0.00    -0.351 N 
ATOM      3  C   UNL     1       0.594  -2.906  -4.709  1.00  0.00     0.283 C 
ATOM      4  O   UNL     1      -0.361  -2.853  -5.493  1.00  0.00    -0.268 OA
ATOM      5  H   UNL     1      -0.298  -1.485  -3.657  1.00  0.00     0.163 HD
BRANCH   3   6
ATOM      6  C   UNL     1       1.815  -3.845  -4.919  1.00  0.00     0.308 C 
BRANCH   6   7
ATOM      7  C   UNL     1       1.478  -5.260  -5.384  1.00  0.00     0.044 A 
ATOM      8  C   UNL     1       3.720  -8.805  -5.842  1.00  0.00     0.043 A 
ATOM      9  C   UNL     1       4.443  -7.685  -5.449  1.00  0.00     0.027 A 
ATOM     10  C   UNL     1       2.380  -8.690  -6.226  1.00  0.00     0.052 A 
ATOM     11  C   UNL     1       3.812  -6.450  -5.277  1.00  0.00     0.013 A 
ATOM     12  C   UNL     1       1.754  -7.454  -6.008  1.00  0.00     0.048 A 
ATOM     13  C   UNL     1       2.427  -6.339  -5.511  1.00  0.00     0.009 A 
ATOM     14  N   UNL     1       0.448  -7.076  -6.203  1.00  0.00    -0.361 N 
ATOM     15  C   UNL     1       0.265  -5.778  -5.806  1.00  0.00     0.094 A 
ATOM     16  H   UNL     1      -0.256  -7.655  -6.575  1.00  0.00     0.166 HD
BRANCH   8  17
ATOM     17  N   UNL     1       4.309 -10.071  -5.892  1.00  0.00    -0.326 N 
ATOM     18  C   UNL     1       5.056 -10.724  -4.954  1.00  0.00     0.226 C 
ATOM     19  O   UNL     1       5.611 -11.775  -5.299  1.00  0.00    -0.274 OA
ATOM     20  H   UNL     1       4.165 -10.566  -6.730  1.00  0.00     0.169 HD
BRANCH  18  21
ATOM     21  C   UNL     1       5.143 -10.275  -3.487  1.00  0.00     0.072 C 
ATOM     22  C   UNL     1       6.215  -9.233  -3.203  1.00  0.00     0.018 C 
ATOM     23  C   UNL     1       3.798  -9.930  -2.850  1.00  0.00     0.018 C 
ENDBRANCH  18  21
ENDBRANCH   8  17
ENDBRANCH   6   7
BRANCH   6  24
ATOM     24  N   UNL     1       2.844  -3.286  -5.824  1.00  0.00    -0.312 N 
ATOM     25  C   UNL     1       2.589  -3.267  -7.274  1.00  0.00     0.325 C 
ATOM     26  C   UNL     1       3.437  -2.038  -5.380  1.00  0.00     0.325 C 
ATOM     27  H   UNL     1       3.535  -4.029  -5.724  1.00  0.00     0.349 HD
ATOM     28  C   UNL     1       2.036  -1.955  -7.884  1.00  0.00     0.325 C 
ATOM     29  C   UNL     1       2.730  -0.765  -5.903  1.00  0.00     0.325 C 
ATOM     30  N   UNL     1       2.559  -0.687  -7.347  1.00  0.00    -0.318 N 
ATOM     31  H   UNL     1       1.837   0.013  -7.518  1.00  0.00     0.348 HD
BRANCH  30  32
ATOM     32  C   UNL     1       3.688  -0.096  -8.087  1.00  0.00     0.364 C 
BRANCH  32  33
ATOM     33  C   UNL     1       5.017  -0.850  -7.967  1.00  0.00     0.277 C 
ATOM     34  O   UNL     1       5.256  -1.773  -8.754  1.00  0.00    -0.268 OA
ATOM     35  N   UNL     1       5.917  -0.507  -6.957  1.00  0.00    -0.344 N 
ATOM     36  C   UNL     1       5.806   0.615  -6.035  1.00  0.00     0.146 C 
ATOM     37  C   UNL     1       7.069  -1.372  -6.743  1.00  0.00     0.146 C 
ENDBRANCH  32  33
ENDBRANCH  30  32
ENDBRANCH   6  24
ENDBRANCH   3   6
ENDBRANCH   1   2
BRANCH   1  38
ATOM     38  C   UNL     1       2.092  -0.364  -2.549  1.00  0.00     0.042 C 
BRANCH  38  39
ATOM     39  C   UNL     1       1.270   0.844  -3.014  1.00  0.00     0.118 C 
BRANCH  39  40
ATOM     40  N   UNL     1       0.630   1.527  -1.907  1.00  0.00    -0.352 N 
ATOM     41  C   UNL     1       0.731   2.830  -1.493  1.00  0.00     0.251 C 
ATOM     42  H   UNL     1       0.027   0.966  -1.368  1.00  0.00     0.163 HD
ATOM     43  O   UNL     1       0.271   3.130  -0.385  1.00  0.00    -0.269 OA
BRANCH  41  44
ATOM     44  C   UNL     1       1.369   3.895  -2.311  1.00  0.00     0.039 A 
ATOM     45  C   UNL     1       2.117   4.877  -1.646  1.00  0.00     0.014 A 
ATOM     46  C   UNL     1       1.141   4.031  -3.685  1.00  0.00     0.014 A 
ATOM     47  C   UNL     1       2.638   5.974  -2.344  1.00  0.00     0.010 A 
ATOM     48  C   UNL     1       1.692   5.115  -4.390  1.00  0.00     0.010 A 
ATOM     49  C   UNL     1       2.433   6.107  -3.725  1.00  0.00    -0.014 A 
BRANCH  49  50
ATOM     50  C   UNL     1       2.975   7.285  -4.461  1.00  0.00     0.031 A 
ATOM     51  C   UNL     1       2.057   8.354  -4.998  1.00  0.00     0.074 A 
ATOM     52  C   UNL     1       4.303   7.407  -4.659  1.00  0.00     0.049 A 
ATOM     53  N   UNL     1       2.357   9.443  -5.665  1.00  0.00    -0.248 NA
ATOM     54  C   UNL     1       0.617   8.173  -4.762  1.00  0.00     0.031 C 
ATOM     55  C   UNL     1       5.317   6.458  -4.200  1.00  0.00     0.029 A 
ATOM     56  N   UNL     1       5.026   8.384  -5.301  1.00  0.00    -0.354 N 
ATOM     57  C   UNL     1       1.146  10.068  -5.940  1.00  0.00     0.074 A 
ATOM     58  C   UNL     1       0.106   9.223  -5.391  1.00  0.00     0.031 C 
ATOM     59  C   UNL     1       6.531   6.907  -4.561  1.00  0.00     0.029 A 
ATOM     60  C   UNL     1       6.381   8.157  -5.301  1.00  0.00     0.049 A 
ATOM     61  H   UNL     1       4.612   9.173  -5.721  1.00  0.00     0.167 HD
ATOM     62  C   UNL     1       0.916  11.241  -6.580  1.00  0.00     0.031 A 
ATOM     63  C   UNL     1       7.392   8.867  -5.839  1.00  0.00     0.031 A 
ATOM     64  C   UNL     1       1.937  12.101  -7.121  1.00  0.00     0.049 A 
ATOM     65  C   UNL     1       7.108  10.147  -6.573  1.00  0.00     0.074 A 
ATOM     66  C   UNL     1       1.787  13.334  -7.737  1.00  0.00     0.029 A 
ATOM     67  N   UNL     1       3.292  11.819  -7.119  1.00  0.00    -0.354 N 
ATOM     68  N   UNL     1       5.961  10.746  -6.775  1.00  0.00    -0.248 NA
ATOM     69  C   UNL     1       8.265  10.853  -7.146  1.00  0.00     0.031 C 
ATOM     70  C   UNL     1       3.050  13.777  -8.147  1.00  0.00     0.029 A 
ATOM     71  C   UNL     1       3.988  12.841  -7.746  1.00  0.00     0.049 A 
ATOM     72  H   UNL     1       3.701  11.013  -6.730  1.00  0.00     0.167 HD
ATOM     73  C   UNL     1       6.260  11.908  -7.475  1.00  0.00     0.074 A 
ATOM     74  C   UNL     1       7.696  11.937  -7.654  1.00  0.00     0.031 C 
ATOM     75  C   UNL     1       5.415  12.867  -7.926  1.00  0.00     0.031 A 
BRANCH  62  76
ATOM     76  C   UNL     1      -0.516  11.669  -6.748  1.00  0.00    -0.014 A 
ATOM     77  C   UNL     1      -1.257  12.168  -5.667  1.00  0.00     0.009 A 
ATOM     78  C   UNL     1      -1.111  11.625  -8.019  1.00  0.00     0.009 A 
ATOM     79  C   UNL     1      -2.577  12.586  -5.849  1.00  0.00     0.001 A 
ATOM     80  C   UNL     1      -2.423  12.066  -8.202  1.00  0.00     0.001 A 
ATOM     81  C   UNL     1      -3.157  12.538  -7.116  1.00  0.00     0.000 A 
ENDBRANCH  62  76
BRANCH  63  82
ATOM     82  C   UNL     1       8.789   8.382  -5.701  1.00  0.00    -0.014 A 
ATOM     83  C   UNL     1       9.685   9.031  -4.838  1.00  0.00     0.009 A 
ATOM     84  C   UNL     1       9.237   7.279  -6.444  1.00  0.00     0.009 A 
ATOM     85  C   UNL     1      11.008   8.597  -4.737  1.00  0.00     0.001 A 
ATOM     86  C   UNL     1      10.554   6.833  -6.323  1.00  0.00     0.001 A 
ATOM     87  C   UNL     1      11.440   7.496  -5.476  1.00  0.00     0.000 A 
ENDBRANCH  63  82
BRANCH  75  88
ATOM     88  C   UNL     1       6.022  14.046  -8.632  1.00  0.00    -0.014 A 
ATOM     89  C   UNL     1       6.511  13.935  -9.942  1.00  0.00     0.009 A 
ATOM     90  C   UNL     1       6.076  15.292  -7.988  1.00  0.00     0.009 A 
ATOM     91  C   UNL     1       7.068  15.044 -10.584  1.00  0.00     0.001 A 
ATOM     92  C   UNL     1       6.613  16.404  -8.639  1.00  0.00     0.001 A 
ATOM     93  C   UNL     1       7.115  16.277  -9.934  1.00  0.00     0.000 A 
ENDBRANCH  75  88
ENDBRANCH  49  50
ENDBRANCH  41  44
ENDBRANCH  39  40
ENDBRANCH  38  39
ENDBRANCH   1  38
TORSDOF 16
