REMARK SMILES Cc1sc(NC(=O)[C@@H]2[C@@H](C(=O)NCCCNC(=O)c3ccc(-c4c5nc(c(-c6ccccc6)c6ccc([nH]6)c(-c6ccccc6)c6nc(c(-c7ccccc7)c7ccc4[nH]7)C=C6)C=C5)cc3)[C@@H]3C=C[C@H]2C3)c(C#N)c1C
REMARK SMILES IDX 13 1 12 2 10 3 11 4 9 6 8 7 70 8 67 9 69 10 71 11 68 12 6 13
REMARK SMILES IDX 5 14 7 16 4 17 1 18 2 19 3 20 75 21 72 22 76 23 73 24 74 25
REMARK SMILES IDX 14 26 15 27 16 28 17 29 18 31 19 32 20 33 66 34 21 35 65 36
REMARK SMILES IDX 22 37 23 38 24 39 59 40 25 41 64 42 58 43 60 44 26 45 63 46
REMARK SMILES IDX 57 47 56 48 27 50 49 51 34 52 48 53 35 54 38 55 47 56 61 57
REMARK SMILES IDX 36 58 37 59 46 61 62 62 39 63 28 64 29 65 33 66 30 67 32 68
REMARK SMILES IDX 31 69 50 70 51 71 55 72 52 73 54 74 53 75 40 76 41 77 45 78
REMARK SMILES IDX 42 79 44 80 43 81
REMARK H PARENT 12 5 5 15 16 30 60 49 38 60
REMARK Flexibility Score: inf
ROOT
ATOM      1  C   UNL     1      -3.135  -6.400   3.314  1.00  0.00     0.117 C 
ENDROOT
BRANCH   1   2
ATOM      2  N   UNL     1      -2.292  -6.321   2.128  1.00  0.00    -0.356 N 
ATOM      3  C   UNL     1      -0.934  -6.275   2.015  1.00  0.00     0.224 C 
ATOM      4  O   UNL     1      -0.450  -6.320   0.883  1.00  0.00    -0.275 OA
ATOM      5  H   UNL     1      -2.780  -6.296   1.273  1.00  0.00     0.163 HD
BRANCH   3   6
ATOM      6  C   UNL     1      -0.081  -6.080   3.254  1.00  0.00     0.098 C 
ATOM      7  C   UNL     1       0.389  -4.591   3.335  1.00  0.00     0.099 C 
ATOM      8  C   UNL     1       1.922  -4.738   3.525  1.00  0.00     0.025 C 
ATOM      9  C   UNL     1       1.266  -6.845   3.157  1.00  0.00     0.025 C 
ATOM     10  C   UNL     1       2.228  -5.536   4.779  1.00  0.00    -0.027 C 
ATOM     11  C   UNL     1       2.210  -5.833   2.494  1.00  0.00     0.017 C 
ATOM     12  C   UNL     1       1.853  -6.805   4.550  1.00  0.00    -0.027 C 
BRANCH   7  13
ATOM     13  C   UNL     1      -0.258  -3.768   4.430  1.00  0.00     0.229 C 
ATOM     14  N   UNL     1      -0.323  -2.401   4.416  1.00  0.00    -0.316 N 
ATOM     15  H   UNL     1      -0.650  -2.026   5.265  1.00  0.00     0.170 HD
ATOM     16  O   UNL     1      -0.778  -4.321   5.407  1.00  0.00    -0.274 OA
BRANCH  14  17
ATOM     17  C   UNL     1      -0.030  -1.425   3.472  1.00  0.00     0.113 A 
ATOM     18  C   UNL     1       0.964   0.089  -0.006  1.00  0.00     0.057 C 
ATOM     19  C   UNL     1       0.539  -0.182   1.400  1.00  0.00     0.008 A 
ATOM     20  S   UNL     1       0.710  -1.767   1.992  1.00  0.00    -0.122 S 
ATOM     21  C   UNL     1       0.024   0.668   2.365  1.00  0.00    -0.017 A 
ATOM     22  C   UNL     1      -0.293  -0.068   3.570  1.00  0.00     0.090 A 
ATOM     23  C   UNL     1      -0.205   2.139   2.200  1.00  0.00     0.047 C 
BRANCH  22  24
ATOM     24  C   UNL     1      -0.875   0.536   4.744  1.00  0.00     0.103 C 
ATOM     25  N   UNL     1      -1.347   1.005   5.681  1.00  0.00    -0.192 NA
ENDBRANCH  22  24
ENDBRANCH  14  17
ENDBRANCH   7  13
ENDBRANCH   3   6
ENDBRANCH   1   2
BRANCH   1  26
ATOM     26  C   UNL     1      -4.042  -5.183   3.494  1.00  0.00     0.042 C 
BRANCH  26  27
ATOM     27  C   UNL     1      -5.108  -5.077   2.416  1.00  0.00     0.118 C 
BRANCH  27  28
ATOM     28  N   UNL     1      -6.097  -6.165   2.440  1.00  0.00    -0.352 N 
ATOM     29  C   UNL     1      -7.261  -6.301   1.695  1.00  0.00     0.251 C 
ATOM     30  H   UNL     1      -5.907  -6.898   3.070  1.00  0.00     0.163 HD
ATOM     31  O   UNL     1      -8.153  -7.060   2.056  1.00  0.00    -0.269 OA
BRANCH  29  32
ATOM     32  C   UNL     1      -7.398  -5.537   0.439  1.00  0.00     0.039 A 
ATOM     33  C   UNL     1      -8.609  -5.022  -0.035  1.00  0.00     0.014 A 
ATOM     34  C   UNL     1      -6.226  -5.293  -0.256  1.00  0.00     0.014 A 
ATOM     35  C   UNL     1      -8.595  -4.272  -1.216  1.00  0.00     0.010 A 
ATOM     36  C   UNL     1      -6.188  -4.261  -1.137  1.00  0.00     0.010 A 
ATOM     37  C   UNL     1      -7.358  -3.914  -1.774  1.00  0.00    -0.014 A 
BRANCH  37  38
ATOM     38  C   UNL     1      -7.192  -3.010  -2.902  1.00  0.00     0.031 A 
ATOM     39  C   UNL     1      -7.709  -1.661  -2.583  1.00  0.00     0.074 A 
ATOM     40  C   UNL     1      -6.423  -3.291  -3.986  1.00  0.00     0.049 A 
ATOM     41  N   UNL     1      -8.837  -1.168  -2.964  1.00  0.00    -0.248 NA
ATOM     42  C   UNL     1      -7.040  -0.871  -1.530  1.00  0.00     0.031 C 
ATOM     43  C   UNL     1      -5.597  -4.477  -4.256  1.00  0.00     0.029 A 
ATOM     44  N   UNL     1      -6.151  -2.515  -5.074  1.00  0.00    -0.354 N 
ATOM     45  C   UNL     1      -8.880   0.111  -2.427  1.00  0.00     0.074 A 
ATOM     46  C   UNL     1      -7.910   0.128  -1.364  1.00  0.00     0.031 C 
ATOM     47  C   UNL     1      -4.764  -4.238  -5.301  1.00  0.00     0.029 A 
ATOM     48  C   UNL     1      -5.090  -2.945  -5.877  1.00  0.00     0.049 A 
ATOM     49  H   UNL     1      -6.669  -1.704  -5.281  1.00  0.00     0.167 HD
ATOM     50  C   UNL     1      -9.448   1.127  -3.133  1.00  0.00     0.031 A 
ATOM     51  C   UNL     1      -4.533  -2.273  -6.926  1.00  0.00     0.031 A 
ATOM     52  C   UNL     1     -10.202   0.609  -4.253  1.00  0.00     0.049 A 
ATOM     53  C   UNL     1      -5.513  -1.245  -7.348  1.00  0.00     0.074 A 
ATOM     54  C   UNL     1     -11.273  -0.250  -4.399  1.00  0.00     0.029 A 
ATOM     55  N   UNL     1      -9.560   0.630  -5.469  1.00  0.00    -0.354 N 
ATOM     56  N   UNL     1      -6.652  -1.538  -7.901  1.00  0.00    -0.248 NA
ATOM     57  C   UNL     1      -5.442   0.051  -6.694  1.00  0.00     0.031 C 
ATOM     58  C   UNL     1     -10.952  -1.049  -5.537  1.00  0.00     0.029 A 
ATOM     59  C   UNL     1      -9.770  -0.566  -6.101  1.00  0.00     0.049 A 
ATOM     60  H   UNL     1      -9.034   1.382  -5.827  1.00  0.00     0.167 HD
ATOM     61  C   UNL     1      -7.565  -0.719  -7.255  1.00  0.00     0.074 A 
ATOM     62  C   UNL     1      -6.750   0.293  -6.575  1.00  0.00     0.031 C 
ATOM     63  C   UNL     1      -8.856  -1.126  -7.071  1.00  0.00     0.031 A 
BRANCH  50  64
ATOM     64  C   UNL     1      -8.920   2.545  -3.131  1.00  0.00    -0.014 A 
ATOM     65  C   UNL     1      -9.553   3.482  -3.967  1.00  0.00     0.009 A 
ATOM     66  C   UNL     1      -7.683   2.930  -2.582  1.00  0.00     0.009 A 
ATOM     67  C   UNL     1      -8.936   4.690  -4.312  1.00  0.00     0.001 A 
ATOM     68  C   UNL     1      -7.079   4.152  -2.894  1.00  0.00     0.001 A 
ATOM     69  C   UNL     1      -7.693   5.019  -3.784  1.00  0.00     0.000 A 
ENDBRANCH  50  64
BRANCH  51  70
ATOM     70  C   UNL     1      -3.133  -2.206  -7.428  1.00  0.00    -0.014 A 
ATOM     71  C   UNL     1      -2.842  -1.611  -8.674  1.00  0.00     0.009 A 
ATOM     72  C   UNL     1      -2.058  -2.409  -6.547  1.00  0.00     0.009 A 
ATOM     73  C   UNL     1      -1.543  -1.182  -8.995  1.00  0.00     0.001 A 
ATOM     74  C   UNL     1      -0.761  -1.980  -6.868  1.00  0.00     0.001 A 
ATOM     75  C   UNL     1      -0.506  -1.349  -8.083  1.00  0.00     0.000 A 
ENDBRANCH  51  70
BRANCH  63  76
ATOM     76  C   UNL     1      -9.316  -2.363  -7.809  1.00  0.00    -0.014 A 
ATOM     77  C   UNL     1      -8.748  -3.642  -7.652  1.00  0.00     0.009 A 
ATOM     78  C   UNL     1     -10.453  -2.241  -8.619  1.00  0.00     0.009 A 
ATOM     79  C   UNL     1      -9.281  -4.750  -8.325  1.00  0.00     0.001 A 
ATOM     80  C   UNL     1     -10.998  -3.348  -9.270  1.00  0.00     0.001 A 
ATOM     81  C   UNL     1     -10.406  -4.600  -9.133  1.00  0.00     0.000 A 
ENDBRANCH  63  76
ENDBRANCH  37  38
ENDBRANCH  29  32
ENDBRANCH  27  28
ENDBRANCH  26  27
ENDBRANCH   1  26
TORSDOF 13
