REMARK SMILES Cc1ccn2c([C@@H]3CCCC[C@@H]3C(=O)NCCCNC(=O)c3ccc(-c4c5nc(c(-c6ccccc6)c6ccc([nH]6)c(-c6ccccc6)c6nc(c(-c7ccccc7)c7ccc4[nH]7)C=C6)C=C5)cc3)nnc2c1
REMARK SMILES IDX 17 1 16 2 15 3 13 4 14 5 12 7 7 8 8 9 9 10 11 11 10 12 6 13
REMARK SMILES IDX 1 14 2 15 3 16 73 17 4 18 72 19 5 20 71 21 70 22 18 23 19 24
REMARK SMILES IDX 20 25 21 27 22 28 23 29 69 30 24 31 68 32 25 33 26 34 27 35
REMARK SMILES IDX 62 36 28 37 67 38 61 39 63 40 29 41 66 42 60 43 59 44 30 46
REMARK SMILES IDX 52 47 37 48 51 49 38 50 41 51 50 52 64 53 39 54 40 55 49 57
REMARK SMILES IDX 65 58 42 59 31 60 32 61 36 62 33 63 35 64 34 65 53 66 54 67
REMARK SMILES IDX 58 68 55 69 57 70 56 71 43 72 44 73 48 74 45 75 47 76 46 77
REMARK H PARENT 15 6 19 26 63 45 41 56
REMARK Flexibility Score: inf
ROOT
ATOM      1  C   UNL     1       2.169   1.096  -3.762  1.00  0.00     0.042 C 
ENDROOT
BRANCH   1   2
ATOM      2  C   UNL     1       2.341   0.197  -4.991  1.00  0.00     0.117 C 
BRANCH   2   3
ATOM      3  N   UNL     1       1.464  -0.970  -5.000  1.00  0.00    -0.356 N 
ATOM      4  C   UNL     1       0.376  -1.320  -5.735  1.00  0.00     0.223 C 
ATOM      5  O   UNL     1      -0.096  -2.439  -5.518  1.00  0.00    -0.275 OA
ATOM      6  H   UNL     1       1.714  -1.647  -4.331  1.00  0.00     0.163 HD
BRANCH   4   7
ATOM      7  C   UNL     1      -0.248  -0.382  -6.760  1.00  0.00     0.089 C 
ATOM      8  C   UNL     1      -1.562   0.306  -6.313  1.00  0.00     0.071 C 
ATOM      9  C   UNL     1      -2.839  -0.535  -6.434  1.00  0.00     0.012 C 
ATOM     10  C   UNL     1      -2.964  -1.187  -7.804  1.00  0.00     0.001 C 
ATOM     11  C   UNL     1      -0.455  -1.170  -8.078  1.00  0.00     0.014 C 
ATOM     12  C   UNL     1      -1.730  -2.017  -8.120  1.00  0.00     0.001 C 
BRANCH   8  13
ATOM     13  C   UNL     1      -1.498   1.047  -5.007  1.00  0.00     0.141 A 
ATOM     14  C   UNL     1      -0.694  -0.220   0.360  1.00  0.00     0.044 C 
ATOM     15  C   UNL     1      -1.128   0.108  -1.036  1.00  0.00    -0.046 A 
ATOM     16  C   UNL     1      -1.354  -1.020  -1.933  1.00  0.00     0.022 A 
ATOM     17  C   UNL     1      -1.235   1.376  -1.492  1.00  0.00     0.053 A 
ATOM     18  C   UNL     1      -1.544  -0.791  -3.243  1.00  0.00     0.095 A 
ATOM     19  C   UNL     1      -1.408   1.614  -2.884  1.00  0.00     0.161 A 
ATOM     20  N   UNL     1      -1.512   0.514  -3.728  1.00  0.00    -0.286 N 
ATOM     21  N   UNL     1      -1.377   2.717  -3.594  1.00  0.00    -0.130 NA
ATOM     22  N   UNL     1      -1.429   2.364  -4.918  1.00  0.00    -0.134 NA
ENDBRANCH   8  13
ENDBRANCH   4   7
ENDBRANCH   2   3
ENDBRANCH   1   2
BRANCH   1  23
ATOM     23  C   UNL     1       2.088   0.356  -2.430  1.00  0.00     0.118 C 
BRANCH  23  24
ATOM     24  N   UNL     1       3.344   0.089  -1.766  1.00  0.00    -0.352 N 
ATOM     25  C   UNL     1       3.785   0.494  -0.528  1.00  0.00     0.251 C 
ATOM     26  H   UNL     1       3.978  -0.465  -2.275  1.00  0.00     0.163 HD
ATOM     27  O   UNL     1       4.515  -0.276   0.101  1.00  0.00    -0.269 OA
BRANCH  25  28
ATOM     28  C   UNL     1       3.591   1.875  -0.009  1.00  0.00     0.039 A 
ATOM     29  C   UNL     1       2.467   2.680  -0.197  1.00  0.00     0.014 A 
ATOM     30  C   UNL     1       4.696   2.412   0.674  1.00  0.00     0.014 A 
ATOM     31  C   UNL     1       2.506   4.032   0.135  1.00  0.00     0.010 A 
ATOM     32  C   UNL     1       4.726   3.753   1.040  1.00  0.00     0.010 A 
ATOM     33  C   UNL     1       3.660   4.582   0.695  1.00  0.00    -0.014 A 
BRANCH  33  34
ATOM     34  C   UNL     1       3.716   6.033   0.872  1.00  0.00     0.031 A 
ATOM     35  C   UNL     1       2.734   6.659   1.805  1.00  0.00     0.074 A 
ATOM     36  C   UNL     1       4.681   6.789   0.308  1.00  0.00     0.049 A 
ATOM     37  N   UNL     1       1.925   7.646   1.581  1.00  0.00    -0.248 NA
ATOM     38  C   UNL     1       2.633   6.100   3.160  1.00  0.00     0.031 C 
ATOM     39  C   UNL     1       5.896   6.337  -0.378  1.00  0.00     0.029 A 
ATOM     40  N   UNL     1       4.838   8.143   0.354  1.00  0.00    -0.354 N 
ATOM     41  C   UNL     1       1.290   7.919   2.792  1.00  0.00     0.074 A 
ATOM     42  C   UNL     1       1.715   6.894   3.714  1.00  0.00     0.031 C 
ATOM     43  C   UNL     1       6.774   7.361  -0.441  1.00  0.00     0.029 A 
ATOM     44  C   UNL     1       6.124   8.563   0.051  1.00  0.00     0.049 A 
ATOM     45  H   UNL     1       4.108   8.764   0.580  1.00  0.00     0.167 HD
ATOM     46  C   UNL     1       0.549   9.042   3.009  1.00  0.00     0.031 A 
ATOM     47  C   UNL     1       6.645   9.791   0.273  1.00  0.00     0.031 A 
ATOM     48  C   UNL     1       0.165   9.693   1.790  1.00  0.00     0.049 A 
ATOM     49  C   UNL     1       5.529  10.747   0.439  1.00  0.00     0.074 A 
ATOM     50  C   UNL     1      -0.620   9.348   0.709  1.00  0.00     0.029 A 
ATOM     51  N   UNL     1       0.856  10.816   1.408  1.00  0.00    -0.354 N 
ATOM     52  N   UNL     1       4.730  11.111  -0.521  1.00  0.00    -0.248 NA
ATOM     53  C   UNL     1       5.070  11.049   1.784  1.00  0.00     0.031 C 
ATOM     54  C   UNL     1      -0.004   9.978  -0.410  1.00  0.00     0.029 A 
ATOM     55  C   UNL     1       1.097  10.694   0.064  1.00  0.00     0.049 A 
ATOM     56  H   UNL     1       1.126  11.564   1.987  1.00  0.00     0.167 HD
ATOM     57  C   UNL     1       3.502  11.294   0.094  1.00  0.00     0.074 A 
ATOM     58  C   UNL     1       3.803  11.371   1.520  1.00  0.00     0.031 C 
ATOM     59  C   UNL     1       2.333  11.085  -0.580  1.00  0.00     0.031 A 
BRANCH  46  60
ATOM     60  C   UNL     1       0.374   9.704   4.351  1.00  0.00    -0.014 A 
ATOM     61  C   UNL     1       1.254   9.491   5.427  1.00  0.00     0.009 A 
ATOM     62  C   UNL     1      -0.545  10.762   4.486  1.00  0.00     0.009 A 
ATOM     63  C   UNL     1       1.218  10.280   6.581  1.00  0.00     0.001 A 
ATOM     64  C   UNL     1      -0.557  11.582   5.623  1.00  0.00     0.001 A 
ATOM     65  C   UNL     1       0.326  11.339   6.670  1.00  0.00     0.000 A 
ENDBRANCH  46  60
BRANCH  47  66
ATOM     66  C   UNL     1       8.021  10.119   0.700  1.00  0.00    -0.014 A 
ATOM     67  C   UNL     1       8.758   9.204   1.476  1.00  0.00     0.009 A 
ATOM     68  C   UNL     1       8.501  11.432   0.599  1.00  0.00     0.009 A 
ATOM     69  C   UNL     1       9.909   9.599   2.163  1.00  0.00     0.001 A 
ATOM     70  C   UNL     1       9.651  11.829   1.293  1.00  0.00     0.001 A 
ATOM     71  C   UNL     1      10.344  10.917   2.086  1.00  0.00     0.000 A 
ENDBRANCH  47  66
BRANCH  59  72
ATOM     72  C   UNL     1       2.383  10.918  -2.082  1.00  0.00    -0.014 A 
ATOM     73  C   UNL     1       1.489  11.663  -2.868  1.00  0.00     0.009 A 
ATOM     74  C   UNL     1       3.151   9.925  -2.714  1.00  0.00     0.009 A 
ATOM     75  C   UNL     1       1.362  11.421  -4.238  1.00  0.00     0.001 A 
ATOM     76  C   UNL     1       3.046   9.702  -4.091  1.00  0.00     0.001 A 
ATOM     77  C   UNL     1       2.144  10.443  -4.850  1.00  0.00     0.000 A 
ENDBRANCH  59  72
ENDBRANCH  33  34
ENDBRANCH  25  28
ENDBRANCH  23  24
ENDBRANCH   1  23
TORSDOF 11
