REMARK SMILES C[C@H](C(=O)NCCCNC(=O)c1ccc(-c2c3nc(c(-c4ccccc4)c4ccc([nH]4)c(-c4ccccc4)c4nc(c(-c5ccccc5)c5ccc2[nH]5)C=C4)C=C3)cc1)[C@H](C)[NH+]1CCN(c2ccccc2Cl)CC1
REMARK SMILES IDX 6 1 5 2 3 3 4 4 2 6 1 7 60 8 61 9 62 10 63 11 74 12 64 14
REMARK SMILES IDX 73 15 65 16 66 17 67 18 71 19 68 20 70 21 72 22 69 23 7 24
REMARK SMILES IDX 8 25 9 26 10 27 11 29 12 30 13 31 59 32 14 33 58 34 15 35
REMARK SMILES IDX 16 36 17 37 52 38 18 39 57 40 51 41 53 42 19 43 56 44 50 45
REMARK SMILES IDX 49 46 20 48 42 49 27 50 41 51 28 52 31 53 40 54 54 55 29 56
REMARK SMILES IDX 30 57 39 59 55 60 32 61 21 62 22 63 26 64 23 65 25 66 24 67
REMARK SMILES IDX 43 68 44 69 48 70 45 71 47 72 46 73 33 74 34 75 38 76 35 77
REMARK SMILES IDX 37 78 36 79
REMARK H PARENT 5 5 62 13 9 28 53 47 31 58
REMARK Flexibility Score: inf
ROOT
ATOM      1  C   UNL     1      -1.141   1.909   3.174  1.00  0.00     0.117 C 
ENDROOT
BRANCH   1   2
ATOM      2  N   UNL     1      -0.244   2.441   2.157  1.00  0.00    -0.356 N 
ATOM      3  C   UNL     1      -0.273   2.272   0.795  1.00  0.00     0.228 C 
ATOM      4  O   UNL     1       0.543   2.893   0.120  1.00  0.00    -0.275 OA
ATOM      5  H   UNL     1       0.488   3.005   2.495  1.00  0.00     0.163 HD
BRANCH   3   6
ATOM      6  C   UNL     1      -1.316   1.317   0.224  1.00  0.00     0.133 C 
ATOM      7  C   UNL     1      -2.717   1.869   0.470  1.00  0.00     0.024 C 
BRANCH   6   8
ATOM      8  C   UNL     1      -1.075   0.757  -1.216  1.00  0.00     0.193 C 
ATOM      9  C   UNL     1       0.395   0.334  -1.428  1.00  0.00     0.076 C 
BRANCH   8  10
ATOM     10  N   UNL     1      -1.522   1.430  -2.440  1.00  0.00    -0.329 N 
ATOM     11  C   UNL     1      -2.854   1.125  -2.966  1.00  0.00     0.284 C 
ATOM     12  C   UNL     1      -1.157   2.824  -2.693  1.00  0.00     0.284 C 
ATOM     13  H   UNL     1      -0.858   0.898  -3.002  1.00  0.00     0.348 HD
ATOM     14  C   UNL     1      -3.993   2.105  -2.618  1.00  0.00     0.178 C 
ATOM     15  C   UNL     1      -2.189   3.884  -2.259  1.00  0.00     0.178 C 
ATOM     16  N   UNL     1      -3.575   3.517  -2.619  1.00  0.00    -0.359 N 
BRANCH  16  17
ATOM     17  C   UNL     1      -4.552   4.478  -2.329  1.00  0.00     0.056 A 
ATOM     18  C   UNL     1      -5.354   4.368  -1.176  1.00  0.00     0.027 A 
ATOM     19  C   UNL     1      -4.775   5.591  -3.165  1.00  0.00     0.064 A 
ATOM     20  C   UNL     1      -6.347   5.308  -0.879  1.00  0.00     0.002 A 
ATOM     21  C   UNL     1      -5.768   6.532  -2.868  1.00  0.00     0.023 A 
ATOM     22  Cl  UNL     1      -3.878   5.819  -4.630  1.00  0.00    -0.082 Cl
ATOM     23  C   UNL     1      -6.557   6.388  -1.728  1.00  0.00     0.002 A 
ENDBRANCH  16  17
ENDBRANCH   8  10
ENDBRANCH   6   8
ENDBRANCH   3   6
ENDBRANCH   1   2
BRANCH   1  24
ATOM     24  C   UNL     1      -0.522   0.805   4.004  1.00  0.00     0.042 C 
BRANCH  24  25
ATOM     25  C   UNL     1       0.706   1.250   4.772  1.00  0.00     0.118 C 
BRANCH  25  26
ATOM     26  N   UNL     1       0.449   2.422   5.601  1.00  0.00    -0.352 N 
ATOM     27  C   UNL     1       0.437   2.565   6.964  1.00  0.00     0.251 C 
ATOM     28  H   UNL     1       0.251   3.246   5.099  1.00  0.00     0.163 HD
ATOM     29  O   UNL     1      -0.040   3.576   7.467  1.00  0.00    -0.269 OA
BRANCH  27  30
ATOM     30  C   UNL     1       0.984   1.496   7.822  1.00  0.00     0.039 A 
ATOM     31  C   UNL     1       0.349   1.209   9.032  1.00  0.00     0.014 A 
ATOM     32  C   UNL     1       2.124   0.786   7.442  1.00  0.00     0.014 A 
ATOM     33  C   UNL     1       0.824   0.165   9.823  1.00  0.00     0.010 A 
ATOM     34  C   UNL     1       2.521  -0.328   8.168  1.00  0.00     0.010 A 
ATOM     35  C   UNL     1       1.887  -0.638   9.376  1.00  0.00    -0.014 A 
BRANCH  35  36
ATOM     36  C   UNL     1       2.345  -1.802  10.167  1.00  0.00     0.031 A 
ATOM     37  C   UNL     1       3.748  -1.849  10.707  1.00  0.00     0.074 A 
ATOM     38  C   UNL     1       1.503  -2.834  10.364  1.00  0.00     0.049 A 
ATOM     39  N   UNL     1       4.319  -2.776  11.433  1.00  0.00    -0.248 NA
ATOM     40  C   UNL     1       4.635  -0.723  10.368  1.00  0.00     0.031 C 
ATOM     41  C   UNL     1       0.141  -2.932   9.832  1.00  0.00     0.029 A 
ATOM     42  N   UNL     1       1.665  -3.996  11.073  1.00  0.00    -0.354 N 
ATOM     43  C   UNL     1       5.625  -2.348  11.631  1.00  0.00     0.074 A 
ATOM     44  C   UNL     1       5.786  -1.116  10.893  1.00  0.00     0.031 C 
ATOM     45  C   UNL     1      -0.424  -4.066  10.273  1.00  0.00     0.029 A 
ATOM     46  C   UNL     1       0.547  -4.793  11.083  1.00  0.00     0.049 A 
ATOM     47  H   UNL     1       2.503  -4.236  11.531  1.00  0.00     0.167 HD
ATOM     48  C   UNL     1       6.597  -2.912  12.386  1.00  0.00     0.031 A 
ATOM     49  C   UNL     1       0.327  -5.977  11.684  1.00  0.00     0.031 A 
ATOM     50  C   UNL     1       6.433  -4.138  13.120  1.00  0.00     0.049 A 
ATOM     51  C   UNL     1       1.422  -6.583  12.514  1.00  0.00     0.074 A 
ATOM     52  C   UNL     1       7.338  -4.773  13.951  1.00  0.00     0.029 A 
ATOM     53  N   UNL     1       5.285  -4.915  13.107  1.00  0.00    -0.354 N 
ATOM     54  N   UNL     1       2.627  -6.125  12.755  1.00  0.00    -0.248 NA
ATOM     55  C   UNL     1       1.119  -7.863  13.168  1.00  0.00     0.031 C 
ATOM     56  C   UNL     1       6.756  -5.964  14.399  1.00  0.00     0.029 A 
ATOM     57  C   UNL     1       5.466  -6.038  13.896  1.00  0.00     0.049 A 
ATOM     58  H   UNL     1       4.463  -4.701  12.609  1.00  0.00     0.167 HD
ATOM     59  C   UNL     1       3.220  -7.050  13.603  1.00  0.00     0.074 A 
ATOM     60  C   UNL     1       2.229  -8.077  13.859  1.00  0.00     0.031 C 
ATOM     61  C   UNL     1       4.473  -7.056  14.122  1.00  0.00     0.031 A 
BRANCH  48  62
ATOM     62  C   UNL     1       7.921  -2.202  12.453  1.00  0.00    -0.014 A 
ATOM     63  C   UNL     1       8.051  -0.969  13.114  1.00  0.00     0.009 A 
ATOM     64  C   UNL     1       9.060  -2.783  11.876  1.00  0.00     0.009 A 
ATOM     65  C   UNL     1       9.285  -0.317  13.165  1.00  0.00     0.001 A 
ATOM     66  C   UNL     1      10.300  -2.144  11.956  1.00  0.00     0.001 A 
ATOM     67  C   UNL     1      10.409  -0.908  12.591  1.00  0.00     0.000 A 
ENDBRANCH  48  62
BRANCH  49  68
ATOM     68  C   UNL     1      -0.988  -6.655  11.536  1.00  0.00    -0.014 A 
ATOM     69  C   UNL     1      -1.861  -6.771  12.628  1.00  0.00     0.009 A 
ATOM     70  C   UNL     1      -1.375  -7.194  10.299  1.00  0.00     0.009 A 
ATOM     71  C   UNL     1      -3.079  -7.441  12.492  1.00  0.00     0.001 A 
ATOM     72  C   UNL     1      -2.607  -7.834  10.157  1.00  0.00     0.001 A 
ATOM     73  C   UNL     1      -3.454  -7.967  11.257  1.00  0.00     0.000 A 
ENDBRANCH  49  68
BRANCH  61  74
ATOM     74  C   UNL     1       4.826  -8.202  15.027  1.00  0.00    -0.014 A 
ATOM     75  C   UNL     1       4.987  -9.504  14.526  1.00  0.00     0.009 A 
ATOM     76  C   UNL     1       5.011  -7.974  16.399  1.00  0.00     0.009 A 
ATOM     77  C   UNL     1       5.278 -10.562  15.389  1.00  0.00     0.001 A 
ATOM     78  C   UNL     1       5.336  -9.027  17.255  1.00  0.00     0.001 A 
ATOM     79  C   UNL     1       5.455 -10.322  16.751  1.00  0.00     0.000 A 
ENDBRANCH  61  74
ENDBRANCH  35  36
ENDBRANCH  27  30
ENDBRANCH  25  26
ENDBRANCH  24  25
ENDBRANCH   1  24
TORSDOF 13
