REMARK SMILES O=C(NCCCNC(=O)[C@@H]1C=C[C@H](NC(=O)[C@@H]2Cc3ccccc3O2)C1)c1ccc(-c2c3nc(c(-c4ccccc4)c4ccc([nH]4)c(-c4ccccc4)c4nc(c(-c5ccccc5)c5ccc2[nH]5)C=C4)C=C3)cc1
REMARK SMILES IDX 5 1 4 2 3 3 1 4 2 5 27 7 28 8 74 9 29 10 73 11 30 12 31 13
REMARK SMILES IDX 32 14 67 15 33 16 72 17 66 18 68 19 34 20 71 21 65 22 64 23
REMARK SMILES IDX 35 25 57 26 42 27 56 28 43 29 46 30 55 31 69 32 44 33 45 34
REMARK SMILES IDX 54 36 70 37 47 38 36 39 37 40 41 41 38 42 40 43 39 44 58 45
REMARK SMILES IDX 59 46 63 47 60 48 62 49 61 50 48 51 49 52 53 53 50 54 52 55
REMARK SMILES IDX 51 56 6 57 7 58 8 59 9 61 10 62 11 63 26 64 12 65 13 66
REMARK SMILES IDX 14 67 15 68 16 70 17 71 18 72 25 73 19 74 24 75 20 76 23 77
REMARK SMILES IDX 21 78 22 79
REMARK H PARENT 3 6 68 24 46 35 7 60 14 69
REMARK Flexibility Score: inf
ROOT
ATOM      1  C   UNL     1       8.570  -8.839   1.573  1.00  0.00     0.042 C 
ENDROOT
BRANCH   1   2
ATOM      2  C   UNL     1       9.313 -10.039   2.157  1.00  0.00     0.118 C 
BRANCH   2   3
ATOM      3  N   UNL     1      10.302 -10.597   1.247  1.00  0.00    -0.352 N 
ATOM      4  O   UNL     1      12.350 -11.136   0.482  1.00  0.00    -0.269 OA
ATOM      5  C   UNL     1      11.652 -10.789   1.427  1.00  0.00     0.251 C 
ATOM      6  H   UNL     1       9.952 -10.880   0.372  1.00  0.00     0.163 HD
BRANCH   5   7
ATOM      7  C   UNL     1      12.271 -10.551   2.751  1.00  0.00     0.039 A 
ATOM      8  C   UNL     1      11.668 -11.011   3.924  1.00  0.00     0.014 A 
ATOM      9  C   UNL     1      13.493  -9.876   2.814  1.00  0.00     0.014 A 
ATOM     10  C   UNL     1      12.208 -10.670   5.160  1.00  0.00     0.010 A 
ATOM     11  C   UNL     1      14.080  -9.609   4.055  1.00  0.00     0.010 A 
ATOM     12  C   UNL     1      13.425  -9.975   5.241  1.00  0.00    -0.014 A 
BRANCH  12  13
ATOM     13  C   UNL     1      14.021  -9.690   6.572  1.00  0.00     0.031 A 
ATOM     14  C   UNL     1      14.197  -8.280   7.063  1.00  0.00     0.074 A 
ATOM     15  C   UNL     1      14.390 -10.723   7.354  1.00  0.00     0.049 A 
ATOM     16  N   UNL     1      14.671  -7.861   8.211  1.00  0.00    -0.248 NA
ATOM     17  C   UNL     1      13.800  -7.200   6.148  1.00  0.00     0.031 C 
ATOM     18  C   UNL     1      14.273 -12.138   6.992  1.00  0.00     0.029 A 
ATOM     19  N   UNL     1      14.918 -10.746   8.619  1.00  0.00    -0.354 N 
ATOM     20  C   UNL     1      14.645  -6.473   8.150  1.00  0.00     0.074 A 
ATOM     21  C   UNL     1      14.139  -6.121   6.840  1.00  0.00     0.031 C 
ATOM     22  C   UNL     1      14.667 -12.890   8.029  1.00  0.00     0.029 A 
ATOM     23  C   UNL     1      15.125 -12.015   9.102  1.00  0.00     0.049 A 
ATOM     24  H   UNL     1      15.129  -9.932   9.131  1.00  0.00     0.167 HD
ATOM     25  C   UNL     1      15.005  -5.574   9.100  1.00  0.00     0.031 A 
ATOM     26  C   UNL     1      15.638 -12.434  10.273  1.00  0.00     0.031 A 
ATOM     27  C   UNL     1      15.520  -5.927  10.399  1.00  0.00     0.049 A 
ATOM     28  C   UNL     1      16.077 -11.419  11.286  1.00  0.00     0.074 A 
ATOM     29  C   UNL     1      15.878  -5.088  11.441  1.00  0.00     0.029 A 
ATOM     30  N   UNL     1      15.762  -7.223  10.829  1.00  0.00    -0.354 N 
ATOM     31  N   UNL     1      16.004 -10.112  11.230  1.00  0.00    -0.248 NA
ATOM     32  C   UNL     1      16.667 -11.940  12.526  1.00  0.00     0.031 C 
ATOM     33  C   UNL     1      16.398  -5.874  12.476  1.00  0.00     0.029 A 
ATOM     34  C   UNL     1      16.298  -7.205  12.107  1.00  0.00     0.049 A 
ATOM     35  H   UNL     1      15.581  -8.035  10.304  1.00  0.00     0.167 HD
ATOM     36  C   UNL     1      16.516  -9.653  12.436  1.00  0.00     0.074 A 
ATOM     37  C   UNL     1      16.879 -10.823  13.209  1.00  0.00     0.031 C 
ATOM     38  C   UNL     1      16.668  -8.375  12.864  1.00  0.00     0.031 A 
BRANCH  25  39
ATOM     39  C   UNL     1      14.889  -4.114   8.749  1.00  0.00    -0.014 A 
ATOM     40  C   UNL     1      13.640  -3.493   8.586  1.00  0.00     0.009 A 
ATOM     41  C   UNL     1      16.052  -3.340   8.605  1.00  0.00     0.009 A 
ATOM     42  C   UNL     1      13.559  -2.141   8.241  1.00  0.00     0.001 A 
ATOM     43  C   UNL     1      15.968  -1.982   8.291  1.00  0.00     0.001 A 
ATOM     44  C   UNL     1      14.723  -1.386   8.097  1.00  0.00     0.000 A 
ENDBRANCH  25  39
BRANCH  26  45
ATOM     45  C   UNL     1      15.762 -13.890  10.541  1.00  0.00    -0.014 A 
ATOM     46  C   UNL     1      14.946 -14.511  11.498  1.00  0.00     0.009 A 
ATOM     47  C   UNL     1      16.680 -14.672   9.822  1.00  0.00     0.009 A 
ATOM     48  C   UNL     1      15.059 -15.881  11.741  1.00  0.00     0.001 A 
ATOM     49  C   UNL     1      16.769 -16.047  10.044  1.00  0.00     0.001 A 
ATOM     50  C   UNL     1      15.964 -16.649  11.009  1.00  0.00     0.000 A 
ENDBRANCH  26  45
BRANCH  38  51
ATOM     51  C   UNL     1      17.223  -8.179  14.247  1.00  0.00    -0.014 A 
ATOM     52  C   UNL     1      18.569  -8.448  14.542  1.00  0.00     0.009 A 
ATOM     53  C   UNL     1      16.389  -7.692  15.266  1.00  0.00     0.009 A 
ATOM     54  C   UNL     1      19.058  -8.268  15.838  1.00  0.00     0.001 A 
ATOM     55  C   UNL     1      16.888  -7.483  16.552  1.00  0.00     0.001 A 
ATOM     56  C   UNL     1      18.219  -7.781  16.840  1.00  0.00     0.000 A 
ENDBRANCH  38  51
ENDBRANCH  12  13
ENDBRANCH   5   7
ENDBRANCH   2   3
ENDBRANCH   1   2
BRANCH   1  57
ATOM     57  C   UNL     1       7.641  -9.173   0.407  1.00  0.00     0.117 C 
BRANCH  57  58
ATOM     58  N   UNL     1       6.602 -10.093   0.821  1.00  0.00    -0.356 N 
ATOM     59  C   UNL     1       5.260  -9.972   0.955  1.00  0.00     0.227 C 
ATOM     60  H   UNL     1       6.941 -10.988   1.051  1.00  0.00     0.163 HD
ATOM     61  O   UNL     1       4.713 -10.914   1.542  1.00  0.00    -0.274 OA
BRANCH  59  62
ATOM     62  C   UNL     1       4.433  -8.867   0.272  1.00  0.00     0.103 C 
ATOM     63  C   UNL     1       4.797  -7.422   0.430  1.00  0.00    -0.016 C 
ATOM     64  C   UNL     1       3.003  -8.851   0.860  1.00  0.00     0.047 C 
ATOM     65  C   UNL     1       3.987  -6.779   1.282  1.00  0.00    -0.006 C 
ATOM     66  C   UNL     1       2.972  -7.681   1.854  1.00  0.00     0.106 C 
BRANCH  66  67
ATOM     67  N   UNL     1       3.174  -8.066   3.246  1.00  0.00    -0.347 N 
ATOM     68  C   UNL     1       4.103  -8.005   4.227  1.00  0.00     0.261 C 
ATOM     69  H   UNL     1       2.368  -8.520   3.583  1.00  0.00     0.164 HD
ATOM     70  O   UNL     1       3.728  -8.478   5.314  1.00  0.00    -0.271 OA
BRANCH  68  71
ATOM     71  C   UNL     1       5.549  -7.460   4.135  1.00  0.00     0.266 C 
ATOM     72  C   UNL     1       5.842  -6.545   5.354  1.00  0.00     0.095 C 
ATOM     73  O   UNL     1       6.029  -6.828   2.954  1.00  0.00    -0.480 OA
ATOM     74  C   UNL     1       6.426  -5.364   4.679  1.00  0.00    -0.002 A 
ATOM     75  C   UNL     1       6.473  -5.594   3.321  1.00  0.00     0.123 A 
ATOM     76  C   UNL     1       6.874  -4.164   5.205  1.00  0.00     0.008 A 
ATOM     77  C   UNL     1       6.923  -4.643   2.427  1.00  0.00     0.047 A 
ATOM     78  C   UNL     1       7.343  -3.186   4.320  1.00  0.00     0.001 A 
ATOM     79  C   UNL     1       7.356  -3.420   2.936  1.00  0.00     0.004 A 
ENDBRANCH  68  71
ENDBRANCH  66  67
ENDBRANCH  59  62
ENDBRANCH  57  58
ENDBRANCH   1  57
TORSDOF 12
