REMARK SMILES CC[C@H](NS(=O)(=O)Cc1ccccc1)C(=O)NCCCNC(=O)c1ccc(-c2c3nc(c(-c4ccccc4)c4ccc([nH]4)c(-c4ccccc4)c4nc(c(-c5ccccc5)c5ccc2[nH]5)C=C4)C=C3)cc1
REMARK SMILES IDX 18 1 17 2 15 3 16 4 3 6 2 7 1 8 4 9 5 11 6 12 7 13 8 14 9 15
REMARK SMILES IDX 10 16 14 17 11 18 13 19 12 20 19 21 20 22 21 23 22 24 23 26
REMARK SMILES IDX 24 27 25 28 71 29 26 30 70 31 27 32 28 33 29 34 64 35 30 36
REMARK SMILES IDX 69 37 63 38 65 39 31 40 68 41 62 42 61 43 32 45 54 46 39 47
REMARK SMILES IDX 53 48 40 49 43 50 52 51 66 52 41 53 42 54 51 56 67 57 44 58
REMARK SMILES IDX 33 59 34 60 38 61 35 62 37 63 36 64 55 65 56 66 60 67 57 68
REMARK SMILES IDX 59 69 58 70 45 71 46 72 50 73 47 74 49 75 48 76
REMARK H PARENT 17 5 4 10 21 25 65 44 43 55
REMARK Flexibility Score: inf
ROOT
ATOM      1  C   UNL     1      -1.861  -2.783   2.565  1.00  0.00     0.117 C 
ENDROOT
BRANCH   1   2
ATOM      2  N   UNL     1      -0.616  -3.450   2.314  1.00  0.00    -0.355 N 
ATOM      3  C   UNL     1       0.474  -3.041   1.626  1.00  0.00     0.238 C 
ATOM      4  O   UNL     1       1.269  -3.963   1.371  1.00  0.00    -0.273 OA
ATOM      5  H   UNL     1      -0.543  -4.350   2.707  1.00  0.00     0.163 HD
BRANCH   3   6
ATOM      6  C   UNL     1       0.898  -1.611   1.300  1.00  0.00     0.158 C 
BRANCH   6   7
ATOM      7  C   UNL     1       2.031  -1.274   2.336  1.00  0.00     0.027 C 
ATOM      8  C   UNL     1       1.609  -0.289   3.422  1.00  0.00     0.006 C 
ENDBRANCH   6   7
BRANCH   6   9
ATOM      9  N   UNL     1       0.232  -0.309   1.076  1.00  0.00    -0.202 NA
ATOM     10  H   UNL     1       0.930   0.256   0.593  1.00  0.00     0.141 HD
BRANCH   9  11
ATOM     11  S   UNL     1      -1.177   0.005   0.276  1.00  0.00     0.216 S 
ATOM     12  O   UNL     1      -0.760   0.773  -0.873  1.00  0.00    -0.212 OA
ATOM     13  O   UNL     1      -1.901  -1.232   0.076  1.00  0.00    -0.212 OA
BRANCH  11  14
ATOM     14  C   UNL     1      -2.128   1.133   1.350  1.00  0.00     0.189 C 
BRANCH  14  15
ATOM     15  C   UNL     1      -1.810   1.102   2.832  1.00  0.00    -0.032 A 
ATOM     16  C   UNL     1      -2.460   0.216   3.704  1.00  0.00     0.005 A 
ATOM     17  C   UNL     1      -0.945   2.051   3.402  1.00  0.00     0.005 A 
ATOM     18  C   UNL     1      -2.165   0.189   5.073  1.00  0.00     0.000 A 
ATOM     19  C   UNL     1      -0.686   2.060   4.780  1.00  0.00     0.000 A 
ATOM     20  C   UNL     1      -1.274   1.111   5.611  1.00  0.00     0.000 A 
ENDBRANCH  14  15
ENDBRANCH  11  14
ENDBRANCH   9  11
ENDBRANCH   6   9
ENDBRANCH   3   6
ENDBRANCH   1   2
BRANCH   1  21
ATOM     21  C   UNL     1      -2.961  -3.285   1.631  1.00  0.00     0.042 C 
BRANCH  21  22
ATOM     22  C   UNL     1      -3.683  -4.510   2.164  1.00  0.00     0.118 C 
BRANCH  22  23
ATOM     23  N   UNL     1      -4.757  -4.145   3.084  1.00  0.00    -0.352 N 
ATOM     24  C   UNL     1      -6.111  -4.018   2.865  1.00  0.00     0.251 C 
ATOM     25  H   UNL     1      -4.467  -3.961   4.006  1.00  0.00     0.163 HD
ATOM     26  O   UNL     1      -6.806  -3.442   3.698  1.00  0.00    -0.269 OA
BRANCH  24  27
ATOM     27  C   UNL     1      -6.734  -4.550   1.631  1.00  0.00     0.039 A 
ATOM     28  C   UNL     1      -7.772  -3.842   1.015  1.00  0.00     0.014 A 
ATOM     29  C   UNL     1      -6.318  -5.766   1.090  1.00  0.00     0.014 A 
ATOM     30  C   UNL     1      -8.328  -4.312  -0.182  1.00  0.00     0.010 A 
ATOM     31  C   UNL     1      -6.782  -6.167  -0.155  1.00  0.00     0.010 A 
ATOM     32  C   UNL     1      -7.804  -5.457  -0.802  1.00  0.00    -0.014 A 
BRANCH  32  33
ATOM     33  C   UNL     1      -8.306  -5.974  -2.103  1.00  0.00     0.031 A 
ATOM     34  C   UNL     1      -8.804  -7.394  -2.192  1.00  0.00     0.074 A 
ATOM     35  C   UNL     1      -8.190  -5.235  -3.224  1.00  0.00     0.049 A 
ATOM     36  N   UNL     1      -9.057  -8.121  -3.251  1.00  0.00    -0.248 NA
ATOM     37  C   UNL     1      -8.986  -8.107  -0.917  1.00  0.00     0.031 C 
ATOM     38  C   UNL     1      -7.678  -3.866  -3.293  1.00  0.00     0.029 A 
ATOM     39  N   UNL     1      -8.468  -5.552  -4.531  1.00  0.00    -0.354 N 
ATOM     40  C   UNL     1      -9.358  -9.390  -2.769  1.00  0.00     0.074 A 
ATOM     41  C   UNL     1      -9.217  -9.342  -1.331  1.00  0.00     0.031 C 
ATOM     42  C   UNL     1      -7.689  -3.456  -4.572  1.00  0.00     0.029 A 
ATOM     43  C   UNL     1      -8.159  -4.549  -5.417  1.00  0.00     0.049 A 
ATOM     44  H   UNL     1      -8.851  -6.416  -4.806  1.00  0.00     0.167 HD
ATOM     45  C   UNL     1      -9.733 -10.493  -3.459  1.00  0.00     0.031 A 
ATOM     46  C   UNL     1      -8.222  -4.518  -6.762  1.00  0.00     0.031 A 
ATOM     47  C   UNL     1      -9.931 -10.523  -4.882  1.00  0.00     0.049 A 
ATOM     48  C   UNL     1      -8.696  -5.733  -7.507  1.00  0.00     0.074 A 
ATOM     49  C   UNL     1     -10.403 -11.561  -5.666  1.00  0.00     0.029 A 
ATOM     50  N   UNL     1      -9.680  -9.457  -5.732  1.00  0.00    -0.354 N 
ATOM     51  N   UNL     1      -9.033  -6.909  -7.035  1.00  0.00    -0.248 NA
ATOM     52  C   UNL     1      -8.806  -5.616  -8.968  1.00  0.00     0.031 C 
ATOM     53  C   UNL     1     -10.405 -11.133  -6.998  1.00  0.00     0.029 A 
ATOM     54  C   UNL     1      -9.976  -9.815  -7.035  1.00  0.00     0.049 A 
ATOM     55  H   UNL     1      -9.341  -8.577  -5.450  1.00  0.00     0.167 HD
ATOM     56  C   UNL     1      -9.416  -7.664  -8.136  1.00  0.00     0.074 A 
ATOM     57  C   UNL     1      -9.280  -6.811  -9.298  1.00  0.00     0.031 C 
ATOM     58  C   UNL     1      -9.844  -8.949  -8.177  1.00  0.00     0.031 A 
BRANCH  45  59
ATOM     59  C   UNL     1      -9.947 -11.758  -2.672  1.00  0.00    -0.014 A 
ATOM     60  C   UNL     1     -11.019 -11.889  -1.774  1.00  0.00     0.009 A 
ATOM     61  C   UNL     1      -9.060 -12.834  -2.831  1.00  0.00     0.009 A 
ATOM     62  C   UNL     1     -11.163 -13.049  -1.009  1.00  0.00     0.001 A 
ATOM     63  C   UNL     1      -9.227 -14.005  -2.090  1.00  0.00     0.001 A 
ATOM     64  C   UNL     1     -10.268 -14.106  -1.168  1.00  0.00     0.000 A 
ENDBRANCH  45  59
BRANCH  46  65
ATOM     65  C   UNL     1      -7.834  -3.280  -7.486  1.00  0.00    -0.014 A 
ATOM     66  C   UNL     1      -8.817  -2.450  -8.047  1.00  0.00     0.009 A 
ATOM     67  C   UNL     1      -6.486  -2.903  -7.591  1.00  0.00     0.009 A 
ATOM     68  C   UNL     1      -8.457  -1.275  -8.711  1.00  0.00     0.001 A 
ATOM     69  C   UNL     1      -6.131  -1.716  -8.235  1.00  0.00     0.001 A 
ATOM     70  C   UNL     1      -7.115  -0.906  -8.799  1.00  0.00     0.000 A 
ENDBRANCH  46  65
BRANCH  58  71
ATOM     71  C   UNL     1     -10.235  -9.505  -9.515  1.00  0.00    -0.014 A 
ATOM     72  C   UNL     1      -9.265  -9.892 -10.452  1.00  0.00     0.009 A 
ATOM     73  C   UNL     1     -11.591  -9.717  -9.807  1.00  0.00     0.009 A 
ATOM     74  C   UNL     1      -9.650 -10.468 -11.665  1.00  0.00     0.001 A 
ATOM     75  C   UNL     1     -11.971 -10.313 -11.009  1.00  0.00     0.001 A 
ATOM     76  C   UNL     1     -11.001 -10.684 -11.939  1.00  0.00     0.000 A 
ENDBRANCH  58  71
ENDBRANCH  32  33
ENDBRANCH  24  27
ENDBRANCH  22  23
ENDBRANCH  21  22
ENDBRANCH   1  21
TORSDOF 15
