REMARK SMILES Cc1ccc(Nc2c(F)cccc2I)c(CC(=O)NCCCNC(=O)c2ccc(-c3c4nc(c(-c5ccccc5)c5ccc([nH]5)c(-c5ccccc5)c5nc(c(-c6ccccc6)c6ccc3[nH]6)C=C5)C=C4)cc2)c1
REMARK SMILES IDX 20 1 19 2 17 3 18 4 16 6 15 7 1 8 2 9 3 10 74 11 4 12 5 13
REMARK SMILES IDX 6 14 7 16 8 17 13 18 9 19 10 20 12 21 14 22 11 23 21 24
REMARK SMILES IDX 22 25 23 26 24 27 25 29 26 30 27 31 73 32 28 33 72 34 29 35
REMARK SMILES IDX 30 36 31 37 66 38 32 39 71 40 65 41 67 42 33 43 70 44 64 45
REMARK SMILES IDX 63 46 34 48 56 49 41 50 55 51 42 52 45 53 54 54 68 55 43 56
REMARK SMILES IDX 44 57 53 59 69 60 46 61 35 62 36 63 40 64 37 65 39 66 38 67
REMARK SMILES IDX 57 68 58 69 62 70 59 71 61 72 60 73 47 74 48 75 52 76 49 77
REMARK SMILES IDX 51 78 50 79
REMARK H PARENT 19 5 6 15 23 28 67 47 45 58
REMARK Flexibility Score: inf
ROOT
ATOM      1  C   UNL     1      -0.472   3.154  -2.509  1.00  0.00     0.117 C 
ENDROOT
BRANCH   1   2
ATOM      2  N   UNL     1      -1.902   3.051  -2.260  1.00  0.00    -0.356 N 
ATOM      3  C   UNL     1      -2.553   2.742  -1.100  1.00  0.00     0.224 C 
ATOM      4  O   UNL     1      -3.784   2.655  -1.122  1.00  0.00    -0.275 OA
ATOM      5  H   UNL     1      -2.481   3.228  -3.037  1.00  0.00     0.163 HD
BRANCH   3   6
ATOM      6  C   UNL     1      -1.793   2.481   0.189  1.00  0.00     0.137 C 
BRANCH   6   7
ATOM      7  C   UNL     1      -1.096   1.137   0.223  1.00  0.00    -0.015 A 
ATOM      8  C   UNL     1       2.553  -0.015   0.309  1.00  0.00     0.044 C 
ATOM      9  C   UNL     1       1.054  -0.040   0.288  1.00  0.00    -0.051 A 
ATOM     10  C   UNL     1       0.377  -1.247   0.140  1.00  0.00     0.005 A 
ATOM     11  C   UNL     1       0.310   1.139   0.375  1.00  0.00     0.009 A 
ATOM     12  C   UNL     1      -1.018  -1.268   0.045  1.00  0.00     0.026 A 
ATOM     13  C   UNL     1      -1.781  -0.089   0.053  1.00  0.00     0.042 A 
BRANCH  13  14
ATOM     14  N   UNL     1      -3.184  -0.135  -0.096  1.00  0.00    -0.352 N 
ATOM     15  H   UNL     1      -3.613   0.737  -0.253  1.00  0.00     0.167 HD
BRANCH  14  16
ATOM     16  C   UNL     1      -4.070  -1.237  -0.056  1.00  0.00     0.088 A 
ATOM     17  C   UNL     1      -4.044  -2.169   0.997  1.00  0.00     0.147 A 
ATOM     18  C   UNL     1      -4.977  -1.484  -1.106  1.00  0.00     0.040 A 
ATOM     19  F   UNL     1      -3.210  -1.998   2.034  1.00  0.00    -0.205 F 
ATOM     20  C   UNL     1      -4.889  -3.280   1.023  1.00  0.00     0.041 A 
ATOM     21  C   UNL     1      -5.830  -2.598  -1.083  1.00  0.00     0.017 A 
ATOM     22  I   UNL     1      -5.064  -0.260  -2.817  1.00  0.00    -0.042 I 
ATOM     23  C   UNL     1      -5.786  -3.494  -0.017  1.00  0.00     0.004 A 
ENDBRANCH  14  16
ENDBRANCH  13  14
ENDBRANCH   6   7
ENDBRANCH   3   6
ENDBRANCH   1   2
BRANCH   1  24
ATOM     24  C   UNL     1       0.161   1.812  -2.859  1.00  0.00     0.042 C 
BRANCH  24  25
ATOM     25  C   UNL     1       0.022   1.406  -4.316  1.00  0.00     0.118 C 
BRANCH  25  26
ATOM     26  N   UNL     1       1.205   1.687  -5.125  1.00  0.00    -0.352 N 
ATOM     27  C   UNL     1       1.417   1.417  -6.468  1.00  0.00     0.251 C 
ATOM     28  H   UNL     1       1.950   2.126  -4.655  1.00  0.00     0.163 HD
ATOM     29  O   UNL     1       2.453   1.750  -7.017  1.00  0.00    -0.269 OA
BRANCH  27  30
ATOM     30  C   UNL     1       0.304   0.834  -7.255  1.00  0.00     0.039 A 
ATOM     31  C   UNL     1      -0.119   1.530  -8.390  1.00  0.00     0.014 A 
ATOM     32  C   UNL     1      -0.454  -0.214  -6.740  1.00  0.00     0.014 A 
ATOM     33  C   UNL     1      -1.423   1.354  -8.841  1.00  0.00     0.010 A 
ATOM     34  C   UNL     1      -1.777  -0.318  -7.120  1.00  0.00     0.010 A 
ATOM     35  C   UNL     1      -2.278   0.524  -8.118  1.00  0.00    -0.014 A 
BRANCH  35  36
ATOM     36  C   UNL     1      -3.728   0.595  -8.238  1.00  0.00     0.031 A 
ATOM     37  C   UNL     1      -4.485  -0.458  -8.931  1.00  0.00     0.074 A 
ATOM     38  C   UNL     1      -4.395   1.618  -7.660  1.00  0.00     0.049 A 
ATOM     39  N   UNL     1      -5.648  -0.279  -9.461  1.00  0.00    -0.248 NA
ATOM     40  C   UNL     1      -3.955  -1.800  -9.134  1.00  0.00     0.031 C 
ATOM     41  C   UNL     1      -5.832   1.736  -7.435  1.00  0.00     0.029 A 
ATOM     42  N   UNL     1      -3.892   2.886  -7.366  1.00  0.00    -0.354 N 
ATOM     43  C   UNL     1      -6.147  -1.519  -9.774  1.00  0.00     0.074 A 
ATOM     44  C   UNL     1      -5.018  -2.416  -9.657  1.00  0.00     0.031 C 
ATOM     45  C   UNL     1      -6.141   3.036  -7.298  1.00  0.00     0.029 A 
ATOM     46  C   UNL     1      -4.940   3.800  -7.588  1.00  0.00     0.049 A 
ATOM     47  H   UNL     1      -2.980   3.100  -7.063  1.00  0.00     0.167 HD
ATOM     48  C   UNL     1      -7.490  -1.675  -9.949  1.00  0.00     0.031 A 
ATOM     49  C   UNL     1      -4.831   4.761  -8.552  1.00  0.00     0.031 A 
ATOM     50  C   UNL     1      -8.215  -0.403  -9.893  1.00  0.00     0.049 A 
ATOM     51  C   UNL     1      -5.864   4.666  -9.661  1.00  0.00     0.074 A 
ATOM     52  C   UNL     1      -9.058   0.197  -8.971  1.00  0.00     0.029 A 
ATOM     53  N   UNL     1      -7.895   0.587 -10.810  1.00  0.00    -0.354 N 
ATOM     54  N   UNL     1      -6.760   3.724  -9.763  1.00  0.00    -0.248 NA
ATOM     55  C   UNL     1      -5.886   5.574 -10.809  1.00  0.00     0.031 C 
ATOM     56  C   UNL     1      -9.255   1.554  -9.360  1.00  0.00     0.029 A 
ATOM     57  C   UNL     1      -8.539   1.774 -10.520  1.00  0.00     0.049 A 
ATOM     58  H   UNL     1      -7.286   0.459 -11.573  1.00  0.00     0.167 HD
ATOM     59  C   UNL     1      -7.406   3.834 -10.967  1.00  0.00     0.074 A 
ATOM     60  C   UNL     1      -6.831   5.015 -11.584  1.00  0.00     0.031 C 
ATOM     61  C   UNL     1      -8.321   2.916 -11.392  1.00  0.00     0.031 A 
BRANCH  48  62
ATOM     62  C   UNL     1      -8.174  -3.023  -9.914  1.00  0.00    -0.014 A 
ATOM     63  C   UNL     1      -9.522  -3.110  -9.520  1.00  0.00     0.009 A 
ATOM     64  C   UNL     1      -7.543  -4.245 -10.199  1.00  0.00     0.009 A 
ATOM     65  C   UNL     1     -10.161  -4.340  -9.316  1.00  0.00     0.001 A 
ATOM     66  C   UNL     1      -8.160  -5.481  -9.959  1.00  0.00     0.001 A 
ATOM     67  C   UNL     1      -9.468  -5.528  -9.504  1.00  0.00     0.000 A 
ENDBRANCH  48  62
BRANCH  49  68
ATOM     68  C   UNL     1      -3.433   5.244  -8.744  1.00  0.00    -0.014 A 
ATOM     69  C   UNL     1      -2.798   5.905  -7.673  1.00  0.00     0.009 A 
ATOM     70  C   UNL     1      -2.643   4.762  -9.796  1.00  0.00     0.009 A 
ATOM     71  C   UNL     1      -1.404   5.974  -7.600  1.00  0.00     0.001 A 
ATOM     72  C   UNL     1      -1.248   4.851  -9.728  1.00  0.00     0.001 A 
ATOM     73  C   UNL     1      -0.629   5.421  -8.615  1.00  0.00     0.000 A 
ENDBRANCH  49  68
BRANCH  61  74
ATOM     74  C   UNL     1      -9.062   2.981 -12.704  1.00  0.00    -0.014 A 
ATOM     75  C   UNL     1      -9.490   4.180 -13.289  1.00  0.00     0.009 A 
ATOM     76  C   UNL     1      -9.460   1.786 -13.343  1.00  0.00     0.009 A 
ATOM     77  C   UNL     1     -10.214   4.184 -14.490  1.00  0.00     0.001 A 
ATOM     78  C   UNL     1     -10.202   1.785 -14.526  1.00  0.00     0.001 A 
ATOM     79  C   UNL     1     -10.568   2.988 -15.108  1.00  0.00     0.000 A 
ENDBRANCH  61  74
ENDBRANCH  35  36
ENDBRANCH  27  30
ENDBRANCH  25  26
ENDBRANCH  24  25
ENDBRANCH   1  24
TORSDOF 13
