REMARK SMILES Cc1ccccc1OCC[NH+]1CCC(CC(=O)NCCCNC(=O)c2ccc(-c3c4nc(c(-c5ccccc5)c5ccc([nH]5)c(-c5ccccc5)c5nc(c(-c6ccccc6)c6ccc3[nH]6)C=C5)C=C4)cc2)CC1
REMARK SMILES IDX 16 1 17 2 18 3 15 5 14 6 11 7 12 8 74 9 13 11 73 12 10 13
REMARK SMILES IDX 9 14 8 15 7 16 1 17 2 18 3 19 4 20 6 21 5 22 19 23 20 24
REMARK SMILES IDX 21 25 22 26 23 27 24 29 25 30 26 31 72 32 27 33 71 34 28 35
REMARK SMILES IDX 29 36 30 37 65 38 31 39 70 40 64 41 66 42 32 43 69 44 63 45
REMARK SMILES IDX 62 46 33 48 55 49 40 50 54 51 41 52 44 53 53 54 67 55 42 56
REMARK SMILES IDX 43 57 52 59 68 60 45 61 34 62 35 63 39 64 36 65 38 66 37 67
REMARK SMILES IDX 56 68 57 69 61 70 58 71 60 72 59 73 46 74 47 75 51 76 48 77
REMARK SMILES IDX 50 78 49 79
REMARK H PARENT 18 4 11 10 22 28 66 47 44 58
REMARK Flexibility Score: inf
ROOT
ATOM      1  C   UNL     1       0.647  -4.118  -1.074  1.00  0.00     0.220 C 
ATOM      2  O   UNL     1       1.413  -4.844  -1.711  1.00  0.00    -0.275 OA
ATOM      3  N   UNL     1      -0.536  -3.760  -1.659  1.00  0.00    -0.356 N 
ATOM      4  H   UNL     1      -0.721  -4.228  -2.505  1.00  0.00     0.163 HD
ENDROOT
BRANCH   1   5
ATOM      5  C   UNL     1       0.993  -3.677   0.337  1.00  0.00     0.104 C 
BRANCH   5   6
ATOM      6  C   UNL     1       2.102  -2.575   0.416  1.00  0.00     0.009 C 
ATOM      7  N   UNL     1       3.446   1.054   0.905  1.00  0.00    -0.332 N 
ATOM      8  C   UNL     1       2.922   0.467  -0.802  1.00  0.00     0.262 C 
ATOM      9  C   UNL     1       3.251  -0.071   2.368  1.00  0.00     0.262 C 
ATOM     10  H   UNL     1       4.440   0.973   0.694  1.00  0.00     0.348 HD
ATOM     11  C   UNL     1       2.001  -1.249  -1.024  1.00  0.00     0.066 C 
ATOM     12  C   UNL     1       2.673  -1.944   2.212  1.00  0.00     0.066 C 
BRANCH   7  13
ATOM     13  C   UNL     1       3.231   2.439   1.241  1.00  0.00     0.304 C 
BRANCH  13  14
ATOM     14  C   UNL     1       2.230   3.048   0.304  1.00  0.00     0.290 C 
BRANCH  14  15
ATOM     15  O   UNL     1       1.226   2.134  -0.137  1.00  0.00    -0.487 OA
BRANCH  15  16
ATOM     16  C   UNL     1       0.871   1.045   0.653  1.00  0.00     0.122 A 
ATOM     17  C   UNL     1       3.467  -1.000   0.495  1.00  0.00     0.048 C 
ATOM     18  C   UNL     1       1.583  -0.291   0.933  1.00  0.00    -0.009 A 
ATOM     19  C   UNL     1       0.491  -1.054   1.611  1.00  0.00     0.007 A 
ATOM     20  C   UNL     1      -0.865  -0.721   1.910  1.00  0.00     0.001 A 
ATOM     21  C   UNL     1      -0.506   1.369   0.975  1.00  0.00     0.047 A 
ATOM     22  C   UNL     1      -1.374   0.497   1.584  1.00  0.00     0.004 A 
ENDBRANCH  15  16
ENDBRANCH  14  15
ENDBRANCH  13  14
ENDBRANCH   7  13
ENDBRANCH   5   6
ENDBRANCH   1   5
BRANCH   3  23
ATOM     23  C   UNL     1      -1.586  -2.808  -1.264  1.00  0.00     0.117 C 
BRANCH  23  24
ATOM     24  C   UNL     1      -1.245  -1.399  -1.732  1.00  0.00     0.042 C 
BRANCH  24  25
ATOM     25  C   UNL     1      -2.233  -0.615  -2.572  1.00  0.00     0.118 C 
BRANCH  25  26
ATOM     26  N   UNL     1      -2.752   0.627  -1.995  1.00  0.00    -0.352 N 
ATOM     27  C   UNL     1      -3.272   1.721  -2.686  1.00  0.00     0.251 C 
ATOM     28  H   UNL     1      -2.730   0.698  -1.014  1.00  0.00     0.163 HD
ATOM     29  O   UNL     1      -3.874   2.622  -2.118  1.00  0.00    -0.269 OA
BRANCH  27  30
ATOM     30  C   UNL     1      -3.149   1.715  -4.165  1.00  0.00     0.039 A 
ATOM     31  C   UNL     1      -4.271   1.250  -4.857  1.00  0.00     0.014 A 
ATOM     32  C   UNL     1      -1.862   1.573  -4.681  1.00  0.00     0.014 A 
ATOM     33  C   UNL     1      -4.082   0.293  -5.843  1.00  0.00     0.010 A 
ATOM     34  C   UNL     1      -1.677   0.578  -5.622  1.00  0.00     0.010 A 
ATOM     35  C   UNL     1      -2.783  -0.142  -6.094  1.00  0.00    -0.014 A 
BRANCH  35  36
ATOM     36  C   UNL     1      -2.500  -1.387  -6.793  1.00  0.00     0.031 A 
ATOM     37  C   UNL     1      -2.146  -1.272  -8.210  1.00  0.00     0.074 A 
ATOM     38  C   UNL     1      -2.579  -2.591  -6.181  1.00  0.00     0.049 A 
ATOM     39  N   UNL     1      -2.523  -2.098  -9.119  1.00  0.00    -0.248 NA
ATOM     40  C   UNL     1      -1.399  -0.129  -8.725  1.00  0.00     0.031 C 
ATOM     41  C   UNL     1      -2.208  -3.901  -6.715  1.00  0.00     0.029 A 
ATOM     42  N   UNL     1      -3.203  -2.893  -4.964  1.00  0.00    -0.354 N 
ATOM     43  C   UNL     1      -1.817  -1.775 -10.254  1.00  0.00     0.074 A 
ATOM     44  C   UNL     1      -1.248  -0.474 -10.003  1.00  0.00     0.031 C 
ATOM     45  C   UNL     1      -2.849  -4.855  -6.015  1.00  0.00     0.029 A 
ATOM     46  C   UNL     1      -3.750  -4.186  -5.091  1.00  0.00     0.049 A 
ATOM     47  H   UNL     1      -3.250  -2.313  -4.170  1.00  0.00     0.167 HD
ATOM     48  C   UNL     1      -1.621  -2.724 -11.207  1.00  0.00     0.031 A 
ATOM     49  C   UNL     1      -5.096  -4.394  -5.005  1.00  0.00     0.031 A 
ATOM     50  C   UNL     1      -2.276  -3.977 -10.838  1.00  0.00     0.049 A 
ATOM     51  C   UNL     1      -5.681  -4.909  -6.301  1.00  0.00     0.074 A 
ATOM     52  C   UNL     1      -1.798  -5.125 -10.225  1.00  0.00     0.029 A 
ATOM     53  N   UNL     1      -3.661  -4.014 -10.716  1.00  0.00    -0.354 N 
ATOM     54  N   UNL     1      -5.083  -4.805  -7.457  1.00  0.00    -0.248 NA
ATOM     55  C   UNL     1      -6.980  -5.567  -6.403  1.00  0.00     0.031 C 
ATOM     56  C   UNL     1      -2.906  -5.822  -9.676  1.00  0.00     0.029 A 
ATOM     57  C   UNL     1      -4.059  -5.121  -9.987  1.00  0.00     0.049 A 
ATOM     58  H   UNL     1      -4.274  -3.345 -11.097  1.00  0.00     0.167 HD
ATOM     59  C   UNL     1      -5.865  -5.363  -8.434  1.00  0.00     0.074 A 
ATOM     60  C   UNL     1      -7.040  -5.833  -7.721  1.00  0.00     0.031 C 
ATOM     61  C   UNL     1      -5.475  -5.381  -9.745  1.00  0.00     0.031 A 
BRANCH  48  62
ATOM     62  C   UNL     1      -0.536  -2.597 -12.246  1.00  0.00    -0.014 A 
ATOM     63  C   UNL     1       0.113  -3.753 -12.711  1.00  0.00     0.009 A 
ATOM     64  C   UNL     1      -0.064  -1.375 -12.759  1.00  0.00     0.009 A 
ATOM     65  C   UNL     1       1.229  -3.687 -13.556  1.00  0.00     0.001 A 
ATOM     66  C   UNL     1       1.079  -1.297 -13.566  1.00  0.00     0.001 A 
ATOM     67  C   UNL     1       1.732  -2.457 -13.958  1.00  0.00     0.000 A 
ENDBRANCH  48  62
BRANCH  49  68
ATOM     68  C   UNL     1      -5.776  -3.469  -4.052  1.00  0.00    -0.014 A 
ATOM     69  C   UNL     1      -5.490  -3.602  -2.676  1.00  0.00     0.009 A 
ATOM     70  C   UNL     1      -6.337  -2.267  -4.500  1.00  0.00     0.009 A 
ATOM     71  C   UNL     1      -5.613  -2.512  -1.807  1.00  0.00     0.001 A 
ATOM     72  C   UNL     1      -6.475  -1.184  -3.621  1.00  0.00     0.001 A 
ATOM     73  C   UNL     1      -6.066  -1.290  -2.292  1.00  0.00     0.000 A 
ENDBRANCH  49  68
BRANCH  61  74
ATOM     74  C   UNL     1      -6.346  -5.716 -10.938  1.00  0.00    -0.014 A 
ATOM     75  C   UNL     1      -7.742  -5.818 -10.907  1.00  0.00     0.009 A 
ATOM     76  C   UNL     1      -5.744  -5.828 -12.214  1.00  0.00     0.009 A 
ATOM     77  C   UNL     1      -8.485  -6.067 -12.070  1.00  0.00     0.001 A 
ATOM     78  C   UNL     1      -6.483  -6.013 -13.384  1.00  0.00     0.001 A 
ATOM     79  C   UNL     1      -7.858  -6.150 -13.309  1.00  0.00     0.000 A 
ENDBRANCH  61  74
ENDBRANCH  35  36
ENDBRANCH  27  30
ENDBRANCH  25  26
ENDBRANCH  24  25
ENDBRANCH  23  24
ENDBRANCH   3  23
TORSDOF 15
