REMARK SMILES Cc1nsc(NC(=O)[C@H]2Cc3[nH]cnc3C[NH2+]2)c1C(=O)NCCCNC(=O)c1ccc(-c2c3nc(c(-c4ccccc4)c4ccc([nH]4)c(-c4ccccc4)c4nc(c(-c5ccccc5)c5ccc2[nH]5)C=C4)C=C3)cc1
REMARK SMILES IDX 23 1 22 2 21 3 19 4 20 5 18 7 1 8 2 9 3 10 4 11 5 12 6 13
REMARK SMILES IDX 7 14 8 16 9 17 10 18 17 19 11 20 16 21 12 24 15 25 13 26
REMARK SMILES IDX 14 28 24 29 25 30 26 31 27 33 28 34 29 35 75 36 30 37 74 38
REMARK SMILES IDX 31 39 32 40 33 41 68 42 34 43 73 44 67 45 69 46 35 47 72 48
REMARK SMILES IDX 66 49 65 50 36 52 58 53 43 54 57 55 44 56 47 57 56 58 70 59
REMARK SMILES IDX 45 60 46 61 55 63 71 64 48 65 37 66 38 67 42 68 39 69 41 70
REMARK SMILES IDX 40 71 59 72 60 73 64 74 61 75 63 76 62 77 49 78 50 79 54 80
REMARK SMILES IDX 51 81 53 82 52 83
REMARK H PARENT 21 6 6 15 17 22 17 23 12 27 25 32 69 51 47 62
REMARK Flexibility Score: inf
ROOT
ATOM      1  C   UNL     1       3.133  -0.762  -0.610  1.00  0.00     0.042 C 
ENDROOT
BRANCH   1   2
ATOM      2  C   UNL     1       3.173  -0.023   0.729  1.00  0.00     0.118 C 
BRANCH   2   3
ATOM      3  N   UNL     1       3.456   1.385   0.617  1.00  0.00    -0.352 N 
ATOM      4  C   UNL     1       2.674   2.465   0.326  1.00  0.00     0.256 C 
ATOM      5  O   UNL     1       3.190   3.555   0.600  1.00  0.00    -0.269 OA
ATOM      6  H   UNL     1       4.400   1.613   0.782  1.00  0.00     0.163 HD
BRANCH   4   7
ATOM      7  C   UNL     1       1.397   2.415  -0.390  1.00  0.00     0.097 A 
ATOM      8  C   UNL     1       0.034   0.135  -0.091  1.00  0.00     0.069 C 
ATOM      9  C   UNL     1       0.415   1.410  -0.769  1.00  0.00     0.066 A 
ATOM     10  N   UNL     1      -0.386   1.757  -1.791  1.00  0.00    -0.195 NA
ATOM     11  S   UNL     1      -0.205   3.386  -2.070  1.00  0.00    -0.017 S 
ATOM     12  C   UNL     1       0.763   3.620  -0.693  1.00  0.00     0.129 A 
BRANCH  12  13
ATOM     13  N   UNL     1       0.968   4.867  -0.151  1.00  0.00    -0.311 N 
ATOM     14  C   UNL     1       0.030   5.599   0.543  1.00  0.00     0.283 C 
ATOM     15  H   UNL     1       1.858   5.270  -0.269  1.00  0.00     0.171 HD
ATOM     16  O   UNL     1       0.475   6.478   1.293  1.00  0.00    -0.268 OA
BRANCH  14  17
ATOM     17  C   UNL     1      -1.496   5.405   0.360  1.00  0.00     0.279 C 
ATOM     18  C   UNL     1      -2.114   3.992   0.596  1.00  0.00     0.131 C 
ATOM     19  N   UNL     1      -2.271   6.400   1.200  1.00  0.00    -0.331 N 
ATOM     20  C   UNL     1      -3.426   4.117  -0.089  1.00  0.00     0.050 A 
ATOM     21  C   UNL     1      -3.761   6.314   1.071  1.00  0.00     0.320 C 
ATOM     22  H   UNL     1      -1.983   7.339   0.924  1.00  0.00     0.347 HD
ATOM     23  H   UNL     1      -2.055   6.181   2.173  1.00  0.00     0.347 HD
ATOM     24  N   UNL     1      -3.836   3.571  -1.270  1.00  0.00    -0.348 N 
ATOM     25  C   UNL     1      -4.172   5.262   0.085  1.00  0.00     0.116 A 
ATOM     26  C   UNL     1      -4.764   4.442  -1.789  1.00  0.00     0.197 A 
ATOM     27  H   UNL     1      -3.530   2.725  -1.669  1.00  0.00     0.167 HD
ATOM     28  N   UNL     1      -5.024   5.440  -0.969  1.00  0.00    -0.236 NA
ENDBRANCH  14  17
ENDBRANCH  12  13
ENDBRANCH   4   7
ENDBRANCH   2   3
ENDBRANCH   1   2
BRANCH   1  29
ATOM     29  C   UNL     1       4.492  -1.260  -1.034  1.00  0.00     0.118 C 
BRANCH  29  30
ATOM     30  N   UNL     1       4.984  -2.305  -0.134  1.00  0.00    -0.352 N 
ATOM     31  C   UNL     1       6.180  -2.993  -0.190  1.00  0.00     0.251 C 
ATOM     32  H   UNL     1       4.383  -2.549   0.608  1.00  0.00     0.163 HD
ATOM     33  O   UNL     1       6.336  -4.036   0.415  1.00  0.00    -0.269 OA
BRANCH  31  34
ATOM     34  C   UNL     1       7.249  -2.429  -1.029  1.00  0.00     0.039 A 
ATOM     35  C   UNL     1       7.997  -3.241  -1.877  1.00  0.00     0.014 A 
ATOM     36  C   UNL     1       7.414  -1.047  -1.025  1.00  0.00     0.014 A 
ATOM     37  C   UNL     1       8.845  -2.627  -2.791  1.00  0.00     0.010 A 
ATOM     38  C   UNL     1       8.076  -0.445  -2.061  1.00  0.00     0.010 A 
ATOM     39  C   UNL     1       8.845  -1.222  -2.909  1.00  0.00    -0.014 A 
BRANCH  39  40
ATOM     40  C   UNL     1       9.566  -0.572  -3.994  1.00  0.00     0.031 A 
ATOM     41  C   UNL     1       9.359  -1.211  -5.318  1.00  0.00     0.074 A 
ATOM     42  C   UNL     1      10.269   0.576  -3.880  1.00  0.00     0.049 A 
ATOM     43  N   UNL     1      10.198  -1.972  -5.934  1.00  0.00    -0.248 NA
ATOM     44  C   UNL     1       8.030  -1.149  -5.946  1.00  0.00     0.031 C 
ATOM     45  C   UNL     1      10.365   1.511  -2.754  1.00  0.00     0.029 A 
ATOM     46  N   UNL     1      11.018   1.192  -4.832  1.00  0.00    -0.354 N 
ATOM     47  C   UNL     1       9.592  -2.328  -7.130  1.00  0.00     0.074 A 
ATOM     48  C   UNL     1       8.209  -1.936  -7.012  1.00  0.00     0.031 C 
ATOM     49  C   UNL     1      10.924   2.672  -3.169  1.00  0.00     0.029 A 
ATOM     50  C   UNL     1      11.402   2.491  -4.526  1.00  0.00     0.049 A 
ATOM     51  H   UNL     1      11.269   0.751  -5.676  1.00  0.00     0.167 HD
ATOM     52  C   UNL     1      10.345  -2.691  -8.204  1.00  0.00     0.031 A 
ATOM     53  C   UNL     1      12.070   3.349  -5.336  1.00  0.00     0.031 A 
ATOM     54  C   UNL     1      11.702  -2.998  -7.818  1.00  0.00     0.049 A 
ATOM     55  C   UNL     1      12.768   2.529  -6.354  1.00  0.00     0.074 A 
ATOM     56  C   UNL     1      12.281  -3.902  -6.948  1.00  0.00     0.029 A 
ATOM     57  N   UNL     1      12.650  -2.023  -8.025  1.00  0.00    -0.354 N 
ATOM     58  N   UNL     1      13.754   1.728  -6.066  1.00  0.00    -0.248 NA
ATOM     59  C   UNL     1      12.063   2.239  -7.591  1.00  0.00     0.031 C 
ATOM     60  C   UNL     1      13.314  -3.167  -6.292  1.00  0.00     0.029 A 
ATOM     61  C   UNL     1      13.367  -1.894  -6.862  1.00  0.00     0.049 A 
ATOM     62  H   UNL     1      12.789  -1.511  -8.855  1.00  0.00     0.167 HD
ATOM     63  C   UNL     1      13.506   0.589  -6.816  1.00  0.00     0.074 A 
ATOM     64  C   UNL     1      12.500   0.994  -7.799  1.00  0.00     0.031 C 
ATOM     65  C   UNL     1      13.920  -0.643  -6.392  1.00  0.00     0.031 A 
BRANCH  52  66
ATOM     66  C   UNL     1       9.981  -2.338  -9.623  1.00  0.00    -0.014 A 
ATOM     67  C   UNL     1      10.838  -2.752 -10.658  1.00  0.00     0.009 A 
ATOM     68  C   UNL     1       9.009  -1.375  -9.953  1.00  0.00     0.009 A 
ATOM     69  C   UNL     1      10.784  -2.164 -11.927  1.00  0.00     0.001 A 
ATOM     70  C   UNL     1       8.926  -0.814 -11.229  1.00  0.00     0.001 A 
ATOM     71  C   UNL     1       9.835  -1.186 -12.207  1.00  0.00     0.000 A 
ENDBRANCH  52  66
BRANCH  53  72
ATOM     72  C   UNL     1      11.927   4.813  -5.480  1.00  0.00    -0.014 A 
ATOM     73  C   UNL     1      12.891   5.561  -6.176  1.00  0.00     0.009 A 
ATOM     74  C   UNL     1      10.693   5.431  -5.207  1.00  0.00     0.009 A 
ATOM     75  C   UNL     1      12.611   6.857  -6.631  1.00  0.00     0.001 A 
ATOM     76  C   UNL     1      10.413   6.725  -5.660  1.00  0.00     0.001 A 
ATOM     77  C   UNL     1      11.366   7.432  -6.388  1.00  0.00     0.000 A 
ENDBRANCH  53  72
BRANCH  65  78
ATOM     78  C   UNL     1      14.846  -0.716  -5.199  1.00  0.00    -0.014 A 
ATOM     79  C   UNL     1      14.518  -0.215  -3.925  1.00  0.00     0.009 A 
ATOM     80  C   UNL     1      16.035  -1.447  -5.335  1.00  0.00     0.009 A 
ATOM     81  C   UNL     1      15.374  -0.415  -2.834  1.00  0.00     0.001 A 
ATOM     82  C   UNL     1      16.877  -1.665  -4.242  1.00  0.00     0.001 A 
ATOM     83  C   UNL     1      16.551  -1.143  -2.993  1.00  0.00     0.000 A 
ENDBRANCH  65  78
ENDBRANCH  39  40
ENDBRANCH  31  34
ENDBRANCH  29  30
ENDBRANCH   1  29
TORSDOF 12
