REMARK SMILES CCCCCCCNC(=O)Oc1cccc(-c2ccc([C@@H](C)C(=O)NCCCNC(=O)c3ccc(-c4c5nc(c(-c6ccccc6)c6ccc([nH]6)c(-c6ccccc6)c6nc(c(-c7ccccc7)c7ccc4[nH]7)C=C6)C=C5)cc3)cc2F)c1
REMARK SMILES IDX 17 1 18 2 19 3 20 4 80 5 81 6 82 7 16 8 12 9 13 10 83 11
REMARK SMILES IDX 14 12 15 13 11 14 9 15 8 16 10 18 7 19 6 20 5 21 4 22 3 23
REMARK SMILES IDX 2 24 1 25 21 26 22 27 23 28 24 29 25 30 26 32 27 33 28 34
REMARK SMILES IDX 29 35 30 36 31 38 32 39 33 40 79 41 34 42 78 43 35 44 36 45
REMARK SMILES IDX 37 46 72 47 38 48 77 49 71 50 73 51 39 52 76 53 70 54 69 55
REMARK SMILES IDX 40 57 62 58 47 59 61 60 48 61 51 62 60 63 74 64 49 65 50 66
REMARK SMILES IDX 59 68 75 69 52 70 41 71 42 72 46 73 43 74 45 75 44 76 63 77
REMARK SMILES IDX 64 78 68 79 65 80 67 81 66 82 53 83 54 84 58 85 55 86 57 87
REMARK SMILES IDX 56 88
REMARK H PARENT 8 17 25 31 29 37 73 56 51 67
REMARK Flexibility Score: inf
ROOT
ATOM      1  C   UNL     1      -6.936  -7.786  -5.489  1.00  0.00     0.018 A 
ATOM      2  C   UNL     1      -7.490  -9.044  -5.778  1.00  0.00     0.012 A 
ATOM      3  C   UNL     1      -8.702  -9.464  -5.214  1.00  0.00     0.005 A 
ATOM      4  C   UNL     1      -9.378  -8.672  -4.283  1.00  0.00    -0.033 A 
ATOM      5  C   UNL     1      -8.849  -7.404  -4.006  1.00  0.00     0.044 A 
ATOM      6  C   UNL     1      -7.668  -6.969  -4.614  1.00  0.00     0.131 A 
ATOM      7  F   UNL     1      -7.249  -5.726  -4.327  1.00  0.00    -0.206 F 
ENDROOT
BRANCH   1   8
ATOM      8  C   UNL     1      -5.633  -7.382  -6.066  1.00  0.00    -0.012 A 
ATOM      9  C   UNL     1      -3.473  -6.276  -5.872  1.00  0.00     0.133 A 
ATOM     10  C   UNL     1      -3.113  -6.667  -7.157  1.00  0.00     0.047 A 
ATOM     11  C   UNL     1      -4.713  -6.618  -5.329  1.00  0.00     0.056 A 
ATOM     12  C   UNL     1      -4.006  -7.425  -7.904  1.00  0.00     0.004 A 
ATOM     13  C   UNL     1      -5.252  -7.770  -7.367  1.00  0.00     0.009 A 
BRANCH   9  14
ATOM     14  O   UNL     1      -2.599  -5.417  -5.192  1.00  0.00    -0.410 OA
BRANCH  14  15
ATOM     15  C   UNL     1      -2.175  -5.807  -3.932  1.00  0.00     0.412 C 
ATOM     16  N   UNL     1      -1.435  -4.847  -3.300  1.00  0.00    -0.321 N 
ATOM     17  H   UNL     1      -1.082  -5.076  -2.410  1.00  0.00     0.167 HD
ATOM     18  O   UNL     1      -2.398  -6.886  -3.396  1.00  0.00    -0.224 OA
BRANCH  16  19
ATOM     19  C   UNL     1      -1.118  -3.525  -3.804  1.00  0.00     0.119 C 
BRANCH  19  20
ATOM     20  C   UNL     1      -1.644  -2.421  -2.887  1.00  0.00     0.021 C 
BRANCH  20  21
ATOM     21  C   UNL     1      -1.054  -2.425  -1.472  1.00  0.00     0.002 C 
BRANCH  21  22
ATOM     22  C   UNL     1       0.473  -2.324  -1.398  1.00  0.00     0.000 C 
BRANCH  22  23
ATOM     23  C   UNL     1       1.073  -1.058  -2.018  1.00  0.00    -0.000 C 
BRANCH  23  24
ATOM     24  C   UNL     1       0.616   0.259  -1.384  1.00  0.00    -0.003 C 
ATOM     25  C   UNL     1       0.976   0.375   0.090  1.00  0.00     0.004 C 
ENDBRANCH  23  24
ENDBRANCH  22  23
ENDBRANCH  21  22
ENDBRANCH  20  21
ENDBRANCH  19  20
ENDBRANCH  16  19
ENDBRANCH  14  15
ENDBRANCH   9  14
ENDBRANCH   1   8
BRANCH   4  26
ATOM     26  C   UNL     1     -10.621  -9.141  -3.545  1.00  0.00     0.105 C 
ATOM     27  C   UNL     1     -11.693  -9.806  -4.407  1.00  0.00     0.023 C 
BRANCH  26  28
ATOM     28  C   UNL     1     -10.311  -9.875  -2.231  1.00  0.00     0.227 C 
ATOM     29  O   UNL     1     -10.454  -9.288  -1.150  1.00  0.00    -0.274 OA
ATOM     30  N   UNL     1      -9.877 -11.162  -2.158  1.00  0.00    -0.356 N 
ATOM     31  H   UNL     1      -9.784 -11.501  -1.239  1.00  0.00     0.163 HD
BRANCH  30  32
ATOM     32  C   UNL     1      -9.526 -12.128  -3.180  1.00  0.00     0.117 C 
BRANCH  32  33
ATOM     33  C   UNL     1      -8.019 -12.209  -3.408  1.00  0.00     0.042 C 
BRANCH  33  34
ATOM     34  C   UNL     1      -7.286 -13.073  -2.390  1.00  0.00     0.118 C 
BRANCH  34  35
ATOM     35  N   UNL     1      -7.590 -14.489  -2.549  1.00  0.00    -0.352 N 
ATOM     36  C   UNL     1      -6.781 -15.548  -2.877  1.00  0.00     0.251 C 
ATOM     37  H   UNL     1      -8.533 -14.725  -2.394  1.00  0.00     0.163 HD
ATOM     38  O   UNL     1      -7.298 -16.625  -3.166  1.00  0.00    -0.269 OA
BRANCH  36  39
ATOM     39  C   UNL     1      -5.306 -15.418  -2.900  1.00  0.00     0.039 A 
ATOM     40  C   UNL     1      -4.585 -16.126  -3.869  1.00  0.00     0.014 A 
ATOM     41  C   UNL     1      -4.620 -14.664  -1.945  1.00  0.00     0.014 A 
ATOM     42  C   UNL     1      -3.191 -16.036  -3.909  1.00  0.00     0.010 A 
ATOM     43  C   UNL     1      -3.239 -14.508  -2.037  1.00  0.00     0.010 A 
ATOM     44  C   UNL     1      -2.507 -15.203  -3.011  1.00  0.00    -0.014 A 
BRANCH  44  45
ATOM     45  C   UNL     1      -1.030 -15.057  -3.061  1.00  0.00     0.031 A 
ATOM     46  C   UNL     1      -0.183 -15.508  -1.902  1.00  0.00     0.074 A 
ATOM     47  C   UNL     1      -0.454 -14.463  -4.124  1.00  0.00     0.049 A 
ATOM     48  N   UNL     1       1.113 -15.411  -1.737  1.00  0.00    -0.248 NA
ATOM     49  C   UNL     1      -0.887 -16.126  -0.766  1.00  0.00     0.031 C 
ATOM     50  C   UNL     1      -1.163 -13.949  -5.297  1.00  0.00     0.029 A 
ATOM     51  N   UNL     1       0.865 -14.186  -4.385  1.00  0.00    -0.354 N 
ATOM     52  C   UNL     1       1.373 -15.926  -0.473  1.00  0.00     0.074 A 
ATOM     53  C   UNL     1       0.099 -16.297   0.102  1.00  0.00     0.031 C 
ATOM     54  C   UNL     1      -0.271 -13.447  -6.165  1.00  0.00     0.029 A 
ATOM     55  C   UNL     1       1.067 -13.565  -5.593  1.00  0.00     0.049 A 
ATOM     56  H   UNL     1       1.596 -14.411  -3.765  1.00  0.00     0.167 HD
ATOM     57  C   UNL     1       2.565 -16.091   0.148  1.00  0.00     0.031 A 
ATOM     58  C   UNL     1       2.201 -13.133  -6.175  1.00  0.00     0.031 A 
ATOM     59  C   UNL     1       3.834 -15.740  -0.431  1.00  0.00     0.049 A 
ATOM     60  C   UNL     1       3.511 -13.321  -5.463  1.00  0.00     0.074 A 
ATOM     61  C   UNL     1       5.103 -15.934   0.088  1.00  0.00     0.029 A 
ATOM     62  N   UNL     1       3.995 -15.116  -1.658  1.00  0.00    -0.354 N 
ATOM     63  N   UNL     1       3.747 -13.877  -4.300  1.00  0.00    -0.248 NA
ATOM     64  C   UNL     1       4.713 -12.827  -6.151  1.00  0.00     0.031 C 
ATOM     65  C   UNL     1       6.028 -15.381  -0.803  1.00  0.00     0.029 A 
ATOM     66  C   UNL     1       5.340 -14.893  -1.901  1.00  0.00     0.049 A 
ATOM     67  H   UNL     1       3.261 -14.868  -2.266  1.00  0.00     0.167 HD
ATOM     68  C   UNL     1       5.124 -13.825  -4.128  1.00  0.00     0.074 A 
ATOM     69  C   UNL     1       5.671 -13.196  -5.313  1.00  0.00     0.031 C 
ATOM     70  C   UNL     1       5.869 -14.263  -3.084  1.00  0.00     0.031 A 
BRANCH  57  71
ATOM     71  C   UNL     1       2.547 -16.667   1.538  1.00  0.00    -0.014 A 
ATOM     72  C   UNL     1       2.210 -18.011   1.768  1.00  0.00     0.009 A 
ATOM     73  C   UNL     1       2.897 -15.859   2.631  1.00  0.00     0.009 A 
ATOM     74  C   UNL     1       2.181 -18.520   3.068  1.00  0.00     0.001 A 
ATOM     75  C   UNL     1       2.897 -16.380   3.926  1.00  0.00     0.001 A 
ATOM     76  C   UNL     1       2.528 -17.706   4.145  1.00  0.00     0.000 A 
ENDBRANCH  57  71
BRANCH  58  77
ATOM     77  C   UNL     1       2.153 -12.504  -7.520  1.00  0.00    -0.014 A 
ATOM     78  C   UNL     1       2.647 -13.191  -8.640  1.00  0.00     0.009 A 
ATOM     79  C   UNL     1       1.610 -11.222  -7.695  1.00  0.00     0.009 A 
ATOM     80  C   UNL     1       2.619 -12.598  -9.904  1.00  0.00     0.001 A 
ATOM     81  C   UNL     1       1.558 -10.642  -8.965  1.00  0.00     0.001 A 
ATOM     82  C   UNL     1       2.071 -11.327 -10.066  1.00  0.00     0.000 A 
ENDBRANCH  58  77
BRANCH  70  83
ATOM     83  C   UNL     1       7.359 -14.108  -3.191  1.00  0.00    -0.014 A 
ATOM     84  C   UNL     1       7.972 -12.851  -3.071  1.00  0.00     0.009 A 
ATOM     85  C   UNL     1       8.163 -15.244  -3.376  1.00  0.00     0.009 A 
ATOM     86  C   UNL     1       9.360 -12.732  -3.167  1.00  0.00     0.001 A 
ATOM     87  C   UNL     1       9.552 -15.125  -3.443  1.00  0.00     0.001 A 
ATOM     88  C   UNL     1      10.148 -13.869  -3.348  1.00  0.00     0.000 A 
ENDBRANCH  70  83
ENDBRANCH  44  45
ENDBRANCH  36  39
ENDBRANCH  34  35
ENDBRANCH  33  34
ENDBRANCH  32  33
ENDBRANCH  30  32
ENDBRANCH  26  28
ENDBRANCH   4  26
TORSDOF 20
