REMARK SMILES CC[NH+]1CCN(c2ccc(NC(=O)C3CCCC3)c(C(=O)NCCCNC(=O)c3ccc(-c4c5nc(c(-c6ccccc6)c6ccc([nH]6)c(-c6ccccc6)c6nc(c(-c7ccccc7)c7ccc4[nH]7)C=C6)C=C5)cc3)c2)CC1
REMARK SMILES IDX 24 1 23 2 22 3 20 4 21 5 19 7 7 8 8 9 77 10 9 11 10 12 6 13
REMARK SMILES IDX 3 14 4 15 79 16 5 18 78 19 2 20 1 21 11 22 12 23 13 25 14 26
REMARK SMILES IDX 15 27 18 28 16 29 17 30 25 31 26 32 27 33 28 35 29 36 30 37
REMARK SMILES IDX 76 38 31 39 75 40 32 41 33 42 34 43 69 44 35 45 74 46 68 47
REMARK SMILES IDX 70 48 36 49 73 50 67 51 66 52 37 54 59 55 44 56 58 57 45 58
REMARK SMILES IDX 48 59 57 60 71 61 46 62 47 63 56 65 72 66 49 67 38 68 39 69
REMARK SMILES IDX 43 70 40 71 42 72 41 73 60 74 61 75 65 76 62 77 64 78 63 79
REMARK SMILES IDX 50 80 51 81 55 82 52 83 54 84 53 85
REMARK H PARENT 22 6 3 17 11 24 26 34 70 53 48 64
REMARK Flexibility Score: inf
ROOT
ATOM      1  C   UNL     1       1.885   4.615   5.946  1.00  0.00     0.042 C 
ENDROOT
BRANCH   1   2
ATOM      2  C   UNL     1       0.557   4.845   5.251  1.00  0.00     0.118 C 
BRANCH   2   3
ATOM      3  N   UNL     1       0.172   6.242   5.058  1.00  0.00    -0.352 N 
ATOM      4  C   UNL     1      -0.404   6.906   3.986  1.00  0.00     0.253 C 
ATOM      5  O   UNL     1      -0.633   8.110   4.110  1.00  0.00    -0.269 OA
ATOM      6  H   UNL     1       0.357   6.819   5.834  1.00  0.00     0.163 HD
BRANCH   4   7
ATOM      7  C   UNL     1      -0.667   6.244   2.670  1.00  0.00     0.065 A 
ATOM      8  C   UNL     1      -0.569   4.118   1.509  1.00  0.00     0.038 A 
ATOM      9  C   UNL     1      -0.451   4.809   0.320  1.00  0.00     0.028 A 
ATOM     10  C   UNL     1      -0.884   4.858   2.641  1.00  0.00     0.042 A 
ATOM     11  C   UNL     1      -0.511   6.194   0.300  1.00  0.00     0.029 A 
ATOM     12  C   UNL     1      -0.571   6.956   1.452  1.00  0.00     0.054 A 
BRANCH   8  13
ATOM     13  N   UNL     1      -0.185   2.802   1.600  1.00  0.00    -0.360 N 
ATOM     14  N   UNL     1       1.025   0.203   2.185  1.00  0.00    -0.332 N 
ATOM     15  C   UNL     1       1.811   1.310   1.621  1.00  0.00     0.283 C 
ATOM     16  C   UNL     1      -0.068   0.773   3.010  1.00  0.00     0.283 C 
ATOM     17  H   UNL     1       1.681  -0.337   2.749  1.00  0.00     0.348 HD
ATOM     18  C   UNL     1       1.009   2.378   0.852  1.00  0.00     0.178 C 
ATOM     19  C   UNL     1      -0.983   1.774   2.264  1.00  0.00     0.178 C 
BRANCH  14  20
ATOM     20  C   UNL     1       0.526  -0.814   1.248  1.00  0.00     0.258 C 
ATOM     21  C   UNL     1       0.986  -0.787  -0.208  1.00  0.00     0.071 C 
ENDBRANCH  14  20
ENDBRANCH   8  13
BRANCH  12  22
ATOM     22  N   UNL     1      -0.517   8.368   1.420  1.00  0.00    -0.325 N 
ATOM     23  C   UNL     1      -0.502   9.342   0.464  1.00  0.00     0.227 C 
ATOM     24  H   UNL     1      -0.481   8.750   2.326  1.00  0.00     0.169 HD
ATOM     25  O   UNL     1      -0.428  10.508   0.889  1.00  0.00    -0.274 OA
BRANCH  23  26
ATOM     26  C   UNL     1      -0.576   9.164  -1.061  1.00  0.00     0.079 C 
ATOM     27  C   UNL     1       0.638   8.513  -1.719  1.00  0.00     0.013 C 
ATOM     28  C   UNL     1      -1.835   8.485  -1.596  1.00  0.00     0.013 C 
ATOM     29  C   UNL     1       0.115   7.623  -2.845  1.00  0.00     0.001 C 
ATOM     30  C   UNL     1      -1.407   7.567  -2.738  1.00  0.00     0.001 C 
ENDBRANCH  23  26
ENDBRANCH  12  22
ENDBRANCH   4   7
ENDBRANCH   2   3
ENDBRANCH   1   2
BRANCH   1  31
ATOM     31  C   UNL     1       1.962   5.112   7.375  1.00  0.00     0.118 C 
BRANCH  31  32
ATOM     32  N   UNL     1       1.039   4.428   8.274  1.00  0.00    -0.352 N 
ATOM     33  C   UNL     1       1.250   3.461   9.226  1.00  0.00     0.251 C 
ATOM     34  H   UNL     1       0.100   4.710   8.184  1.00  0.00     0.163 HD
ATOM     35  O   UNL     1       0.281   2.902   9.744  1.00  0.00    -0.269 OA
BRANCH  33  36
ATOM     36  C   UNL     1       2.618   3.056   9.618  1.00  0.00     0.039 A 
ATOM     37  C   UNL     1       2.881   1.711   9.899  1.00  0.00     0.014 A 
ATOM     38  C   UNL     1       3.643   3.994   9.729  1.00  0.00     0.014 A 
ATOM     39  C   UNL     1       4.184   1.304  10.201  1.00  0.00     0.010 A 
ATOM     40  C   UNL     1       4.956   3.572   9.901  1.00  0.00     0.010 A 
ATOM     41  C   UNL     1       5.242   2.225  10.155  1.00  0.00    -0.014 A 
BRANCH  41  42
ATOM     42  C   UNL     1       6.651   1.816  10.390  1.00  0.00     0.031 A 
ATOM     43  C   UNL     1       7.439   2.440  11.512  1.00  0.00     0.074 A 
ATOM     44  C   UNL     1       7.246   0.949   9.549  1.00  0.00     0.049 A 
ATOM     45  N   UNL     1       8.701   2.285  11.822  1.00  0.00    -0.248 NA
ATOM     46  C   UNL     1       6.723   3.392  12.380  1.00  0.00     0.031 C 
ATOM     47  C   UNL     1       6.611   0.314   8.392  1.00  0.00     0.029 A 
ATOM     48  N   UNL     1       8.528   0.458   9.532  1.00  0.00    -0.354 N 
ATOM     49  C   UNL     1       8.931   3.133  12.899  1.00  0.00     0.074 A 
ATOM     50  C   UNL     1       7.701   3.849  13.146  1.00  0.00     0.031 C 
ATOM     51  C   UNL     1       7.493  -0.507   7.800  1.00  0.00     0.029 A 
ATOM     52  C   UNL     1       8.768  -0.420   8.503  1.00  0.00     0.049 A 
ATOM     53  H   UNL     1       9.210   0.711  10.195  1.00  0.00     0.167 HD
ATOM     54  C   UNL     1      10.057   3.284  13.637  1.00  0.00     0.031 A 
ATOM     55  C   UNL     1       9.892  -1.076   8.158  1.00  0.00     0.031 A 
ATOM     56  C   UNL     1      11.277   2.562  13.400  1.00  0.00     0.049 A 
ATOM     57  C   UNL     1      11.132  -0.887   8.986  1.00  0.00     0.074 A 
ATOM     58  C   UNL     1      12.456   2.600  14.121  1.00  0.00     0.029 A 
ATOM     59  N   UNL     1      11.472   1.668  12.357  1.00  0.00    -0.354 N 
ATOM     60  N   UNL     1      11.313  -0.133  10.043  1.00  0.00    -0.248 NA
ATOM     61  C   UNL     1      12.320  -1.651   8.581  1.00  0.00     0.031 C 
ATOM     62  C   UNL     1      13.384   1.770  13.483  1.00  0.00     0.029 A 
ATOM     63  C   UNL     1      12.761   1.166  12.403  1.00  0.00     0.049 A 
ATOM     64  H   UNL     1      10.794   1.427  11.685  1.00  0.00     0.167 HD
ATOM     65  C   UNL     1      12.624  -0.351  10.445  1.00  0.00     0.074 A 
ATOM     66  C   UNL     1      13.186  -1.323   9.529  1.00  0.00     0.031 C 
ATOM     67  C   UNL     1      13.303   0.202  11.480  1.00  0.00     0.031 A 
BRANCH  54  68
ATOM     68  C   UNL     1      10.012   4.273  14.771  1.00  0.00    -0.014 A 
ATOM     69  C   UNL     1       9.216   4.044  15.906  1.00  0.00     0.009 A 
ATOM     70  C   UNL     1      10.788   5.441  14.713  1.00  0.00     0.009 A 
ATOM     71  C   UNL     1       9.164   4.985  16.938  1.00  0.00     0.001 A 
ATOM     72  C   UNL     1      10.761   6.363  15.762  1.00  0.00     0.001 A 
ATOM     73  C   UNL     1       9.940   6.140  16.867  1.00  0.00     0.000 A 
ENDBRANCH  54  68
BRANCH  55  74
ATOM     74  C   UNL     1       9.892  -1.985   6.980  1.00  0.00    -0.014 A 
ATOM     75  C   UNL     1       9.991  -3.374   7.150  1.00  0.00     0.009 A 
ATOM     76  C   UNL     1       9.789  -1.468   5.679  1.00  0.00     0.009 A 
ATOM     77  C   UNL     1      10.015  -4.224   6.042  1.00  0.00     0.001 A 
ATOM     78  C   UNL     1       9.781  -2.322   4.574  1.00  0.00     0.001 A 
ATOM     79  C   UNL     1       9.904  -3.699   4.756  1.00  0.00     0.000 A 
ENDBRANCH  55  74
BRANCH  67  80
ATOM     80  C   UNL     1      14.718  -0.257  11.697  1.00  0.00    -0.014 A 
ATOM     81  C   UNL     1      15.749   0.112  10.820  1.00  0.00     0.009 A 
ATOM     82  C   UNL     1      15.027  -1.036  12.824  1.00  0.00     0.009 A 
ATOM     83  C   UNL     1      17.057  -0.321  11.049  1.00  0.00     0.001 A 
ATOM     84  C   UNL     1      16.340  -1.440  13.067  1.00  0.00     0.001 A 
ATOM     85  C   UNL     1      17.352  -1.091  12.174  1.00  0.00     0.000 A 
ENDBRANCH  67  80
ENDBRANCH  41  42
ENDBRANCH  33  36
ENDBRANCH  31  32
ENDBRANCH   1  31
TORSDOF 14
