REMARK SMILES CC(C)[C@H](NC(=O)[C@H](C)NC(=O)CNC(=O)OCc1ccccc1)C(=O)NCCCNC(=O)c1ccc(-c2c3nc(c(-c4ccccc4)c4ccc([nH]4)c(-c4ccccc4)c4nc(c(-c5ccccc5)c5ccc2[nH]5)C=C4)C=C3)cc1
REMARK SMILES IDX 4 1 2 2 1 3 3 4 25 5 26 6 27 7 28 9 29 10 30 11 31 12 32 13
REMARK SMILES IDX 33 15 34 16 35 17 81 18 36 19 80 20 37 21 38 22 39 23 74 24
REMARK SMILES IDX 40 25 79 26 73 27 75 28 41 29 78 30 72 31 71 32 42 34 64 35
REMARK SMILES IDX 49 36 63 37 50 38 53 39 62 40 76 41 51 42 52 43 61 45 77 46
REMARK SMILES IDX 54 47 43 48 44 49 48 50 45 51 47 52 46 53 65 54 66 55 70 56
REMARK SMILES IDX 67 57 69 58 68 59 55 60 56 61 60 62 57 63 59 64 58 65 5 66
REMARK SMILES IDX 6 67 7 69 8 70 9 71 10 72 11 73 12 75 13 76 14 77 15 78
REMARK SMILES IDX 16 80 17 81 18 82 19 83 20 84 24 85 21 86 23 87 22 88
REMARK H PARENT 27 8 31 14 75 33 53 44 5 68 10 74 14 79
REMARK Flexibility Score: inf
ROOT
ATOM      1  C   UNL     1      -2.106   1.437  -5.252  1.00  0.00     0.173 C 
ENDROOT
BRANCH   1   2
ATOM      2  C   UNL     1      -3.354   2.107  -4.338  1.00  0.00     0.015 C 
ATOM      3  C   UNL     1      -4.507   1.081  -4.002  1.00  0.00     0.010 C 
ATOM      4  C   UNL     1      -3.311   2.936  -3.039  1.00  0.00     0.010 C 
ENDBRANCH   1   2
BRANCH   1   5
ATOM      5  C   UNL     1      -0.317   1.298  -5.563  1.00  0.00     0.242 C 
ATOM      6  O   UNL     1      -0.032   1.143  -6.771  1.00  0.00    -0.273 OA
ATOM      7  N   UNL     1       0.861   1.020  -4.706  1.00  0.00    -0.354 N 
ATOM      8  H   UNL     1       1.442   0.437  -5.244  1.00  0.00     0.163 HD
BRANCH   7   9
ATOM      9  C   UNL     1       1.680   1.233  -3.233  1.00  0.00     0.117 C 
BRANCH   9  10
ATOM     10  C   UNL     1       1.419   0.682  -1.798  1.00  0.00     0.042 C 
BRANCH  10  11
ATOM     11  C   UNL     1       2.748   0.440  -1.103  1.00  0.00     0.118 C 
BRANCH  11  12
ATOM     12  N   UNL     1       2.947   1.265   0.073  1.00  0.00    -0.352 N 
ATOM     13  C   UNL     1       3.595   0.882   1.227  1.00  0.00     0.251 C 
ATOM     14  H   UNL     1       2.586   2.180   0.045  1.00  0.00     0.163 HD
ATOM     15  O   UNL     1       3.562   1.572   2.238  1.00  0.00    -0.269 OA
BRANCH  13  16
ATOM     16  C   UNL     1       4.299  -0.418   1.216  1.00  0.00     0.039 A 
ATOM     17  C   UNL     1       4.073  -1.333   2.244  1.00  0.00     0.014 A 
ATOM     18  C   UNL     1       5.092  -0.763   0.117  1.00  0.00     0.014 A 
ATOM     19  C   UNL     1       4.628  -2.609   2.149  1.00  0.00     0.010 A 
ATOM     20  C   UNL     1       5.506  -2.073  -0.047  1.00  0.00     0.010 A 
ATOM     21  C   UNL     1       5.331  -2.993   0.994  1.00  0.00    -0.014 A 
BRANCH  21  22
ATOM     22  C   UNL     1       5.986  -4.317   0.889  1.00  0.00     0.031 A 
ATOM     23  C   UNL     1       7.482  -4.381   0.715  1.00  0.00     0.074 A 
ATOM     24  C   UNL     1       5.248  -5.443   0.917  1.00  0.00     0.049 A 
ATOM     25  N   UNL     1       8.254  -5.428   0.579  1.00  0.00    -0.248 NA
ATOM     26  C   UNL     1       8.206  -3.098   0.643  1.00  0.00     0.031 C 
ATOM     27  C   UNL     1       3.789  -5.502   1.030  1.00  0.00     0.029 A 
ATOM     28  N   UNL     1       5.631  -6.758   0.862  1.00  0.00    -0.354 N 
ATOM     29  C   UNL     1       9.535  -4.925   0.385  1.00  0.00     0.074 A 
ATOM     30  C   UNL     1       9.430  -3.488   0.334  1.00  0.00     0.031 C 
ATOM     31  C   UNL     1       3.406  -6.788   1.090  1.00  0.00     0.029 A 
ATOM     32  C   UNL     1       4.584  -7.641   0.975  1.00  0.00     0.049 A 
ATOM     33  H   UNL     1       6.567  -7.043   0.752  1.00  0.00     0.167 HD
ATOM     34  C   UNL     1      10.706  -5.596   0.298  1.00  0.00     0.031 A 
ATOM     35  C   UNL     1       4.582  -8.986   0.988  1.00  0.00     0.031 A 
ATOM     36  C   UNL     1      10.808  -7.025   0.379  1.00  0.00     0.049 A 
ATOM     37  C   UNL     1       5.896  -9.712   0.881  1.00  0.00     0.074 A 
ATOM     38  C   UNL     1      11.946  -7.810   0.362  1.00  0.00     0.029 A 
ATOM     39  N   UNL     1       9.725  -7.882   0.494  1.00  0.00    -0.354 N 
ATOM     40  N   UNL     1       7.108  -9.220   0.777  1.00  0.00    -0.248 NA
ATOM     41  C   UNL     1       5.842 -11.180   0.908  1.00  0.00     0.031 C 
ATOM     42  C   UNL     1      11.546  -9.149   0.406  1.00  0.00     0.029 A 
ATOM     43  C   UNL     1      10.164  -9.193   0.521  1.00  0.00     0.049 A 
ATOM     44  H   UNL     1       8.783  -7.600   0.549  1.00  0.00     0.167 HD
ATOM     45  C   UNL     1       7.962 -10.316   0.756  1.00  0.00     0.074 A 
ATOM     46  C   UNL     1       7.129 -11.495   0.879  1.00  0.00     0.031 C 
ATOM     47  C   UNL     1       9.312 -10.347   0.645  1.00  0.00     0.031 A 
BRANCH  34  48
ATOM     48  C   UNL     1      11.958  -4.785   0.105  1.00  0.00    -0.014 A 
ATOM     49  C   UNL     1      12.441  -3.932   1.113  1.00  0.00     0.009 A 
ATOM     50  C   UNL     1      12.674  -4.884  -1.097  1.00  0.00     0.009 A 
ATOM     51  C   UNL     1      13.588  -3.164   0.903  1.00  0.00     0.001 A 
ATOM     52  C   UNL     1      13.841  -4.142  -1.291  1.00  0.00     0.001 A 
ATOM     53  C   UNL     1      14.290  -3.275  -0.296  1.00  0.00     0.000 A 
ENDBRANCH  34  48
BRANCH  35  54
ATOM     54  C   UNL     1       3.304  -9.733   1.128  1.00  0.00    -0.014 A 
ATOM     55  C   UNL     1       3.030 -10.471   2.291  1.00  0.00     0.009 A 
ATOM     56  C   UNL     1       2.353  -9.721   0.096  1.00  0.00     0.009 A 
ATOM     57  C   UNL     1       1.847 -11.207   2.401  1.00  0.00     0.001 A 
ATOM     58  C   UNL     1       1.156 -10.430   0.223  1.00  0.00     0.001 A 
ATOM     59  C   UNL     1       0.910 -11.182   1.370  1.00  0.00     0.000 A 
ENDBRANCH  35  54
BRANCH  47  60
ATOM     60  C   UNL     1       9.974 -11.695   0.690  1.00  0.00    -0.014 A 
ATOM     61  C   UNL     1       9.856 -12.603  -0.373  1.00  0.00     0.009 A 
ATOM     62  C   UNL     1      10.772 -12.036   1.794  1.00  0.00     0.009 A 
ATOM     63  C   UNL     1      10.494 -13.843  -0.314  1.00  0.00     0.001 A 
ATOM     64  C   UNL     1      11.437 -13.261   1.834  1.00  0.00     0.001 A 
ATOM     65  C   UNL     1      11.289 -14.168   0.786  1.00  0.00     0.000 A 
ENDBRANCH  47  60
ENDBRANCH  21  22
ENDBRANCH  13  16
ENDBRANCH  11  12
ENDBRANCH  10  11
ENDBRANCH   9  10
ENDBRANCH   7   9
ENDBRANCH   1   5
BRANCH   1  66
ATOM     66  N   UNL     1      -2.515   0.042  -5.382  1.00  0.00    -0.342 N 
ATOM     67  C   UNL     1      -2.231  -0.785  -4.324  1.00  0.00     0.242 C 
ATOM     68  H   UNL     1      -2.972  -0.290  -6.189  1.00  0.00     0.164 HD
ATOM     69  O   UNL     1      -2.764  -1.887  -4.187  1.00  0.00    -0.273 OA
BRANCH  67  70
ATOM     70  C   UNL     1      -0.978  -0.315  -3.596  1.00  0.00     0.168 C 
ATOM     71  C   UNL     1      -0.098  -1.505  -3.137  1.00  0.00     0.041 C 
BRANCH  70  72
ATOM     72  N   UNL     1      -0.862   1.360  -3.056  1.00  0.00    -0.343 N 
ATOM     73  C   UNL     1      -0.377   2.762  -3.352  1.00  0.00     0.240 C 
ATOM     74  H   UNL     1      -1.307   1.400  -2.178  1.00  0.00     0.164 HD
ATOM     75  O   UNL     1      -0.629   3.570  -2.433  1.00  0.00    -0.273 OA
BRANCH  73  76
ATOM     76  C   UNL     1       0.673   3.502  -4.656  1.00  0.00     0.219 C 
BRANCH  76  77
ATOM     77  N   UNL     1       2.211   3.459  -4.741  1.00  0.00    -0.312 N 
ATOM     78  C   UNL     1       3.132   2.624  -5.370  1.00  0.00     0.407 C 
ATOM     79  H   UNL     1       2.640   4.187  -4.235  1.00  0.00     0.167 HD
ATOM     80  O   UNL     1       4.243   2.485  -4.863  1.00  0.00    -0.225 OA
BRANCH  78  81
ATOM     81  O   UNL     1       2.700   1.891  -6.432  1.00  0.00    -0.445 OA
BRANCH  81  82
ATOM     82  C   UNL     1       3.383   0.633  -6.776  1.00  0.00     0.270 C 
BRANCH  82  83
ATOM     83  C   UNL     1       4.733   0.650  -7.456  1.00  0.00    -0.011 A 
ATOM     84  C   UNL     1       5.337  -0.568  -7.841  1.00  0.00     0.007 A 
ATOM     85  C   UNL     1       5.440   1.833  -7.665  1.00  0.00     0.007 A 
ATOM     86  C   UNL     1       6.628  -0.590  -8.381  1.00  0.00     0.000 A 
ATOM     87  C   UNL     1       6.734   1.808  -8.187  1.00  0.00     0.000 A 
ATOM     88  C   UNL     1       7.331   0.600  -8.539  1.00  0.00     0.000 A 
ENDBRANCH  82  83
ENDBRANCH  81  82
ENDBRANCH  78  81
ENDBRANCH  76  77
ENDBRANCH  73  76
ENDBRANCH  70  72
ENDBRANCH  67  70
ENDBRANCH   1  66
TORSDOF 19
