REMARK SMILES O=C(NCCCNC(=O)[C@@H]1CCC[C@@H](C(=O)N2CCN3C(=O)NC[C@@H]3C2)C1)c1ccc(-c2c3nc(c(-c4ccccc4)c4ccc([nH]4)c(-c4ccccc4)c4nc(c(-c5ccccc5)c5ccc2[nH]5)C=C4)C=C3)cc1
REMARK SMILES IDX 5 1 4 2 3 3 1 4 2 5 28 7 29 8 75 9 30 10 74 11 31 12 32 13
REMARK SMILES IDX 33 14 68 15 34 16 73 17 67 18 69 19 35 20 72 21 66 22 65 23
REMARK SMILES IDX 36 25 58 26 43 27 57 28 44 29 47 30 56 31 70 32 45 33 46 34
REMARK SMILES IDX 55 36 71 37 48 38 37 39 38 40 42 41 39 42 41 43 40 44 59 45
REMARK SMILES IDX 60 46 64 47 61 48 63 49 62 50 49 51 50 52 54 53 51 54 53 55
REMARK SMILES IDX 52 56 6 57 7 58 8 59 9 61 10 62 11 63 27 64 12 65 14 66
REMARK SMILES IDX 13 67 15 68 16 69 17 70 18 71 26 72 19 73 25 74 20 75 24 76
REMARK SMILES IDX 21 77 23 78 22 79
REMARK H PARENT 3 6 69 24 47 35 7 60 23 80
REMARK Flexibility Score: inf
ROOT
ATOM      1  C   UNL     1       4.569  -0.834   2.373  1.00  0.00     0.042 C 
ENDROOT
BRANCH   1   2
ATOM      2  C   UNL     1       4.432  -1.045   0.868  1.00  0.00     0.118 C 
BRANCH   2   3
ATOM      3  N   UNL     1       3.034  -1.072   0.466  1.00  0.00    -0.352 N 
ATOM      4  O   UNL     1       1.090  -0.190  -0.233  1.00  0.00    -0.269 OA
ATOM      5  C   UNL     1       2.316  -0.166  -0.267  1.00  0.00     0.251 C 
ATOM      6  H   UNL     1       2.528  -1.862   0.766  1.00  0.00     0.163 HD
BRANCH   5   7
ATOM      7  C   UNL     1       3.011   0.829  -1.108  1.00  0.00     0.039 A 
ATOM      8  C   UNL     1       4.127   0.468  -1.869  1.00  0.00     0.014 A 
ATOM      9  C   UNL     1       2.483   2.119  -1.199  1.00  0.00     0.014 A 
ATOM     10  C   UNL     1       4.772   1.420  -2.651  1.00  0.00     0.010 A 
ATOM     11  C   UNL     1       3.088   3.053  -2.039  1.00  0.00     0.010 A 
ATOM     12  C   UNL     1       4.243   2.713  -2.761  1.00  0.00    -0.014 A 
BRANCH  12  13
ATOM     13  C   UNL     1       4.857   3.697  -3.682  1.00  0.00     0.031 A 
ATOM     14  C   UNL     1       5.476   4.954  -3.151  1.00  0.00     0.074 A 
ATOM     15  C   UNL     1       4.802   3.472  -5.008  1.00  0.00     0.049 A 
ATOM     16  N   UNL     1       5.963   5.975  -3.808  1.00  0.00    -0.248 NA
ATOM     17  C   UNL     1       5.546   5.086  -1.688  1.00  0.00     0.031 C 
ATOM     18  C   UNL     1       4.226   2.282  -5.639  1.00  0.00     0.029 A 
ATOM     19  N   UNL     1       5.219   4.241  -6.063  1.00  0.00    -0.354 N 
ATOM     20  C   UNL     1       6.370   6.884  -2.841  1.00  0.00     0.074 A 
ATOM     21  C   UNL     1       6.051   6.303  -1.554  1.00  0.00     0.031 C 
ATOM     22  C   UNL     1       4.332   2.398  -6.971  1.00  0.00     0.029 A 
ATOM     23  C   UNL     1       4.917   3.696  -7.287  1.00  0.00     0.049 A 
ATOM     24  H   UNL     1       5.689   5.100  -5.955  1.00  0.00     0.167 HD
ATOM     25  C   UNL     1       6.954   8.094  -3.014  1.00  0.00     0.031 A 
ATOM     26  C   UNL     1       5.055   4.199  -8.527  1.00  0.00     0.031 A 
ATOM     27  C   UNL     1       7.245   8.669  -4.302  1.00  0.00     0.049 A 
ATOM     28  C   UNL     1       5.651   5.565  -8.697  1.00  0.00     0.074 A 
ATOM     29  C   UNL     1       7.865   9.872  -4.589  1.00  0.00     0.029 A 
ATOM     30  N   UNL     1       6.917   8.087  -5.519  1.00  0.00    -0.354 N 
ATOM     31  N   UNL     1       6.071   6.400  -7.777  1.00  0.00    -0.248 NA
ATOM     32  C   UNL     1       5.797   6.059 -10.073  1.00  0.00     0.031 C 
ATOM     33  C   UNL     1       7.849  10.050  -5.976  1.00  0.00     0.029 A 
ATOM     34  C   UNL     1       7.291   8.922  -6.558  1.00  0.00     0.049 A 
ATOM     35  H   UNL     1       6.483   7.210  -5.627  1.00  0.00     0.167 HD
ATOM     36  C   UNL     1       6.560   7.504  -8.461  1.00  0.00     0.074 A 
ATOM     37  C   UNL     1       6.386   7.231  -9.874  1.00  0.00     0.031 C 
ATOM     38  C   UNL     1       7.113   8.635  -7.960  1.00  0.00     0.031 A 
BRANCH  25  39
ATOM     39  C   UNL     1       7.260   8.896  -1.777  1.00  0.00    -0.014 A 
ATOM     40  C   UNL     1       8.236   8.487  -0.854  1.00  0.00     0.009 A 
ATOM     41  C   UNL     1       6.555  10.085  -1.532  1.00  0.00     0.009 A 
ATOM     42  C   UNL     1       8.459   9.220   0.314  1.00  0.00     0.001 A 
ATOM     43  C   UNL     1       6.804  10.835  -0.381  1.00  0.00     0.001 A 
ATOM     44  C   UNL     1       7.744  10.394   0.548  1.00  0.00     0.000 A 
ENDBRANCH  25  39
BRANCH  26  45
ATOM     45  C   UNL     1       4.595   3.397  -9.690  1.00  0.00    -0.014 A 
ATOM     46  C   UNL     1       5.518   2.806 -10.563  1.00  0.00     0.009 A 
ATOM     47  C   UNL     1       3.223   3.169  -9.893  1.00  0.00     0.009 A 
ATOM     48  C   UNL     1       5.076   2.008 -11.622  1.00  0.00     0.001 A 
ATOM     49  C   UNL     1       2.787   2.347 -10.934  1.00  0.00     0.001 A 
ATOM     50  C   UNL     1       3.713   1.772 -11.800  1.00  0.00     0.000 A 
ENDBRANCH  26  45
BRANCH  38  51
ATOM     51  C   UNL     1       7.625   9.652  -8.942  1.00  0.00    -0.014 A 
ATOM     52  C   UNL     1       6.753  10.464  -9.683  1.00  0.00     0.009 A 
ATOM     53  C   UNL     1       9.010   9.854  -9.059  1.00  0.00     0.009 A 
ATOM     54  C   UNL     1       7.261  11.448 -10.534  1.00  0.00     0.001 A 
ATOM     55  C   UNL     1       9.513  10.858  -9.887  1.00  0.00     0.001 A 
ATOM     56  C   UNL     1       8.638  11.651 -10.627  1.00  0.00     0.000 A 
ENDBRANCH  38  51
ENDBRANCH  12  13
ENDBRANCH   5   7
ENDBRANCH   2   3
ENDBRANCH   1   2
BRANCH   1  57
ATOM     57  C   UNL     1       4.028  -2.014   3.181  1.00  0.00     0.117 C 
BRANCH  57  58
ATOM     58  N   UNL     1       4.934  -3.141   3.106  1.00  0.00    -0.356 N 
ATOM     59  C   UNL     1       5.951  -3.526   3.919  1.00  0.00     0.223 C 
ATOM     60  H   UNL     1       4.788  -3.729   2.330  1.00  0.00     0.163 HD
ATOM     61  O   UNL     1       6.661  -4.453   3.517  1.00  0.00    -0.275 OA
BRANCH  59  62
ATOM     62  C   UNL     1       6.175  -2.925   5.304  1.00  0.00     0.079 C 
ATOM     63  C   UNL     1       5.107  -3.436   6.273  1.00  0.00     0.013 C 
ATOM     64  C   UNL     1       6.349  -1.401   5.357  1.00  0.00     0.027 C 
ATOM     65  C   UNL     1       5.371  -2.959   7.696  1.00  0.00     0.002 C 
ATOM     66  C   UNL     1       6.507  -0.845   6.785  1.00  0.00     0.079 C 
ATOM     67  C   UNL     1       5.505  -1.442   7.772  1.00  0.00     0.013 C 
BRANCH  66  68
ATOM     68  C   UNL     1       7.968  -1.030   7.184  1.00  0.00     0.225 C 
ATOM     69  O   UNL     1       8.426  -2.122   7.513  1.00  0.00    -0.275 OA
BRANCH  68  70
ATOM     70  N   UNL     1       8.784   0.046   6.888  1.00  0.00    -0.339 N 
ATOM     71  C   UNL     1       8.505   1.432   7.306  1.00  0.00     0.141 C 
ATOM     72  C   UNL     1      10.098  -0.203   6.296  1.00  0.00     0.146 C 
ATOM     73  C   UNL     1       9.664   2.058   8.120  1.00  0.00     0.143 C 
ATOM     74  C   UNL     1      11.193   0.261   7.236  1.00  0.00     0.125 C 
ATOM     75  N   UNL     1      10.968   1.638   7.640  1.00  0.00    -0.317 N 
ATOM     76  C   UNL     1      12.589   0.316   6.629  1.00  0.00     0.144 C 
ATOM     77  C   UNL     1      12.169   2.312   7.777  1.00  0.00     0.317 C 
ATOM     78  N   UNL     1      13.156   1.494   7.237  1.00  0.00    -0.336 N 
ATOM     79  O   UNL     1      12.351   3.407   8.266  1.00  0.00    -0.249 OA
ATOM     80  H   UNL     1      14.119   1.694   7.265  1.00  0.00     0.165 HD
ENDBRANCH  68  70
ENDBRANCH  66  68
ENDBRANCH  59  62
ENDBRANCH  57  58
ENDBRANCH   1  57
TORSDOF 12
