REMARK SMILES COC(=O)CCN(C)C(=O)NCc1ccc(C(=O)NCCCNC(=O)c2ccc(-c3c4nc(c(-c5ccccc5)c5ccc([nH]5)c(-c5ccccc5)c5nc(c(-c6ccccc6)c6ccc3[nH]6)C=C5)C=C4)cc2)o1
REMARK SMILES IDX 13 1 14 2 15 3 16 4 74 5 12 6 11 7 9 8 10 9 7 11 8 12 6 13
REMARK SMILES IDX 5 14 3 15 4 16 2 17 1 18 17 19 18 20 19 21 20 23 21 24 22 25
REMARK SMILES IDX 23 26 24 27 25 29 26 30 27 31 73 32 28 33 72 34 29 35 30 36
REMARK SMILES IDX 31 37 66 38 32 39 71 40 65 41 67 42 33 43 70 44 64 45 63 46
REMARK SMILES IDX 34 48 56 49 41 50 55 51 42 52 45 53 54 54 68 55 43 56 44 57
REMARK SMILES IDX 53 59 69 60 46 61 35 62 36 63 40 64 37 65 39 66 38 67 57 68
REMARK SMILES IDX 58 69 62 70 59 71 61 72 60 73 47 74 48 75 52 76 49 77 51 78
REMARK SMILES IDX 50 79
REMARK H PARENT 11 10 19 22 23 28 67 47 45 58
REMARK Flexibility Score: inf
ROOT
ATOM      1  C   UNL     1      -0.398   3.720   4.171  1.00  0.00     0.124 A 
ATOM      2  C   UNL     1      -0.981   4.957   4.022  1.00  0.00     0.048 A 
ATOM      3  C   UNL     1      -0.217   5.854   4.814  1.00  0.00     0.056 A 
ATOM      4  C   UNL     1       0.812   5.127   5.390  1.00  0.00     0.191 A 
ATOM      5  O   UNL     1       0.659   3.814   5.024  1.00  0.00    -0.454 OA
ENDROOT
BRANCH   1   6
ATOM      6  C   UNL     1      -0.675   2.376   3.600  1.00  0.00     0.193 C 
BRANCH   6   7
ATOM      7  N   UNL     1       0.587   1.755   3.259  1.00  0.00    -0.331 N 
ATOM      8  C   UNL     1       1.126   0.533   3.374  1.00  0.00     0.317 C 
ATOM      9  O   UNL     1       2.149   0.342   2.709  1.00  0.00    -0.249 OA
ATOM     10  H   UNL     1       1.207   2.392   2.836  1.00  0.00     0.165 HD
BRANCH   8  11
ATOM     11  N   UNL     1       0.561  -0.459   4.126  1.00  0.00    -0.327 N 
ATOM     12  C   UNL     1      -0.407  -0.279   5.193  1.00  0.00     0.148 C 
BRANCH  11  13
ATOM     13  C   UNL     1       1.017  -1.835   3.883  1.00  0.00     0.132 C 
BRANCH  13  14
ATOM     14  C   UNL     1       0.229  -2.530   2.781  1.00  0.00     0.144 C 
BRANCH  14  15
ATOM     15  C   UNL     1       0.762  -2.156   1.424  1.00  0.00     0.307 C 
ATOM     16  O   UNL     1       1.668  -2.756   0.859  1.00  0.00    -0.252 OA
BRANCH  15  17
ATOM     17  O   UNL     1       0.104  -1.070   0.934  1.00  0.00    -0.469 OA
ATOM     18  C   UNL     1       0.708  -0.497  -0.226  1.00  0.00     0.282 C 
ENDBRANCH  15  17
ENDBRANCH  14  15
ENDBRANCH  13  14
ENDBRANCH  11  13
ENDBRANCH   8  11
ENDBRANCH   6   7
ENDBRANCH   1   6
BRANCH   4  19
ATOM     19  C   UNL     1       1.942   5.418   6.254  1.00  0.00     0.286 C 
ATOM     20  O   UNL     1       2.524   4.554   6.913  1.00  0.00    -0.266 OA
ATOM     21  N   UNL     1       2.451   6.691   6.371  1.00  0.00    -0.349 N 
ATOM     22  H   UNL     1       3.189   6.777   7.017  1.00  0.00     0.163 HD
BRANCH  21  23
ATOM     23  C   UNL     1       2.086   7.924   5.708  1.00  0.00     0.118 C 
BRANCH  23  24
ATOM     24  C   UNL     1       1.127   8.754   6.558  1.00  0.00     0.042 C 
BRANCH  24  25
ATOM     25  C   UNL     1       1.812   9.466   7.725  1.00  0.00     0.118 C 
BRANCH  25  26
ATOM     26  N   UNL     1       2.706  10.520   7.268  1.00  0.00    -0.352 N 
ATOM     27  C   UNL     1       2.704  11.867   7.521  1.00  0.00     0.251 C 
ATOM     28  H   UNL     1       3.432  10.214   6.678  1.00  0.00     0.163 HD
ATOM     29  O   UNL     1       3.413  12.602   6.838  1.00  0.00    -0.269 OA
BRANCH  27  30
ATOM     30  C   UNL     1       1.869  12.453   8.594  1.00  0.00     0.039 A 
ATOM     31  C   UNL     1       1.297  13.711   8.377  1.00  0.00     0.014 A 
ATOM     32  C   UNL     1       1.712  11.823   9.832  1.00  0.00     0.014 A 
ATOM     33  C   UNL     1       0.539  14.316   9.381  1.00  0.00     0.010 A 
ATOM     34  C   UNL     1       0.901  12.399  10.811  1.00  0.00     0.010 A 
ATOM     35  C   UNL     1       0.315  13.655  10.599  1.00  0.00    -0.014 A 
BRANCH  35  36
ATOM     36  C   UNL     1      -0.529  14.274  11.652  1.00  0.00     0.031 A 
ATOM     37  C   UNL     1       0.070  14.703  12.963  1.00  0.00     0.074 A 
ATOM     38  C   UNL     1      -1.851  14.418  11.438  1.00  0.00     0.049 A 
ATOM     39  N   UNL     1      -0.516  15.259  13.995  1.00  0.00    -0.248 NA
ATOM     40  C   UNL     1       1.509  14.458  13.150  1.00  0.00     0.031 C 
ATOM     41  C   UNL     1      -2.563  14.004  10.227  1.00  0.00     0.029 A 
ATOM     42  N   UNL     1      -2.831  14.957  12.233  1.00  0.00    -0.354 N 
ATOM     43  C   UNL     1       0.476  15.415  14.955  1.00  0.00     0.074 A 
ATOM     44  C   UNL     1       1.691  14.857  14.401  1.00  0.00     0.031 C 
ATOM     45  C   UNL     1      -3.859  14.332  10.346  1.00  0.00     0.029 A 
ATOM     46  C   UNL     1      -4.074  14.951  11.650  1.00  0.00     0.049 A 
ATOM     47  H   UNL     1      -2.659  15.313  13.134  1.00  0.00     0.167 HD
ATOM     48  C   UNL     1       0.390  15.986  16.181  1.00  0.00     0.031 A 
ATOM     49  C   UNL     1      -5.257  15.399  12.111  1.00  0.00     0.031 A 
ATOM     50  C   UNL     1      -0.813  16.552  16.730  1.00  0.00     0.049 A 
ATOM     51  C   UNL     1      -5.323  16.039  13.467  1.00  0.00     0.074 A 
ATOM     52  C   UNL     1      -0.988  17.202  17.941  1.00  0.00     0.029 A 
ATOM     53  N   UNL     1      -2.050  16.535  16.105  1.00  0.00    -0.354 N 
ATOM     54  N   UNL     1      -4.361  16.238  14.335  1.00  0.00    -0.248 NA
ATOM     55  C   UNL     1      -6.639  16.530  13.900  1.00  0.00     0.031 C 
ATOM     56  C   UNL     1      -2.340  17.542  18.064  1.00  0.00     0.029 A 
ATOM     57  C   UNL     1      -2.997  17.145  16.911  1.00  0.00     0.049 A 
ATOM     58  H   UNL     1      -2.229  16.145  15.218  1.00  0.00     0.167 HD
ATOM     59  C   UNL     1      -4.950  16.896  15.407  1.00  0.00     0.074 A 
ATOM     60  C   UNL     1      -6.347  17.080  15.070  1.00  0.00     0.031 C 
ATOM     61  C   UNL     1      -4.384  17.310  16.566  1.00  0.00     0.031 A 
BRANCH  48  62
ATOM     62  C   UNL     1       1.641  16.020  17.015  1.00  0.00    -0.014 A 
ATOM     63  C   UNL     1       2.711  16.868  16.687  1.00  0.00     0.009 A 
ATOM     64  C   UNL     1       1.739  15.216  18.161  1.00  0.00     0.009 A 
ATOM     65  C   UNL     1       3.868  16.882  17.468  1.00  0.00     0.001 A 
ATOM     66  C   UNL     1       2.887  15.252  18.956  1.00  0.00     0.001 A 
ATOM     67  C   UNL     1       3.954  16.077  18.603  1.00  0.00     0.000 A 
ENDBRANCH  48  62
BRANCH  49  68
ATOM     68  C   UNL     1      -6.473  15.284  11.266  1.00  0.00    -0.014 A 
ATOM     69  C   UNL     1      -7.032  16.424  10.669  1.00  0.00     0.009 A 
ATOM     70  C   UNL     1      -7.078  14.036  11.052  1.00  0.00     0.009 A 
ATOM     71  C   UNL     1      -8.189  16.320   9.894  1.00  0.00     0.001 A 
ATOM     72  C   UNL     1      -8.220  13.932  10.255  1.00  0.00     0.001 A 
ATOM     73  C   UNL     1      -8.779  15.075   9.684  1.00  0.00     0.000 A 
ENDBRANCH  49  68
BRANCH  61  74
ATOM     74  C   UNL     1      -5.279  18.021  17.542  1.00  0.00    -0.014 A 
ATOM     75  C   UNL     1      -6.249  17.325  18.278  1.00  0.00     0.009 A 
ATOM     76  C   UNL     1      -5.138  19.404  17.735  1.00  0.00     0.009 A 
ATOM     77  C   UNL     1      -7.089  18.007  19.160  1.00  0.00     0.001 A 
ATOM     78  C   UNL     1      -5.961  20.079  18.637  1.00  0.00     0.001 A 
ATOM     79  C   UNL     1      -6.943  19.382  19.341  1.00  0.00     0.000 A 
ENDBRANCH  61  74
ENDBRANCH  35  36
ENDBRANCH  27  30
ENDBRANCH  25  26
ENDBRANCH  24  25
ENDBRANCH  23  24
ENDBRANCH  21  23
ENDBRANCH   4  19
TORSDOF 17
