REMARK SMILES CC[C@@](O)(C(=O)NCCCNC(=O)c1ccc(-c2c3nc(c(-c4ccccc4)c4ccc([nH]4)c(-c4ccccc4)c4nc(c(-c5ccccc5)c5ccc2[nH]5)C=C4)C=C3)cc1)[C@@H](C)c1ccc(OC)c(OC)c1
REMARK SMILES IDX 8 1 7 2 5 3 6 4 3 6 2 7 1 8 4 9 62 11 63 12 64 13 65 14
REMARK SMILES IDX 73 15 66 16 70 17 67 18 71 19 72 20 68 21 69 22 9 23 10 24
REMARK SMILES IDX 11 25 12 26 13 28 14 29 15 30 61 31 16 32 60 33 17 34 18 35
REMARK SMILES IDX 19 36 54 37 20 38 59 39 53 40 55 41 21 42 58 43 52 44 51 45
REMARK SMILES IDX 22 47 44 48 29 49 43 50 30 51 33 52 42 53 56 54 31 55 32 56
REMARK SMILES IDX 41 58 57 59 34 60 23 61 24 62 28 63 25 64 27 65 26 66 45 67
REMARK SMILES IDX 46 68 50 69 47 70 49 71 48 72 35 73 36 74 40 75 37 76 39 77
REMARK SMILES IDX 38 78
REMARK H PARENT 7 5 4 10 11 27 55 46 33 57
REMARK Flexibility Score: inf
ROOT
ATOM      1  C   UNL     1      -2.007   0.043   3.075  1.00  0.00     0.117 C 
ENDROOT
BRANCH   1   2
ATOM      2  N   UNL     1      -0.908  -0.540   3.827  1.00  0.00    -0.354 N 
ATOM      3  C   UNL     1       0.436  -0.581   3.575  1.00  0.00     0.252 C 
ATOM      4  O   UNL     1       1.125  -1.083   4.468  1.00  0.00    -0.272 OA
ATOM      5  H   UNL     1      -1.179  -0.983   4.663  1.00  0.00     0.163 HD
BRANCH   3   6
ATOM      6  C   UNL     1       1.042  -0.020   2.243  1.00  0.00     0.149 C 
BRANCH   6   7
ATOM      7  C   UNL     1       0.487  -0.831   1.038  1.00  0.00     0.043 C 
ATOM      8  C   UNL     1       0.660  -0.262  -0.366  1.00  0.00     0.007 C 
ENDBRANCH   6   7
BRANCH   6   9
ATOM      9  O   UNL     1       0.532   1.335   2.232  1.00  0.00    -0.379 OA
ATOM     10  H   UNL     1      -0.436   1.315   2.178  1.00  0.00     0.212 HD
ENDBRANCH   6   9
BRANCH   6  11
ATOM     11  C   UNL     1       2.625   0.017   2.331  1.00  0.00     0.058 C 
ATOM     12  C   UNL     1       3.260  -1.387   2.428  1.00  0.00     0.016 C 
BRANCH  11  13
ATOM     13  C   UNL     1       3.255   0.859   1.208  1.00  0.00    -0.038 A 
ATOM     14  C   UNL     1       4.000   0.309   0.162  1.00  0.00     0.008 A 
ATOM     15  C   UNL     1       3.021   2.247   1.181  1.00  0.00     0.054 A 
ATOM     16  C   UNL     1       4.377   1.096  -0.926  1.00  0.00     0.051 A 
ATOM     17  C   UNL     1       3.343   3.041   0.070  1.00  0.00     0.160 A 
ATOM     18  C   UNL     1       4.016   2.446  -1.008  1.00  0.00     0.160 A 
BRANCH  17  19
ATOM     19  O   UNL     1       3.028   4.372  -0.003  1.00  0.00    -0.493 OA
ATOM     20  C   UNL     1       2.131   4.897   0.969  1.00  0.00     0.278 C 
ENDBRANCH  17  19
BRANCH  18  21
ATOM     21  O   UNL     1       4.404   3.016  -2.192  1.00  0.00    -0.493 OA
ATOM     22  C   UNL     1       3.810   4.248  -2.570  1.00  0.00     0.278 C 
ENDBRANCH  18  21
ENDBRANCH  11  13
ENDBRANCH   6  11
ENDBRANCH   3   6
ENDBRANCH   1   2
BRANCH   1  23
ATOM     23  C   UNL     1      -2.921  -1.026   2.488  1.00  0.00     0.042 C 
BRANCH  23  24
ATOM     24  C   UNL     1      -3.645  -1.845   3.542  1.00  0.00     0.118 C 
BRANCH  24  25
ATOM     25  N   UNL     1      -4.644  -1.065   4.258  1.00  0.00    -0.352 N 
ATOM     26  C   UNL     1      -6.004  -1.244   4.314  1.00  0.00     0.251 C 
ATOM     27  H   UNL     1      -4.295  -0.303   4.774  1.00  0.00     0.163 HD
ATOM     28  O   UNL     1      -6.723  -0.373   4.795  1.00  0.00    -0.269 OA
BRANCH  26  29
ATOM     29  C   UNL     1      -6.599  -2.482   3.775  1.00  0.00     0.039 A 
ATOM     30  C   UNL     1      -7.748  -2.401   2.983  1.00  0.00     0.014 A 
ATOM     31  C   UNL     1      -6.014  -3.722   4.043  1.00  0.00     0.014 A 
ATOM     32  C   UNL     1      -8.274  -3.561   2.409  1.00  0.00     0.010 A 
ATOM     33  C   UNL     1      -6.481  -4.857   3.396  1.00  0.00     0.010 A 
ATOM     34  C   UNL     1      -7.624  -4.792   2.584  1.00  0.00    -0.014 A 
BRANCH  34  35
ATOM     35  C   UNL     1      -8.126  -6.045   1.970  1.00  0.00     0.031 A 
ATOM     36  C   UNL     1      -8.543  -7.185   2.857  1.00  0.00     0.074 A 
ATOM     37  C   UNL     1      -8.108  -6.200   0.633  1.00  0.00     0.049 A 
ATOM     38  N   UNL     1      -8.852  -8.415   2.536  1.00  0.00    -0.248 NA
ATOM     39  C   UNL     1      -8.579  -6.911   4.303  1.00  0.00     0.031 C 
ATOM     40  C   UNL     1      -7.704  -5.180  -0.336  1.00  0.00     0.029 A 
ATOM     41  N   UNL     1      -8.417  -7.291  -0.140  1.00  0.00    -0.354 N 
ATOM     42  C   UNL     1      -9.086  -9.067   3.740  1.00  0.00     0.074 A 
ATOM     43  C   UNL     1      -8.830  -8.113   4.797  1.00  0.00     0.031 C 
ATOM     44  C   UNL     1      -7.801  -5.690  -1.574  1.00  0.00     0.029 A 
ATOM     45  C   UNL     1      -8.221  -7.085  -1.484  1.00  0.00     0.049 A 
ATOM     46  H   UNL     1      -8.748  -8.140   0.233  1.00  0.00     0.167 HD
ATOM     47  C   UNL     1      -9.492 -10.342   3.949  1.00  0.00     0.031 A 
ATOM     48  C   UNL     1      -8.344  -7.931  -2.524  1.00  0.00     0.031 A 
ATOM     49  C   UNL     1      -9.750 -11.285   2.895  1.00  0.00     0.049 A 
ATOM     50  C   UNL     1      -8.771  -9.350  -2.272  1.00  0.00     0.074 A 
ATOM     51  C   UNL     1     -10.214 -12.584   2.995  1.00  0.00     0.029 A 
ATOM     52  N   UNL     1      -9.561 -11.028   1.545  1.00  0.00    -0.354 N 
ATOM     53  N   UNL     1      -9.039  -9.942  -1.133  1.00  0.00    -0.248 NA
ATOM     54  C   UNL     1      -8.924 -10.216  -3.450  1.00  0.00     0.031 C 
ATOM     55  C   UNL     1     -10.247 -13.133   1.710  1.00  0.00     0.029 A 
ATOM     56  C   UNL     1      -9.875 -12.153   0.803  1.00  0.00     0.049 A 
ATOM     57  H   UNL     1      -9.249 -10.172   1.171  1.00  0.00     0.167 HD
ATOM     58  C   UNL     1      -9.427 -11.235  -1.458  1.00  0.00     0.074 A 
ATOM     59  C   UNL     1      -9.362 -11.341  -2.901  1.00  0.00     0.031 C 
ATOM     60  C   UNL     1      -9.812 -12.241  -0.634  1.00  0.00     0.031 A 
BRANCH  47  61
ATOM     61  C   UNL     1      -9.653 -10.786   5.378  1.00  0.00    -0.014 A 
ATOM     62  C   UNL     1     -10.649 -10.245   6.208  1.00  0.00     0.009 A 
ATOM     63  C   UNL     1      -8.792 -11.762   5.904  1.00  0.00     0.009 A 
ATOM     64  C   UNL     1     -10.740 -10.627   7.548  1.00  0.00     0.001 A 
ATOM     65  C   UNL     1      -8.910 -12.170   7.234  1.00  0.00     0.001 A 
ATOM     66  C   UNL     1      -9.873 -11.591   8.059  1.00  0.00     0.000 A 
ENDBRANCH  47  61
BRANCH  48  67
ATOM     67  C   UNL     1      -8.065  -7.447  -3.902  1.00  0.00    -0.014 A 
ATOM     68  C   UNL     1      -9.113  -7.261  -4.816  1.00  0.00     0.009 A 
ATOM     69  C   UNL     1      -6.754  -7.145  -4.303  1.00  0.00     0.009 A 
ATOM     70  C   UNL     1      -8.852  -6.799  -6.108  1.00  0.00     0.001 A 
ATOM     71  C   UNL     1      -6.499  -6.656  -5.586  1.00  0.00     0.001 A 
ATOM     72  C   UNL     1      -7.547  -6.490  -6.490  1.00  0.00     0.000 A 
ENDBRANCH  48  67
BRANCH  60  73
ATOM     73  C   UNL     1     -10.253 -13.531  -1.268  1.00  0.00    -0.014 A 
ATOM     74  C   UNL     1      -9.337 -14.414  -1.857  1.00  0.00     0.009 A 
ATOM     75  C   UNL     1     -11.607 -13.899  -1.202  1.00  0.00     0.009 A 
ATOM     76  C   UNL     1      -9.772 -15.631  -2.387  1.00  0.00     0.001 A 
ATOM     77  C   UNL     1     -12.034 -15.128  -1.704  1.00  0.00     0.001 A 
ATOM     78  C   UNL     1     -11.117 -15.990  -2.303  1.00  0.00     0.000 A 
ENDBRANCH  60  73
ENDBRANCH  34  35
ENDBRANCH  26  29
ENDBRANCH  24  25
ENDBRANCH  23  24
ENDBRANCH   1  23
TORSDOF 16
