REMARK SMILES O=C(C[C@H]1S/C(=[NH+]\N=C\c2cc(Br)ccc2OCc2ccccc2)NC1=O)NCCCNC(=O)c1ccc(-c2c3nc(c(-c4ccccc4)c4ccc([nH]4)c(-c4ccccc4)c4nc(c(-c5ccccc5)c5ccc2[nH]5)C=C4)C=C3)cc1
REMARK SMILES IDX 1 1 2 2 28 3 3 5 4 6 5 7 26 8 6 9 25 10 27 11 7 12 8 15 9 16
REMARK SMILES IDX 10 17 11 18 16 19 12 20 15 21 13 22 14 23 17 24 18 25 19 26
REMARK SMILES IDX 20 27 24 28 21 29 23 30 22 31 29 32 30 33 31 34 32 35 33 36
REMARK SMILES IDX 34 38 35 39 36 40 82 41 37 42 81 43 38 44 39 45 40 46 75 47
REMARK SMILES IDX 41 48 80 49 74 50 76 51 42 52 79 53 73 54 72 55 43 57 65 58
REMARK SMILES IDX 50 59 64 60 51 61 54 62 63 63 77 64 52 65 53 66 62 68 78 69
REMARK SMILES IDX 55 70 44 71 45 72 49 73 46 74 48 75 47 76 66 77 67 78 71 79
REMARK SMILES IDX 68 80 70 81 69 82 56 83 57 84 61 85 58 86 60 87 59 88
REMARK H PARENT 28 4 25 13 7 14 32 37 76 56 54 67
REMARK Flexibility Score: inf
ROOT
ATOM      1  O   UNL     1       0.881   0.019   0.190  1.00  0.00    -0.275 OA
ATOM      2  C   UNL     1       2.099   0.026   0.056  1.00  0.00     0.221 C 
ATOM      3  N   UNL     1       2.789  -0.846  -0.758  1.00  0.00    -0.356 N 
ATOM      4  H   UNL     1       3.752  -0.700  -0.899  1.00  0.00     0.163 HD
ENDROOT
BRANCH   2   5
ATOM      5  C   UNL     1       2.973   1.041   0.762  1.00  0.00     0.127 C 
BRANCH   5   6
ATOM      6  C   UNL     1       3.846   0.531   1.919  1.00  0.00     0.183 C 
ATOM      7  S   UNL     1       3.892  -1.279   2.204  1.00  0.00    -0.020 SA
ATOM      8  C   UNL     1       5.294   0.872   1.600  1.00  0.00     0.322 C 
ATOM      9  C   UNL     1       5.388  -1.439   1.340  1.00  0.00     0.337 C 
ATOM     10  N   UNL     1       5.996  -0.238   1.228  1.00  0.00    -0.202 N 
ATOM     11  O   UNL     1       5.758   1.998   1.568  1.00  0.00    -0.246 OA
ATOM     12  N   UNL     1       5.922  -2.476   0.795  1.00  0.00    -0.142 N 
ATOM     13  H   UNL     1       6.918  -0.165   0.889  1.00  0.00     0.316 HD
ATOM     14  H   UNL     1       6.782  -2.434   0.318  1.00  0.00     0.343 HD
BRANCH  12  15
ATOM     15  N   UNL     1       5.200  -3.663   0.925  1.00  0.00    -0.093 NA
ATOM     16  C   UNL     1       5.884  -4.635   0.402  1.00  0.00     0.170 C 
BRANCH  16  17
ATOM     17  C   UNL     1       5.446  -6.035   0.419  1.00  0.00     0.040 A 
ATOM     18  C   UNL     1       4.108  -6.249   0.043  1.00  0.00     0.029 A 
ATOM     19  C   UNL     1       6.279  -7.125   0.717  1.00  0.00     0.128 A 
ATOM     20  C   UNL     1       3.603  -7.543  -0.052  1.00  0.00     0.018 A 
ATOM     21  C   UNL     1       5.721  -8.415   0.668  1.00  0.00     0.048 A 
ATOM     22  Br  UNL     1       1.836  -7.821  -0.663  1.00  0.00    -0.051 Br
ATOM     23  C   UNL     1       4.399  -8.630   0.275  1.00  0.00     0.019 A 
BRANCH  19  24
ATOM     24  O   UNL     1       7.603  -7.191   1.050  1.00  0.00    -0.488 OA
BRANCH  24  25
ATOM     25  C   UNL     1       8.502  -6.090   0.966  1.00  0.00     0.265 C 
BRANCH  25  26
ATOM     26  C   UNL     1       8.876  -5.650  -0.438  1.00  0.00    -0.011 A 
ATOM     27  C   UNL     1       8.439  -6.327  -1.585  1.00  0.00     0.007 A 
ATOM     28  C   UNL     1       9.613  -4.464  -0.601  1.00  0.00     0.007 A 
ATOM     29  C   UNL     1       8.655  -5.790  -2.855  1.00  0.00     0.000 A 
ATOM     30  C   UNL     1       9.842  -3.937  -1.874  1.00  0.00     0.000 A 
ATOM     31  C   UNL     1       9.346  -4.591  -2.999  1.00  0.00     0.000 A 
ENDBRANCH  25  26
ENDBRANCH  24  25
ENDBRANCH  19  24
ENDBRANCH  16  17
ENDBRANCH  12  15
ENDBRANCH   5   6
ENDBRANCH   2   5
BRANCH   3  32
ATOM     32  C   UNL     1       2.150  -1.972  -1.414  1.00  0.00     0.117 C 
BRANCH  32  33
ATOM     33  C   UNL     1       2.478  -2.030  -2.900  1.00  0.00     0.042 C 
BRANCH  33  34
ATOM     34  C   UNL     1       3.962  -2.194  -3.219  1.00  0.00     0.118 C 
BRANCH  34  35
ATOM     35  N   UNL     1       4.503  -3.478  -2.798  1.00  0.00    -0.352 N 
ATOM     36  C   UNL     1       5.112  -4.460  -3.544  1.00  0.00     0.251 C 
ATOM     37  H   UNL     1       4.421  -3.672  -1.836  1.00  0.00     0.163 HD
ATOM     38  O   UNL     1       5.311  -5.570  -3.058  1.00  0.00    -0.269 OA
BRANCH  36  39
ATOM     39  C   UNL     1       5.507  -4.194  -4.947  1.00  0.00     0.039 A 
ATOM     40  C   UNL     1       5.258  -5.166  -5.921  1.00  0.00     0.014 A 
ATOM     41  C   UNL     1       6.120  -2.991  -5.307  1.00  0.00     0.014 A 
ATOM     42  C   UNL     1       5.534  -4.893  -7.265  1.00  0.00     0.010 A 
ATOM     43  C   UNL     1       6.324  -2.691  -6.652  1.00  0.00     0.010 A 
ATOM     44  C   UNL     1       6.019  -3.633  -7.648  1.00  0.00    -0.014 A 
BRANCH  44  45
ATOM     45  C   UNL     1       6.181  -3.256  -9.078  1.00  0.00     0.031 A 
ATOM     46  C   UNL     1       7.536  -2.903  -9.625  1.00  0.00     0.074 A 
ATOM     47  C   UNL     1       5.091  -3.135  -9.863  1.00  0.00     0.049 A 
ATOM     48  N   UNL     1       7.854  -2.430 -10.804  1.00  0.00    -0.248 NA
ATOM     49  C   UNL     1       8.683  -3.083  -8.720  1.00  0.00     0.031 C 
ATOM     50  C   UNL     1       3.713  -3.415  -9.453  1.00  0.00     0.029 A 
ATOM     51  N   UNL     1       4.970  -2.724 -11.168  1.00  0.00    -0.354 N 
ATOM     52  C   UNL     1       9.229  -2.234 -10.774  1.00  0.00     0.074 A 
ATOM     53  C   UNL     1       9.679  -2.601  -9.449  1.00  0.00     0.031 C 
ATOM     54  C   UNL     1       2.890  -3.185 -10.489  1.00  0.00     0.029 A 
ATOM     55  C   UNL     1       3.672  -2.694 -11.619  1.00  0.00     0.049 A 
ATOM     56  H   UNL     1       5.741  -2.475 -11.728  1.00  0.00     0.167 HD
ATOM     57  C   UNL     1      10.046  -1.800 -11.764  1.00  0.00     0.031 A 
ATOM     58  C   UNL     1       3.162  -2.298 -12.801  1.00  0.00     0.031 A 
ATOM     59  C   UNL     1       9.603  -1.444 -13.086  1.00  0.00     0.049 A 
ATOM     60  C   UNL     1       4.086  -1.792 -13.873  1.00  0.00     0.074 A 
ATOM     61  C   UNL     1      10.366  -1.047 -14.171  1.00  0.00     0.029 A 
ATOM     62  N   UNL     1       8.282  -1.438 -13.502  1.00  0.00    -0.354 N 
ATOM     63  N   UNL     1       5.390  -1.668 -13.847  1.00  0.00    -0.248 NA
ATOM     64  C   UNL     1       3.467  -1.376 -15.140  1.00  0.00     0.031 C 
ATOM     65  C   UNL     1       9.501  -0.751 -15.229  1.00  0.00     0.029 A 
ATOM     66  C   UNL     1       8.204  -1.020 -14.820  1.00  0.00     0.049 A 
ATOM     67  H   UNL     1       7.512  -1.693 -12.944  1.00  0.00     0.167 HD
ATOM     68  C   UNL     1       5.750  -1.192 -15.101  1.00  0.00     0.074 A 
ATOM     69  C   UNL     1       4.529  -1.056 -15.867  1.00  0.00     0.031 C 
ATOM     70  C   UNL     1       6.985  -0.897 -15.575  1.00  0.00     0.031 A 
BRANCH  57  71
ATOM     71  C   UNL     1      11.511  -1.674 -11.449  1.00  0.00    -0.014 A 
ATOM     72  C   UNL     1      12.315  -2.809 -11.259  1.00  0.00     0.009 A 
ATOM     73  C   UNL     1      12.105  -0.404 -11.384  1.00  0.00     0.009 A 
ATOM     74  C   UNL     1      13.675  -2.673 -10.974  1.00  0.00     0.001 A 
ATOM     75  C   UNL     1      13.471  -0.272 -11.129  1.00  0.00     0.001 A 
ATOM     76  C   UNL     1      14.253  -1.406 -10.914  1.00  0.00     0.000 A 
ENDBRANCH  57  71
BRANCH  58  77
ATOM     77  C   UNL     1       1.696  -2.365 -13.038  1.00  0.00    -0.014 A 
ATOM     78  C   UNL     1       1.163  -3.310 -13.928  1.00  0.00     0.009 A 
ATOM     79  C   UNL     1       0.822  -1.484 -12.381  1.00  0.00     0.009 A 
ATOM     80  C   UNL     1      -0.211  -3.354 -14.175  1.00  0.00     0.001 A 
ATOM     81  C   UNL     1      -0.554  -1.550 -12.608  1.00  0.00     0.001 A 
ATOM     82  C   UNL     1      -1.069  -2.478 -13.512  1.00  0.00     0.000 A 
ENDBRANCH  58  77
BRANCH  70  83
ATOM     83  C   UNL     1       7.089  -0.442 -17.003  1.00  0.00    -0.014 A 
ATOM     84  C   UNL     1       6.684   0.844 -17.392  1.00  0.00     0.009 A 
ATOM     85  C   UNL     1       7.660  -1.295 -17.960  1.00  0.00     0.009 A 
ATOM     86  C   UNL     1       6.829   1.257 -18.718  1.00  0.00     0.001 A 
ATOM     87  C   UNL     1       7.829  -0.870 -19.278  1.00  0.00     0.001 A 
ATOM     88  C   UNL     1       7.407   0.403 -19.657  1.00  0.00     0.000 A 
ENDBRANCH  70  83
ENDBRANCH  44  45
ENDBRANCH  36  39
ENDBRANCH  34  35
ENDBRANCH  33  34
ENDBRANCH  32  33
ENDBRANCH   3  32
TORSDOF 16
