REMARK SMILES CC(=O)N1CCC2(CC1)C[C@H](C(=O)NCCCNC(=O)c1ccc(-c3c4nc(c(-c5ccccc5)c5ccc([nH]5)c(-c5ccccc5)c5nc(c(-c6ccccc6)c6ccc3[nH]6)C=C5)C=C4)cc1)[N@H+](Cc1ncc[nH]1)C2
REMARK SMILES IDX 16 1 15 2 14 3 12 4 13 5 11 7 1 8 2 9 3 10 4 11 5 12 9 13
REMARK SMILES IDX 6 14 8 15 7 16 10 17 76 18 69 19 70 21 71 22 72 23 75 24
REMARK SMILES IDX 73 25 74 26 17 28 18 29 19 30 20 32 21 33 22 34 68 35 23 36
REMARK SMILES IDX 67 37 24 38 25 39 26 40 61 41 27 42 66 43 60 44 62 45 28 46
REMARK SMILES IDX 65 47 59 48 58 49 29 51 51 52 36 53 50 54 37 55 40 56 49 57
REMARK SMILES IDX 63 58 38 59 39 60 48 62 64 63 41 64 30 65 31 66 35 67 32 68
REMARK SMILES IDX 34 69 33 70 52 71 53 72 57 73 54 74 56 75 55 76 42 77 43 78
REMARK SMILES IDX 47 79 44 80 46 81 45 82
REMARK H PARENT 14 6 69 20 75 27 18 31 62 50 40 61
REMARK Flexibility Score: inf
ROOT
ATOM      1  C   UNL     1      -1.951   1.830   7.442  1.00  0.00     0.042 C 
ENDROOT
BRANCH   1   2
ATOM      2  C   UNL     1      -1.213   3.141   7.331  1.00  0.00     0.118 C 
BRANCH   2   3
ATOM      3  N   UNL     1       0.079   3.198   7.928  1.00  0.00    -0.351 N 
ATOM      4  C   UNL     1       1.223   3.568   7.285  1.00  0.00     0.278 C 
ATOM      5  O   UNL     1       2.162   3.898   8.023  1.00  0.00    -0.268 OA
ATOM      6  H   UNL     1       0.152   2.952   8.879  1.00  0.00     0.163 HD
BRANCH   4   7
ATOM      7  C   UNL     1       1.414   3.543   5.740  1.00  0.00     0.275 C 
ATOM      8  C   UNL     1       1.722  -0.241  -0.242  1.00  0.00     0.114 C 
ATOM      9  C   UNL     1       1.025   1.084  -0.305  1.00  0.00     0.219 C 
ATOM     10  O   UNL     1       0.013   1.206  -0.999  1.00  0.00    -0.275 OA
ATOM     11  N   UNL     1       1.470   2.083   0.542  1.00  0.00    -0.343 N 
ATOM     12  C   UNL     1       0.468   2.994   1.019  1.00  0.00     0.120 C 
ATOM     13  C   UNL     1       2.750   2.204   1.237  1.00  0.00     0.120 C 
ATOM     14  C   UNL     1       0.189   2.589   2.459  1.00  0.00     0.034 C 
ATOM     15  C   UNL     1       2.603   2.076   2.766  1.00  0.00     0.034 C 
ATOM     16  C   UNL     1       1.388   2.830   3.396  1.00  0.00     0.029 C 
ATOM     17  C   UNL     1       1.157   2.318   4.865  1.00  0.00     0.088 C 
ATOM     18  C   UNL     1       1.577   4.364   3.594  1.00  0.00     0.270 C 
ATOM     19  N   UNL     1       1.004   4.703   4.914  1.00  0.00    -0.318 N 
ATOM     20  H   UNL     1       1.357   5.555   5.351  1.00  0.00     0.349 HD
BRANCH  19  21
ATOM     21  C   UNL     1      -0.377   5.243   4.918  1.00  0.00     0.339 C 
BRANCH  21  22
ATOM     22  C   UNL     1      -1.571   4.497   4.318  1.00  0.00     0.161 A 
ATOM     23  N   UNL     1      -1.948   3.241   4.512  1.00  0.00    -0.236 NA
ATOM     24  N   UNL     1      -2.478   5.091   3.461  1.00  0.00    -0.344 N 
ATOM     25  C   UNL     1      -3.043   3.001   3.730  1.00  0.00     0.131 A 
ATOM     26  C   UNL     1      -3.380   4.141   3.052  1.00  0.00     0.104 A 
ATOM     27  H   UNL     1      -2.477   6.037   3.188  1.00  0.00     0.167 HD
ENDBRANCH  21  22
ENDBRANCH  19  21
ENDBRANCH   4   7
ENDBRANCH   2   3
ENDBRANCH   1   2
BRANCH   1  28
ATOM     28  C   UNL     1      -3.231   1.957   8.247  1.00  0.00     0.118 C 
BRANCH  28  29
ATOM     29  N   UNL     1      -4.207   2.905   7.702  1.00  0.00    -0.352 N 
ATOM     30  C   UNL     1      -5.490   2.755   7.219  1.00  0.00     0.251 C 
ATOM     31  H   UNL     1      -3.882   3.834   7.675  1.00  0.00     0.163 HD
ATOM     32  O   UNL     1      -6.075   3.722   6.753  1.00  0.00    -0.269 OA
BRANCH  30  33
ATOM     33  C   UNL     1      -6.154   1.432   7.223  1.00  0.00     0.039 A 
ATOM     34  C   UNL     1      -7.032   1.097   6.185  1.00  0.00     0.014 A 
ATOM     35  C   UNL     1      -5.913   0.510   8.234  1.00  0.00     0.014 A 
ATOM     36  C   UNL     1      -7.574  -0.191   6.119  1.00  0.00     0.010 A 
ATOM     37  C   UNL     1      -6.304  -0.808   8.075  1.00  0.00     0.010 A 
ATOM     38  C   UNL     1      -7.167  -1.173   7.033  1.00  0.00    -0.014 A 
BRANCH  38  39
ATOM     39  C   UNL     1      -7.650  -2.577   6.990  1.00  0.00     0.031 A 
ATOM     40  C   UNL     1      -8.293  -3.172   8.219  1.00  0.00     0.074 A 
ATOM     41  C   UNL     1      -7.409  -3.350   5.913  1.00  0.00     0.049 A 
ATOM     42  N   UNL     1      -8.596  -4.419   8.477  1.00  0.00    -0.248 NA
ATOM     43  C   UNL     1      -8.582  -2.247   9.330  1.00  0.00     0.031 C 
ATOM     44  C   UNL     1      -6.758  -2.915   4.675  1.00  0.00     0.029 A 
ATOM     45  N   UNL     1      -7.670  -4.681   5.698  1.00  0.00    -0.354 N 
ATOM     46  C   UNL     1      -9.055  -4.428   9.789  1.00  0.00     0.074 A 
ATOM     47  C   UNL     1      -8.927  -3.082  10.296  1.00  0.00     0.031 C 
ATOM     48  C   UNL     1      -6.702  -3.949   3.820  1.00  0.00     0.029 A 
ATOM     49  C   UNL     1      -7.255  -5.132   4.468  1.00  0.00     0.049 A 
ATOM     50  H   UNL     1      -8.112  -5.257   6.363  1.00  0.00     0.167 HD
ATOM     51  C   UNL     1      -9.568  -5.457  10.503  1.00  0.00     0.031 A 
ATOM     52  C   UNL     1      -7.303  -6.365   3.930  1.00  0.00     0.031 A 
ATOM     53  C   UNL     1      -9.739  -6.785   9.981  1.00  0.00     0.049 A 
ATOM     54  C   UNL     1      -7.884  -7.493   4.738  1.00  0.00     0.074 A 
ATOM     55  C   UNL     1     -10.317  -7.883  10.591  1.00  0.00     0.029 A 
ATOM     56  N   UNL     1      -9.342  -7.187   8.715  1.00  0.00    -0.354 N 
ATOM     57  N   UNL     1      -8.367  -7.476   5.957  1.00  0.00    -0.248 NA
ATOM     58  C   UNL     1      -7.937  -8.811   4.089  1.00  0.00     0.031 C 
ATOM     59  C   UNL     1     -10.222  -8.966   9.712  1.00  0.00     0.029 A 
ATOM     60  C   UNL     1      -9.644  -8.524   8.532  1.00  0.00     0.049 A 
ATOM     61  H   UNL     1      -8.908  -6.608   8.047  1.00  0.00     0.167 HD
ATOM     62  C   UNL     1      -8.813  -8.767   6.207  1.00  0.00     0.074 A 
ATOM     63  C   UNL     1      -8.555  -9.538   5.009  1.00  0.00     0.031 C 
ATOM     64  C   UNL     1      -9.389  -9.270   7.327  1.00  0.00     0.031 A 
BRANCH  51  65
ATOM     65  C   UNL     1      -9.983  -5.179  11.923  1.00  0.00    -0.014 A 
ATOM     66  C   UNL     1     -11.065  -4.334  12.218  1.00  0.00     0.009 A 
ATOM     67  C   UNL     1      -9.291  -5.785  12.983  1.00  0.00     0.009 A 
ATOM     68  C   UNL     1     -11.414  -4.062  13.543  1.00  0.00     0.001 A 
ATOM     69  C   UNL     1      -9.665  -5.542  14.306  1.00  0.00     0.001 A 
ATOM     70  C   UNL     1     -10.717  -4.671  14.585  1.00  0.00     0.000 A 
ENDBRANCH  51  65
BRANCH  52  71
ATOM     71  C   UNL     1      -6.806  -6.598   2.548  1.00  0.00    -0.014 A 
ATOM     72  C   UNL     1      -7.706  -6.894   1.512  1.00  0.00     0.009 A 
ATOM     73  C   UNL     1      -5.435  -6.532   2.254  1.00  0.00     0.009 A 
ATOM     74  C   UNL     1      -7.242  -7.150   0.219  1.00  0.00     0.001 A 
ATOM     75  C   UNL     1      -4.977  -6.757   0.953  1.00  0.00     0.001 A 
ATOM     76  C   UNL     1      -5.879  -7.077  -0.060  1.00  0.00     0.000 A 
ENDBRANCH  52  71
BRANCH  64  77
ATOM     77  C   UNL     1      -9.830 -10.706   7.291  1.00  0.00    -0.014 A 
ATOM     78  C   UNL     1      -8.904 -11.759   7.308  1.00  0.00     0.009 A 
ATOM     79  C   UNL     1     -11.202 -11.004   7.297  1.00  0.00     0.009 A 
ATOM     80  C   UNL     1      -9.345 -13.084   7.298  1.00  0.00     0.001 A 
ATOM     81  C   UNL     1     -11.640 -12.328   7.321  1.00  0.00     0.001 A 
ATOM     82  C   UNL     1     -10.711 -13.367   7.311  1.00  0.00     0.000 A 
ENDBRANCH  64  77
ENDBRANCH  38  39
ENDBRANCH  30  33
ENDBRANCH  28  29
ENDBRANCH   1  28
TORSDOF 12
