REMARK SMILES Cc1cc(C(=O)NCCCNC(=O)c2ccc(-c3c4nc(c(-c5ccccc5)c5ccc([nH]5)c(-c5ccccc5)c5nc(c(-c6ccccc6)c6ccc3[nH]6)C=C5)C=C4)cc2)ccc1NS(=O)(=O)c1ccc2c(c1)CCC2
REMARK SMILES IDX 8 1 7 2 5 3 6 4 4 6 1 7 2 8 3 9 64 10 63 11 62 12 65 13
REMARK SMILES IDX 66 15 67 16 68 17 69 18 70 19 74 20 71 21 73 22 72 23 75 24
REMARK SMILES IDX 77 25 76 26 9 27 10 28 11 29 12 30 13 32 14 33 15 34 61 35
REMARK SMILES IDX 16 36 60 37 17 38 18 39 19 40 54 41 20 42 59 43 53 44 55 45
REMARK SMILES IDX 21 46 58 47 52 48 51 49 22 51 44 52 29 53 43 54 30 55 33 56
REMARK SMILES IDX 42 57 56 58 31 59 32 60 41 62 57 63 34 64 23 65 24 66 28 67
REMARK SMILES IDX 25 68 27 69 26 70 45 71 46 72 50 73 47 74 49 75 48 76 35 77
REMARK SMILES IDX 36 78 40 79 37 80 39 81 38 82
REMARK H PARENT 7 5 65 14 11 31 55 50 33 61
REMARK Flexibility Score: inf
ROOT
ATOM      1  C   UNL     1      -4.091  -1.161   0.209  1.00  0.00     0.118 C 
ENDROOT
BRANCH   1   2
ATOM      2  N   UNL     1      -3.188  -2.296   0.382  1.00  0.00    -0.352 N 
ATOM      3  C   UNL     1      -1.823  -2.378   0.550  1.00  0.00     0.251 C 
ATOM      4  O   UNL     1      -1.286  -3.484   0.520  1.00  0.00    -0.269 OA
ATOM      5  H   UNL     1      -3.642  -3.170   0.379  1.00  0.00     0.163 HD
BRANCH   3   6
ATOM      6  C   UNL     1      -0.969  -1.170   0.677  1.00  0.00     0.040 A 
ATOM      7  C   UNL     1       2.399  -0.044  -0.660  1.00  0.00     0.046 C 
ATOM      8  C   UNL     1       1.011   0.028  -0.082  1.00  0.00    -0.026 A 
ATOM      9  C   UNL     1       0.266  -1.159   0.019  1.00  0.00     0.019 A 
ATOM     10  C   UNL     1       0.443   1.219   0.394  1.00  0.00     0.052 A 
ATOM     11  C   UNL     1      -0.615   1.137   1.302  1.00  0.00     0.028 A 
ATOM     12  C   UNL     1      -1.320  -0.063   1.446  1.00  0.00     0.016 A 
BRANCH  10  13
ATOM     13  N   UNL     1       0.798   2.432  -0.267  1.00  0.00    -0.279 N 
ATOM     14  H   UNL     1       1.501   2.350  -0.952  1.00  0.00     0.180 HD
BRANCH  13  15
ATOM     15  S   UNL     1       0.191   3.969  -0.042  1.00  0.00     0.261 S 
ATOM     16  O   UNL     1       0.354   4.305   1.372  1.00  0.00    -0.201 OA
ATOM     17  O   UNL     1       0.786   4.768  -1.071  1.00  0.00    -0.201 OA
BRANCH  15  18
ATOM     18  C   UNL     1      -1.570   3.973  -0.352  1.00  0.00     0.088 A 
ATOM     19  C   UNL     1      -2.292   2.806  -0.635  1.00  0.00     0.022 A 
ATOM     20  C   UNL     1      -2.243   5.179  -0.100  1.00  0.00     0.026 A 
ATOM     21  C   UNL     1      -3.674   2.781  -0.430  1.00  0.00     0.005 A 
ATOM     22  C   UNL     1      -3.621   5.147   0.029  1.00  0.00    -0.043 A 
ATOM     23  C   UNL     1      -4.316   3.941  -0.053  1.00  0.00    -0.045 A 
ATOM     24  C   UNL     1      -4.572   6.269   0.299  1.00  0.00     0.036 C 
ATOM     25  C   UNL     1      -5.755   4.114   0.322  1.00  0.00     0.036 C 
ATOM     26  C   UNL     1      -5.721   5.506   0.972  1.00  0.00     0.010 C 
ENDBRANCH  15  18
ENDBRANCH  13  15
ENDBRANCH  10  13
ENDBRANCH   3   6
ENDBRANCH   1   2
BRANCH   1  27
ATOM     27  C   UNL     1      -4.446  -0.920  -1.255  1.00  0.00     0.042 C 
BRANCH  27  28
ATOM     28  C   UNL     1      -5.849  -1.380  -1.621  1.00  0.00     0.118 C 
BRANCH  28  29
ATOM     29  N   UNL     1      -6.931  -0.443  -1.290  1.00  0.00    -0.352 N 
ATOM     30  C   UNL     1      -8.293  -0.613  -1.520  1.00  0.00     0.251 C 
ATOM     31  H   UNL     1      -6.663   0.399  -0.857  1.00  0.00     0.163 HD
ATOM     32  O   UNL     1      -9.115   0.203  -1.122  1.00  0.00    -0.269 OA
BRANCH  30  33
ATOM     33  C   UNL     1      -8.732  -1.880  -2.150  1.00  0.00     0.039 A 
ATOM     34  C   UNL     1      -9.498  -2.748  -1.370  1.00  0.00     0.014 A 
ATOM     35  C   UNL     1      -8.058  -2.335  -3.279  1.00  0.00     0.014 A 
ATOM     36  C   UNL     1      -9.323  -4.118  -1.532  1.00  0.00     0.010 A 
ATOM     37  C   UNL     1      -7.796  -3.688  -3.368  1.00  0.00     0.010 A 
ATOM     38  C   UNL     1      -8.358  -4.567  -2.436  1.00  0.00    -0.014 A 
BRANCH  38  39
ATOM     39  C   UNL     1      -7.796  -5.911  -2.370  1.00  0.00     0.031 A 
ATOM     40  C   UNL     1      -8.219  -6.933  -3.340  1.00  0.00     0.074 A 
ATOM     41  C   UNL     1      -6.916  -6.266  -1.405  1.00  0.00     0.049 A 
ATOM     42  N   UNL     1      -8.360  -8.184  -3.052  1.00  0.00    -0.248 NA
ATOM     43  C   UNL     1      -8.564  -6.603  -4.715  1.00  0.00     0.031 C 
ATOM     44  C   UNL     1      -6.177  -7.524  -1.313  1.00  0.00     0.029 A 
ATOM     45  N   UNL     1      -6.693  -5.658  -0.171  1.00  0.00    -0.354 N 
ATOM     46  C   UNL     1      -8.479  -8.852  -4.245  1.00  0.00     0.074 A 
ATOM     47  C   UNL     1      -8.716  -7.823  -5.234  1.00  0.00     0.031 C 
ATOM     48  C   UNL     1      -5.883  -7.752  -0.024  1.00  0.00     0.029 A 
ATOM     49  C   UNL     1      -6.500  -6.697   0.758  1.00  0.00     0.049 A 
ATOM     50  H   UNL     1      -6.674  -4.691   0.014  1.00  0.00     0.167 HD
ATOM     51  C   UNL     1      -8.196 -10.184  -4.314  1.00  0.00     0.031 A 
ATOM     52  C   UNL     1      -7.264  -6.860   1.876  1.00  0.00     0.031 A 
ATOM     53  C   UNL     1      -7.825 -10.753  -3.017  1.00  0.00     0.049 A 
ATOM     54  C   UNL     1      -7.979  -8.197   1.934  1.00  0.00     0.074 A 
ATOM     55  C   UNL     1      -6.624 -11.163  -2.457  1.00  0.00     0.029 A 
ATOM     56  N   UNL     1      -8.738 -10.720  -1.973  1.00  0.00    -0.354 N 
ATOM     57  N   UNL     1      -7.886  -9.127   1.025  1.00  0.00    -0.248 NA
ATOM     58  C   UNL     1      -8.966  -8.532   2.961  1.00  0.00     0.031 C 
ATOM     59  C   UNL     1      -6.830 -11.393  -1.069  1.00  0.00     0.029 A 
ATOM     60  C   UNL     1      -8.155 -11.127  -0.786  1.00  0.00     0.049 A 
ATOM     61  H   UNL     1      -9.678 -10.444  -2.065  1.00  0.00     0.167 HD
ATOM     62  C   UNL     1      -8.800 -10.121   1.278  1.00  0.00     0.074 A 
ATOM     63  C   UNL     1      -9.452  -9.699   2.504  1.00  0.00     0.031 C 
ATOM     64  C   UNL     1      -8.970 -11.175   0.423  1.00  0.00     0.031 A 
BRANCH  51  65
ATOM     65  C   UNL     1      -7.968 -10.884  -5.633  1.00  0.00    -0.014 A 
ATOM     66  C   UNL     1      -7.060 -11.954  -5.713  1.00  0.00     0.009 A 
ATOM     67  C   UNL     1      -8.578 -10.503  -6.841  1.00  0.00     0.009 A 
ATOM     68  C   UNL     1      -6.686 -12.519  -6.939  1.00  0.00     0.001 A 
ATOM     69  C   UNL     1      -8.172 -11.027  -8.077  1.00  0.00     0.001 A 
ATOM     70  C   UNL     1      -7.212 -12.027  -8.126  1.00  0.00     0.000 A 
ENDBRANCH  51  65
BRANCH  52  71
ATOM     71  C   UNL     1      -7.801  -5.581   2.412  1.00  0.00    -0.014 A 
ATOM     72  C   UNL     1      -6.873  -4.651   2.925  1.00  0.00     0.009 A 
ATOM     73  C   UNL     1      -9.075  -5.129   2.045  1.00  0.00     0.009 A 
ATOM     74  C   UNL     1      -7.162  -3.284   2.927  1.00  0.00     0.001 A 
ATOM     75  C   UNL     1      -9.364  -3.760   2.067  1.00  0.00     0.001 A 
ATOM     76  C   UNL     1      -8.394  -2.837   2.461  1.00  0.00     0.000 A 
ENDBRANCH  52  71
BRANCH  64  77
ATOM     77  C   UNL     1      -9.926 -12.341   0.589  1.00  0.00    -0.014 A 
ATOM     78  C   UNL     1     -10.514 -12.733   1.798  1.00  0.00     0.009 A 
ATOM     79  C   UNL     1     -10.204 -13.169  -0.526  1.00  0.00     0.009 A 
ATOM     80  C   UNL     1     -11.392 -13.827   1.871  1.00  0.00     0.001 A 
ATOM     81  C   UNL     1     -11.061 -14.271  -0.458  1.00  0.00     0.001 A 
ATOM     82  C   UNL     1     -11.672 -14.590   0.742  1.00  0.00     0.000 A 
ENDBRANCH  64  77
ENDBRANCH  38  39
ENDBRANCH  30  33
ENDBRANCH  28  29
ENDBRANCH  27  28
ENDBRANCH   1  27
TORSDOF 13
