REMARK SMILES COc1ccc(NS(=O)(=O)c2ccc(NC(=O)[C@H]3CCCC[C@@H]3C(=O)NCCCNC(=O)c3ccc(-c4c5nc(c(-c6ccccc6)c6ccc([nH]6)c(-c6ccccc6)c6nc(c(-c7ccccc7)c7ccc4[nH]7)C=C6)C=C5)cc3)cc2)cc1
REMARK SMILES IDX 24 1 25 2 26 3 23 5 18 6 19 7 20 8 22 9 21 10 16 11 15 12
REMARK SMILES IDX 17 14 14 15 11 16 12 17 82 18 13 19 81 20 8 21 9 22 10 23
REMARK SMILES IDX 7 24 6 26 3 27 4 28 84 29 5 30 83 31 2 32 1 33 27 34 28 35
REMARK SMILES IDX 29 36 30 37 31 38 32 40 33 41 34 42 80 43 35 44 79 45 36 46
REMARK SMILES IDX 37 47 38 48 73 49 39 50 78 51 72 52 74 53 40 54 77 55 71 56
REMARK SMILES IDX 70 57 41 59 63 60 48 61 62 62 49 63 52 64 61 65 75 66 50 67
REMARK SMILES IDX 51 68 60 70 76 71 53 72 42 73 43 74 47 75 44 76 46 77 45 78
REMARK SMILES IDX 64 79 65 80 69 81 66 82 68 83 67 84 54 85 55 86 59 87 56 88
REMARK SMILES IDX 58 89 57 90
REMARK H PARENT 26 4 15 13 7 25 30 39 74 58 52 69
REMARK Flexibility Score: inf
ROOT
ATOM      1  C   UNL     1      -3.729   0.106   7.862  1.00  0.00     0.223 C 
ATOM      2  O   UNL     1      -3.251  -0.303   8.919  1.00  0.00    -0.275 OA
ATOM      3  N   UNL     1      -5.088   0.054   7.729  1.00  0.00    -0.356 N 
ATOM      4  H   UNL     1      -5.554  -0.452   8.434  1.00  0.00     0.163 HD
ENDROOT
BRANCH   1   5
ATOM      5  C   UNL     1      -2.876   0.655   6.714  1.00  0.00     0.091 C 
ATOM      6  C   UNL     1      -2.744  -0.376   5.576  1.00  0.00     0.091 C 
ATOM      7  C   UNL     1      -1.800  -1.505   6.080  1.00  0.00     0.014 C 
ATOM      8  C   UNL     1      -0.424  -0.966   6.474  1.00  0.00     0.001 C 
ATOM      9  C   UNL     1      -1.522   1.194   7.194  1.00  0.00     0.014 C 
ATOM     10  C   UNL     1      -0.517   0.107   7.550  1.00  0.00     0.001 C 
BRANCH   6  11
ATOM     11  C   UNL     1      -2.304  -0.034   4.120  1.00  0.00     0.228 C 
ATOM     12  N   UNL     1      -2.044   1.185   3.579  1.00  0.00    -0.326 N 
ATOM     13  H   UNL     1      -1.488   1.134   2.768  1.00  0.00     0.169 HD
ATOM     14  O   UNL     1      -2.096  -0.980   3.340  1.00  0.00    -0.274 OA
BRANCH  12  15
ATOM     15  C   UNL     1      -2.392   2.489   3.919  1.00  0.00     0.041 A 
ATOM     16  C   UNL     1      -2.902   5.078   4.852  1.00  0.00     0.087 A 
ATOM     17  C   UNL     1      -3.729   4.019   5.200  1.00  0.00     0.024 A 
ATOM     18  C   UNL     1      -1.833   4.848   3.978  1.00  0.00     0.024 A 
ATOM     19  C   UNL     1      -3.550   2.774   4.610  1.00  0.00     0.027 A 
ATOM     20  C   UNL     1      -1.567   3.546   3.529  1.00  0.00     0.027 A 
BRANCH  16  21
ATOM     21  S   UNL     1      -3.224   6.758   5.363  1.00  0.00     0.261 S 
ATOM     22  O   UNL     1      -3.416   7.524   4.147  1.00  0.00    -0.201 OA
ATOM     23  O   UNL     1      -2.187   7.095   6.310  1.00  0.00    -0.201 OA
BRANCH  21  24
ATOM     24  N   UNL     1      -4.657   6.803   6.241  1.00  0.00    -0.280 N 
ATOM     25  H   UNL     1      -4.661   7.320   7.079  1.00  0.00     0.180 HD
BRANCH  24  26
ATOM     26  C   UNL     1      -5.865   6.151   5.864  1.00  0.00     0.049 A 
ATOM     27  C   UNL     1      -7.845   4.245   5.365  1.00  0.00     0.119 A 
ATOM     28  C   UNL     1      -7.135   4.804   4.305  1.00  0.00     0.048 A 
ATOM     29  C   UNL     1      -7.662   4.751   6.652  1.00  0.00     0.048 A 
ATOM     30  C   UNL     1      -6.172   5.793   4.550  1.00  0.00     0.030 A 
ATOM     31  C   UNL     1      -6.682   5.708   6.905  1.00  0.00     0.030 A 
BRANCH  27  32
ATOM     32  O   UNL     1      -8.647   3.144   5.287  1.00  0.00    -0.497 OA
ATOM     33  C   UNL     1      -9.330   2.938   4.061  1.00  0.00     0.278 C 
ENDBRANCH  27  32
ENDBRANCH  24  26
ENDBRANCH  21  24
ENDBRANCH  16  21
ENDBRANCH  12  15
ENDBRANCH   6  11
ENDBRANCH   1   5
BRANCH   3  34
ATOM     34  C   UNL     1      -5.955   0.628   6.709  1.00  0.00     0.117 C 
BRANCH  34  35
ATOM     35  C   UNL     1      -7.337  -0.016   6.679  1.00  0.00     0.042 C 
BRANCH  35  36
ATOM     36  C   UNL     1      -8.144   0.176   7.959  1.00  0.00     0.118 C 
BRANCH  36  37
ATOM     37  N   UNL     1      -8.781   1.480   8.074  1.00  0.00    -0.352 N 
ATOM     38  C   UNL     1     -10.079   1.879   7.838  1.00  0.00     0.251 C 
ATOM     39  H   UNL     1      -8.181   2.202   8.371  1.00  0.00     0.163 HD
ATOM     40  O   UNL     1     -10.398   3.059   7.954  1.00  0.00    -0.269 OA
BRANCH  38  41
ATOM     41  C   UNL     1     -11.102   0.896   7.431  1.00  0.00     0.039 A 
ATOM     42  C   UNL     1     -11.969   1.190   6.370  1.00  0.00     0.014 A 
ATOM     43  C   UNL     1     -11.230  -0.304   8.122  1.00  0.00     0.014 A 
ATOM     44  C   UNL     1     -12.900   0.236   5.942  1.00  0.00     0.010 A 
ATOM     45  C   UNL     1     -12.084  -1.283   7.642  1.00  0.00     0.010 A 
ATOM     46  C   UNL     1     -12.936  -1.022   6.555  1.00  0.00    -0.014 A 
BRANCH  46  47
ATOM     47  C   UNL     1     -13.893  -2.096   6.197  1.00  0.00     0.031 A 
ATOM     48  C   UNL     1     -14.815  -2.591   7.275  1.00  0.00     0.074 A 
ATOM     49  C   UNL     1     -13.812  -2.740   5.019  1.00  0.00     0.049 A 
ATOM     50  N   UNL     1     -15.396  -3.753   7.404  1.00  0.00    -0.248 NA
ATOM     51  C   UNL     1     -15.048  -1.665   8.398  1.00  0.00     0.031 C 
ATOM     52  C   UNL     1     -12.978  -2.353   3.882  1.00  0.00     0.029 A 
ATOM     53  N   UNL     1     -14.418  -3.902   4.610  1.00  0.00    -0.354 N 
ATOM     54  C   UNL     1     -15.992  -3.729   8.659  1.00  0.00     0.074 A 
ATOM     55  C   UNL     1     -15.695  -2.444   9.252  1.00  0.00     0.031 C 
ATOM     56  C   UNL     1     -13.118  -3.266   2.905  1.00  0.00     0.029 A 
ATOM     57  C   UNL     1     -13.994  -4.334   3.377  1.00  0.00     0.049 A 
ATOM     58  H   UNL     1     -15.090  -4.379   5.148  1.00  0.00     0.167 HD
ATOM     59  C   UNL     1     -16.713  -4.702   9.264  1.00  0.00     0.031 A 
ATOM     60  C   UNL     1     -14.251  -5.485   2.726  1.00  0.00     0.031 A 
ATOM     61  C   UNL     1     -17.043  -5.952   8.639  1.00  0.00     0.049 A 
ATOM     62  C   UNL     1     -15.095  -6.535   3.398  1.00  0.00     0.074 A 
ATOM     63  C   UNL     1     -17.789  -7.002   9.142  1.00  0.00     0.029 A 
ATOM     64  N   UNL     1     -16.670  -6.301   7.350  1.00  0.00    -0.354 N 
ATOM     65  N   UNL     1     -15.620  -6.528   4.600  1.00  0.00    -0.248 NA
ATOM     66  C   UNL     1     -15.377  -7.753   2.625  1.00  0.00     0.031 C 
ATOM     67  C   UNL     1     -17.864  -7.992   8.156  1.00  0.00     0.029 A 
ATOM     68  C   UNL     1     -17.192  -7.540   7.031  1.00  0.00     0.049 A 
ATOM     69  H   UNL     1     -16.116  -5.749   6.752  1.00  0.00     0.167 HD
ATOM     70  C   UNL     1     -16.325  -7.720   4.711  1.00  0.00     0.074 A 
ATOM     71  C   UNL     1     -16.161  -8.424   3.457  1.00  0.00     0.031 C 
ATOM     72  C   UNL     1     -17.045  -8.192   5.757  1.00  0.00     0.031 A 
BRANCH  59  73
ATOM     73  C   UNL     1     -17.175  -4.446  10.669  1.00  0.00    -0.014 A 
ATOM     74  C   UNL     1     -18.180  -3.506  10.946  1.00  0.00     0.009 A 
ATOM     75  C   UNL     1     -16.600  -5.159  11.732  1.00  0.00     0.009 A 
ATOM     76  C   UNL     1     -18.570  -3.255  12.262  1.00  0.00     0.001 A 
ATOM     77  C   UNL     1     -17.012  -4.927  13.046  1.00  0.00     0.001 A 
ATOM     78  C   UNL     1     -17.989  -3.968  13.310  1.00  0.00     0.000 A 
ENDBRANCH  59  73
BRANCH  60  79
ATOM     79  C   UNL     1     -13.704  -5.718   1.364  1.00  0.00    -0.014 A 
ATOM     80  C   UNL     1     -14.559  -5.687   0.252  1.00  0.00     0.009 A 
ATOM     81  C   UNL     1     -12.343  -5.995   1.166  1.00  0.00     0.009 A 
ATOM     82  C   UNL     1     -14.069  -5.960  -1.028  1.00  0.00     0.001 A 
ATOM     83  C   UNL     1     -11.851  -6.241  -0.118  1.00  0.00     0.001 A 
ATOM     84  C   UNL     1     -12.716  -6.234  -1.212  1.00  0.00     0.000 A 
ENDBRANCH  60  79
BRANCH  72  85
ATOM     85  C   UNL     1     -17.781  -9.483   5.560  1.00  0.00    -0.014 A 
ATOM     86  C   UNL     1     -17.120 -10.718   5.623  1.00  0.00     0.009 A 
ATOM     87  C   UNL     1     -19.173  -9.457   5.381  1.00  0.00     0.009 A 
ATOM     88  C   UNL     1     -17.842 -11.906   5.492  1.00  0.00     0.001 A 
ATOM     89  C   UNL     1     -19.893 -10.645   5.270  1.00  0.00     0.001 A 
ATOM     90  C   UNL     1     -19.226 -11.868   5.321  1.00  0.00     0.000 A 
ENDBRANCH  72  85
ENDBRANCH  46  47
ENDBRANCH  38  41
ENDBRANCH  36  37
ENDBRANCH  35  36
ENDBRANCH  34  35
ENDBRANCH   3  34
TORSDOF 16
