REMARK SMILES O=C(NCCCNC(=O)c1ccncc1-c1ccc(F)cc1F)c1ccc(-c2c3nc(c(-c4ccccc4)c4ccc([nH]4)c(-c4ccccc4)c4nc(c(-c5ccccc5)c5ccc2[nH]5)C=C4)C=C3)cc1
REMARK SMILES IDX 4 1 3 2 1 3 2 4 24 6 25 7 71 8 26 9 70 10 27 11 28 12 29 13
REMARK SMILES IDX 64 14 30 15 69 16 63 17 65 18 31 19 68 20 62 21 61 22 32 24
REMARK SMILES IDX 54 25 39 26 53 27 40 28 43 29 52 30 66 31 41 32 42 33 51 35
REMARK SMILES IDX 67 36 44 37 33 38 34 39 38 40 35 41 37 42 36 43 55 44 56 45
REMARK SMILES IDX 60 46 57 47 59 48 58 49 45 50 46 51 50 52 47 53 49 54 48 55
REMARK SMILES IDX 5 56 6 57 7 58 8 59 9 61 10 62 11 63 15 64 12 65 14 66 13 67
REMARK SMILES IDX 16 68 17 69 22 70 18 71 21 72 23 73 19 74 20 75
REMARK H PARENT 3 5 65 23 43 34 7 60
REMARK Flexibility Score: inf
ROOT
ATOM      1  C   UNL     1       4.564   0.023  -1.412  1.00  0.00     0.118 C 
ENDROOT
BRANCH   1   2
ATOM      2  N   UNL     1       3.127   0.100  -1.176  1.00  0.00    -0.352 N 
ATOM      3  O   UNL     1       1.179  -0.104  -0.065  1.00  0.00    -0.269 OA
ATOM      4  C   UNL     1       2.405  -0.043  -0.015  1.00  0.00     0.251 C 
ATOM      5  H   UNL     1       2.587   0.285  -1.978  1.00  0.00     0.163 HD
BRANCH   4   6
ATOM      6  C   UNL     1       3.092  -0.152   1.290  1.00  0.00     0.039 A 
ATOM      7  C   UNL     1       4.191   0.653   1.588  1.00  0.00     0.014 A 
ATOM      8  C   UNL     1       2.616  -1.058   2.242  1.00  0.00     0.014 A 
ATOM      9  C   UNL     1       4.920   0.428   2.748  1.00  0.00     0.010 A 
ATOM     10  C   UNL     1       3.283  -1.202   3.463  1.00  0.00     0.010 A 
ATOM     11  C   UNL     1       4.463  -0.485   3.712  1.00  0.00    -0.014 A 
BRANCH  11  12
ATOM     12  C   UNL     1       5.199  -0.607   4.996  1.00  0.00     0.031 A 
ATOM     13  C   UNL     1       5.852  -1.897   5.405  1.00  0.00     0.074 A 
ATOM     14  C   UNL     1       5.304   0.483   5.782  1.00  0.00     0.049 A 
ATOM     15  N   UNL     1       6.556  -2.155   6.480  1.00  0.00    -0.248 NA
ATOM     16  C   UNL     1       5.696  -3.047   4.502  1.00  0.00     0.031 C 
ATOM     17  C   UNL     1       4.712   1.794   5.491  1.00  0.00     0.029 A 
ATOM     18  N   UNL     1       5.963   0.675   6.968  1.00  0.00    -0.354 N 
ATOM     19  C   UNL     1       6.912  -3.495   6.390  1.00  0.00     0.074 A 
ATOM     20  C   UNL     1       6.322  -4.005   5.171  1.00  0.00     0.031 C 
ATOM     21  C   UNL     1       5.081   2.664   6.441  1.00  0.00     0.029 A 
ATOM     22  C   UNL     1       5.868   1.960   7.445  1.00  0.00     0.049 A 
ATOM     23  H   UNL     1       6.456  -0.039   7.434  1.00  0.00     0.167 HD
ATOM     24  C   UNL     1       7.667  -4.231   7.243  1.00  0.00     0.031 A 
ATOM     25  C   UNL     1       6.341   2.512   8.576  1.00  0.00     0.031 A 
ATOM     26  C   UNL     1       8.243  -3.721   8.461  1.00  0.00     0.049 A 
ATOM     27  C   UNL     1       7.124   1.658   9.528  1.00  0.00     0.074 A 
ATOM     28  C   UNL     1       9.038  -4.384   9.381  1.00  0.00     0.029 A 
ATOM     29  N   UNL     1       8.080  -2.428   8.934  1.00  0.00    -0.354 N 
ATOM     30  N   UNL     1       7.479   0.401   9.410  1.00  0.00    -0.248 NA
ATOM     31  C   UNL     1       7.573   2.300  10.770  1.00  0.00     0.031 C 
ATOM     32  C   UNL     1       9.307  -3.508  10.439  1.00  0.00     0.029 A 
ATOM     33  C   UNL     1       8.736  -2.281  10.146  1.00  0.00     0.049 A 
ATOM     34  H   UNL     1       7.573  -1.719   8.476  1.00  0.00     0.167 HD
ATOM     35  C   UNL     1       8.210   0.107  10.552  1.00  0.00     0.074 A 
ATOM     36  C   UNL     1       8.269   1.324  11.336  1.00  0.00     0.031 C 
ATOM     37  C   UNL     1       8.781  -1.066  10.918  1.00  0.00     0.031 A 
BRANCH  24  38
ATOM     38  C   UNL     1       7.891  -5.680   6.903  1.00  0.00    -0.014 A 
ATOM     39  C   UNL     1       8.716  -6.061   5.833  1.00  0.00     0.009 A 
ATOM     40  C   UNL     1       7.307  -6.680   7.697  1.00  0.00     0.009 A 
ATOM     41  C   UNL     1       8.925  -7.413   5.546  1.00  0.00     0.001 A 
ATOM     42  C   UNL     1       7.541  -8.030   7.426  1.00  0.00     0.001 A 
ATOM     43  C   UNL     1       8.341  -8.396   6.346  1.00  0.00     0.000 A 
ENDBRANCH  24  38
BRANCH  25  44
ATOM     44  C   UNL     1       6.063   3.940   8.878  1.00  0.00    -0.014 A 
ATOM     45  C   UNL     1       7.099   4.885   8.894  1.00  0.00     0.009 A 
ATOM     46  C   UNL     1       4.753   4.365   9.153  1.00  0.00     0.009 A 
ATOM     47  C   UNL     1       6.832   6.220   9.206  1.00  0.00     0.001 A 
ATOM     48  C   UNL     1       4.484   5.706   9.429  1.00  0.00     0.001 A 
ATOM     49  C   UNL     1       5.525   6.630   9.467  1.00  0.00     0.000 A 
ENDBRANCH  25  44
BRANCH  37  50
ATOM     50  C   UNL     1       9.550  -1.074  12.210  1.00  0.00    -0.014 A 
ATOM     51  C   UNL     1       8.898  -0.991  13.450  1.00  0.00     0.009 A 
ATOM     52  C   UNL     1      10.948  -1.189  12.183  1.00  0.00     0.009 A 
ATOM     53  C   UNL     1       9.635  -0.982  14.635  1.00  0.00     0.001 A 
ATOM     54  C   UNL     1      11.680  -1.213  13.370  1.00  0.00     0.001 A 
ATOM     55  C   UNL     1      11.024  -1.098  14.595  1.00  0.00     0.000 A 
ENDBRANCH  37  50
ENDBRANCH  11  12
ENDBRANCH   4   6
ENDBRANCH   1   2
BRANCH   1  56
ATOM     56  C   UNL     1       4.970  -1.194  -2.229  1.00  0.00     0.042 C 
BRANCH  56  57
ATOM     57  C   UNL     1       4.443  -1.190  -3.655  1.00  0.00     0.118 C 
BRANCH  57  58
ATOM     58  N   UNL     1       4.922  -0.052  -4.428  1.00  0.00    -0.352 N 
ATOM     59  C   UNL     1       5.713   0.000  -5.550  1.00  0.00     0.252 C 
ATOM     60  H   UNL     1       4.631   0.826  -4.090  1.00  0.00     0.163 HD
ATOM     61  O   UNL     1       6.065   1.092  -5.985  1.00  0.00    -0.269 OA
BRANCH  59  62
ATOM     62  C   UNL     1       6.125  -1.249  -6.229  1.00  0.00     0.050 A 
ATOM     63  C   UNL     1       5.126  -2.168  -6.574  1.00  0.00     0.034 A 
ATOM     64  C   UNL     1       7.462  -1.481  -6.593  1.00  0.00     0.016 A 
ATOM     65  C   UNL     1       5.500  -3.352  -7.173  1.00  0.00     0.112 A 
ATOM     66  C   UNL     1       7.710  -2.709  -7.208  1.00  0.00     0.120 A 
ATOM     67  N   UNL     1       6.774  -3.653  -7.477  1.00  0.00    -0.264 NA
BRANCH  64  68
ATOM     68  C   UNL     1       8.563  -0.524  -6.408  1.00  0.00     0.020 A 
ATOM     69  C   UNL     1       9.026  -0.160  -5.133  1.00  0.00     0.015 A 
ATOM     70  C   UNL     1       9.199   0.048  -7.526  1.00  0.00     0.134 A 
ATOM     71  C   UNL     1      10.084   0.746  -4.994  1.00  0.00     0.040 A 
ATOM     72  C   UNL     1      10.251   0.949  -7.396  1.00  0.00     0.079 A 
ATOM     73  F   UNL     1       8.798  -0.282  -8.763  1.00  0.00    -0.206 F 
ATOM     74  C   UNL     1      10.684   1.290  -6.126  1.00  0.00     0.126 A 
ATOM     75  F   UNL     1      11.699   2.152  -5.985  1.00  0.00    -0.207 F 
ENDBRANCH  64  68
ENDBRANCH  59  62
ENDBRANCH  57  58
ENDBRANCH  56  57
ENDBRANCH   1  56
TORSDOF 11
