REMARK SMILES O=C(NCCCNC(=O)c1ccc(F)c(S(=O)(=O)N2CCOc3ccccc32)c1)c1ccc(-c2c3nc(c(-c4ccccc4)c4ccc([nH]4)c(-c4ccccc4)c4nc(c(-c5ccccc5)c5ccc2[nH]5)C=C4)C=C3)cc1
REMARK SMILES IDX 5 1 4 2 3 3 1 4 2 5 30 7 31 8 77 9 32 10 76 11 33 12 34 13
REMARK SMILES IDX 35 14 70 15 36 16 75 17 69 18 71 19 37 20 74 21 68 22 67 23
REMARK SMILES IDX 38 25 60 26 45 27 59 28 46 29 49 30 58 31 72 32 47 33 48 34
REMARK SMILES IDX 57 36 73 37 50 38 39 39 40 40 44 41 41 42 43 43 42 44 61 45
REMARK SMILES IDX 62 46 66 47 63 48 65 49 64 50 51 51 52 52 56 53 53 54 55 55
REMARK SMILES IDX 54 56 6 57 7 58 8 59 9 61 10 62 11 63 29 64 12 65 15 66
REMARK SMILES IDX 13 67 14 68 16 69 17 70 18 71 19 72 20 73 28 74 21 75 23 76
REMARK SMILES IDX 27 77 22 78 24 79 26 80 25 81
REMARK H PARENT 3 6 71 24 49 35 7 60
REMARK Flexibility Score: inf
ROOT
ATOM      1  C   UNL     1       4.942  -2.411  -0.850  1.00  0.00     0.042 C 
ENDROOT
BRANCH   1   2
ATOM      2  C   UNL     1       4.598  -0.955  -1.119  1.00  0.00     0.118 C 
BRANCH   2   3
ATOM      3  N   UNL     1       3.171  -0.674  -1.011  1.00  0.00    -0.352 N 
ATOM      4  O   UNL     1       1.231   0.002  -0.097  1.00  0.00    -0.269 OA
ATOM      5  C   UNL     1       2.458   0.035  -0.073  1.00  0.00     0.251 C 
ATOM      6  H   UNL     1       2.624  -1.058  -1.734  1.00  0.00     0.163 HD
BRANCH   5   7
ATOM      7  C   UNL     1       3.150   0.806   0.984  1.00  0.00     0.039 A 
ATOM      8  C   UNL     1       4.307   1.531   0.708  1.00  0.00     0.014 A 
ATOM      9  C   UNL     1       2.620   0.818   2.279  1.00  0.00     0.014 A 
ATOM     10  C   UNL     1       5.043   2.084   1.750  1.00  0.00     0.010 A 
ATOM     11  C   UNL     1       3.301   1.478   3.308  1.00  0.00     0.010 A 
ATOM     12  C   UNL     1       4.548   2.070   3.063  1.00  0.00    -0.014 A 
BRANCH  12  13
ATOM     13  C   UNL     1       5.350   2.705   4.143  1.00  0.00     0.031 A 
ATOM     14  C   UNL     1       5.887   1.897   5.295  1.00  0.00     0.074 A 
ATOM     15  C   UNL     1       5.650   4.015   4.045  1.00  0.00     0.049 A 
ATOM     16  N   UNL     1       6.671   2.281   6.272  1.00  0.00    -0.248 NA
ATOM     17  C   UNL     1       5.489   0.483   5.369  1.00  0.00     0.031 C 
ATOM     18  C   UNL     1       5.188   4.911   2.982  1.00  0.00     0.029 A 
ATOM     19  N   UNL     1       6.447   4.813   4.827  1.00  0.00    -0.354 N 
ATOM     20  C   UNL     1       6.836   1.169   7.089  1.00  0.00     0.074 A 
ATOM     21  C   UNL     1       6.053   0.100   6.507  1.00  0.00     0.031 C 
ATOM     22  C   UNL     1       5.767   6.111   3.134  1.00  0.00     0.029 A 
ATOM     23  C   UNL     1       6.587   6.090   4.339  1.00  0.00     0.049 A 
ATOM     24  H   UNL     1       6.876   4.502   5.656  1.00  0.00     0.167 HD
ATOM     25  C   UNL     1       7.575   1.045   8.218  1.00  0.00     0.031 A 
ATOM     26  C   UNL     1       7.295   7.134   4.806  1.00  0.00     0.031 A 
ATOM     27  C   UNL     1       8.369   2.101   8.791  1.00  0.00     0.049 A 
ATOM     28  C   UNL     1       8.098   6.970   6.062  1.00  0.00     0.074 A 
ATOM     29  C   UNL     1       9.183   2.057   9.910  1.00  0.00     0.029 A 
ATOM     30  N   UNL     1       8.447   3.391   8.290  1.00  0.00    -0.354 N 
ATOM     31  N   UNL     1       8.268   5.900   6.799  1.00  0.00    -0.248 NA
ATOM     32  C   UNL     1       8.806   8.161   6.549  1.00  0.00     0.031 C 
ATOM     33  C   UNL     1       9.717   3.334  10.114  1.00  0.00     0.029 A 
ATOM     34  C   UNL     1       9.277   4.158   9.091  1.00  0.00     0.049 A 
ATOM     35  H   UNL     1       7.982   3.714   7.485  1.00  0.00     0.167 HD
ATOM     36  C   UNL     1       9.120   6.283   7.826  1.00  0.00     0.074 A 
ATOM     37  C   UNL     1       9.447   7.677   7.604  1.00  0.00     0.031 C 
ATOM     38  C   UNL     1       9.589   5.545   8.861  1.00  0.00     0.031 A 
BRANCH  25  39
ATOM     39  C   UNL     1       7.538  -0.279   8.932  1.00  0.00    -0.014 A 
ATOM     40  C   UNL     1       8.185  -1.411   8.413  1.00  0.00     0.009 A 
ATOM     41  C   UNL     1       6.878  -0.382  10.168  1.00  0.00     0.009 A 
ATOM     42  C   UNL     1       8.144  -2.627   9.101  1.00  0.00     0.001 A 
ATOM     43  C   UNL     1       6.862  -1.591  10.866  1.00  0.00     0.001 A 
ATOM     44  C   UNL     1       7.487  -2.714  10.328  1.00  0.00     0.000 A 
ENDBRANCH  25  39
BRANCH  26  45
ATOM     45  C   UNL     1       7.277   8.427   4.076  1.00  0.00    -0.014 A 
ATOM     46  C   UNL     1       8.419   8.880   3.400  1.00  0.00     0.009 A 
ATOM     47  C   UNL     1       6.112   9.210   4.044  1.00  0.00     0.009 A 
ATOM     48  C   UNL     1       8.402  10.102   2.723  1.00  0.00     0.001 A 
ATOM     49  C   UNL     1       6.089  10.416   3.342  1.00  0.00     0.001 A 
ATOM     50  C   UNL     1       7.236  10.865   2.691  1.00  0.00     0.000 A 
ENDBRANCH  26  45
BRANCH  38  51
ATOM     51  C   UNL     1      10.533   6.227   9.809  1.00  0.00    -0.014 A 
ATOM     52  C   UNL     1      10.079   7.194  10.720  1.00  0.00     0.009 A 
ATOM     53  C   UNL     1      11.894   5.885   9.799  1.00  0.00     0.009 A 
ATOM     54  C   UNL     1      10.979   7.834  11.574  1.00  0.00     0.001 A 
ATOM     55  C   UNL     1      12.786   6.506  10.674  1.00  0.00     0.001 A 
ATOM     56  C   UNL     1      12.330   7.487  11.553  1.00  0.00     0.000 A 
ENDBRANCH  38  51
ENDBRANCH  12  13
ENDBRANCH   5   7
ENDBRANCH   2   3
ENDBRANCH   1   2
BRANCH   1  57
ATOM     57  C   UNL     1       4.384  -3.381  -1.879  1.00  0.00     0.118 C 
BRANCH  57  58
ATOM     58  N   UNL     1       4.915  -3.148  -3.217  1.00  0.00    -0.352 N 
ATOM     59  C   UNL     1       5.760  -3.902  -3.991  1.00  0.00     0.251 C 
ATOM     60  H   UNL     1       4.616  -2.309  -3.635  1.00  0.00     0.163 HD
ATOM     61  O   UNL     1       6.232  -3.426  -5.019  1.00  0.00    -0.269 OA
BRANCH  59  62
ATOM     62  C   UNL     1       6.123  -5.280  -3.595  1.00  0.00     0.041 A 
ATOM     63  C   UNL     1       5.158  -6.167  -3.108  1.00  0.00     0.017 A 
ATOM     64  C   UNL     1       7.447  -5.708  -3.754  1.00  0.00     0.039 A 
ATOM     65  C   UNL     1       5.543  -7.414  -2.628  1.00  0.00     0.041 A 
ATOM     66  C   UNL     1       7.816  -6.992  -3.325  1.00  0.00     0.124 A 
ATOM     67  C   UNL     1       6.875  -7.809  -2.711  1.00  0.00     0.143 A 
ATOM     68  F   UNL     1       7.179  -8.992  -2.171  1.00  0.00    -0.205 F 
BRANCH  66  69
ATOM     69  S   UNL     1       9.494  -7.496  -3.606  1.00  0.00     0.267 S 
ATOM     70  O   UNL     1       9.632  -7.598  -5.049  1.00  0.00    -0.201 OA
ATOM     71  O   UNL     1      10.298  -6.557  -2.858  1.00  0.00    -0.201 OA
BRANCH  69  72
ATOM     72  N   UNL     1       9.613  -9.059  -2.978  1.00  0.00    -0.259 N 
ATOM     73  C   UNL     1       9.049 -10.169  -3.791  1.00  0.00     0.177 C 
ATOM     74  C   UNL     1      10.645  -9.450  -2.048  1.00  0.00     0.094 A 
ATOM     75  C   UNL     1      10.180 -11.088  -4.219  1.00  0.00     0.252 C 
ATOM     76  C   UNL     1      11.164 -10.759  -2.116  1.00  0.00     0.143 A 
ATOM     77  C   UNL     1      11.041  -8.636  -0.982  1.00  0.00     0.031 A 
ATOM     78  O   UNL     1      10.820 -11.679  -3.082  1.00  0.00    -0.489 OA
ATOM     79  C   UNL     1      12.059 -11.225  -1.150  1.00  0.00     0.049 A 
ATOM     80  C   UNL     1      11.964  -9.093  -0.036  1.00  0.00     0.002 A 
ATOM     81  C   UNL     1      12.469 -10.388  -0.117  1.00  0.00     0.004 A 
ENDBRANCH  69  72
ENDBRANCH  66  69
ENDBRANCH  59  62
ENDBRANCH  57  58
ENDBRANCH   1  57
TORSDOF 12
