REMARK SMILES CCCCCCNC(=O)Oc1cccc(-c2ccc([C@@H](C)C(=O)NCCCNC(=O)c3ccc(-c4c5nc(c(-c6ccccc6)c6ccc([nH]6)c(-c6ccccc6)c6nc(c(-c7ccccc7)c7ccc4[nH]7)C=C6)C=C5)cc3)cc2F)c1
REMARK SMILES IDX 16 1 17 2 18 3 19 4 79 5 80 6 81 7 15 8 11 9 12 10 82 11
REMARK SMILES IDX 13 12 14 13 10 14 8 15 7 16 9 18 6 19 5 20 4 21 3 22 2 23
REMARK SMILES IDX 1 24 20 25 21 26 22 27 23 28 24 29 25 31 26 32 27 33 28 34
REMARK SMILES IDX 29 35 30 37 31 38 32 39 78 40 33 41 77 42 34 43 35 44 36 45
REMARK SMILES IDX 71 46 37 47 76 48 70 49 72 50 38 51 75 52 69 53 68 54 39 56
REMARK SMILES IDX 61 57 46 58 60 59 47 60 50 61 59 62 73 63 48 64 49 65 58 67
REMARK SMILES IDX 74 68 51 69 40 70 41 71 45 72 42 73 44 74 43 75 62 76 63 77
REMARK SMILES IDX 67 78 64 79 66 80 65 81 52 82 53 83 57 84 54 85 56 86 55 87
REMARK H PARENT 7 17 24 30 28 36 72 55 50 66
REMARK Flexibility Score: inf
ROOT
ATOM      1  C   UNL     1      -5.235   9.746  -0.238  1.00  0.00     0.018 A 
ATOM      2  C   UNL     1      -5.692  11.037   0.074  1.00  0.00     0.012 A 
ATOM      3  C   UNL     1      -5.545  12.108  -0.819  1.00  0.00     0.005 A 
ATOM      4  C   UNL     1      -4.879  11.945  -2.037  1.00  0.00    -0.033 A 
ATOM      5  C   UNL     1      -4.454  10.654  -2.376  1.00  0.00     0.044 A 
ATOM      6  C   UNL     1      -4.650   9.581  -1.503  1.00  0.00     0.131 A 
ATOM      7  F   UNL     1      -4.247   8.369  -1.918  1.00  0.00    -0.206 F 
ENDROOT
BRANCH   1   8
ATOM      8  C   UNL     1      -5.339   8.638   0.739  1.00  0.00    -0.012 A 
ATOM      9  C   UNL     1      -4.418   6.639   1.787  1.00  0.00     0.133 A 
ATOM     10  C   UNL     1      -5.516   6.532   2.632  1.00  0.00     0.047 A 
ATOM     11  C   UNL     1      -4.325   7.670   0.849  1.00  0.00     0.056 A 
ATOM     12  C   UNL     1      -6.527   7.483   2.549  1.00  0.00     0.004 A 
ATOM     13  C   UNL     1      -6.441   8.518   1.609  1.00  0.00     0.009 A 
BRANCH   9  14
ATOM     14  O   UNL     1      -3.478   5.597   1.818  1.00  0.00    -0.410 OA
BRANCH  14  15
ATOM     15  C   UNL     1      -2.137   5.929   1.944  1.00  0.00     0.412 C 
ATOM     16  N   UNL     1      -1.306   4.851   1.807  1.00  0.00    -0.321 N 
ATOM     17  H   UNL     1      -0.342   5.021   1.913  1.00  0.00     0.167 HD
ATOM     18  O   UNL     1      -1.688   7.047   2.164  1.00  0.00    -0.224 OA
BRANCH  16  19
ATOM     19  C   UNL     1      -1.696   3.485   1.522  1.00  0.00     0.119 C 
BRANCH  19  20
ATOM     20  C   UNL     1      -1.089   2.975   0.215  1.00  0.00     0.021 C 
BRANCH  20  21
ATOM     21  C   UNL     1       0.441   2.871   0.212  1.00  0.00     0.002 C 
BRANCH  21  22
ATOM     22  C   UNL     1       1.046   1.977   1.300  1.00  0.00    -0.000 C 
BRANCH  22  23
ATOM     23  C   UNL     1       0.562   0.525   1.304  1.00  0.00    -0.003 C 
ATOM     24  C   UNL     1       0.923  -0.233   0.036  1.00  0.00     0.004 C 
ENDBRANCH  22  23
ENDBRANCH  21  22
ENDBRANCH  20  21
ENDBRANCH  19  20
ENDBRANCH  16  19
ENDBRANCH  14  15
ENDBRANCH   9  14
ENDBRANCH   1   8
BRANCH   4  25
ATOM     25  C   UNL     1      -4.552  13.100  -2.970  1.00  0.00     0.105 C 
ATOM     26  C   UNL     1      -5.686  14.088  -3.234  1.00  0.00     0.023 C 
BRANCH  25  27
ATOM     27  C   UNL     1      -3.188  13.744  -2.675  1.00  0.00     0.227 C 
ATOM     28  O   UNL     1      -2.214  13.476  -3.389  1.00  0.00    -0.274 OA
ATOM     29  N   UNL     1      -2.961  14.611  -1.651  1.00  0.00    -0.356 N 
ATOM     30  H   UNL     1      -2.043  14.968  -1.624  1.00  0.00     0.163 HD
BRANCH  29  31
ATOM     31  C   UNL     1      -3.817  15.107  -0.593  1.00  0.00     0.117 C 
BRANCH  31  32
ATOM     32  C   UNL     1      -3.590  14.382   0.731  1.00  0.00     0.042 C 
BRANCH  32  33
ATOM     33  C   UNL     1      -2.380  14.875   1.516  1.00  0.00     0.118 C 
BRANCH  33  34
ATOM     34  N   UNL     1      -2.556  16.235   2.004  1.00  0.00    -0.352 N 
ATOM     35  C   UNL     1      -2.554  16.750   3.274  1.00  0.00     0.251 C 
ATOM     36  H   UNL     1      -2.703  16.904   1.296  1.00  0.00     0.163 HD
ATOM     37  O   UNL     1      -2.933  17.908   3.437  1.00  0.00    -0.269 OA
BRANCH  35  38
ATOM     38  C   UNL     1      -2.114  15.958   4.449  1.00  0.00     0.039 A 
ATOM     39  C   UNL     1      -2.711  16.229   5.686  1.00  0.00     0.014 A 
ATOM     40  C   UNL     1      -1.075  15.026   4.380  1.00  0.00     0.014 A 
ATOM     41  C   UNL     1      -2.291  15.552   6.833  1.00  0.00     0.010 A 
ATOM     42  C   UNL     1      -0.714  14.289   5.510  1.00  0.00     0.010 A 
ATOM     43  C   UNL     1      -1.301  14.560   6.753  1.00  0.00    -0.014 A 
BRANCH  43  44
ATOM     44  C   UNL     1      -0.867  13.829   7.971  1.00  0.00     0.031 A 
ATOM     45  C   UNL     1       0.536  13.975   8.498  1.00  0.00     0.074 A 
ATOM     46  C   UNL     1      -1.738  13.017   8.602  1.00  0.00     0.049 A 
ATOM     47  N   UNL     1       1.073  13.453   9.573  1.00  0.00    -0.248 NA
ATOM     48  C   UNL     1       1.464  14.798   7.705  1.00  0.00     0.031 C 
ATOM     49  C   UNL     1      -3.110  12.746   8.166  1.00  0.00     0.029 A 
ATOM     50  N   UNL     1      -1.602  12.280   9.751  1.00  0.00    -0.354 N 
ATOM     51  C   UNL     1       2.398  13.871   9.576  1.00  0.00     0.074 A 
ATOM     52  C   UNL     1       2.599  14.647   8.373  1.00  0.00     0.031 C 
ATOM     53  C   UNL     1      -3.703  11.938   9.060  1.00  0.00     0.029 A 
ATOM     54  C   UNL     1      -2.747  11.613  10.114  1.00  0.00     0.049 A 
ATOM     55  H   UNL     1      -0.765  12.234  10.266  1.00  0.00     0.167 HD
ATOM     56  C   UNL     1       3.358  13.649  10.507  1.00  0.00     0.031 A 
ATOM     57  C   UNL     1      -3.004  10.836  11.182  1.00  0.00     0.031 A 
ATOM     58  C   UNL     1       3.159  12.886  11.710  1.00  0.00     0.049 A 
ATOM     59  C   UNL     1      -1.930  10.623  12.211  1.00  0.00     0.074 A 
ATOM     60  C   UNL     1       4.053  12.650  12.741  1.00  0.00     0.029 A 
ATOM     61  N   UNL     1       1.982  12.235  12.044  1.00  0.00    -0.354 N 
ATOM     62  N   UNL     1      -0.706  11.090  12.237  1.00  0.00    -0.248 NA
ATOM     63  C   UNL     1      -2.284   9.791  13.369  1.00  0.00     0.031 C 
ATOM     64  C   UNL     1       3.429  11.819  13.678  1.00  0.00     0.029 A 
ATOM     65  C   UNL     1       2.131  11.582  13.256  1.00  0.00     0.049 A 
ATOM     66  H   UNL     1       1.162  12.236  11.500  1.00  0.00     0.167 HD
ATOM     67  C   UNL     1      -0.151  10.629  13.423  1.00  0.00     0.074 A 
ATOM     68  C   UNL     1      -1.181   9.866  14.099  1.00  0.00     0.031 C 
ATOM     69  C   UNL     1       1.100  10.820  13.911  1.00  0.00     0.031 A 
BRANCH  56  70
ATOM     70  C   UNL     1       4.717  14.243  10.252  1.00  0.00    -0.014 A 
ATOM     71  C   UNL     1       4.931  15.629  10.327  1.00  0.00     0.009 A 
ATOM     72  C   UNL     1       5.804  13.404   9.962  1.00  0.00     0.009 A 
ATOM     73  C   UNL     1       6.196  16.165  10.078  1.00  0.00     0.001 A 
ATOM     74  C   UNL     1       7.075  13.941   9.742  1.00  0.00     0.001 A 
ATOM     75  C   UNL     1       7.268  15.321   9.790  1.00  0.00     0.000 A 
ENDBRANCH  56  70
BRANCH  57  76
ATOM     76  C   UNL     1      -4.351  10.235  11.356  1.00  0.00    -0.014 A 
ATOM     77  C   UNL     1      -5.219  10.710  12.351  1.00  0.00     0.009 A 
ATOM     78  C   UNL     1      -4.777   9.185  10.528  1.00  0.00     0.009 A 
ATOM     79  C   UNL     1      -6.476  10.128  12.532  1.00  0.00     0.001 A 
ATOM     80  C   UNL     1      -6.045   8.624  10.693  1.00  0.00     0.001 A 
ATOM     81  C   UNL     1      -6.889   9.089  11.701  1.00  0.00     0.000 A 
ENDBRANCH  57  76
BRANCH  69  82
ATOM     82  C   UNL     1       1.407  10.213  15.251  1.00  0.00    -0.014 A 
ATOM     83  C   UNL     1       1.551   8.826  15.407  1.00  0.00     0.009 A 
ATOM     84  C   UNL     1       1.564  11.046  16.370  1.00  0.00     0.009 A 
ATOM     85  C   UNL     1       1.803   8.281  16.668  1.00  0.00     0.001 A 
ATOM     86  C   UNL     1       1.845  10.500  17.623  1.00  0.00     0.001 A 
ATOM     87  C   UNL     1       1.951   9.118  17.773  1.00  0.00     0.000 A 
ENDBRANCH  69  82
ENDBRANCH  43  44
ENDBRANCH  35  38
ENDBRANCH  33  34
ENDBRANCH  32  33
ENDBRANCH  31  32
ENDBRANCH  29  31
ENDBRANCH  25  27
ENDBRANCH   4  25
TORSDOF 19
