REMARK SMILES CCCSc1nc2n(n1)[C@@H](c1ccccc1C(=O)NCCCNC(=O)c1ccc(-c3c4nc(c(-c5ccccc5)c5ccc([nH]5)c(-c5ccccc5)c5nc(c(-c6ccccc6)c6ccc3[nH]6)C=C5)C=C4)cc1)C(C(=O)Nc1cccc(C)c1C)=C(C)N2
REMARK SMILES IDX 20 1 19 2 17 3 18 4 16 6 11 7 12 8 13 9 15 10 14 11 10 12
REMARK SMILES IDX 5 13 6 14 9 15 7 16 8 17 88 18 86 19 74 21 87 22 4 23 3 24
REMARK SMILES IDX 2 25 1 26 75 27 76 28 77 29 78 31 79 32 84 33 80 34 82 35
REMARK SMILES IDX 85 36 81 37 83 38 21 39 22 40 23 41 24 42 25 44 26 45 27 46
REMARK SMILES IDX 73 47 28 48 72 49 29 50 30 51 31 52 66 53 32 54 71 55 65 56
REMARK SMILES IDX 67 57 33 58 70 59 64 60 63 61 34 63 56 64 41 65 55 66 42 67
REMARK SMILES IDX 45 68 54 69 68 70 43 71 44 72 53 74 69 75 46 76 35 77 36 78
REMARK SMILES IDX 40 79 37 80 39 81 38 82 57 83 58 84 62 85 59 86 61 87 60 88
REMARK SMILES IDX 47 89 48 90 52 91 49 92 51 93 50 94
REMARK H PARENT 19 5 88 20 77 30 23 43 67 62 45 73
REMARK Flexibility Score: inf
ROOT
ATOM      1  C   UNL     1       1.044  -3.277   7.180  1.00  0.00     0.118 C 
ENDROOT
BRANCH   1   2
ATOM      2  N   UNL     1       2.301  -4.004   7.304  1.00  0.00    -0.352 N 
ATOM      3  C   UNL     1       3.601  -4.042   6.891  1.00  0.00     0.251 C 
ATOM      4  O   UNL     1       4.277  -4.729   7.676  1.00  0.00    -0.269 OA
ATOM      5  H   UNL     1       2.157  -4.756   7.923  1.00  0.00     0.163 HD
BRANCH   3   6
ATOM      6  C   UNL     1       4.310  -3.503   5.664  1.00  0.00     0.045 A 
ATOM      7  C   UNL     1       3.878  -2.671   4.604  1.00  0.00    -0.006 A 
ATOM      8  C   UNL     1       4.765  -2.445   3.506  1.00  0.00     0.007 A 
ATOM      9  C   UNL     1       6.059  -2.957   3.465  1.00  0.00     0.000 A 
ATOM     10  C   UNL     1       5.665  -3.949   5.605  1.00  0.00     0.014 A 
ATOM     11  C   UNL     1       6.526  -3.681   4.539  1.00  0.00     0.001 A 
BRANCH   7  12
ATOM     12  C   UNL     1       2.599  -1.848   4.636  1.00  0.00     0.180 C 
ATOM     13  C   UNL     1       0.968  -2.094   1.521  1.00  0.00     0.210 A 
ATOM     14  N   UNL     1       1.116  -0.743   1.570  1.00  0.00    -0.185 NA
ATOM     15  N   UNL     1       1.431  -2.760   2.591  1.00  0.00    -0.141 NA
ATOM     16  C   UNL     1       1.750  -0.543   2.682  1.00  0.00     0.227 A 
ATOM     17  N   UNL     1       1.964  -1.737   3.306  1.00  0.00    -0.218 N 
ATOM     18  N   UNL     1       2.172   0.599   3.236  1.00  0.00    -0.328 N 
ATOM     19  C   UNL     1       2.707   0.674   4.509  1.00  0.00     0.026 C 
ATOM     20  H   UNL     1       2.097   1.428   2.711  1.00  0.00     0.169 HD
ATOM     21  C   UNL     1       2.807  -0.450   5.258  1.00  0.00     0.065 C 
ATOM     22  C   UNL     1       3.127   2.056   4.929  1.00  0.00     0.065 C 
BRANCH  13  23
ATOM     23  S   UNL     1       0.218  -2.842   0.144  1.00  0.00    -0.084 SA
BRANCH  23  24
ATOM     24  C   UNL     1       1.010  -1.905  -1.214  1.00  0.00     0.078 C 
BRANCH  24  25
ATOM     25  C   UNL     1       0.351  -0.585  -1.639  1.00  0.00     0.008 C 
ATOM     26  C   UNL     1       0.710   0.644  -0.814  1.00  0.00     0.005 C 
ENDBRANCH  24  25
ENDBRANCH  23  24
ENDBRANCH  13  23
BRANCH  21  27
ATOM     27  C   UNL     1       3.168  -0.437   6.694  1.00  0.00     0.255 C 
ATOM     28  O   UNL     1       4.217  -0.957   7.070  1.00  0.00    -0.269 OA
ATOM     29  N   UNL     1       2.296   0.016   7.655  1.00  0.00    -0.322 N 
ATOM     30  H   UNL     1       2.136  -0.575   8.426  1.00  0.00     0.170 HD
BRANCH  29  31
ATOM     31  C   UNL     1       1.610   1.250   7.643  1.00  0.00     0.044 A 
ATOM     32  C   UNL     1       2.151   2.213   8.511  1.00  0.00     0.026 A 
ATOM     33  C   UNL     1       0.510   1.576   6.828  1.00  0.00    -0.025 A 
ATOM     34  C   UNL     1       1.702   3.526   8.487  1.00  0.00     0.002 A 
ATOM     35  C   UNL     1       0.057   2.921   6.806  1.00  0.00    -0.046 A 
ATOM     36  C   UNL     1      -0.246   0.547   6.038  1.00  0.00     0.047 C 
ATOM     37  C   UNL     1       0.682   3.883   7.617  1.00  0.00     0.004 A 
ATOM     38  C   UNL     1      -1.023   3.405   5.871  1.00  0.00     0.044 C 
ENDBRANCH  29  31
ENDBRANCH  21  27
ENDBRANCH   7  12
ENDBRANCH   3   6
ENDBRANCH   1   2
BRANCH   1  39
ATOM     39  C   UNL     1       0.026  -3.914   6.232  1.00  0.00     0.042 C 
BRANCH  39  40
ATOM     40  C   UNL     1      -1.423  -3.707   6.682  1.00  0.00     0.118 C 
BRANCH  40  41
ATOM     41  N   UNL     1      -1.895  -2.325   6.580  1.00  0.00    -0.352 N 
ATOM     42  C   UNL     1      -2.864  -1.701   7.353  1.00  0.00     0.251 C 
ATOM     43  H   UNL     1      -1.475  -1.774   5.880  1.00  0.00     0.163 HD
ATOM     44  O   UNL     1      -3.483  -0.734   6.955  1.00  0.00    -0.269 OA
BRANCH  42  45
ATOM     45  C   UNL     1      -3.115  -2.246   8.696  1.00  0.00     0.039 A 
ATOM     46  C   UNL     1      -4.398  -2.646   9.075  1.00  0.00     0.014 A 
ATOM     47  C   UNL     1      -2.003  -2.498   9.495  1.00  0.00     0.014 A 
ATOM     48  C   UNL     1      -4.535  -3.450  10.201  1.00  0.00     0.010 A 
ATOM     49  C   UNL     1      -2.127  -3.378  10.543  1.00  0.00     0.010 A 
ATOM     50  C   UNL     1      -3.386  -3.870  10.893  1.00  0.00    -0.014 A 
BRANCH  50  51
ATOM     51  C   UNL     1      -3.470  -5.013  11.803  1.00  0.00     0.031 A 
ATOM     52  C   UNL     1      -4.106  -6.230  11.217  1.00  0.00     0.074 A 
ATOM     53  C   UNL     1      -2.785  -5.115  12.960  1.00  0.00     0.049 A 
ATOM     54  N   UNL     1      -5.229  -6.776  11.550  1.00  0.00    -0.248 NA
ATOM     55  C   UNL     1      -3.472  -6.848  10.039  1.00  0.00     0.031 C 
ATOM     56  C   UNL     1      -1.818  -4.167  13.521  1.00  0.00     0.029 A 
ATOM     57  N   UNL     1      -2.706  -6.173  13.814  1.00  0.00    -0.354 N 
ATOM     58  C   UNL     1      -5.345  -7.926  10.773  1.00  0.00     0.074 A 
ATOM     59  C   UNL     1      -4.346  -7.812   9.741  1.00  0.00     0.031 C 
ATOM     60  C   UNL     1      -1.076  -4.789  14.463  1.00  0.00     0.029 A 
ATOM     61  C   UNL     1      -1.637  -6.107  14.696  1.00  0.00     0.049 A 
ATOM     62  H   UNL     1      -3.349  -6.918  13.806  1.00  0.00     0.167 HD
ATOM     63  C   UNL     1      -6.064  -9.003  11.203  1.00  0.00     0.031 A 
ATOM     64  C   UNL     1      -1.223  -7.072  15.550  1.00  0.00     0.031 A 
ATOM     65  C   UNL     1      -6.904  -8.662  12.327  1.00  0.00     0.049 A 
ATOM     66  C   UNL     1      -2.348  -8.013  15.740  1.00  0.00     0.074 A 
ATOM     67  C   UNL     1      -7.897  -7.734  12.568  1.00  0.00     0.029 A 
ATOM     68  N   UNL     1      -6.479  -9.084  13.564  1.00  0.00    -0.354 N 
ATOM     69  N   UNL     1      -3.450  -7.697  16.355  1.00  0.00    -0.248 NA
ATOM     70  C   UNL     1      -2.425  -9.194  14.897  1.00  0.00     0.031 C 
ATOM     71  C   UNL     1      -7.674  -7.298  13.909  1.00  0.00     0.029 A 
ATOM     72  C   UNL     1      -6.609  -8.034  14.432  1.00  0.00     0.049 A 
ATOM     73  H   UNL     1      -6.142  -9.982  13.787  1.00  0.00     0.167 HD
ATOM     74  C   UNL     1      -4.449  -8.333  15.634  1.00  0.00     0.074 A 
ATOM     75  C   UNL     1      -3.751  -9.349  14.849  1.00  0.00     0.031 C 
ATOM     76  C   UNL     1      -5.694  -7.779  15.524  1.00  0.00     0.031 A 
BRANCH  63  77
ATOM     77  C   UNL     1      -5.666 -10.443  10.933  1.00  0.00    -0.014 A 
ATOM     78  C   UNL     1      -6.454 -11.470  11.491  1.00  0.00     0.009 A 
ATOM     79  C   UNL     1      -4.409 -10.825  10.431  1.00  0.00     0.009 A 
ATOM     80  C   UNL     1      -5.958 -12.771  11.649  1.00  0.00     0.001 A 
ATOM     81  C   UNL     1      -3.929 -12.134  10.543  1.00  0.00     0.001 A 
ATOM     82  C   UNL     1      -4.689 -13.098  11.187  1.00  0.00     0.000 A 
ENDBRANCH  63  77
BRANCH  64  83
ATOM     83  C   UNL     1       0.128  -7.333  16.081  1.00  0.00    -0.014 A 
ATOM     84  C   UNL     1       0.305  -8.118  17.230  1.00  0.00     0.009 A 
ATOM     85  C   UNL     1       1.266  -7.025  15.313  1.00  0.00     0.009 A 
ATOM     86  C   UNL     1       1.569  -8.616  17.571  1.00  0.00     0.001 A 
ATOM     87  C   UNL     1       2.529  -7.517  15.657  1.00  0.00     0.001 A 
ATOM     88  C   UNL     1       2.676  -8.328  16.777  1.00  0.00     0.000 A 
ENDBRANCH  64  83
BRANCH  76  89
ATOM     89  C   UNL     1      -6.043  -6.637  16.448  1.00  0.00    -0.014 A 
ATOM     90  C   UNL     1      -5.314  -5.436  16.505  1.00  0.00     0.009 A 
ATOM     91  C   UNL     1      -7.222  -6.731  17.203  1.00  0.00     0.009 A 
ATOM     92  C   UNL     1      -5.724  -4.384  17.331  1.00  0.00     0.001 A 
ATOM     93  C   UNL     1      -7.646  -5.671  18.008  1.00  0.00     0.001 A 
ATOM     94  C   UNL     1      -6.891  -4.503  18.081  1.00  0.00     0.000 A 
ENDBRANCH  76  89
ENDBRANCH  50  51
ENDBRANCH  42  45
ENDBRANCH  40  41
ENDBRANCH  39  40
ENDBRANCH   1  39
TORSDOF 16
