REMARK SMILES C=Cc1cc(Cl)cc2c1O[C@H](C(F)(F)F)C(C(=O)NCCCNC(=O)c1ccc(-c3c4nc(c(-c5ccccc5)c5ccc([nH]5)c(-c5ccccc5)c5nc(c(-c6ccccc6)c6ccc3[nH]6)C=C5)C=C4)cc1)=C2
REMARK SMILES IDX 21 1 20 2 19 3 17 4 18 5 16 7 3 8 4 9 9 10 5 11 8 12 10 13
REMARK SMILES IDX 6 14 7 15 74 16 11 17 2 18 1 19 12 20 13 21 14 22 15 23
REMARK SMILES IDX 22 24 23 25 24 26 25 28 26 29 27 30 73 31 28 32 72 33 29 34
REMARK SMILES IDX 30 35 31 36 66 37 32 38 71 39 65 40 67 41 33 42 70 43 64 44
REMARK SMILES IDX 63 45 34 47 56 48 41 49 55 50 42 51 45 52 54 53 68 54 43 55
REMARK SMILES IDX 44 56 53 58 69 59 46 60 35 61 36 62 40 63 37 64 39 65 38 66
REMARK SMILES IDX 57 67 58 68 62 69 59 70 61 71 60 72 47 73 48 74 52 75 49 76
REMARK SMILES IDX 51 77 50 78
REMARK H PARENT 19 6 23 27 67 46 45 57
REMARK Flexibility Score: inf
ROOT
ATOM      1  C   UNL     1      -1.559   7.929  -0.724  1.00  0.00     0.042 C 
ENDROOT
BRANCH   1   2
ATOM      2  C   UNL     1      -2.102   7.397   0.594  1.00  0.00     0.118 C 
BRANCH   2   3
ATOM      3  N   UNL     1      -3.429   6.821   0.437  1.00  0.00    -0.352 N 
ATOM      4  C   UNL     1      -3.980   5.587   0.381  1.00  0.00     0.251 C 
ATOM      5  O   UNL     1      -5.202   5.569   0.204  1.00  0.00    -0.270 OA
ATOM      6  H   UNL     1      -4.115   7.522   0.347  1.00  0.00     0.163 HD
BRANCH   4   7
ATOM      7  C   UNL     1      -3.234   4.303   0.513  1.00  0.00     0.067 C 
ATOM      8  C   UNL     1      -1.236   0.597   0.614  1.00  0.00     0.018 A 
ATOM      9  C   UNL     1      -1.992  -0.574   0.754  1.00  0.00     0.032 A 
ATOM     10  C   UNL     1      -1.908   1.827   0.521  1.00  0.00     0.135 A 
ATOM     11  C   UNL     1      -3.386  -0.511   0.770  1.00  0.00     0.042 A 
ATOM     12  C   UNL     1      -3.307   1.889   0.532  1.00  0.00     0.019 A 
ATOM     13  O   UNL     1      -1.152   2.961   0.360  1.00  0.00    -0.475 OA
ATOM     14  Cl  UNL     1      -4.300  -1.960   0.939  1.00  0.00    -0.084 Cl
ATOM     15  C   UNL     1      -4.047   0.711   0.653  1.00  0.00     0.032 A 
ATOM     16  C   UNL     1      -3.968   3.181   0.386  1.00  0.00     0.025 C 
ATOM     17  C   UNL     1      -1.764   4.202   0.798  1.00  0.00     0.314 C 
BRANCH   8  18
ATOM     18  C   UNL     1       0.234   0.553   0.635  1.00  0.00     0.004 C 
ATOM     19  C   UNL     1       0.965  -0.299  -0.094  1.00  0.00     0.009 C 
ENDBRANCH   8  18
BRANCH  17  20
ATOM     20  C   UNL     1      -1.422   4.449   2.280  1.00  0.00     0.429 C 
ATOM     21  F   UNL     1      -0.098   4.713   2.419  1.00  0.00    -0.167 F 
ATOM     22  F   UNL     1      -2.082   5.513   2.795  1.00  0.00    -0.167 F 
ATOM     23  F   UNL     1      -1.709   3.390   3.068  1.00  0.00    -0.167 F 
ENDBRANCH  17  20
ENDBRANCH   4   7
ENDBRANCH   2   3
ENDBRANCH   1   2
BRANCH   1  24
ATOM     24  C   UNL     1      -2.179   9.268  -1.103  1.00  0.00     0.118 C 
BRANCH  24  25
ATOM     25  N   UNL     1      -1.734  10.350  -0.225  1.00  0.00    -0.352 N 
ATOM     26  C   UNL     1      -0.868  11.391  -0.461  1.00  0.00     0.251 C 
ATOM     27  H   UNL     1      -2.117  10.329   0.682  1.00  0.00     0.163 HD
ATOM     28  O   UNL     1      -0.447  12.065   0.474  1.00  0.00    -0.269 OA
BRANCH  26  29
ATOM     29  C   UNL     1      -0.425  11.681  -1.839  1.00  0.00     0.039 A 
ATOM     30  C   UNL     1      -1.339  11.642  -2.891  1.00  0.00     0.014 A 
ATOM     31  C   UNL     1       0.918  11.979  -2.087  1.00  0.00     0.014 A 
ATOM     32  C   UNL     1      -0.879  11.680  -4.198  1.00  0.00     0.010 A 
ATOM     33  C   UNL     1       1.361  12.132  -3.404  1.00  0.00     0.010 A 
ATOM     34  C   UNL     1       0.477  11.921  -4.473  1.00  0.00    -0.014 A 
BRANCH  34  35
ATOM     35  C   UNL     1       0.933  11.931  -5.887  1.00  0.00     0.031 A 
ATOM     36  C   UNL     1       1.914  10.904  -6.387  1.00  0.00     0.074 A 
ATOM     37  C   UNL     1       0.385  12.814  -6.745  1.00  0.00     0.049 A 
ATOM     38  N   UNL     1       2.378  10.735  -7.600  1.00  0.00    -0.248 NA
ATOM     39  C   UNL     1       2.446   9.943  -5.407  1.00  0.00     0.031 C 
ATOM     40  C   UNL     1      -0.600  13.836  -6.383  1.00  0.00     0.029 A 
ATOM     41  N   UNL     1       0.537  12.965  -8.100  1.00  0.00    -0.354 N 
ATOM     42  C   UNL     1       3.268   9.671  -7.523  1.00  0.00     0.074 A 
ATOM     43  C   UNL     1       3.302   9.246  -6.142  1.00  0.00     0.031 C 
ATOM     44  C   UNL     1      -1.026  14.448  -7.497  1.00  0.00     0.029 A 
ATOM     45  C   UNL     1      -0.286  13.923  -8.639  1.00  0.00     0.049 A 
ATOM     46  H   UNL     1       1.175  12.438  -8.633  1.00  0.00     0.167 HD
ATOM     47  C   UNL     1       3.986   9.096  -8.517  1.00  0.00     0.031 A 
ATOM     48  C   UNL     1      -0.429  14.345  -9.909  1.00  0.00     0.031 A 
ATOM     49  C   UNL     1       3.936   9.509  -9.894  1.00  0.00     0.049 A 
ATOM     50  C   UNL     1       0.412  13.722 -10.983  1.00  0.00     0.074 A 
ATOM     51  C   UNL     1       4.622   8.981 -10.974  1.00  0.00     0.029 A 
ATOM     52  N   UNL     1       3.152  10.542 -10.383  1.00  0.00    -0.354 N 
ATOM     53  N   UNL     1       1.263  12.729 -10.887  1.00  0.00    -0.248 NA
ATOM     54  C   UNL     1       0.284  14.281 -12.336  1.00  0.00     0.031 C 
ATOM     55  C   UNL     1       4.294   9.729 -12.107  1.00  0.00     0.029 A 
ATOM     56  C   UNL     1       3.356  10.682 -11.745  1.00  0.00     0.049 A 
ATOM     57  H   UNL     1       2.541  11.094  -9.842  1.00  0.00     0.167 HD
ATOM     58  C   UNL     1       1.770  12.542 -12.165  1.00  0.00     0.074 A 
ATOM     59  C   UNL     1       1.113  13.506 -13.024  1.00  0.00     0.031 C 
ATOM     60  C   UNL     1       2.702  11.652 -12.585  1.00  0.00     0.031 A 
BRANCH  47  61
ATOM     61  C   UNL     1       4.907   7.962  -8.160  1.00  0.00    -0.014 A 
ATOM     62  C   UNL     1       6.297   8.150  -8.224  1.00  0.00     0.009 A 
ATOM     63  C   UNL     1       4.408   6.688  -7.849  1.00  0.00     0.009 A 
ATOM     64  C   UNL     1       7.170   7.084  -7.997  1.00  0.00     0.001 A 
ATOM     65  C   UNL     1       5.284   5.629  -7.596  1.00  0.00     0.001 A 
ATOM     66  C   UNL     1       6.662   5.825  -7.679  1.00  0.00     0.000 A 
ENDBRANCH  47  61
BRANCH  48  67
ATOM     67  C   UNL     1      -1.413  15.417 -10.214  1.00  0.00    -0.014 A 
ATOM     68  C   UNL     1      -1.213  16.723  -9.738  1.00  0.00     0.009 A 
ATOM     69  C   UNL     1      -2.587  15.126 -10.923  1.00  0.00     0.009 A 
ATOM     70  C   UNL     1      -2.183  17.707  -9.934  1.00  0.00     0.001 A 
ATOM     71  C   UNL     1      -3.543  16.121 -11.145  1.00  0.00     0.001 A 
ATOM     72  C   UNL     1      -3.346  17.406 -10.640  1.00  0.00     0.000 A 
ENDBRANCH  48  67
BRANCH  60  73
ATOM     73  C   UNL     1       3.075  11.667 -14.039  1.00  0.00    -0.014 A 
ATOM     74  C   UNL     1       2.690  10.602 -14.868  1.00  0.00     0.009 A 
ATOM     75  C   UNL     1       3.891  12.681 -14.562  1.00  0.00     0.009 A 
ATOM     76  C   UNL     1       3.127  10.544 -16.192  1.00  0.00     0.001 A 
ATOM     77  C   UNL     1       4.305  12.633 -15.895  1.00  0.00     0.001 A 
ATOM     78  C   UNL     1       3.931  11.561 -16.705  1.00  0.00     0.000 A 
ENDBRANCH  60  73
ENDBRANCH  34  35
ENDBRANCH  26  29
ENDBRANCH  24  25
ENDBRANCH   1  24
TORSDOF 12
