REMARK SMILES O=C(C[C@@H](c1cccc([N+](=O)[O-])c1)N1Cc2ccccc2C1=O)NCCCNC(=O)c1ccc(-c2c3nc(c(-c4ccccc4)c4ccc([nH]4)c(-c4ccccc4)c4nc(c(-c5ccccc5)c5ccc2[nH]5)C=C4)C=C3)cc1
REMARK SMILES IDX 25 1 24 2 1 3 2 4 3 6 4 7 5 8 6 9 13 10 7 11 9 12 8 13 10 14
REMARK SMILES IDX 11 15 12 16 14 17 15 18 22 19 16 20 21 21 23 22 17 23 20 24
REMARK SMILES IDX 18 25 19 26 26 27 27 28 28 29 29 30 30 32 31 33 32 34 78 35
REMARK SMILES IDX 33 36 77 37 34 38 35 39 36 40 71 41 37 42 76 43 70 44 72 45
REMARK SMILES IDX 38 46 75 47 69 48 68 49 39 51 61 52 46 53 60 54 47 55 50 56
REMARK SMILES IDX 59 57 73 58 48 59 49 60 58 62 74 63 51 64 40 65 41 66 45 67
REMARK SMILES IDX 42 68 44 69 43 70 62 71 63 72 67 73 64 74 66 75 65 76 52 77
REMARK SMILES IDX 53 78 57 79 54 80 56 81 55 82
REMARK H PARENT 24 5 28 31 72 50 50 61
REMARK Flexibility Score: inf
ROOT
ATOM      1  C   UNL     1       1.734  -1.797  -1.568  1.00  0.00     0.117 C 
ENDROOT
BRANCH   1   2
ATOM      2  N   UNL     1       2.272  -0.534  -1.109  1.00  0.00    -0.356 N 
ATOM      3  O   UNL     1       1.329  -0.673   0.982  1.00  0.00    -0.275 OA
ATOM      4  C   UNL     1       2.076  -0.110   0.190  1.00  0.00     0.222 C 
ATOM      5  H   UNL     1       2.784   0.031  -1.732  1.00  0.00     0.163 HD
BRANCH   4   6
ATOM      6  C   UNL     1       2.956   1.055   0.584  1.00  0.00     0.130 C 
BRANCH   6   7
ATOM      7  C   UNL     1       4.113   0.553   1.457  1.00  0.00     0.125 C 
BRANCH   7   8
ATOM      8  C   UNL     1       4.840  -0.684   0.880  1.00  0.00    -0.018 A 
ATOM      9  C   UNL     1       4.864  -1.893   1.594  1.00  0.00     0.006 A 
ATOM     10  C   UNL     1       5.505  -0.655  -0.355  1.00  0.00     0.091 A 
ATOM     11  C   UNL     1       5.557  -3.012   1.108  1.00  0.00     0.007 A 
ATOM     12  C   UNL     1       6.280  -1.740  -0.789  1.00  0.00     0.269 A 
ATOM     13  C   UNL     1       6.293  -2.933  -0.074  1.00  0.00     0.085 A 
BRANCH  12  14
ATOM     14  N   UNL     1       7.104  -1.580  -1.990  1.00  0.00     0.062 N 
ATOM     15  O   UNL     1       7.952  -2.444  -2.240  1.00  0.00    -0.258 OA
ATOM     16  O   UNL     1       6.906  -0.569  -2.685  1.00  0.00    -0.258 OA
ENDBRANCH  12  14
ENDBRANCH   7   8
BRANCH   7  17
ATOM     17  N   UNL     1       5.077   1.634   1.771  1.00  0.00    -0.327 N 
ATOM     18  C   UNL     1       5.944   2.239   0.772  1.00  0.00     0.157 C 
ATOM     19  C   UNL     1       5.759   1.595   2.997  1.00  0.00     0.255 C 
ATOM     20  C   UNL     1       7.284   1.845   1.280  1.00  0.00    -0.016 A 
ATOM     21  C   UNL     1       7.194   1.718   2.668  1.00  0.00     0.045 A 
ATOM     22  O   UNL     1       5.322   1.294   4.092  1.00  0.00    -0.269 OA
ATOM     23  C   UNL     1       8.444   1.491   0.620  1.00  0.00     0.006 A 
ATOM     24  C   UNL     1       8.276   1.393   3.460  1.00  0.00     0.014 A 
ATOM     25  C   UNL     1       9.535   1.082   1.397  1.00  0.00     0.000 A 
ATOM     26  C   UNL     1       9.468   1.083   2.805  1.00  0.00     0.001 A 
ENDBRANCH   7  17
ENDBRANCH   6   7
ENDBRANCH   4   6
ENDBRANCH   1   2
BRANCH   1  27
ATOM     27  C   UNL     1       1.997  -2.056  -3.048  1.00  0.00     0.042 C 
BRANCH  27  28
ATOM     28  C   UNL     1       3.468  -2.201  -3.435  1.00  0.00     0.118 C 
BRANCH  28  29
ATOM     29  N   UNL     1       4.103  -3.397  -2.905  1.00  0.00    -0.352 N 
ATOM     30  C   UNL     1       4.946  -4.285  -3.536  1.00  0.00     0.251 C 
ATOM     31  H   UNL     1       3.901  -3.601  -1.963  1.00  0.00     0.163 HD
ATOM     32  O   UNL     1       5.321  -5.294  -2.948  1.00  0.00    -0.269 OA
BRANCH  30  33
ATOM     33  C   UNL     1       5.374  -4.041  -4.933  1.00  0.00     0.039 A 
ATOM     34  C   UNL     1       5.244  -5.069  -5.872  1.00  0.00     0.014 A 
ATOM     35  C   UNL     1       5.888  -2.803  -5.324  1.00  0.00     0.014 A 
ATOM     36  C   UNL     1       5.546  -4.826  -7.216  1.00  0.00     0.010 A 
ATOM     37  C   UNL     1       6.154  -2.549  -6.667  1.00  0.00     0.010 A 
ATOM     38  C   UNL     1       5.964  -3.551  -7.630  1.00  0.00    -0.014 A 
BRANCH  38  39
ATOM     39  C   UNL     1       6.142  -3.207  -9.062  1.00  0.00     0.031 A 
ATOM     40  C   UNL     1       7.498  -2.853  -9.602  1.00  0.00     0.074 A 
ATOM     41  C   UNL     1       5.056  -3.096  -9.851  1.00  0.00     0.049 A 
ATOM     42  N   UNL     1       7.821  -2.401 -10.788  1.00  0.00    -0.248 NA
ATOM     43  C   UNL     1       8.637  -3.008  -8.684  1.00  0.00     0.031 C 
ATOM     44  C   UNL     1       3.677  -3.372  -9.440  1.00  0.00     0.029 A 
ATOM     45  N   UNL     1       4.939  -2.697 -11.159  1.00  0.00    -0.354 N 
ATOM     46  C   UNL     1       9.194  -2.200 -10.754  1.00  0.00     0.074 A 
ATOM     47  C   UNL     1       9.639  -2.551  -9.421  1.00  0.00     0.031 C 
ATOM     48  C   UNL     1       2.856  -3.143 -10.477  1.00  0.00     0.029 A 
ATOM     49  C   UNL     1       3.642  -2.665 -11.610  1.00  0.00     0.049 A 
ATOM     50  H   UNL     1       5.711  -2.457 -11.720  1.00  0.00     0.167 HD
ATOM     51  C   UNL     1      10.012  -1.771 -11.745  1.00  0.00     0.031 A 
ATOM     52  C   UNL     1       3.136  -2.277 -12.795  1.00  0.00     0.031 A 
ATOM     53  C   UNL     1       9.574  -1.426 -13.072  1.00  0.00     0.049 A 
ATOM     54  C   UNL     1       4.061  -1.784 -13.871  1.00  0.00     0.074 A 
ATOM     55  C   UNL     1      10.340  -1.037 -14.158  1.00  0.00     0.029 A 
ATOM     56  N   UNL     1       8.254  -1.425 -13.492  1.00  0.00    -0.354 N 
ATOM     57  N   UNL     1       5.365  -1.657 -13.841  1.00  0.00    -0.248 NA
ATOM     58  C   UNL     1       3.444  -1.385 -15.144  1.00  0.00     0.031 C 
ATOM     59  C   UNL     1       9.478  -0.758 -15.224  1.00  0.00     0.029 A 
ATOM     60  C   UNL     1       8.181  -1.019 -14.814  1.00  0.00     0.049 A 
ATOM     61  H   UNL     1       7.482  -1.675 -12.934  1.00  0.00     0.167 HD
ATOM     62  C   UNL     1       5.727  -1.192 -15.098  1.00  0.00     0.074 A 
ATOM     63  C   UNL     1       4.507  -1.065 -15.869  1.00  0.00     0.031 C 
ATOM     64  C   UNL     1       6.962  -0.901 -15.571  1.00  0.00     0.031 A 
BRANCH  51  65
ATOM     65  C   UNL     1      11.474  -1.641 -11.427  1.00  0.00    -0.014 A 
ATOM     66  C   UNL     1      12.285  -2.776 -11.271  1.00  0.00     0.009 A 
ATOM     67  C   UNL     1      12.057  -0.368 -11.327  1.00  0.00     0.009 A 
ATOM     68  C   UNL     1      13.646  -2.638 -10.989  1.00  0.00     0.001 A 
ATOM     69  C   UNL     1      13.422  -0.234 -11.069  1.00  0.00     0.001 A 
ATOM     70  C   UNL     1      14.214  -1.368 -10.892  1.00  0.00     0.000 A 
ENDBRANCH  51  65
BRANCH  52  71
ATOM     71  C   UNL     1       1.672  -2.345 -13.033  1.00  0.00    -0.014 A 
ATOM     72  C   UNL     1       1.137  -3.331 -13.876  1.00  0.00     0.009 A 
ATOM     73  C   UNL     1       0.804  -1.428 -12.420  1.00  0.00     0.009 A 
ATOM     74  C   UNL     1      -0.237  -3.383 -14.118  1.00  0.00     0.001 A 
ATOM     75  C   UNL     1      -0.573  -1.499 -12.645  1.00  0.00     0.001 A 
ATOM     76  C   UNL     1      -1.091  -2.470 -13.500  1.00  0.00     0.000 A 
ENDBRANCH  52  71
BRANCH  64  77
ATOM     77  C   UNL     1       7.065  -0.452 -17.000  1.00  0.00    -0.014 A 
ATOM     78  C   UNL     1       6.692   0.845 -17.384  1.00  0.00     0.009 A 
ATOM     79  C   UNL     1       7.593  -1.325 -17.965  1.00  0.00     0.009 A 
ATOM     80  C   UNL     1       6.825   1.251 -18.713  1.00  0.00     0.001 A 
ATOM     81  C   UNL     1       7.746  -0.909 -19.287  1.00  0.00     0.001 A 
ATOM     82  C   UNL     1       7.357   0.377 -19.662  1.00  0.00     0.000 A 
ENDBRANCH  64  77
ENDBRANCH  38  39
ENDBRANCH  30  33
ENDBRANCH  28  29
ENDBRANCH  27  28
ENDBRANCH   1  27
TORSDOF 14
