REMARK SMILES CC1(C)[C@@H](C(=O)NCCCNC(=O)c2ccc(-c3c4nc(c(-c5ccccc5)c5ccc([nH]5)c(-c5ccccc5)c5nc(c(-c6ccccc6)c6ccc3[nH]6)C=C5)C=C4)cc2)[C@@H]1C(=O)N1CC[NH+](CCO)CC1
REMARK SMILES IDX 8 1 7 2 5 3 6 4 4 6 1 7 2 8 3 9 62 10 63 11 64 12 65 13
REMARK SMILES IDX 66 14 73 15 67 16 72 17 68 18 69 20 70 21 71 22 9 24 10 25
REMARK SMILES IDX 11 26 12 27 13 29 14 30 15 31 61 32 16 33 60 34 17 35 18 36
REMARK SMILES IDX 19 37 54 38 20 39 59 40 53 41 55 42 21 43 58 44 52 45 51 46
REMARK SMILES IDX 22 48 44 49 29 50 43 51 30 52 33 53 42 54 56 55 31 56 32 57
REMARK SMILES IDX 41 59 57 60 34 61 23 62 24 63 28 64 25 65 27 66 26 67 45 68
REMARK SMILES IDX 46 69 50 70 47 71 49 72 48 73 35 74 36 75 40 76 37 77 39 78
REMARK SMILES IDX 38 79
REMARK H PARENT 7 5 68 19 71 23 11 28 55 47 33 58
REMARK Flexibility Score: inf
ROOT
ATOM      1  C   UNL     1      -3.216  -2.260   0.118  1.00  0.00     0.117 C 
ENDROOT
BRANCH   1   2
ATOM      2  N   UNL     1      -2.337  -2.250  -1.029  1.00  0.00    -0.356 N 
ATOM      3  C   UNL     1      -1.403  -1.342  -1.435  1.00  0.00     0.224 C 
ATOM      4  O   UNL     1      -0.842  -1.518  -2.513  1.00  0.00    -0.275 OA
ATOM      5  H   UNL     1      -2.428  -3.033  -1.619  1.00  0.00     0.163 HD
BRANCH   3   6
ATOM      6  C   UNL     1      -1.075  -0.131  -0.644  1.00  0.00     0.098 C 
ATOM      7  C   UNL     1       1.209  -1.289  -0.030  1.00  0.00     0.013 C 
ATOM      8  C   UNL     1       0.344  -0.051  -0.077  1.00  0.00    -0.011 C 
ATOM      9  C   UNL     1       1.134   1.209  -0.347  1.00  0.00     0.013 C 
ATOM     10  C   UNL     1      -0.866  -0.011   0.855  1.00  0.00     0.098 C 
BRANCH  10  11
ATOM     11  C   UNL     1      -1.114   1.273   1.579  1.00  0.00     0.227 C 
ATOM     12  O   UNL     1      -0.285   1.665   2.391  1.00  0.00    -0.275 OA
ATOM     13  N   UNL     1      -2.194   2.025   1.167  1.00  0.00    -0.331 N 
ATOM     14  C   UNL     1      -2.102   3.474   1.196  1.00  0.00     0.181 C 
ATOM     15  C   UNL     1      -3.547   1.508   1.062  1.00  0.00     0.181 C 
ATOM     16  C   UNL     1      -2.858   4.093   0.001  1.00  0.00     0.284 C 
ATOM     17  C   UNL     1      -4.318   2.125  -0.118  1.00  0.00     0.284 C 
ATOM     18  N   UNL     1      -4.213   3.583  -0.270  1.00  0.00    -0.330 N 
ATOM     19  H   UNL     1      -4.356   3.749  -1.266  1.00  0.00     0.348 HD
BRANCH  18  20
ATOM     20  C   UNL     1      -5.314   4.365   0.298  1.00  0.00     0.290 C 
BRANCH  20  21
ATOM     21  C   UNL     1      -5.511   4.392   1.820  1.00  0.00     0.217 C 
BRANCH  21  22
ATOM     22  O   UNL     1      -4.471   5.094   2.488  1.00  0.00    -0.391 OA
ATOM     23  H   UNL     1      -3.624   4.652   2.322  1.00  0.00     0.210 HD
ENDBRANCH  21  22
ENDBRANCH  20  21
ENDBRANCH  18  20
ENDBRANCH  10  11
ENDBRANCH   3   6
ENDBRANCH   1   2
BRANCH   1  24
ATOM     24  C   UNL     1      -4.620  -1.784  -0.238  1.00  0.00     0.042 C 
BRANCH  24  25
ATOM     25  C   UNL     1      -5.417  -2.791  -1.058  1.00  0.00     0.118 C 
BRANCH  25  26
ATOM     26  N   UNL     1      -5.719  -3.997  -0.299  1.00  0.00    -0.352 N 
ATOM     27  C   UNL     1      -6.912  -4.487   0.167  1.00  0.00     0.251 C 
ATOM     28  H   UNL     1      -4.935  -4.554  -0.085  1.00  0.00     0.163 HD
ATOM     29  O   UNL     1      -6.906  -5.400   0.989  1.00  0.00    -0.269 OA
BRANCH  27  30
ATOM     30  C   UNL     1      -8.202  -3.932  -0.298  1.00  0.00     0.039 A 
ATOM     31  C   UNL     1      -9.259  -3.827   0.614  1.00  0.00     0.014 A 
ATOM     32  C   UNL     1      -8.403  -3.579  -1.634  1.00  0.00     0.014 A 
ATOM     33  C   UNL     1     -10.493  -3.322   0.199  1.00  0.00     0.010 A 
ATOM     34  C   UNL     1      -9.607  -3.002  -2.030  1.00  0.00     0.010 A 
ATOM     35  C   UNL     1     -10.669  -2.880  -1.121  1.00  0.00    -0.014 A 
BRANCH  35  36
ATOM     36  C   UNL     1     -11.960  -2.319  -1.591  1.00  0.00     0.031 A 
ATOM     37  C   UNL     1     -12.738  -3.029  -2.666  1.00  0.00     0.074 A 
ATOM     38  C   UNL     1     -12.398  -1.140  -1.108  1.00  0.00     0.049 A 
ATOM     39  N   UNL     1     -13.814  -2.640  -3.303  1.00  0.00    -0.248 NA
ATOM     40  C   UNL     1     -12.224  -4.339  -3.101  1.00  0.00     0.031 C 
ATOM     41  C   UNL     1     -11.730  -0.340  -0.080  1.00  0.00     0.029 A 
ATOM     42  N   UNL     1     -13.511  -0.404  -1.431  1.00  0.00    -0.354 N 
ATOM     43  C   UNL     1     -14.086  -3.639  -4.229  1.00  0.00     0.074 A 
ATOM     44  C   UNL     1     -13.043  -4.633  -4.099  1.00  0.00     0.031 C 
ATOM     45  C   UNL     1     -12.457   0.764   0.158  1.00  0.00     0.029 A 
ATOM     46  C   UNL     1     -13.615   0.772  -0.730  1.00  0.00     0.049 A 
ATOM     47  H   UNL     1     -14.171  -0.692  -2.102  1.00  0.00     0.167 HD
ATOM     48  C   UNL     1     -15.119  -3.731  -5.099  1.00  0.00     0.031 A 
ATOM     49  C   UNL     1     -14.535   1.752  -0.801  1.00  0.00     0.031 A 
ATOM     50  C   UNL     1     -16.173  -2.760  -5.211  1.00  0.00     0.049 A 
ATOM     51  C   UNL     1     -15.671   1.627  -1.777  1.00  0.00     0.074 A 
ATOM     52  C   UNL     1     -17.284  -2.783  -6.035  1.00  0.00     0.029 A 
ATOM     53  N   UNL     1     -16.251  -1.595  -4.465  1.00  0.00    -0.354 N 
ATOM     54  N   UNL     1     -15.927   0.662  -2.627  1.00  0.00    -0.248 NA
ATOM     55  C   UNL     1     -16.648   2.725  -1.798  1.00  0.00     0.031 C 
ATOM     56  C   UNL     1     -18.021  -1.617  -5.808  1.00  0.00     0.029 A 
ATOM     57  C   UNL     1     -17.389  -0.889  -4.813  1.00  0.00     0.049 A 
ATOM     58  H   UNL     1     -15.594  -1.312  -3.788  1.00  0.00     0.167 HD
ATOM     59  C   UNL     1     -17.109   1.021  -3.260  1.00  0.00     0.074 A 
ATOM     60  C   UNL     1     -17.525   2.286  -2.691  1.00  0.00     0.031 C 
ATOM     61  C   UNL     1     -17.791   0.361  -4.226  1.00  0.00     0.031 A 
BRANCH  48  62
ATOM     62  C   UNL     1     -15.159  -4.932  -6.000  1.00  0.00    -0.014 A 
ATOM     63  C   UNL     1     -15.487  -6.202  -5.499  1.00  0.00     0.009 A 
ATOM     64  C   UNL     1     -14.904  -4.787  -7.372  1.00  0.00     0.009 A 
ATOM     65  C   UNL     1     -15.526  -7.309  -6.349  1.00  0.00     0.001 A 
ATOM     66  C   UNL     1     -14.969  -5.891  -8.224  1.00  0.00     0.001 A 
ATOM     67  C   UNL     1     -15.271  -7.152  -7.711  1.00  0.00     0.000 A 
ENDBRANCH  48  62
BRANCH  49  68
ATOM     68  C   UNL     1     -14.433   2.938   0.086  1.00  0.00    -0.014 A 
ATOM     69  C   UNL     1     -15.333   3.105   1.150  1.00  0.00     0.009 A 
ATOM     70  C   UNL     1     -13.452   3.917  -0.135  1.00  0.00     0.009 A 
ATOM     71  C   UNL     1     -15.270   4.243   1.957  1.00  0.00     0.001 A 
ATOM     72  C   UNL     1     -13.376   5.041   0.690  1.00  0.00     0.001 A 
ATOM     73  C   UNL     1     -14.291   5.208   1.728  1.00  0.00     0.000 A 
ENDBRANCH  49  68
BRANCH  61  74
ATOM     74  C   UNL     1     -19.081   0.970  -4.693  1.00  0.00    -0.014 A 
ATOM     75  C   UNL     1     -19.093   2.085  -5.543  1.00  0.00     0.009 A 
ATOM     76  C   UNL     1     -20.299   0.389  -4.309  1.00  0.00     0.009 A 
ATOM     77  C   UNL     1     -20.304   2.624  -5.979  1.00  0.00     0.001 A 
ATOM     78  C   UNL     1     -21.508   0.916  -4.764  1.00  0.00     0.001 A 
ATOM     79  C   UNL     1     -21.509   2.037  -5.593  1.00  0.00     0.000 A 
ENDBRANCH  61  74
ENDBRANCH  35  36
ENDBRANCH  27  30
ENDBRANCH  25  26
ENDBRANCH  24  25
ENDBRANCH   1  24
TORSDOF 14
