REMARK SMILES O=C1CC[C@H](CNC(=O)N[C@@H]2C=C[C@@H](C(=O)NCCCNC(=O)c3ccc(-c4c5nc(c(-c6ccccc6)c6ccc([nH]6)c(-c6ccccc6)c6nc(c(-c7ccccc7)c7ccc4[nH]7)C=C6)C=C5)cc3)C2)N1
REMARK SMILES IDX 18 1 17 2 15 3 16 4 14 6 11 7 12 8 72 9 13 10 10 11 7 12
REMARK SMILES IDX 8 13 9 15 6 17 5 18 1 19 2 20 3 21 73 22 4 23 19 25 20 26
REMARK SMILES IDX 21 27 22 28 23 30 24 31 25 32 71 33 26 34 70 35 27 36 28 37
REMARK SMILES IDX 29 38 64 39 30 40 69 41 63 42 65 43 31 44 68 45 62 46 61 47
REMARK SMILES IDX 32 49 54 50 39 51 53 52 40 53 43 54 52 55 66 56 41 57 42 58
REMARK SMILES IDX 51 60 67 61 44 62 33 63 34 64 38 65 35 66 37 67 36 68 55 69
REMARK SMILES IDX 56 70 60 71 57 72 59 73 58 74 45 75 46 76 50 77 47 78 49 79
REMARK SMILES IDX 48 80
REMARK H PARENT 17 5 7 14 10 16 73 24 21 29 65 48 43 59
REMARK Flexibility Score: inf
ROOT
ATOM      1  C   UNL     1      -3.575  -3.914   5.618  1.00  0.00     0.117 C 
ENDROOT
BRANCH   1   2
ATOM      2  N   UNL     1      -2.449  -4.777   5.918  1.00  0.00    -0.356 N 
ATOM      3  C   UNL     1      -1.228  -4.911   5.333  1.00  0.00     0.227 C 
ATOM      4  O   UNL     1      -0.413  -5.637   5.912  1.00  0.00    -0.274 OA
ATOM      5  H   UNL     1      -2.596  -5.377   6.685  1.00  0.00     0.163 HD
BRANCH   3   6
ATOM      6  C   UNL     1      -0.865  -4.296   3.974  1.00  0.00     0.103 C 
ATOM      7  C   UNL     1      -2.404  -3.684   2.142  1.00  0.00     0.107 C 
ATOM      8  C   UNL     1      -1.754  -2.489   2.764  1.00  0.00    -0.006 C 
ATOM      9  C   UNL     1      -1.725  -4.865   2.848  1.00  0.00     0.047 C 
ATOM     10  C   UNL     1      -0.970  -2.817   3.799  1.00  0.00    -0.016 C 
BRANCH   7  11
ATOM     11  N   UNL     1      -2.200  -3.684   0.712  1.00  0.00    -0.332 N 
ATOM     12  N   UNL     1      -3.484  -5.509  -0.096  1.00  0.00    -0.336 N 
ATOM     13  C   UNL     1      -2.663  -4.459  -0.284  1.00  0.00     0.315 C 
ATOM     14  H   UNL     1      -3.778  -5.949  -0.926  1.00  0.00     0.165 HD
ATOM     15  O   UNL     1      -2.311  -4.204  -1.437  1.00  0.00    -0.249 OA
ATOM     16  H   UNL     1      -1.599  -2.968   0.403  1.00  0.00     0.165 HD
BRANCH  12  17
ATOM     17  C   UNL     1      -4.011  -6.104   1.110  1.00  0.00     0.142 C 
BRANCH  17  18
ATOM     18  C   UNL     1      -5.242  -7.010   0.943  1.00  0.00     0.101 C 
ATOM     19  O   UNL     1      -5.823  -8.335   4.141  1.00  0.00    -0.275 OA
ATOM     20  C   UNL     1      -5.543  -8.171   2.962  1.00  0.00     0.220 C 
ATOM     21  C   UNL     1      -4.645  -9.032   2.111  1.00  0.00     0.102 C 
ATOM     22  N   UNL     1      -5.944  -7.093   2.204  1.00  0.00    -0.352 N 
ATOM     23  C   UNL     1      -4.875  -8.471   0.703  1.00  0.00     0.036 C 
ATOM     24  H   UNL     1      -6.632  -6.449   2.490  1.00  0.00     0.163 HD
ENDBRANCH  17  18
ENDBRANCH  12  17
ENDBRANCH   7  11
ENDBRANCH   3   6
ENDBRANCH   1   2
BRANCH   1  25
ATOM     25  C   UNL     1      -4.833  -4.678   5.211  1.00  0.00     0.042 C 
BRANCH  25  26
ATOM     26  C   UNL     1      -5.445  -5.552   6.305  1.00  0.00     0.118 C 
BRANCH  26  27
ATOM     27  N   UNL     1      -5.859  -4.786   7.473  1.00  0.00    -0.352 N 
ATOM     28  C   UNL     1      -7.088  -4.632   8.064  1.00  0.00     0.251 C 
ATOM     29  H   UNL     1      -5.130  -4.293   7.915  1.00  0.00     0.163 HD
ATOM     30  O   UNL     1      -7.220  -3.788   8.947  1.00  0.00    -0.269 OA
BRANCH  28  31
ATOM     31  C   UNL     1      -8.258  -5.444   7.655  1.00  0.00     0.039 A 
ATOM     32  C   UNL     1      -9.519  -4.834   7.639  1.00  0.00     0.014 A 
ATOM     33  C   UNL     1      -8.147  -6.803   7.356  1.00  0.00     0.014 A 
ATOM     34  C   UNL     1     -10.651  -5.568   7.274  1.00  0.00     0.010 A 
ATOM     35  C   UNL     1      -9.265  -7.518   6.924  1.00  0.00     0.010 A 
ATOM     36  C   UNL     1     -10.529  -6.911   6.885  1.00  0.00    -0.014 A 
BRANCH  36  37
ATOM     37  C   UNL     1     -11.709  -7.696   6.439  1.00  0.00     0.031 A 
ATOM     38  C   UNL     1     -12.184  -8.877   7.240  1.00  0.00     0.074 A 
ATOM     39  C   UNL     1     -12.318  -7.385   5.279  1.00  0.00     0.049 A 
ATOM     40  N   UNL     1     -13.155  -9.717   6.978  1.00  0.00    -0.248 NA
ATOM     41  C   UNL     1     -11.462  -9.165   8.489  1.00  0.00     0.031 C 
ATOM     42  C   UNL     1     -11.948  -6.277   4.396  1.00  0.00     0.029 A 
ATOM     43  N   UNL     1     -13.377  -7.980   4.639  1.00  0.00    -0.354 N 
ATOM     44  C   UNL     1     -13.142 -10.645   8.012  1.00  0.00     0.074 A 
ATOM     45  C   UNL     1     -12.046 -10.286   8.886  1.00  0.00     0.031 C 
ATOM     46  C   UNL     1     -12.783  -6.255   3.345  1.00  0.00     0.029 A 
ATOM     47  C   UNL     1     -13.717  -7.371   3.455  1.00  0.00     0.049 A 
ATOM     48  H   UNL     1     -13.849  -8.768   4.995  1.00  0.00     0.167 HD
ATOM     49  C   UNL     1     -13.973 -11.694   8.223  1.00  0.00     0.031 A 
ATOM     50  C   UNL     1     -14.669  -7.679   2.555  1.00  0.00     0.031 A 
ATOM     51  C   UNL     1     -15.069 -12.048   7.361  1.00  0.00     0.049 A 
ATOM     52  C   UNL     1     -15.559  -8.866   2.796  1.00  0.00     0.074 A 
ATOM     53  C   UNL     1     -16.006 -13.053   7.526  1.00  0.00     0.029 A 
ATOM     54  N   UNL     1     -15.370 -11.412   6.167  1.00  0.00    -0.354 N 
ATOM     55  N   UNL     1     -15.576  -9.693   3.812  1.00  0.00    -0.248 NA
ATOM     56  C   UNL     1     -16.567  -9.155   1.766  1.00  0.00     0.031 C 
ATOM     57  C   UNL     1     -16.840 -13.062   6.403  1.00  0.00     0.029 A 
ATOM     58  C   UNL     1     -16.460 -12.024   5.568  1.00  0.00     0.049 A 
ATOM     59  H   UNL     1     -14.883 -10.641   5.798  1.00  0.00     0.167 HD
ATOM     60  C   UNL     1     -16.616 -10.580   3.562  1.00  0.00     0.074 A 
ATOM     61  C   UNL     1     -17.210 -10.184   2.302  1.00  0.00     0.031 C 
ATOM     62  C   UNL     1     -17.042 -11.623   4.314  1.00  0.00     0.031 A 
BRANCH  49  63
ATOM     63  C   UNL     1     -13.708 -12.554   9.430  1.00  0.00    -0.014 A 
ATOM     64  C   UNL     1     -13.934 -12.079  10.732  1.00  0.00     0.009 A 
ATOM     65  C   UNL     1     -13.251 -13.870   9.258  1.00  0.00     0.009 A 
ATOM     66  C   UNL     1     -13.665 -12.889  11.837  1.00  0.00     0.001 A 
ATOM     67  C   UNL     1     -13.011 -14.688  10.364  1.00  0.00     0.001 A 
ATOM     68  C   UNL     1     -13.207 -14.194  11.652  1.00  0.00     0.000 A 
ENDBRANCH  49  63
BRANCH  50  69
ATOM     69  C   UNL     1     -14.848  -6.834   1.346  1.00  0.00    -0.014 A 
ATOM     70  C   UNL     1     -15.972  -6.003   1.226  1.00  0.00     0.009 A 
ATOM     71  C   UNL     1     -13.900  -6.850   0.311  1.00  0.00     0.009 A 
ATOM     72  C   UNL     1     -16.154  -5.220   0.083  1.00  0.00     0.001 A 
ATOM     73  C   UNL     1     -14.072  -6.046  -0.818  1.00  0.00     0.001 A 
ATOM     74  C   UNL     1     -15.202  -5.238  -0.934  1.00  0.00     0.000 A 
ENDBRANCH  50  69
BRANCH  62  75
ATOM     75  C   UNL     1     -18.236 -12.389   3.816  1.00  0.00    -0.014 A 
ATOM     76  C   UNL     1     -18.145 -13.252   2.713  1.00  0.00     0.009 A 
ATOM     77  C   UNL     1     -19.462 -12.277   4.492  1.00  0.00     0.009 A 
ATOM     78  C   UNL     1     -19.266 -13.963   2.279  1.00  0.00     0.001 A 
ATOM     79  C   UNL     1     -20.572 -13.010   4.073  1.00  0.00     0.001 A 
ATOM     80  C   UNL     1     -20.476 -13.846   2.962  1.00  0.00     0.000 A 
ENDBRANCH  62  75
ENDBRANCH  36  37
ENDBRANCH  28  31
ENDBRANCH  26  27
ENDBRANCH  25  26
ENDBRANCH   1  25
TORSDOF 13
