REMARK SMILES O=C(NCCCNC(=O)[C@@H]1CCCCC[C@H]1NC(=O)[C@@H]1CCOC1)c1ccc(-c2c3nc(c(-c4ccccc4)c4ccc([nH]4)c(-c4ccccc4)c4nc(c(-c5ccccc5)c5ccc2[nH]5)C=C4)C=C3)cc1
REMARK SMILES IDX 6 1 5 2 4 3 3 4 1 5 2 6 25 8 26 9 72 10 27 11 71 12 28 13
REMARK SMILES IDX 29 14 30 15 65 16 31 17 70 18 64 19 66 20 32 21 69 22 63 23
REMARK SMILES IDX 62 24 33 26 55 27 40 28 54 29 41 30 44 31 53 32 67 33 42 34
REMARK SMILES IDX 43 35 52 37 68 38 45 39 34 40 35 41 39 42 36 43 38 44 37 45
REMARK SMILES IDX 56 46 57 47 61 48 58 49 60 50 59 51 46 52 47 53 51 54 48 55
REMARK SMILES IDX 50 56 49 57 7 58 8 59 9 61 10 62 11 63 12 64 13 65 14 66
REMARK SMILES IDX 16 68 15 69 17 71 18 72 19 74 20 75 21 76 24 77 22 78 23 79
REMARK H PARENT 3 7 66 25 44 36 7 60 17 73
REMARK Flexibility Score: 90.00
ROOT
ATOM      1  C   UNL     1       4.226   0.584   3.578  1.00  0.00     0.117 C 
ENDROOT
BRANCH   1   2
ATOM      2  C   UNL     1       4.740   0.705   2.153  1.00  0.00     0.042 C 
BRANCH   2   3
ATOM      3  C   UNL     1       4.338  -0.462   1.268  1.00  0.00     0.118 C 
BRANCH   3   4
ATOM      4  N   UNL     1       2.908  -0.484   0.995  1.00  0.00    -0.352 N 
ATOM      5  O   UNL     1       0.990   0.040  -0.059  1.00  0.00    -0.269 OA
ATOM      6  C   UNL     1       2.209  -0.070  -0.114  1.00  0.00     0.251 C 
ATOM      7  H   UNL     1       2.354  -0.855   1.719  1.00  0.00     0.163 HD
BRANCH   6   8
ATOM      8  C   UNL     1       2.926   0.263  -1.364  1.00  0.00     0.039 A 
ATOM      9  C   UNL     1       4.005  -0.510  -1.790  1.00  0.00     0.014 A 
ATOM     10  C   UNL     1       2.491   1.341  -2.141  1.00  0.00     0.014 A 
ATOM     11  C   UNL     1       4.762  -0.103  -2.878  1.00  0.00     0.010 A 
ATOM     12  C   UNL     1       3.174   1.668  -3.316  1.00  0.00     0.010 A 
ATOM     13  C   UNL     1       4.332   0.964  -3.679  1.00  0.00    -0.014 A 
BRANCH  13  14
ATOM     14  C   UNL     1       5.053   1.246  -4.944  1.00  0.00     0.031 A 
ATOM     15  C   UNL     1       5.720   2.568  -5.188  1.00  0.00     0.074 A 
ATOM     16  C   UNL     1       5.108   0.274  -5.876  1.00  0.00     0.049 A 
ATOM     17  N   UNL     1       6.383   2.969  -6.244  1.00  0.00    -0.248 NA
ATOM     18  C   UNL     1       5.625   3.574  -4.120  1.00  0.00     0.031 C 
ATOM     19  C   UNL     1       4.488  -1.049  -5.752  1.00  0.00     0.029 A 
ATOM     20  N   UNL     1       5.719   0.238  -7.101  1.00  0.00    -0.354 N 
ATOM     21  C   UNL     1       6.760   4.280  -5.981  1.00  0.00     0.074 A 
ATOM     22  C   UNL     1       6.232   4.614  -4.675  1.00  0.00     0.031 C 
ATOM     23  C   UNL     1       4.789  -1.781  -6.832  1.00  0.00     0.029 A 
ATOM     24  C   UNL     1       5.546  -0.954  -7.761  1.00  0.00     0.049 A 
ATOM     25  H   UNL     1       6.231   0.992  -7.473  1.00  0.00     0.167 HD
ATOM     26  C   UNL     1       7.479   5.124  -6.760  1.00  0.00     0.031 A 
ATOM     27  C   UNL     1       5.919  -1.336  -8.995  1.00  0.00     0.031 A 
ATOM     28  C   UNL     1       7.987   4.783  -8.064  1.00  0.00     0.049 A 
ATOM     29  C   UNL     1       6.675  -0.368  -9.852  1.00  0.00     0.074 A 
ATOM     30  C   UNL     1       8.759   5.554  -8.917  1.00  0.00     0.029 A 
ATOM     31  N   UNL     1       7.763   3.576  -8.711  1.00  0.00    -0.354 N 
ATOM     32  N   UNL     1       7.063   0.852  -9.570  1.00  0.00    -0.248 NA
ATOM     33  C   UNL     1       7.046  -0.828 -11.196  1.00  0.00     0.031 C 
ATOM     34  C   UNL     1       8.942   4.840 -10.106  1.00  0.00     0.029 A 
ATOM     35  C   UNL     1       8.349   3.595  -9.966  1.00  0.00     0.049 A 
ATOM     36  H   UNL     1       7.262   2.818  -8.333  1.00  0.00     0.167 HD
ATOM     37  C   UNL     1       7.739   1.302 -10.695  1.00  0.00     0.074 A 
ATOM     38  C   UNL     1       7.726   0.215 -11.653  1.00  0.00     0.031 C 
ATOM     39  C   UNL     1       8.317   2.509 -10.913  1.00  0.00     0.031 A 
BRANCH  26  40
ATOM     40  C   UNL     1       7.715   6.518  -6.240  1.00  0.00    -0.014 A 
ATOM     41  C   UNL     1       8.553   6.763  -5.140  1.00  0.00     0.009 A 
ATOM     42  C   UNL     1       7.106   7.609  -6.881  1.00  0.00     0.009 A 
ATOM     43  C   UNL     1       8.740   8.065  -4.668  1.00  0.00     0.001 A 
ATOM     44  C   UNL     1       7.320   8.912  -6.428  1.00  0.00     0.001 A 
ATOM     45  C   UNL     1       8.127   9.138  -5.314  1.00  0.00     0.000 A 
ENDBRANCH  26  40
BRANCH  27  46
ATOM     46  C   UNL     1       5.541  -2.685  -9.489  1.00  0.00    -0.014 A 
ATOM     47  C   UNL     1       6.511  -3.677  -9.691  1.00  0.00     0.009 A 
ATOM     48  C   UNL     1       4.191  -2.997  -9.726  1.00  0.00     0.009 A 
ATOM     49  C   UNL     1       6.138  -4.947 -10.137  1.00  0.00     0.001 A 
ATOM     50  C   UNL     1       3.818  -4.276 -10.138  1.00  0.00     0.001 A 
ATOM     51  C   UNL     1       4.793  -5.248 -10.352  1.00  0.00     0.000 A 
ENDBRANCH  27  46
BRANCH  39  52
ATOM     52  C   UNL     1       9.010   2.703 -12.233  1.00  0.00    -0.014 A 
ATOM     53  C   UNL     1       8.286   2.824 -13.429  1.00  0.00     0.009 A 
ATOM     54  C   UNL     1      10.410   2.800 -12.271  1.00  0.00     0.009 A 
ATOM     55  C   UNL     1       8.953   3.006 -14.642  1.00  0.00     0.001 A 
ATOM     56  C   UNL     1      11.072   3.015 -13.480  1.00  0.00     0.001 A 
ATOM     57  C   UNL     1      10.344   3.107 -14.665  1.00  0.00     0.000 A 
ENDBRANCH  39  52
ENDBRANCH  13  14
ENDBRANCH   6   8
ENDBRANCH   3   4
ENDBRANCH   2   3
ENDBRANCH   1   2
BRANCH   1  58
ATOM     58  N   UNL     1       4.815  -0.548   4.269  1.00  0.00    -0.356 N 
ATOM     59  C   UNL     1       5.622  -0.648   5.351  1.00  0.00     0.225 C 
ATOM     60  H   UNL     1       4.580  -1.417   3.872  1.00  0.00     0.163 HD
ATOM     61  O   UNL     1       5.998  -1.788   5.645  1.00  0.00    -0.275 OA
BRANCH  59  62
ATOM     62  C   UNL     1       6.117   0.550   6.164  1.00  0.00     0.101 C 
BRANCH  62  63
ATOM     63  C   UNL     1       4.985   1.450   6.680  1.00  0.00     0.015 C 
BRANCH  63  64
ATOM     64  C   UNL     1       5.306   2.910   6.971  1.00  0.00     0.001 C 
BRANCH  64  65
ATOM     65  C   UNL     1       5.516   3.774   5.734  1.00  0.00     0.000 C 
BRANCH  65  66
ATOM     66  C   UNL     1       6.886   3.659   5.085  1.00  0.00     0.002 CG0
ATOM     67  G   UNL     1       7.242   2.284   4.530  1.00  0.00     0.000 G0
ENDBRANCH  65  66
ENDBRANCH  64  65
ENDBRANCH  63  64
ENDBRANCH  62  63
BRANCH  62  68
ATOM     68  C   UNL     1       7.399   1.144   5.541  1.00  0.00     0.094 C 
BRANCH  68  69
ATOM     69  C   UNL     1       7.242   2.284   4.530  1.00  0.00     0.026 CG0
ATOM     70  G   UNL     1       6.886   3.659   5.085  1.00  0.00     0.000 G0
ENDBRANCH  68  69
BRANCH  68  71
ATOM     71  N   UNL     1       8.329   1.559   6.601  1.00  0.00    -0.352 N 
ATOM     72  C   UNL     1       9.608   1.186   6.877  1.00  0.00     0.225 C 
ATOM     73  H   UNL     1       7.960   2.227   7.223  1.00  0.00     0.163 HD
ATOM     74  O   UNL     1      10.172   1.779   7.795  1.00  0.00    -0.275 OA
BRANCH  72  75
ATOM     75  C   UNL     1      10.277   0.102   6.047  1.00  0.00     0.106 C 
ATOM     76  C   UNL     1       9.687  -1.269   6.303  1.00  0.00     0.044 C 
ATOM     77  C   UNL     1      11.729  -0.103   6.462  1.00  0.00     0.173 C 
ATOM     78  C   UNL     1      10.448  -1.728   7.526  1.00  0.00     0.161 C 
ATOM     79  O   UNL     1      11.772  -1.205   7.387  1.00  0.00    -0.381 OA
ENDBRANCH  72  75
ENDBRANCH  68  71
ENDBRANCH  62  68
ENDBRANCH  59  62
ENDBRANCH   1  58
TORSDOF 12
