REMARK SMILES Cc1ccc(S(=O)(=O)Nc2ccc(N3CCNC3=O)cc2)cc1C(=O)NCCCNC(=O)c1ccc(-c2c3nc(c(-c4ccccc4)c4ccc([nH]4)c(-c4ccccc4)c4nc(c(-c5ccccc5)c5ccc2[nH]5)C=C4)C=C3)cc1
REMARK SMILES IDX 27 1 26 2 24 3 25 4 23 6 1 7 2 8 3 9 4 10 22 11 5 12 6 13
REMARK SMILES IDX 7 14 8 15 9 16 10 18 11 19 21 20 12 21 20 22 13 23 14 24
REMARK SMILES IDX 15 25 18 26 16 27 17 28 19 29 28 31 29 32 30 33 31 34 32 36
REMARK SMILES IDX 33 37 34 38 80 39 35 40 79 41 36 42 37 43 38 44 73 45 39 46
REMARK SMILES IDX 78 47 72 48 74 49 40 50 77 51 71 52 70 53 41 55 63 56 48 57
REMARK SMILES IDX 62 58 49 59 52 60 61 61 75 62 50 63 51 64 60 66 76 67 53 68
REMARK SMILES IDX 42 69 43 70 47 71 44 72 46 73 45 74 64 75 65 76 69 77 66 78
REMARK SMILES IDX 68 79 67 80 54 81 55 82 59 83 56 84 58 85 57 86
REMARK H PARENT 26 5 9 17 17 30 30 35 74 54 52 65
REMARK Flexibility Score: inf
ROOT
ATOM      1  C   UNL     1       3.663   1.122   0.413  1.00  0.00     0.118 C 
ENDROOT
BRANCH   1   2
ATOM      2  N   UNL     1       2.514   1.994   0.278  1.00  0.00    -0.352 N 
ATOM      3  C   UNL     1       1.153   1.859   0.297  1.00  0.00     0.251 C 
ATOM      4  O   UNL     1       0.578   2.955   0.339  1.00  0.00    -0.269 OA
ATOM      5  H   UNL     1       2.784   2.929   0.134  1.00  0.00     0.163 HD
BRANCH   3   6
ATOM      6  C   UNL     1       0.295   0.607   0.293  1.00  0.00     0.044 A 
ATOM      7  C   UNL     1       1.881  -1.225  -0.647  1.00  0.00     0.045 C 
ATOM      8  C   UNL     1       0.608  -0.725  -0.056  1.00  0.00    -0.038 A 
ATOM      9  C   UNL     1      -0.388  -1.724   0.007  1.00  0.00     0.005 A 
ATOM     10  C   UNL     1      -1.720  -1.399   0.181  1.00  0.00     0.022 A 
ATOM     11  C   UNL     1      -1.083   0.890   0.536  1.00  0.00     0.036 A 
ATOM     12  C   UNL     1      -2.082  -0.070   0.356  1.00  0.00     0.088 A 
BRANCH  12  13
ATOM     13  S   UNL     1      -3.807   0.255   0.076  1.00  0.00     0.261 S 
ATOM     14  O   UNL     1      -4.025   0.017  -1.338  1.00  0.00    -0.201 OA
ATOM     15  O   UNL     1      -4.530  -0.528   1.058  1.00  0.00    -0.201 OA
BRANCH  13  16
ATOM     16  N   UNL     1      -4.265   1.849   0.342  1.00  0.00    -0.280 N 
ATOM     17  H   UNL     1      -5.140   2.020   0.760  1.00  0.00     0.180 HD
BRANCH  16  18
ATOM     18  C   UNL     1      -3.454   2.964  -0.004  1.00  0.00     0.049 A 
ATOM     19  C   UNL     1      -3.445   3.985   0.942  1.00  0.00     0.029 A 
ATOM     20  C   UNL     1      -2.768   3.123  -1.206  1.00  0.00     0.029 A 
ATOM     21  C   UNL     1      -2.591   5.070   0.789  1.00  0.00     0.028 A 
ATOM     22  C   UNL     1      -1.923   4.233  -1.370  1.00  0.00     0.028 A 
ATOM     23  C   UNL     1      -1.778   5.177  -0.343  1.00  0.00     0.046 A 
BRANCH  23  24
ATOM     24  N   UNL     1      -0.768   6.159  -0.376  1.00  0.00    -0.293 N 
ATOM     25  C   UNL     1      -0.135   6.649   0.833  1.00  0.00     0.149 C 
ATOM     26  C   UNL     1      -0.157   6.714  -1.503  1.00  0.00     0.321 C 
ATOM     27  C   UNL     1       1.151   7.287   0.334  1.00  0.00     0.139 C 
ATOM     28  N   UNL     1       0.907   7.493  -1.063  1.00  0.00    -0.336 N 
ATOM     29  O   UNL     1      -0.460   6.596  -2.685  1.00  0.00    -0.248 OA
ATOM     30  H   UNL     1       1.425   8.104  -1.635  1.00  0.00     0.165 HD
ENDBRANCH  23  24
ENDBRANCH  16  18
ENDBRANCH  13  16
ENDBRANCH  12  13
ENDBRANCH   3   6
ENDBRANCH   1   2
BRANCH   1  31
ATOM     31  C   UNL     1       4.186   0.673  -0.945  1.00  0.00     0.042 C 
BRANCH  31  32
ATOM     32  C   UNL     1       5.468   1.331  -1.401  1.00  0.00     0.118 C 
BRANCH  32  33
ATOM     33  N   UNL     1       6.682   0.610  -1.021  1.00  0.00    -0.352 N 
ATOM     34  C   UNL     1       7.998   0.865  -1.380  1.00  0.00     0.251 C 
ATOM     35  H   UNL     1       6.546  -0.164  -0.428  1.00  0.00     0.163 HD
ATOM     36  O   UNL     1       8.907   0.188  -0.911  1.00  0.00    -0.269 OA
BRANCH  34  37
ATOM     37  C   UNL     1       8.306   2.074  -2.185  1.00  0.00     0.039 A 
ATOM     38  C   UNL     1       9.163   2.994  -1.575  1.00  0.00     0.014 A 
ATOM     39  C   UNL     1       7.398   2.482  -3.151  1.00  0.00     0.014 A 
ATOM     40  C   UNL     1       8.816   4.335  -1.610  1.00  0.00     0.010 A 
ATOM     41  C   UNL     1       6.957   3.781  -3.074  1.00  0.00     0.010 A 
ATOM     42  C   UNL     1       7.618   4.676  -2.231  1.00  0.00    -0.014 A 
BRANCH  42  43
ATOM     43  C   UNL     1       7.028   5.993  -2.143  1.00  0.00     0.031 A 
ATOM     44  C   UNL     1       7.434   6.935  -3.188  1.00  0.00     0.074 A 
ATOM     45  C   UNL     1       6.175   6.326  -1.151  1.00  0.00     0.049 A 
ATOM     46  N   UNL     1       7.562   8.198  -3.005  1.00  0.00    -0.248 NA
ATOM     47  C   UNL     1       7.854   6.491  -4.515  1.00  0.00     0.031 C 
ATOM     48  C   UNL     1       5.383   7.543  -1.013  1.00  0.00     0.029 A 
ATOM     49  N   UNL     1       6.013   5.682   0.068  1.00  0.00    -0.354 N 
ATOM     50  C   UNL     1       7.750   8.756  -4.246  1.00  0.00     0.074 A 
ATOM     51  C   UNL     1       8.079   7.658  -5.118  1.00  0.00     0.031 C 
ATOM     52  C   UNL     1       5.028   7.690   0.276  1.00  0.00     0.029 A 
ATOM     53  C   UNL     1       5.685   6.643   1.039  1.00  0.00     0.049 A 
ATOM     54  H   UNL     1       6.111   4.715   0.226  1.00  0.00     0.167 HD
ATOM     55  C   UNL     1       7.417  10.062  -4.423  1.00  0.00     0.031 A 
ATOM     56  C   UNL     1       6.516   6.854   2.105  1.00  0.00     0.031 A 
ATOM     57  C   UNL     1       7.012  10.665  -3.147  1.00  0.00     0.049 A 
ATOM     58  C   UNL     1       7.233   8.180   2.038  1.00  0.00     0.074 A 
ATOM     59  C   UNL     1       5.774  10.900  -2.572  1.00  0.00     0.029 A 
ATOM     60  N   UNL     1       7.934  10.719  -2.106  1.00  0.00    -0.354 N 
ATOM     61  N   UNL     1       7.189   8.995   1.021  1.00  0.00    -0.248 NA
ATOM     62  C   UNL     1       8.105   8.661   3.099  1.00  0.00     0.031 C 
ATOM     63  C   UNL     1       5.960  11.052  -1.166  1.00  0.00     0.029 A 
ATOM     64  C   UNL     1       7.313  10.959  -0.890  1.00  0.00     0.049 A 
ATOM     65  H   UNL     1       8.905  10.602  -2.219  1.00  0.00     0.167 HD
ATOM     66  C   UNL     1       7.994  10.079   1.250  1.00  0.00     0.074 A 
ATOM     67  C   UNL     1       8.557   9.809   2.566  1.00  0.00     0.031 C 
ATOM     68  C   UNL     1       8.127  11.083   0.325  1.00  0.00     0.031 A 
BRANCH  55  69
ATOM     69  C   UNL     1       7.153  10.668  -5.782  1.00  0.00    -0.014 A 
ATOM     70  C   UNL     1       6.325  11.800  -5.876  1.00  0.00     0.009 A 
ATOM     71  C   UNL     1       7.623  10.153  -7.005  1.00  0.00     0.009 A 
ATOM     72  C   UNL     1       5.936  12.336  -7.112  1.00  0.00     0.001 A 
ATOM     73  C   UNL     1       7.214  10.663  -8.245  1.00  0.00     0.001 A 
ATOM     74  C   UNL     1       6.364  11.755  -8.298  1.00  0.00     0.000 A 
ENDBRANCH  55  69
BRANCH  56  75
ATOM     75  C   UNL     1       7.097   5.579   2.627  1.00  0.00    -0.014 A 
ATOM     76  C   UNL     1       6.154   4.652   3.117  1.00  0.00     0.009 A 
ATOM     77  C   UNL     1       8.297   5.103   2.085  1.00  0.00     0.009 A 
ATOM     78  C   UNL     1       6.241   3.314   2.737  1.00  0.00     0.001 A 
ATOM     79  C   UNL     1       8.400   3.748   1.759  1.00  0.00     0.001 A 
ATOM     80  C   UNL     1       7.334   2.879   1.995  1.00  0.00     0.000 A 
ENDBRANCH  56  75
BRANCH  68  81
ATOM     81  C   UNL     1       9.032  12.299   0.435  1.00  0.00    -0.014 A 
ATOM     82  C   UNL     1       9.729  12.692   1.581  1.00  0.00     0.009 A 
ATOM     83  C   UNL     1       9.193  13.143  -0.690  1.00  0.00     0.009 A 
ATOM     84  C   UNL     1      10.600  13.791   1.581  1.00  0.00     0.001 A 
ATOM     85  C   UNL     1      10.058  14.239  -0.703  1.00  0.00     0.001 A 
ATOM     86  C   UNL     1      10.778  14.554   0.435  1.00  0.00     0.000 A 
ENDBRANCH  68  81
ENDBRANCH  42  43
ENDBRANCH  34  37
ENDBRANCH  32  33
ENDBRANCH  31  32
ENDBRANCH   1  31
TORSDOF 14
