REMARK SMILES O=C(NCCCNC(=O)[C@H]1CC[C@H]2CCCC[C@@H]2[N@H+]1C[C@@H]1CCCCO1)c1ccc(-c2c3nc(c(-c4ccccc4)c4ccc([nH]4)c(-c4ccccc4)c4nc(c(-c5ccccc5)c5ccc2[nH]5)C=C4)C=C3)cc1
REMARK SMILES IDX 5 1 4 2 3 3 1 4 2 5 27 7 28 8 74 9 29 10 73 11 30 12 31 13
REMARK SMILES IDX 32 14 67 15 33 16 72 17 66 18 68 19 34 20 71 21 65 22 64 23
REMARK SMILES IDX 35 25 57 26 42 27 56 28 43 29 46 30 55 31 69 32 44 33 45 34
REMARK SMILES IDX 54 36 70 37 47 38 36 39 37 40 41 41 38 42 40 43 39 44 58 45
REMARK SMILES IDX 59 46 63 47 60 48 62 49 61 50 48 51 49 52 53 53 50 54 52 55
REMARK SMILES IDX 51 56 6 57 7 58 8 59 9 61 10 62 11 63 19 64 12 65 18 66
REMARK SMILES IDX 13 68 17 69 14 70 16 71 15 72 20 73 21 74 22 75 26 76 23 77
REMARK SMILES IDX 25 78 24 79
REMARK H PARENT 3 6 68 24 46 35 7 60 19 67
REMARK Flexibility Score: inf
ROOT
ATOM      1  C   UNL     1       4.893   2.030   0.932  1.00  0.00     0.042 C 
ENDROOT
BRANCH   1   2
ATOM      2  C   UNL     1       4.532   0.567   1.042  1.00  0.00     0.118 C 
BRANCH   2   3
ATOM      3  N   UNL     1       3.089   0.362   0.997  1.00  0.00    -0.352 N 
ATOM      4  O   UNL     1       1.120  -0.114  -0.004  1.00  0.00    -0.269 OA
ATOM      5  C   UNL     1       2.337  -0.228   0.011  1.00  0.00     0.251 C 
ATOM      6  H   UNL     1       2.587   0.690   1.778  1.00  0.00     0.163 HD
BRANCH   5   7
ATOM      7  C   UNL     1       3.036  -0.997  -1.034  1.00  0.00     0.039 A 
ATOM      8  C   UNL     1       4.083  -1.848  -0.674  1.00  0.00     0.014 A 
ATOM      9  C   UNL     1       2.658  -0.856  -2.370  1.00  0.00     0.014 A 
ATOM     10  C   UNL     1       4.857  -2.438  -1.656  1.00  0.00     0.010 A 
ATOM     11  C   UNL     1       3.355  -1.560  -3.351  1.00  0.00     0.010 A 
ATOM     12  C   UNL     1       4.461  -2.350  -2.997  1.00  0.00    -0.014 A 
BRANCH  12  13
ATOM     13  C   UNL     1       5.119  -3.235  -3.981  1.00  0.00     0.031 A 
ATOM     14  C   UNL     1       5.896  -2.685  -5.136  1.00  0.00     0.074 A 
ATOM     15  C   UNL     1       4.982  -4.564  -3.803  1.00  0.00     0.049 A 
ATOM     16  N   UNL     1       6.486  -3.338  -6.104  1.00  0.00    -0.248 NA
ATOM     17  C   UNL     1       6.026  -1.222  -5.229  1.00  0.00     0.031 C 
ATOM     18  C   UNL     1       4.237  -5.197  -2.706  1.00  0.00     0.029 A 
ATOM     19  N   UNL     1       5.462  -5.622  -4.525  1.00  0.00    -0.354 N 
ATOM     20  C   UNL     1       7.030  -2.371  -6.937  1.00  0.00     0.074 A 
ATOM     21  C   UNL     1       6.697  -1.083  -6.367  1.00  0.00     0.031 C 
ATOM     22  C   UNL     1       4.340  -6.528  -2.810  1.00  0.00     0.029 A 
ATOM     23  C   UNL     1       5.076  -6.842  -4.025  1.00  0.00     0.049 A 
ATOM     24  H   UNL     1       6.028  -5.520  -5.324  1.00  0.00     0.167 HD
ATOM     25  C   UNL     1       7.734  -2.554  -8.078  1.00  0.00     0.031 A 
ATOM     26  C   UNL     1       5.248  -8.081  -4.515  1.00  0.00     0.031 A 
ATOM     27  C   UNL     1       8.059  -3.846  -8.624  1.00  0.00     0.049 A 
ATOM     28  C   UNL     1       5.987  -8.239  -5.809  1.00  0.00     0.074 A 
ATOM     29  C   UNL     1       8.825  -4.139  -9.740  1.00  0.00     0.029 A 
ATOM     30  N   UNL     1       7.624  -5.057  -8.108  1.00  0.00    -0.354 N 
ATOM     31  N   UNL     1       6.556  -7.318  -6.548  1.00  0.00    -0.248 NA
ATOM     32  C   UNL     1       6.099  -9.601  -6.341  1.00  0.00     0.031 C 
ATOM     33  C   UNL     1       8.790  -5.522  -9.941  1.00  0.00     0.029 A 
ATOM     34  C   UNL     1       8.059  -6.096  -8.913  1.00  0.00     0.049 A 
ATOM     35  H   UNL     1       7.085  -5.163  -7.290  1.00  0.00     0.167 HD
ATOM     36  C   UNL     1       7.103  -7.991  -7.630  1.00  0.00     0.074 A 
ATOM     37  C   UNL     1       6.826  -9.400  -7.431  1.00  0.00     0.031 C 
ATOM     38  C   UNL     1       7.765  -7.489  -8.698  1.00  0.00     0.031 A 
BRANCH  25  39
ATOM     39  C   UNL     1       8.175  -1.340  -8.847  1.00  0.00    -0.014 A 
ATOM     40  C   UNL     1       9.225  -0.526  -8.399  1.00  0.00     0.009 A 
ATOM     41  C   UNL     1       7.588  -1.068 -10.094  1.00  0.00     0.009 A 
ATOM     42  C   UNL     1       9.671   0.543  -9.180  1.00  0.00     0.001 A 
ATOM     43  C   UNL     1       8.052  -0.014 -10.883  1.00  0.00     0.001 A 
ATOM     44  C   UNL     1       9.091   0.793 -10.424  1.00  0.00     0.000 A 
ENDBRANCH  25  39
BRANCH  26  45
ATOM     45  C   UNL     1       4.647  -9.248  -3.820  1.00  0.00    -0.014 A 
ATOM     46  C   UNL     1       5.455 -10.238  -3.244  1.00  0.00     0.009 A 
ATOM     47  C   UNL     1       3.250  -9.381  -3.741  1.00  0.00     0.009 A 
ATOM     48  C   UNL     1       4.877 -11.354  -2.635  1.00  0.00     0.001 A 
ATOM     49  C   UNL     1       2.675 -10.477  -3.098  1.00  0.00     0.001 A 
ATOM     50  C   UNL     1       3.489 -11.470  -2.558  1.00  0.00     0.000 A 
ENDBRANCH  26  45
BRANCH  38  51
ATOM     51  C   UNL     1       8.244  -8.474  -9.723  1.00  0.00    -0.014 A 
ATOM     52  C   UNL     1       7.342  -9.111 -10.589  1.00  0.00     0.009 A 
ATOM     53  C   UNL     1       9.617  -8.735  -9.851  1.00  0.00     0.009 A 
ATOM     54  C   UNL     1       7.805 -10.013 -11.548  1.00  0.00     0.001 A 
ATOM     55  C   UNL     1      10.079  -9.613 -10.832  1.00  0.00     0.001 A 
ATOM     56  C   UNL     1       9.173 -10.257 -11.673  1.00  0.00     0.000 A 
ENDBRANCH  38  51
ENDBRANCH  12  13
ENDBRANCH   5   7
ENDBRANCH   2   3
ENDBRANCH   1   2
BRANCH   1  57
ATOM     57  C   UNL     1       4.418   2.815   2.133  1.00  0.00     0.118 C 
BRANCH  57  58
ATOM     58  N   UNL     1       5.101   2.404   3.345  1.00  0.00    -0.351 N 
ATOM     59  C   UNL     1       6.158   2.995   3.987  1.00  0.00     0.278 C 
ATOM     60  H   UNL     1       4.757   1.583   3.766  1.00  0.00     0.163 HD
ATOM     61  O   UNL     1       6.707   2.325   4.861  1.00  0.00    -0.268 OA
BRANCH  59  62
ATOM     62  C   UNL     1       6.553   4.426   3.557  1.00  0.00     0.274 C 
ATOM     63  C   UNL     1       5.396   5.414   3.764  1.00  0.00     0.076 C 
ATOM     64  N   UNL     1       7.816   4.942   4.120  1.00  0.00    -0.320 N 
ATOM     65  C   UNL     1       5.829   6.870   3.671  1.00  0.00     0.016 C 
ATOM     66  C   UNL     1       8.244   6.202   3.490  1.00  0.00     0.187 C 
ATOM     67  H   UNL     1       8.456   4.200   3.837  1.00  0.00     0.349 HD
ATOM     68  C   UNL     1       7.081   6.983   2.832  1.00  0.00     0.048 C 
ATOM     69  C   UNL     1       9.282   6.002   2.364  1.00  0.00     0.065 C 
ATOM     70  C   UNL     1       7.555   8.410   2.586  1.00  0.00     0.010 C 
ATOM     71  C   UNL     1       9.772   7.364   1.833  1.00  0.00     0.006 C 
ATOM     72  C   UNL     1       8.659   8.381   1.531  1.00  0.00     0.001 C 
BRANCH  64  73
ATOM     73  C   UNL     1       8.064   4.875   5.581  1.00  0.00     0.295 C 
BRANCH  73  74
ATOM     74  C   UNL     1       7.397   5.643   6.796  1.00  0.00     0.173 C 
ATOM     75  C   UNL     1       5.915   5.489   7.149  1.00  0.00     0.038 C 
ATOM     76  O   UNL     1       7.935   6.929   7.097  1.00  0.00    -0.372 OA
ATOM     77  C   UNL     1       5.014   6.703   6.952  1.00  0.00     0.005 C 
ATOM     78  C   UNL     1       7.200   8.069   6.705  1.00  0.00     0.161 C 
ATOM     79  C   UNL     1       5.710   8.052   7.026  1.00  0.00     0.029 C 
ENDBRANCH  73  74
ENDBRANCH  64  73
ENDBRANCH  59  62
ENDBRANCH  57  58
ENDBRANCH   1  57
TORSDOF 12
