REMARK SMILES CCN(CC)c1ncc(NC(=O)c2ccc(C)cc2)cc1C(=O)NCCCNC(=O)c1ccc(-c2c3nc(c(-c4ccccc4)c4ccc([nH]4)c(-c4ccccc4)c4nc(c(-c5ccccc5)c5ccc2[nH]5)C=C4)C=C3)cc1
REMARK SMILES IDX 26 1 25 2 24 3 22 4 23 5 21 7 6 8 7 9 8 10 20 11 9 12 3 13
REMARK SMILES IDX 2 14 1 15 4 16 5 17 10 18 11 19 12 21 13 22 14 23 19 24
REMARK SMILES IDX 15 25 18 26 16 27 17 28 27 29 28 30 29 31 30 33 31 34 32 35
REMARK SMILES IDX 78 36 33 37 77 38 34 39 35 40 36 41 71 42 37 43 76 44 70 45
REMARK SMILES IDX 72 46 38 47 75 48 69 49 68 50 39 52 61 53 46 54 60 55 47 56
REMARK SMILES IDX 50 57 59 58 73 59 48 60 49 61 58 63 74 64 51 65 40 66 41 67
REMARK SMILES IDX 45 68 42 69 44 70 43 71 62 72 63 73 67 74 64 75 66 76 65 77
REMARK SMILES IDX 52 78 53 79 57 80 54 81 56 82 55 83
REMARK H PARENT 24 6 10 20 28 32 72 51 50 62
REMARK Flexibility Score: inf
ROOT
ATOM      1  C   UNL     1       5.947  -0.804   1.119  1.00  0.00     0.042 C 
ENDROOT
BRANCH   1   2
ATOM      2  C   UNL     1       5.122  -2.085   1.053  1.00  0.00     0.118 C 
BRANCH   2   3
ATOM      3  N   UNL     1       3.699  -1.861   0.857  1.00  0.00    -0.352 N 
ATOM      4  C   UNL     1       2.886  -1.728  -0.251  1.00  0.00     0.255 C 
ATOM      5  O   UNL     1       1.718  -2.068  -0.055  1.00  0.00    -0.269 OA
ATOM      6  H   UNL     1       3.203  -1.789   1.705  1.00  0.00     0.163 HD
BRANCH   4   7
ATOM      7  C   UNL     1       3.323  -1.227  -1.599  1.00  0.00     0.084 A 
ATOM      8  C   UNL     1       2.381  -0.768  -2.547  1.00  0.00     0.141 A 
ATOM      9  N   UNL     1       2.759  -0.464  -3.818  1.00  0.00    -0.236 NA
ATOM     10  C   UNL     1       4.056  -0.556  -4.174  1.00  0.00     0.139 A 
ATOM     11  C   UNL     1       4.667  -1.256  -2.007  1.00  0.00     0.045 A 
ATOM     12  C   UNL     1       5.062  -0.884  -3.293  1.00  0.00     0.060 A 
BRANCH   8  13
ATOM     13  N   UNL     1       1.039  -0.549  -2.279  1.00  0.00    -0.357 N 
BRANCH  13  14
ATOM     14  C   UNL     1       0.661   0.750  -1.721  1.00  0.00     0.114 C 
ATOM     15  C   UNL     1       0.587   0.729  -0.203  1.00  0.00     0.027 C 
ENDBRANCH  13  14
BRANCH  13  16
ATOM     16  C   UNL     1       0.066  -1.239  -3.130  1.00  0.00     0.114 C 
ATOM     17  C   UNL     1      -0.148  -0.580  -4.490  1.00  0.00     0.027 C 
ENDBRANCH  13  16
ENDBRANCH   8  13
BRANCH  12  18
ATOM     18  N   UNL     1       6.436  -0.936  -3.591  1.00  0.00    -0.321 N 
ATOM     19  C   UNL     1       7.179  -0.468  -4.652  1.00  0.00     0.255 C 
ATOM     20  H   UNL     1       6.973  -1.397  -2.907  1.00  0.00     0.170 HD
ATOM     21  O   UNL     1       8.324  -0.891  -4.805  1.00  0.00    -0.269 OA
BRANCH  19  22
ATOM     22  C   UNL     1       6.682   0.577  -5.573  1.00  0.00     0.040 A 
ATOM     23  C   UNL     1       6.966   0.451  -6.936  1.00  0.00     0.014 A 
ATOM     24  C   UNL     1       6.007   1.709  -5.105  1.00  0.00     0.014 A 
ATOM     25  C   UNL     1       6.511   1.416  -7.836  1.00  0.00     0.004 A 
ATOM     26  C   UNL     1       5.535   2.663  -6.010  1.00  0.00     0.004 A 
ATOM     27  C   UNL     1       5.767   2.513  -7.383  1.00  0.00    -0.051 A 
ATOM     28  C   UNL     1       5.274   3.541  -8.359  1.00  0.00     0.044 C 
ENDBRANCH  19  22
ENDBRANCH  12  18
ENDBRANCH   4   7
ENDBRANCH   2   3
ENDBRANCH   1   2
BRANCH   1  29
ATOM     29  C   UNL     1       6.270  -0.392   2.549  1.00  0.00     0.118 C 
BRANCH  29  30
ATOM     30  N   UNL     1       7.414  -1.095   3.131  1.00  0.00    -0.352 N 
ATOM     31  C   UNL     1       7.856  -1.117   4.448  1.00  0.00     0.251 C 
ATOM     32  H   UNL     1       7.946  -1.630   2.498  1.00  0.00     0.163 HD
ATOM     33  O   UNL     1       8.826  -1.770   4.767  1.00  0.00    -0.269 OA
BRANCH  31  34
ATOM     34  C   UNL     1       7.038  -0.432   5.480  1.00  0.00     0.039 A 
ATOM     35  C   UNL     1       6.665  -1.169   6.609  1.00  0.00     0.014 A 
ATOM     36  C   UNL     1       6.450   0.799   5.211  1.00  0.00     0.014 A 
ATOM     37  C   UNL     1       5.516  -0.804   7.303  1.00  0.00     0.010 A 
ATOM     38  C   UNL     1       5.252   1.100   5.824  1.00  0.00     0.010 A 
ATOM     39  C   UNL     1       4.748   0.253   6.815  1.00  0.00    -0.014 A 
BRANCH  39  40
ATOM     40  C   UNL     1       3.357   0.462   7.198  1.00  0.00     0.031 A 
ATOM     41  C   UNL     1       3.003   1.559   8.123  1.00  0.00     0.074 A 
ATOM     42  C   UNL     1       2.389  -0.319   6.665  1.00  0.00     0.049 A 
ATOM     43  N   UNL     1       1.983   1.547   8.913  1.00  0.00    -0.248 NA
ATOM     44  C   UNL     1       3.827   2.755   8.262  1.00  0.00     0.031 C 
ATOM     45  C   UNL     1       0.945  -0.114   6.765  1.00  0.00     0.029 A 
ATOM     46  N   UNL     1       2.503  -1.592   6.096  1.00  0.00    -0.354 N 
ATOM     47  C   UNL     1       1.841   2.822   9.414  1.00  0.00     0.074 A 
ATOM     48  C   UNL     1       3.063   3.505   9.061  1.00  0.00     0.031 C 
ATOM     49  C   UNL     1       0.331  -1.295   6.583  1.00  0.00     0.029 A 
ATOM     50  C   UNL     1       1.371  -2.309   6.514  1.00  0.00     0.049 A 
ATOM     51  H   UNL     1       3.231  -1.918   5.519  1.00  0.00     0.167 HD
ATOM     52  C   UNL     1       0.644   3.218   9.933  1.00  0.00     0.031 A 
ATOM     53  C   UNL     1       1.425  -3.429   7.293  1.00  0.00     0.031 A 
ATOM     54  C   UNL     1      -0.327   2.126   9.952  1.00  0.00     0.049 A 
ATOM     55  C   UNL     1       0.643  -3.292   8.586  1.00  0.00     0.074 A 
ATOM     56  C   UNL     1      -1.374   1.791   9.109  1.00  0.00     0.029 A 
ATOM     57  N   UNL     1      -0.102   1.020  10.763  1.00  0.00    -0.354 N 
ATOM     58  N   UNL     1       0.271  -2.147   9.088  1.00  0.00    -0.248 NA
ATOM     59  C   UNL     1       0.283  -4.418   9.446  1.00  0.00     0.031 C 
ATOM     60  C   UNL     1      -1.722   0.440   9.361  1.00  0.00     0.029 A 
ATOM     61  C   UNL     1      -0.909  -0.032  10.376  1.00  0.00     0.049 A 
ATOM     62  H   UNL     1       0.541   0.991  11.508  1.00  0.00     0.167 HD
ATOM     63  C   UNL     1      -0.348  -2.354  10.291  1.00  0.00     0.074 A 
ATOM     64  C   UNL     1      -0.322  -3.793  10.472  1.00  0.00     0.031 C 
ATOM     65  C   UNL     1      -0.816  -1.320  11.047  1.00  0.00     0.031 A 
BRANCH  52  66
ATOM     66  C   UNL     1       0.262   4.670  10.118  1.00  0.00    -0.014 A 
ATOM     67  C   UNL     1      -1.090   5.051  10.015  1.00  0.00     0.009 A 
ATOM     68  C   UNL     1       1.176   5.716  10.329  1.00  0.00     0.009 A 
ATOM     69  C   UNL     1      -1.489   6.395  10.009  1.00  0.00     0.001 A 
ATOM     70  C   UNL     1       0.792   7.064  10.283  1.00  0.00     0.001 A 
ATOM     71  C   UNL     1      -0.541   7.405  10.108  1.00  0.00     0.000 A 
ENDBRANCH  52  66
BRANCH  53  72
ATOM     72  C   UNL     1       2.677  -4.220   7.170  1.00  0.00    -0.014 A 
ATOM     73  C   UNL     1       2.917  -4.924   5.976  1.00  0.00     0.009 A 
ATOM     74  C   UNL     1       3.749  -4.003   8.048  1.00  0.00     0.009 A 
ATOM     75  C   UNL     1       4.213  -5.309   5.621  1.00  0.00     0.001 A 
ATOM     76  C   UNL     1       5.045  -4.393   7.690  1.00  0.00     0.001 A 
ATOM     77  C   UNL     1       5.281  -5.014   6.464  1.00  0.00     0.000 A 
ENDBRANCH  53  72
BRANCH  65  78
ATOM     78  C   UNL     1      -1.296  -1.425  12.470  1.00  0.00    -0.014 A 
ATOM     79  C   UNL     1      -0.836  -2.386  13.379  1.00  0.00     0.009 A 
ATOM     80  C   UNL     1      -2.145  -0.417  12.979  1.00  0.00     0.009 A 
ATOM     81  C   UNL     1      -1.238  -2.367  14.721  1.00  0.00     0.001 A 
ATOM     82  C   UNL     1      -2.516  -0.371  14.325  1.00  0.00     0.001 A 
ATOM     83  C   UNL     1      -2.070  -1.355  15.195  1.00  0.00     0.000 A 
ENDBRANCH  65  78
ENDBRANCH  39  40
ENDBRANCH  31  34
ENDBRANCH  29  30
ENDBRANCH   1  29
TORSDOF 15
