REMARK SMILES Cc1csc(C[NH2+]C2(C(=O)NCCCNC(=O)c3ccc(-c4c5nc(c(-c6ccccc6)c6ccc([nH]6)c(-c6ccccc6)c6nc(c(-c7ccccc7)c7ccc4[nH]7)C=C6)C=C5)cc3)CC2)n1
REMARK SMILES IDX 12 1 11 2 9 3 10 4 8 6 66 7 67 8 7 9 6 12 5 13 1 14 2 15
REMARK SMILES IDX 3 16 68 17 4 18 13 19 14 20 15 21 16 22 17 24 18 25 19 26
REMARK SMILES IDX 65 27 20 28 64 29 21 30 22 31 23 32 58 33 24 34 63 35 57 36
REMARK SMILES IDX 59 37 25 38 62 39 56 40 55 41 26 43 48 44 33 45 47 46 34 47
REMARK SMILES IDX 37 48 46 49 60 50 35 51 36 52 45 54 61 55 38 56 27 57 28 58
REMARK SMILES IDX 32 59 29 60 31 61 30 62 49 63 50 64 54 65 51 66 53 67 52 68
REMARK SMILES IDX 39 69 40 70 44 71 41 72 43 73 42 74
REMARK H PARENT 11 5 7 10 7 11 15 23 59 42 37 53
REMARK Flexibility Score: inf
ROOT
ATOM      1  C   UNL     1       4.486   5.977   0.492  1.00  0.00     0.118 C 
ENDROOT
BRANCH   1   2
ATOM      2  N   UNL     1       4.095   4.580   0.431  1.00  0.00    -0.351 N 
ATOM      3  C   UNL     1       2.776   4.197   0.475  1.00  0.00     0.281 C 
ATOM      4  O   UNL     1       2.327   3.787   1.542  1.00  0.00    -0.268 OA
ATOM      5  H   UNL     1       4.792   3.889   0.358  1.00  0.00     0.163 HD
BRANCH   3   6
ATOM      6  C   UNL     1       1.933   4.209  -0.796  1.00  0.00     0.176 C 
ATOM      7  C   UNL     1       2.328   5.012  -2.025  1.00  0.00     0.086 C 
ATOM      8  C   UNL     1       1.231   5.510  -1.136  1.00  0.00     0.086 C 
BRANCH   6   9
ATOM      9  N   UNL     1       1.218   2.925  -1.131  1.00  0.00    -0.328 N 
ATOM     10  H   UNL     1       0.342   3.165  -1.595  1.00  0.00     0.347 HD
ATOM     11  H   UNL     1       1.861   2.392  -1.716  1.00  0.00     0.347 HD
BRANCH   9  12
ATOM     12  C   UNL     1       0.901   2.058   0.016  1.00  0.00     0.330 C 
BRANCH  12  13
ATOM     13  C   UNL     1       0.057   0.864  -0.346  1.00  0.00     0.147 A 
ATOM     14  C   UNL     1      -3.142  -0.773  -0.249  1.00  0.00     0.067 C 
ATOM     15  C   UNL     1      -1.699  -0.486  -0.440  1.00  0.00     0.049 A 
ATOM     16  C   UNL     1      -0.724  -1.368  -0.862  1.00  0.00     0.090 A 
ATOM     17  N   UNL     1      -1.245   0.790  -0.161  1.00  0.00    -0.240 NA
ATOM     18  S   UNL     1       0.797  -0.581  -0.922  1.00  0.00    -0.121 S 
ENDBRANCH  12  13
ENDBRANCH   9  12
ENDBRANCH   6   9
ENDBRANCH   3   6
ENDBRANCH   1   2
BRANCH   1  19
ATOM     19  C   UNL     1       3.940   6.744   1.700  1.00  0.00     0.042 C 
BRANCH  19  20
ATOM     20  C   UNL     1       4.133   6.104   3.075  1.00  0.00     0.118 C 
BRANCH  20  21
ATOM     21  N   UNL     1       5.501   5.708   3.354  1.00  0.00    -0.352 N 
ATOM     22  C   UNL     1       6.285   5.911   4.460  1.00  0.00     0.251 C 
ATOM     23  H   UNL     1       5.939   5.209   2.627  1.00  0.00     0.163 HD
ATOM     24  O   UNL     1       7.444   5.503   4.447  1.00  0.00    -0.269 OA
BRANCH  22  25
ATOM     25  C   UNL     1       5.789   6.648   5.645  1.00  0.00     0.039 A 
ATOM     26  C   UNL     1       6.662   7.563   6.246  1.00  0.00     0.014 A 
ATOM     27  C   UNL     1       4.526   6.430   6.203  1.00  0.00     0.014 A 
ATOM     28  C   UNL     1       6.254   8.294   7.362  1.00  0.00     0.010 A 
ATOM     29  C   UNL     1       4.098   7.197   7.292  1.00  0.00     0.010 A 
ATOM     30  C   UNL     1       4.959   8.136   7.880  1.00  0.00    -0.014 A 
BRANCH  30  31
ATOM     31  C   UNL     1       4.516   8.970   9.025  1.00  0.00     0.031 A 
ATOM     32  C   UNL     1       4.324   8.370  10.389  1.00  0.00     0.074 A 
ATOM     33  C   UNL     1       4.286  10.283   8.835  1.00  0.00     0.049 A 
ATOM     34  N   UNL     1       4.014   8.967  11.513  1.00  0.00    -0.248 NA
ATOM     35  C   UNL     1       4.486   6.913  10.505  1.00  0.00     0.031 C 
ATOM     36  C   UNL     1       4.390  10.984   7.554  1.00  0.00     0.029 A 
ATOM     37  N   UNL     1       3.928  11.264   9.725  1.00  0.00    -0.354 N 
ATOM     38  C   UNL     1       3.932   7.961  12.465  1.00  0.00     0.074 A 
ATOM     39  C   UNL     1       4.196   6.712  11.783  1.00  0.00     0.031 C 
ATOM     40  C   UNL     1       4.135  12.289   7.747  1.00  0.00     0.029 A 
ATOM     41  C   UNL     1       3.840  12.512   9.159  1.00  0.00     0.049 A 
ATOM     42  H   UNL     1       3.752  11.090  10.678  1.00  0.00     0.167 HD
ATOM     43  C   UNL     1       3.673   8.065  13.791  1.00  0.00     0.031 A 
ATOM     44  C   UNL     1       3.572  13.707   9.717  1.00  0.00     0.031 A 
ATOM     45  C   UNL     1       3.425   9.301  14.483  1.00  0.00     0.049 A 
ATOM     46  C   UNL     1       3.338  13.803  11.195  1.00  0.00     0.074 A 
ATOM     47  C   UNL     1       3.200   9.505  15.834  1.00  0.00     0.029 A 
ATOM     48  N   UNL     1       3.372  10.545  13.877  1.00  0.00    -0.354 N 
ATOM     49  N   UNL     1       3.331  12.849  12.092  1.00  0.00    -0.248 NA
ATOM     50  C   UNL     1       3.096  15.148  11.739  1.00  0.00     0.031 C 
ATOM     51  C   UNL     1       2.990  10.873  16.043  1.00  0.00     0.029 A 
ATOM     52  C   UNL     1       3.112  11.521  14.825  1.00  0.00     0.049 A 
ATOM     53  H   UNL     1       3.501  10.711  12.915  1.00  0.00     0.167 HD
ATOM     54  C   UNL     1       3.104  13.477  13.309  1.00  0.00     0.074 A 
ATOM     55  C   UNL     1       2.990  14.896  13.037  1.00  0.00     0.031 C 
ATOM     56  C   UNL     1       3.002  12.926  14.542  1.00  0.00     0.031 A 
BRANCH  43  57
ATOM     57  C   UNL     1       3.645   6.792  14.583  1.00  0.00    -0.014 A 
ATOM     58  C   UNL     1       4.835   6.143  14.946  1.00  0.00     0.009 A 
ATOM     59  C   UNL     1       2.417   6.250  14.993  1.00  0.00     0.009 A 
ATOM     60  C   UNL     1       4.794   4.957  15.683  1.00  0.00     0.001 A 
ATOM     61  C   UNL     1       2.381   5.074  15.744  1.00  0.00     0.001 A 
ATOM     62  C   UNL     1       3.569   4.425  16.082  1.00  0.00     0.000 A 
ENDBRANCH  43  57
BRANCH  44  63
ATOM     63  C   UNL     1       3.559  14.925   8.872  1.00  0.00    -0.014 A 
ATOM     64  C   UNL     1       4.655  15.800   8.877  1.00  0.00     0.009 A 
ATOM     65  C   UNL     1       2.456  15.213   8.055  1.00  0.00     0.009 A 
ATOM     66  C   UNL     1       4.640  16.953   8.091  1.00  0.00     0.001 A 
ATOM     67  C   UNL     1       2.451  16.359   7.259  1.00  0.00     0.001 A 
ATOM     68  C   UNL     1       3.539  17.231   7.281  1.00  0.00     0.000 A 
ENDBRANCH  44  63
BRANCH  56  69
ATOM     69  C   UNL     1       2.778  13.865  15.689  1.00  0.00    -0.014 A 
ATOM     70  C   UNL     1       1.510  14.409  15.939  1.00  0.00     0.009 A 
ATOM     71  C   UNL     1       3.844  14.192  16.540  1.00  0.00     0.009 A 
ATOM     72  C   UNL     1       1.319  15.288  17.007  1.00  0.00     0.001 A 
ATOM     73  C   UNL     1       3.647  15.058  17.616  1.00  0.00     0.001 A 
ATOM     74  C   UNL     1       2.387  15.611  17.845  1.00  0.00     0.000 A 
ENDBRANCH  56  69
ENDBRANCH  30  31
ENDBRANCH  22  25
ENDBRANCH  20  21
ENDBRANCH  19  20
ENDBRANCH   1  19
TORSDOF 13
