REMARK SMILES COC(=O)c1ccc(C)c(NC(=O)[C@H]2CC=CC[C@H]2C(=O)NCCCNC(=O)c2ccc(-c3c4nc(c(-c5ccccc5)c5ccc([nH]5)c(-c5ccccc5)c5nc(c(-c6ccccc6)c6ccc3[nH]6)C=C5)C=C4)cc2)c1
REMARK SMILES IDX 23 1 22 2 20 3 21 4 19 6 14 7 15 8 16 9 18 10 17 11 12 12
REMARK SMILES IDX 11 13 13 15 10 16 5 17 6 18 77 19 7 20 8 21 9 22 3 23 4 24
REMARK SMILES IDX 2 25 1 26 24 27 25 28 26 29 27 30 28 32 29 33 30 34 76 35
REMARK SMILES IDX 31 36 75 37 32 38 33 39 34 40 69 41 35 42 74 43 68 44 70 45
REMARK SMILES IDX 36 46 73 47 67 48 66 49 37 51 59 52 44 53 58 54 45 55 48 56
REMARK SMILES IDX 57 57 71 58 46 59 47 60 56 62 72 63 49 64 38 65 39 66 43 67
REMARK SMILES IDX 40 68 42 69 41 70 60 71 61 72 65 73 62 74 64 75 63 76 50 77
REMARK SMILES IDX 51 78 55 79 52 80 54 81 53 82
REMARK H PARENT 22 5 11 14 26 31 70 50 48 61
REMARK Flexibility Score: inf
ROOT
ATOM      1  C   UNL     1       7.577   2.096   0.850  1.00  0.00     0.117 C 
ENDROOT
BRANCH   1   2
ATOM      2  N   UNL     1       7.196   2.082   2.255  1.00  0.00    -0.356 N 
ATOM      3  C   UNL     1       7.531   1.261   3.284  1.00  0.00     0.224 C 
ATOM      4  O   UNL     1       6.991   1.502   4.370  1.00  0.00    -0.275 OA
ATOM      5  H   UNL     1       6.577   2.805   2.507  1.00  0.00     0.163 HD
BRANCH   3   6
ATOM      6  C   UNL     1       8.527   0.102   3.181  1.00  0.00     0.095 C 
ATOM      7  C   UNL     1       7.969  -1.238   2.650  1.00  0.00     0.095 C 
ATOM      8  C   UNL     1       9.045  -2.264   2.233  1.00  0.00     0.041 C 
ATOM      9  C   UNL     1      10.326  -1.697   1.718  1.00  0.00    -0.030 C 
ATOM     10  C   UNL     1       9.896   0.577   2.658  1.00  0.00     0.041 C 
ATOM     11  C   UNL     1      10.702  -0.430   1.907  1.00  0.00    -0.030 C 
BRANCH   7  12
ATOM     12  C   UNL     1       6.937  -1.141   1.564  1.00  0.00     0.228 C 
ATOM     13  N   UNL     1       5.603  -1.032   1.727  1.00  0.00    -0.326 N 
ATOM     14  H   UNL     1       5.190  -1.027   0.834  1.00  0.00     0.169 HD
ATOM     15  O   UNL     1       7.302  -1.134   0.377  1.00  0.00    -0.274 OA
BRANCH  13  16
ATOM     16  C   UNL     1       4.568  -0.922   2.681  1.00  0.00     0.044 A 
ATOM     17  C   UNL     1       2.138  -0.394   2.733  1.00  0.00     0.062 A 
ATOM     18  C   UNL     1       2.107  -0.586   4.101  1.00  0.00     0.016 A 
ATOM     19  C   UNL     1       3.356  -0.553   2.054  1.00  0.00     0.042 A 
ATOM     20  C   UNL     1       3.288  -0.945   4.752  1.00  0.00     0.006 A 
ATOM     21  C   UNL     1       4.523  -1.133   4.066  1.00  0.00    -0.027 A 
ATOM     22  C   UNL     1       5.643  -1.618   4.932  1.00  0.00     0.046 C 
BRANCH  17  23
ATOM     23  C   UNL     1       0.873  -0.153   1.983  1.00  0.00     0.337 C 
ATOM     24  O   UNL     1      -0.242  -0.276   2.430  1.00  0.00    -0.246 OA
BRANCH  23  25
ATOM     25  O   UNL     1       1.204   0.091   0.688  1.00  0.00    -0.465 OA
ATOM     26  C   UNL     1       0.240  -0.289  -0.289  1.00  0.00     0.282 C 
ENDBRANCH  23  25
ENDBRANCH  17  23
ENDBRANCH  13  16
ENDBRANCH   7  12
ENDBRANCH   3   6
ENDBRANCH   1   2
BRANCH   1  27
ATOM     27  C   UNL     1       6.396   1.793  -0.062  1.00  0.00     0.042 C 
BRANCH  27  28
ATOM     28  C   UNL     1       5.625   3.026  -0.511  1.00  0.00     0.118 C 
BRANCH  28  29
ATOM     29  N   UNL     1       5.727   3.212  -1.963  1.00  0.00    -0.352 N 
ATOM     30  C   UNL     1       4.766   3.591  -2.881  1.00  0.00     0.251 C 
ATOM     31  H   UNL     1       6.619   3.040  -2.342  1.00  0.00     0.163 HD
ATOM     32  O   UNL     1       5.051   3.833  -4.046  1.00  0.00    -0.269 OA
BRANCH  30  33
ATOM     33  C   UNL     1       3.396   3.798  -2.386  1.00  0.00     0.039 A 
ATOM     34  C   UNL     1       2.967   5.123  -2.264  1.00  0.00     0.014 A 
ATOM     35  C   UNL     1       2.788   2.759  -1.688  1.00  0.00     0.014 A 
ATOM     36  C   UNL     1       2.129   5.454  -1.209  1.00  0.00     0.010 A 
ATOM     37  C   UNL     1       2.014   3.104  -0.600  1.00  0.00     0.010 A 
ATOM     38  C   UNL     1       1.774   4.452  -0.310  1.00  0.00    -0.014 A 
BRANCH  38  39
ATOM     39  C   UNL     1       1.266   4.730   1.025  1.00  0.00     0.031 A 
ATOM     40  C   UNL     1      -0.176   4.637   1.276  1.00  0.00     0.074 A 
ATOM     41  C   UNL     1       2.116   5.040   2.028  1.00  0.00     0.049 A 
ATOM     42  N   UNL     1      -0.807   5.332   2.159  1.00  0.00    -0.248 NA
ATOM     43  C   UNL     1      -1.043   3.792   0.466  1.00  0.00     0.031 C 
ATOM     44  C   UNL     1       1.815   5.158   3.452  1.00  0.00     0.029 A 
ATOM     45  N   UNL     1       3.416   5.539   1.905  1.00  0.00    -0.354 N 
ATOM     46  C   UNL     1      -2.075   4.808   2.248  1.00  0.00     0.074 A 
ATOM     47  C   UNL     1      -2.212   3.965   1.085  1.00  0.00     0.031 C 
ATOM     48  C   UNL     1       2.750   5.932   4.028  1.00  0.00     0.029 A 
ATOM     49  C   UNL     1       3.597   6.450   2.965  1.00  0.00     0.049 A 
ATOM     50  H   UNL     1       4.075   5.301   1.214  1.00  0.00     0.167 HD
ATOM     51  C   UNL     1      -2.798   5.014   3.384  1.00  0.00     0.031 A 
ATOM     52  C   UNL     1       3.822   7.774   2.721  1.00  0.00     0.031 A 
ATOM     53  C   UNL     1      -2.118   5.944   4.292  1.00  0.00     0.049 A 
ATOM     54  C   UNL     1       2.751   8.681   3.284  1.00  0.00     0.074 A 
ATOM     55  C   UNL     1      -1.392   5.758   5.457  1.00  0.00     0.029 A 
ATOM     56  N   UNL     1      -1.863   7.247   3.874  1.00  0.00    -0.354 N 
ATOM     57  N   UNL     1       1.557   8.280   3.626  1.00  0.00    -0.248 NA
ATOM     58  C   UNL     1       2.931  10.118   3.471  1.00  0.00     0.031 C 
ATOM     59  C   UNL     1      -0.634   6.935   5.693  1.00  0.00     0.029 A 
ATOM     60  C   UNL     1      -0.928   7.849   4.696  1.00  0.00     0.049 A 
ATOM     61  H   UNL     1      -2.290   7.681   3.100  1.00  0.00     0.167 HD
ATOM     62  C   UNL     1       0.817   9.351   4.055  1.00  0.00     0.074 A 
ATOM     63  C   UNL     1       1.728  10.478   3.953  1.00  0.00     0.031 C 
ATOM     64  C   UNL     1      -0.486   9.217   4.444  1.00  0.00     0.031 A 
BRANCH  51  65
ATOM     65  C   UNL     1      -3.962   4.138   3.807  1.00  0.00    -0.014 A 
ATOM     66  C   UNL     1      -4.374   4.135   5.153  1.00  0.00     0.009 A 
ATOM     67  C   UNL     1      -4.638   3.232   2.971  1.00  0.00     0.009 A 
ATOM     68  C   UNL     1      -5.331   3.231   5.641  1.00  0.00     0.001 A 
ATOM     69  C   UNL     1      -5.581   2.312   3.450  1.00  0.00     0.001 A 
ATOM     70  C   UNL     1      -5.919   2.303   4.792  1.00  0.00     0.000 A 
ENDBRANCH  51  65
BRANCH  52  71
ATOM     71  C   UNL     1       4.569   8.024   1.455  1.00  0.00    -0.014 A 
ATOM     72  C   UNL     1       5.897   7.558   1.359  1.00  0.00     0.009 A 
ATOM     73  C   UNL     1       3.890   8.354   0.275  1.00  0.00     0.009 A 
ATOM     74  C   UNL     1       6.480   7.305   0.113  1.00  0.00     0.001 A 
ATOM     75  C   UNL     1       4.486   8.116  -0.971  1.00  0.00     0.001 A 
ATOM     76  C   UNL     1       5.760   7.553  -1.051  1.00  0.00     0.000 A 
ENDBRANCH  52  71
BRANCH  64  77
ATOM     77  C   UNL     1      -1.464  10.344   4.703  1.00  0.00    -0.014 A 
ATOM     78  C   UNL     1      -1.294  11.666   4.271  1.00  0.00     0.009 A 
ATOM     79  C   UNL     1      -2.701  10.044   5.321  1.00  0.00     0.009 A 
ATOM     80  C   UNL     1      -2.279  12.642   4.488  1.00  0.00     0.001 A 
ATOM     81  C   UNL     1      -3.706  10.999   5.493  1.00  0.00     0.001 A 
ATOM     82  C   UNL     1      -3.487  12.306   5.088  1.00  0.00     0.000 A 
ENDBRANCH  64  77
ENDBRANCH  38  39
ENDBRANCH  30  33
ENDBRANCH  28  29
ENDBRANCH  27  28
ENDBRANCH   1  27
TORSDOF 14
