REMARK SMILES O=C(NCCCNC(=O)c1ccc([S@@](=O)[C@H]2CCOC3(CCCC3)C2)cc1)c1ccc(-c2c3nc(c(-c4ccccc4)c4ccc([nH]4)c(-c4ccccc4)c4nc(c(-c5ccccc5)c5ccc2[nH]5)C=C4)C=C3)cc1
REMARK SMILES IDX 5 1 4 2 3 3 1 4 2 5 28 7 29 8 75 9 30 10 74 11 31 12 32 13
REMARK SMILES IDX 33 14 68 15 34 16 73 17 67 18 69 19 35 20 72 21 66 22 65 23
REMARK SMILES IDX 36 25 58 26 43 27 57 28 44 29 47 30 56 31 70 32 45 33 46 34
REMARK SMILES IDX 55 36 71 37 48 38 37 39 38 40 42 41 39 42 41 43 40 44 59 45
REMARK SMILES IDX 60 46 64 47 61 48 63 49 62 50 49 51 50 52 54 53 51 54 53 55
REMARK SMILES IDX 52 56 6 57 7 58 8 59 9 61 10 62 11 63 27 64 12 65 26 66
REMARK SMILES IDX 13 67 14 68 15 69 16 70 17 71 25 72 18 73 20 74 19 75 21 76
REMARK SMILES IDX 24 77 22 78 23 79
REMARK H PARENT 3 6 69 24 47 35 7 60
REMARK Flexibility Score: inf
ROOT
ATOM      1  C   UNL     1       2.643   3.451  18.375  1.00  0.00     0.042 C 
ENDROOT
BRANCH   1   2
ATOM      2  C   UNL     1       1.643   3.080  19.459  1.00  0.00     0.118 C 
BRANCH   2   3
ATOM      3  N   UNL     1       2.123   2.007  20.319  1.00  0.00    -0.352 N 
ATOM      4  O   UNL     1       3.081   1.060  22.122  1.00  0.00    -0.269 OA
ATOM      5  C   UNL     1       2.511   2.033  21.634  1.00  0.00     0.251 C 
ATOM      6  H   UNL     1       2.178   1.123  19.888  1.00  0.00     0.163 HD
BRANCH   5   7
ATOM      7  C   UNL     1       2.263   3.231  22.463  1.00  0.00     0.039 A 
ATOM      8  C   UNL     1       1.047   3.914  22.391  1.00  0.00     0.014 A 
ATOM      9  C   UNL     1       3.251   3.652  23.357  1.00  0.00     0.014 A 
ATOM     10  C   UNL     1       0.874   5.098  23.099  1.00  0.00     0.010 A 
ATOM     11  C   UNL     1       3.038   4.788  24.139  1.00  0.00     0.010 A 
ATOM     12  C   UNL     1       1.859   5.535  23.996  1.00  0.00    -0.014 A 
BRANCH  12  13
ATOM     13  C   UNL     1       1.611   6.732  24.834  1.00  0.00     0.031 A 
ATOM     14  C   UNL     1       2.466   7.959  24.704  1.00  0.00     0.074 A 
ATOM     15  C   UNL     1       0.613   6.695  25.737  1.00  0.00     0.049 A 
ATOM     16  N   UNL     1       2.420   9.070  25.394  1.00  0.00    -0.248 NA
ATOM     17  C   UNL     1       3.516   7.932  23.674  1.00  0.00     0.031 C 
ATOM     18  C   UNL     1      -0.280   5.555  25.960  1.00  0.00     0.029 A 
ATOM     19  N   UNL     1       0.185   7.635  26.638  1.00  0.00    -0.354 N 
ATOM     20  C   UNL     1       3.449   9.863  24.903  1.00  0.00     0.074 A 
ATOM     21  C   UNL     1       4.115   9.098  23.871  1.00  0.00     0.031 C 
ATOM     22  C   UNL     1      -1.160   5.869  26.921  1.00  0.00     0.029 A 
ATOM     23  C   UNL     1      -0.852   7.201  27.426  1.00  0.00     0.049 A 
ATOM     24  H   UNL     1       0.583   8.533  26.713  1.00  0.00     0.167 HD
ATOM     25  C   UNL     1       3.804  11.115  25.281  1.00  0.00     0.031 A 
ATOM     26  C   UNL     1      -1.467   7.790  28.467  1.00  0.00     0.031 A 
ATOM     27  C   UNL     1       3.141  11.867  26.315  1.00  0.00     0.049 A 
ATOM     28  C   UNL     1      -1.032   9.159  28.893  1.00  0.00     0.074 A 
ATOM     29  C   UNL     1       3.394  13.160  26.738  1.00  0.00     0.029 A 
ATOM     30  N   UNL     1       2.101  11.386  27.097  1.00  0.00    -0.354 N 
ATOM     31  N   UNL     1      -0.091   9.917  28.386  1.00  0.00    -0.248 NA
ATOM     32  C   UNL     1      -1.743   9.755  30.031  1.00  0.00     0.031 C 
ATOM     33  C   UNL     1       2.549  13.440  27.817  1.00  0.00     0.029 A 
ATOM     34  C   UNL     1       1.726  12.344  28.025  1.00  0.00     0.049 A 
ATOM     35  H   UNL     1       1.690  10.496  27.006  1.00  0.00     0.167 HD
ATOM     36  C   UNL     1      -0.106  11.088  29.130  1.00  0.00     0.074 A 
ATOM     37  C   UNL     1      -1.160  10.944  30.115  1.00  0.00     0.031 C 
ATOM     38  C   UNL     1       0.681  12.184  29.004  1.00  0.00     0.031 A 
BRANCH  25  39
ATOM     39  C   UNL     1       4.996  11.731  24.600  1.00  0.00    -0.014 A 
ATOM     40  C   UNL     1       4.950  12.131  23.255  1.00  0.00     0.009 A 
ATOM     41  C   UNL     1       6.181  11.932  25.326  1.00  0.00     0.009 A 
ATOM     42  C   UNL     1       6.080  12.677  22.641  1.00  0.00     0.001 A 
ATOM     43  C   UNL     1       7.299  12.505  24.718  1.00  0.00     0.001 A 
ATOM     44  C   UNL     1       7.252  12.866  23.373  1.00  0.00     0.000 A 
ENDBRANCH  25  39
BRANCH  26  45
ATOM     45  C   UNL     1      -2.539   7.054  29.183  1.00  0.00    -0.014 A 
ATOM     46  C   UNL     1      -3.883   7.427  29.041  1.00  0.00     0.009 A 
ATOM     47  C   UNL     1      -2.223   5.931  29.966  1.00  0.00     0.009 A 
ATOM     48  C   UNL     1      -4.888   6.693  29.676  1.00  0.00     0.001 A 
ATOM     49  C   UNL     1      -3.231   5.183  30.575  1.00  0.00     0.001 A 
ATOM     50  C   UNL     1      -4.562   5.568  30.433  1.00  0.00     0.000 A 
ENDBRANCH  26  45
BRANCH  38  51
ATOM     51  C   UNL     1       0.416  13.331  29.936  1.00  0.00    -0.014 A 
ATOM     52  C   UNL     1       0.796  13.275  31.286  1.00  0.00     0.009 A 
ATOM     53  C   UNL     1      -0.167  14.507  29.440  1.00  0.00     0.009 A 
ATOM     54  C   UNL     1       0.578  14.370  32.124  1.00  0.00     0.001 A 
ATOM     55  C   UNL     1      -0.359  15.609  30.274  1.00  0.00     0.001 A 
ATOM     56  C   UNL     1       0.008  15.537  31.616  1.00  0.00     0.000 A 
ENDBRANCH  38  51
ENDBRANCH  12  13
ENDBRANCH   5   7
ENDBRANCH   2   3
ENDBRANCH   1   2
BRANCH   1  57
ATOM     57  C   UNL     1       2.938   2.321  17.402  1.00  0.00     0.118 C 
BRANCH  57  58
ATOM     58  N   UNL     1       1.746   1.893  16.685  1.00  0.00    -0.352 N 
ATOM     59  C   UNL     1       1.451   2.004  15.354  1.00  0.00     0.251 C 
ATOM     60  H   UNL     1       1.053   1.462  17.236  1.00  0.00     0.163 HD
ATOM     61  O   UNL     1       0.309   1.791  14.951  1.00  0.00    -0.269 OA
BRANCH  59  62
ATOM     62  C   UNL     1       2.504   2.388  14.398  1.00  0.00     0.039 A 
ATOM     63  C   UNL     1       2.228   3.388  13.464  1.00  0.00     0.015 A 
ATOM     64  C   UNL     1       3.741   1.730  14.394  1.00  0.00     0.015 A 
ATOM     65  C   UNL     1       3.207   3.755  12.544  1.00  0.00     0.018 A 
ATOM     66  C   UNL     1       4.723   2.110  13.484  1.00  0.00     0.018 A 
ATOM     67  C   UNL     1       4.449   3.106  12.542  1.00  0.00     0.039 A 
BRANCH  67  68
ATOM     68  S   UNL     1       5.641   3.518  11.266  1.00  0.00     0.056 S 
ATOM     69  O   UNL     1       6.983   3.170  11.844  1.00  0.00    -0.254 OA
BRANCH  68  70
ATOM     70  C   UNL     1       5.257   2.224  10.007  1.00  0.00     0.089 C 
ATOM     71  C   UNL     1       3.873   1.589  10.112  1.00  0.00     0.046 C 
ATOM     72  C   UNL     1       5.409   2.879   8.633  1.00  0.00     0.053 C 
ATOM     73  C   UNL     1       3.624   0.647   8.948  1.00  0.00     0.162 C 
ATOM     74  C   UNL     1       5.087   1.909   7.495  1.00  0.00     0.069 C 
ATOM     75  O   UNL     1       3.801   1.309   7.701  1.00  0.00    -0.375 OA
ATOM     76  C   UNL     1       5.003   2.663   6.146  1.00  0.00     0.035 C 
ATOM     77  C   UNL     1       6.177   0.843   7.277  1.00  0.00     0.035 C 
ATOM     78  C   UNL     1       5.936   1.931   5.185  1.00  0.00     0.003 C 
ATOM     79  C   UNL     1       6.100   0.549   5.786  1.00  0.00     0.003 C 
ENDBRANCH  68  70
ENDBRANCH  67  68
ENDBRANCH  59  62
ENDBRANCH  57  58
ENDBRANCH   1  57
TORSDOF 12
