REMARK SMILES CC(C)(C)OC(=O)Nc1ccc(-c2cccc(Cl)c2C(=O)NCCCNC(=O)c2ccc(-c3c4nc(c(-c5ccccc5)c5ccc([nH]5)c(-c5ccccc5)c5nc(c(-c6ccccc6)c6ccc3[nH]6)C=C5)C=C4)cc2)cc1
REMARK SMILES IDX 23 1 22 2 20 3 21 4 19 6 13 7 14 8 15 9 17 10 16 11 18 12
REMARK SMILES IDX 12 13 9 14 10 15 78 16 11 17 77 18 8 19 6 20 7 21 5 23 2 24
REMARK SMILES IDX 1 25 3 26 4 27 24 28 25 29 26 30 27 31 28 33 29 34 30 35
REMARK SMILES IDX 76 36 31 37 75 38 32 39 33 40 34 41 69 42 35 43 74 44 68 45
REMARK SMILES IDX 70 46 36 47 73 48 67 49 66 50 37 52 59 53 44 54 58 55 45 56
REMARK SMILES IDX 48 57 57 58 71 59 46 60 47 61 56 63 72 64 49 65 38 66 39 67
REMARK SMILES IDX 43 68 40 69 42 70 41 71 60 72 61 73 65 74 62 75 64 76 63 77
REMARK SMILES IDX 50 78 51 79 55 80 52 81 54 82 53 83
REMARK H PARENT 22 5 8 22 26 32 70 51 48 62
REMARK Flexibility Score: inf
ROOT
ATOM      1  C   UNL     1       4.748  -1.303   5.505  1.00  0.00     0.118 C 
ENDROOT
BRANCH   1   2
ATOM      2  N   UNL     1       6.098  -1.738   5.327  1.00  0.00    -0.352 N 
ATOM      3  C   UNL     1       6.453  -2.901   4.659  1.00  0.00     0.253 C 
ATOM      4  O   UNL     1       7.462  -2.836   3.953  1.00  0.00    -0.269 OA
ATOM      5  H   UNL     1       6.818  -1.179   5.699  1.00  0.00     0.163 HD
BRANCH   3   6
ATOM      6  C   UNL     1       5.769  -4.245   4.811  1.00  0.00     0.066 A 
ATOM      7  C   UNL     1       4.405  -4.577   4.530  1.00  0.00    -0.004 A 
ATOM      8  C   UNL     1       4.014  -5.940   4.550  1.00  0.00     0.009 A 
ATOM      9  C   UNL     1       4.903  -6.966   4.837  1.00  0.00     0.002 A 
ATOM     10  C   UNL     1       6.643  -5.314   5.152  1.00  0.00     0.054 A 
ATOM     11  C   UNL     1       6.213  -6.651   5.151  1.00  0.00     0.021 A 
ATOM     12  Cl  UNL     1       8.284  -5.087   5.684  1.00  0.00    -0.083 Cl
BRANCH   7  13
ATOM     13  C   UNL     1       3.293  -3.639   4.291  1.00  0.00    -0.017 A 
ATOM     14  C   UNL     1       1.361  -1.568   4.137  1.00  0.00     0.044 A 
ATOM     15  C   UNL     1       1.367  -2.442   5.224  1.00  0.00     0.027 A 
ATOM     16  C   UNL     1       2.260  -1.803   3.087  1.00  0.00     0.027 A 
ATOM     17  C   UNL     1       2.299  -3.483   5.287  1.00  0.00     0.011 A 
ATOM     18  C   UNL     1       3.214  -2.833   3.157  1.00  0.00     0.011 A 
BRANCH  14  19
ATOM     19  N   UNL     1       0.484  -0.470   4.219  1.00  0.00    -0.291 N 
ATOM     20  C   UNL     1       0.121   0.464   3.281  1.00  0.00     0.412 C 
ATOM     21  O   UNL     1      -0.640   1.373   3.576  1.00  0.00    -0.224 OA
ATOM     22  H   UNL     1       0.058  -0.352   5.098  1.00  0.00     0.173 HD
BRANCH  20  23
ATOM     23  O   UNL     1       0.599   0.203   2.050  1.00  0.00    -0.444 OA
BRANCH  23  24
ATOM     24  C   UNL     1       0.198   0.943   0.878  1.00  0.00     0.106 C 
ATOM     25  C   UNL     1       0.824   0.145  -0.275  1.00  0.00     0.056 C 
ATOM     26  C   UNL     1       0.779   2.356   0.888  1.00  0.00     0.056 C 
ATOM     27  C   UNL     1      -1.324   0.946   0.712  1.00  0.00     0.056 C 
ENDBRANCH  23  24
ENDBRANCH  20  23
ENDBRANCH  14  19
ENDBRANCH   7  13
ENDBRANCH   3   6
ENDBRANCH   1   2
BRANCH   1  28
ATOM     28  C   UNL     1       4.389  -0.314   6.579  1.00  0.00     0.042 C 
BRANCH  28  29
ATOM     29  C   UNL     1       4.552   1.154   6.247  1.00  0.00     0.118 C 
BRANCH  29  30
ATOM     30  N   UNL     1       3.885   1.623   5.034  1.00  0.00    -0.352 N 
ATOM     31  C   UNL     1       2.900   2.561   4.811  1.00  0.00     0.251 C 
ATOM     32  H   UNL     1       4.201   1.180   4.214  1.00  0.00     0.163 HD
ATOM     33  O   UNL     1       2.559   2.800   3.654  1.00  0.00    -0.269 OA
BRANCH  31  34
ATOM     34  C   UNL     1       2.210   3.251   5.926  1.00  0.00     0.039 A 
ATOM     35  C   UNL     1       0.849   3.558   5.812  1.00  0.00     0.014 A 
ATOM     36  C   UNL     1       2.882   3.594   7.094  1.00  0.00     0.014 A 
ATOM     37  C   UNL     1       0.161   4.106   6.899  1.00  0.00     0.010 A 
ATOM     38  C   UNL     1       2.173   3.977   8.222  1.00  0.00     0.010 A 
ATOM     39  C   UNL     1       0.810   4.274   8.130  1.00  0.00    -0.014 A 
BRANCH  39  40
ATOM     40  C   UNL     1       0.118   4.834   9.317  1.00  0.00     0.031 A 
ATOM     41  C   UNL     1       0.633   6.104   9.946  1.00  0.00     0.074 A 
ATOM     42  C   UNL     1      -0.923   4.177   9.863  1.00  0.00     0.049 A 
ATOM     43  N   UNL     1       0.211   6.730  11.015  1.00  0.00    -0.248 NA
ATOM     44  C   UNL     1       1.806   6.736   9.313  1.00  0.00     0.031 C 
ATOM     45  C   UNL     1      -1.481   2.912   9.377  1.00  0.00     0.029 A 
ATOM     46  N   UNL     1      -1.704   4.487  10.947  1.00  0.00    -0.354 N 
ATOM     47  C   UNL     1       1.076   7.804  11.187  1.00  0.00     0.074 A 
ATOM     48  C   UNL     1       2.095   7.701  10.169  1.00  0.00     0.031 C 
ATOM     49  C   UNL     1      -2.543   2.582  10.130  1.00  0.00     0.029 A 
ATOM     50  C   UNL     1      -2.715   3.585  11.174  1.00  0.00     0.049 A 
ATOM     51  H   UNL     1      -1.553   5.281  11.510  1.00  0.00     0.167 HD
ATOM     52  C   UNL     1       1.012   8.813  12.087  1.00  0.00     0.031 A 
ATOM     53  C   UNL     1      -3.677   3.577  12.116  1.00  0.00     0.031 A 
ATOM     54  C   UNL     1      -0.017   8.925  13.084  1.00  0.00     0.049 A 
ATOM     55  C   UNL     1      -3.729   4.707  13.107  1.00  0.00     0.074 A 
ATOM     56  C   UNL     1      -0.212   9.930  14.014  1.00  0.00     0.029 A 
ATOM     57  N   UNL     1      -1.027   7.995  13.276  1.00  0.00    -0.354 N 
ATOM     58  N   UNL     1      -2.943   5.753  13.213  1.00  0.00    -0.248 NA
ATOM     59  C   UNL     1      -4.813   4.664  14.096  1.00  0.00     0.031 C 
ATOM     60  C   UNL     1      -1.310   9.577  14.807  1.00  0.00     0.029 A 
ATOM     61  C   UNL     1      -1.837   8.389  14.326  1.00  0.00     0.049 A 
ATOM     62  H   UNL     1      -1.150   7.176  12.743  1.00  0.00     0.167 HD
ATOM     63  C   UNL     1      -3.456   6.506  14.261  1.00  0.00     0.074 A 
ATOM     64  C   UNL     1      -4.634   5.809  14.737  1.00  0.00     0.031 C 
ATOM     65  C   UNL     1      -2.997   7.670  14.787  1.00  0.00     0.031 A 
BRANCH  52  66
ATOM     66  C   UNL     1       2.086   9.865  12.025  1.00  0.00    -0.014 A 
ATOM     67  C   UNL     1       2.189  10.742  10.931  1.00  0.00     0.009 A 
ATOM     68  C   UNL     1       3.007   9.988  13.077  1.00  0.00     0.009 A 
ATOM     69  C   UNL     1       3.217  11.686  10.871  1.00  0.00     0.001 A 
ATOM     70  C   UNL     1       4.012  10.956  13.031  1.00  0.00     0.001 A 
ATOM     71  C   UNL     1       4.124  11.796  11.924  1.00  0.00     0.000 A 
ENDBRANCH  52  66
BRANCH  53  72
ATOM     72  C   UNL     1      -4.688   2.485  12.149  1.00  0.00    -0.014 A 
ATOM     73  C   UNL     1      -6.032   2.746  11.838  1.00  0.00     0.009 A 
ATOM     74  C   UNL     1      -4.319   1.178  12.503  1.00  0.00     0.009 A 
ATOM     75  C   UNL     1      -6.989   1.731  11.915  1.00  0.00     0.001 A 
ATOM     76  C   UNL     1      -5.272   0.158  12.546  1.00  0.00     0.001 A 
ATOM     77  C   UNL     1      -6.607   0.437  12.264  1.00  0.00     0.000 A 
ENDBRANCH  53  72
BRANCH  65  78
ATOM     78  C   UNL     1      -3.794   8.268  15.913  1.00  0.00    -0.014 A 
ATOM     79  C   UNL     1      -3.846   7.660  17.177  1.00  0.00     0.009 A 
ATOM     80  C   UNL     1      -4.494   9.466  15.704  1.00  0.00     0.009 A 
ATOM     81  C   UNL     1      -4.627   8.213  18.193  1.00  0.00     0.001 A 
ATOM     82  C   UNL     1      -5.243  10.037  16.733  1.00  0.00     0.001 A 
ATOM     83  C   UNL     1      -5.322   9.402  17.972  1.00  0.00     0.000 A 
ENDBRANCH  65  78
ENDBRANCH  39  40
ENDBRANCH  31  34
ENDBRANCH  29  30
ENDBRANCH  28  29
ENDBRANCH   1  28
TORSDOF 14
