REMARK SMILES Cc1ccc(C(=O)NCCCNC(=O)c2ccc(-c3c4nc(c(-c5ccccc5)c5ccc([nH]5)c(-c5ccccc5)c5nc(c(-c6ccccc6)c6ccc3[nH]6)C=C5)C=C4)cc2)cc1CNC(=O)C[N@@H+]1CCC[C@]2(CCOC2)C1
REMARK SMILES IDX 9 1 8 2 6 3 7 4 5 6 1 7 2 8 3 9 64 10 4 11 63 12 65 13 66 14
REMARK SMILES IDX 67 15 68 17 69 18 70 19 71 20 79 21 72 23 74 24 73 25 75 26
REMARK SMILES IDX 78 27 76 28 77 29 10 30 11 31 12 32 13 33 14 35 15 36 16 37
REMARK SMILES IDX 62 38 17 39 61 40 18 41 19 42 20 43 55 44 21 45 60 46 54 47
REMARK SMILES IDX 56 48 22 49 59 50 53 51 52 52 23 54 45 55 30 56 44 57 31 58
REMARK SMILES IDX 34 59 43 60 57 61 32 62 33 63 42 65 58 66 35 67 24 68 25 69
REMARK SMILES IDX 29 70 26 71 28 72 27 73 46 74 47 75 51 76 48 77 50 78 49 79
REMARK SMILES IDX 36 80 37 81 41 82 38 83 40 84 39 85
REMARK H PARENT 8 5 66 16 70 22 12 34 56 53 34 64
REMARK Flexibility Score: inf
ROOT
ATOM      1  C   UNL     1      -3.880   2.196   0.001  1.00  0.00     0.118 C 
ENDROOT
BRANCH   1   2
ATOM      2  N   UNL     1      -3.962   0.750   0.044  1.00  0.00    -0.352 N 
ATOM      3  C   UNL     1      -3.071  -0.288   0.061  1.00  0.00     0.251 C 
ATOM      4  O   UNL     1      -3.578  -1.414   0.115  1.00  0.00    -0.269 OA
ATOM      5  H   UNL     1      -4.894   0.435   0.067  1.00  0.00     0.163 HD
BRANCH   3   6
ATOM      6  C   UNL     1      -1.579  -0.188   0.006  1.00  0.00     0.040 A 
ATOM      7  C   UNL     1       2.770  -0.456  -0.143  1.00  0.00     0.044 C 
ATOM      8  C   UNL     1       1.275  -0.288  -0.095  1.00  0.00    -0.046 A 
ATOM      9  C   UNL     1       0.504  -1.451  -0.216  1.00  0.00     0.004 A 
ATOM     10  C   UNL     1       0.613   0.937   0.112  1.00  0.00    -0.025 A 
ATOM     11  C   UNL     1      -0.891  -1.400  -0.167  1.00  0.00     0.014 A 
ATOM     12  C   UNL     1      -0.809   0.967   0.144  1.00  0.00     0.019 A 
BRANCH  10  13
ATOM     13  C   UNL     1       1.331   2.255   0.303  1.00  0.00     0.152 C 
BRANCH  13  14
ATOM     14  N   UNL     1       1.174   3.092  -0.865  1.00  0.00    -0.347 N 
ATOM     15  C   UNL     1       0.920   4.432  -0.912  1.00  0.00     0.275 C 
ATOM     16  H   UNL     1       1.262   2.639  -1.734  1.00  0.00     0.164 HD
ATOM     17  O   UNL     1       0.812   4.973  -2.016  1.00  0.00    -0.268 OA
BRANCH  15  18
ATOM     18  C   UNL     1       0.734   5.225   0.395  1.00  0.00     0.363 C 
BRANCH  18  19
ATOM     19  N   UNL     1      -0.571   4.916   1.001  1.00  0.00    -0.327 N 
ATOM     20  C   UNL     1      -1.683   5.287   0.133  1.00  0.00     0.262 C 
ATOM     21  C   UNL     1      -0.775   5.424   2.372  1.00  0.00     0.272 C 
ATOM     22  H   UNL     1      -0.553   3.901   1.101  1.00  0.00     0.348 HD
ATOM     23  C   UNL     1      -2.015   6.772   0.142  1.00  0.00     0.062 C 
ATOM     24  C   UNL     1      -1.303   6.884   2.534  1.00  0.00     0.045 C 
ATOM     25  C   UNL     1      -2.442   7.166   1.546  1.00  0.00     0.021 C 
ATOM     26  C   UNL     1      -0.177   7.913   2.416  1.00  0.00     0.043 C 
ATOM     27  C   UNL     1      -1.780   7.110   3.969  1.00  0.00     0.173 C 
ATOM     28  C   UNL     1       0.198   8.258   3.847  1.00  0.00     0.161 C 
ATOM     29  O   UNL     1      -0.604   7.445   4.706  1.00  0.00    -0.381 OA
ENDBRANCH  18  19
ENDBRANCH  15  18
ENDBRANCH  13  14
ENDBRANCH  10  13
ENDBRANCH   3   6
ENDBRANCH   1   2
BRANCH   1  30
ATOM     30  C   UNL     1      -3.725   2.732  -1.417  1.00  0.00     0.042 C 
BRANCH  30  31
ATOM     31  C   UNL     1      -4.784   3.778  -1.780  1.00  0.00     0.118 C 
BRANCH  31  32
ATOM     32  N   UNL     1      -4.693   5.058  -1.072  1.00  0.00    -0.352 N 
ATOM     33  C   UNL     1      -5.430   6.225  -1.207  1.00  0.00     0.251 C 
ATOM     34  H   UNL     1      -3.989   5.096  -0.385  1.00  0.00     0.163 HD
ATOM     35  O   UNL     1      -5.244   7.181  -0.475  1.00  0.00    -0.269 OA
BRANCH  33  36
ATOM     36  C   UNL     1      -6.612   6.193  -2.087  1.00  0.00     0.039 A 
ATOM     37  C   UNL     1      -7.818   6.189  -1.378  1.00  0.00     0.014 A 
ATOM     38  C   UNL     1      -6.492   5.601  -3.338  1.00  0.00     0.014 A 
ATOM     39  C   UNL     1      -8.782   5.268  -1.740  1.00  0.00     0.010 A 
ATOM     40  C   UNL     1      -7.416   4.626  -3.652  1.00  0.00     0.010 A 
ATOM     41  C   UNL     1      -8.495   4.394  -2.788  1.00  0.00    -0.014 A 
BRANCH  41  42
ATOM     42  C   UNL     1      -9.222   3.143  -2.939  1.00  0.00     0.031 A 
ATOM     43  C   UNL     1     -10.275   3.070  -3.959  1.00  0.00     0.074 A 
ATOM     44  C   UNL     1      -9.053   2.102  -2.091  1.00  0.00     0.049 A 
ATOM     45  N   UNL     1     -11.431   2.530  -3.762  1.00  0.00    -0.248 NA
ATOM     46  C   UNL     1     -10.119   3.686  -5.269  1.00  0.00     0.031 C 
ATOM     47  C   UNL     1      -9.678   0.786  -2.204  1.00  0.00     0.029 A 
ATOM     48  N   UNL     1      -8.469   2.093  -0.823  1.00  0.00    -0.354 N 
ATOM     49  C   UNL     1     -12.051   2.473  -4.986  1.00  0.00     0.074 A 
ATOM     50  C   UNL     1     -11.244   3.290  -5.866  1.00  0.00     0.031 C 
ATOM     51  C   UNL     1      -9.731   0.232  -0.982  1.00  0.00     0.029 A 
ATOM     52  C   UNL     1      -9.215   1.204  -0.032  1.00  0.00     0.049 A 
ATOM     53  H   UNL     1      -7.683   2.612  -0.538  1.00  0.00     0.167 HD
ATOM     54  C   UNL     1     -13.087   1.615  -5.192  1.00  0.00     0.031 A 
ATOM     55  C   UNL     1      -9.770   1.522   1.171  1.00  0.00     0.031 A 
ATOM     56  C   UNL     1     -13.408   0.833  -4.002  1.00  0.00     0.049 A 
ATOM     57  C   UNL     1     -11.271   1.329   1.205  1.00  0.00     0.074 A 
ATOM     58  C   UNL     1     -13.074  -0.457  -3.618  1.00  0.00     0.029 A 
ATOM     59  N   UNL     1     -13.920   1.459  -2.872  1.00  0.00    -0.354 N 
ATOM     60  N   UNL     1     -11.994   1.090   0.147  1.00  0.00    -0.248 NA
ATOM     61  C   UNL     1     -12.085   1.503   2.408  1.00  0.00     0.031 C 
ATOM     62  C   UNL     1     -13.347  -0.590  -2.234  1.00  0.00     0.029 A 
ATOM     63  C   UNL     1     -13.858   0.612  -1.780  1.00  0.00     0.049 A 
ATOM     64  H   UNL     1     -14.277   2.376  -2.852  1.00  0.00     0.167 HD
ATOM     65  C   UNL     1     -13.322   1.152   0.479  1.00  0.00     0.074 A 
ATOM     66  C   UNL     1     -13.329   1.376   1.913  1.00  0.00     0.031 C 
ATOM     67  C   UNL     1     -14.300   1.060  -0.467  1.00  0.00     0.031 A 
BRANCH  54  68
ATOM     68  C   UNL     1     -13.542   1.257  -6.583  1.00  0.00    -0.014 A 
ATOM     69  C   UNL     1     -13.978  -0.050  -6.861  1.00  0.00     0.009 A 
ATOM     70  C   UNL     1     -13.498   2.142  -7.674  1.00  0.00     0.009 A 
ATOM     71  C   UNL     1     -14.226  -0.483  -8.169  1.00  0.00     0.001 A 
ATOM     72  C   UNL     1     -13.690   1.703  -8.991  1.00  0.00     0.001 A 
ATOM     73  C   UNL     1     -14.040   0.383  -9.238  1.00  0.00     0.000 A 
ENDBRANCH  54  68
BRANCH  55  74
ATOM     74  C   UNL     1      -9.056   2.595   1.909  1.00  0.00    -0.014 A 
ATOM     75  C   UNL     1      -7.782   2.304   2.434  1.00  0.00     0.009 A 
ATOM     76  C   UNL     1      -9.439   3.935   1.766  1.00  0.00     0.009 A 
ATOM     77  C   UNL     1      -6.870   3.330   2.697  1.00  0.00     0.001 A 
ATOM     78  C   UNL     1      -8.523   4.957   2.033  1.00  0.00     0.001 A 
ATOM     79  C   UNL     1      -7.230   4.654   2.461  1.00  0.00     0.000 A 
ENDBRANCH  55  74
BRANCH  67  80
ATOM     80  C   UNL     1     -15.768   1.320  -0.245  1.00  0.00    -0.014 A 
ATOM     81  C   UNL     1     -16.278   2.161   0.753  1.00  0.00     0.009 A 
ATOM     82  C   UNL     1     -16.698   0.791  -1.167  1.00  0.00     0.009 A 
ATOM     83  C   UNL     1     -17.653   2.419   0.855  1.00  0.00     0.001 A 
ATOM     84  C   UNL     1     -18.063   1.080  -1.095  1.00  0.00     0.001 A 
ATOM     85  C   UNL     1     -18.543   1.885  -0.073  1.00  0.00     0.000 A 
ENDBRANCH  67  80
ENDBRANCH  41  42
ENDBRANCH  33  36
ENDBRANCH  31  32
ENDBRANCH  30  31
ENDBRANCH   1  30
TORSDOF 14
