REMARK SMILES COc1cc(NS(=O)(=O)c2cc(C(=O)NCCCNC(=O)c3ccc(-c4c5nc(c(-c6ccccc6)c6ccc([nH]6)c(-c6ccccc6)c6nc(c(-c7ccccc7)c7ccc4[nH]7)C=C6)C=C5)cc3)cc(C)c2C)ccc1N1CCCC1=O
REMARK SMILES IDX 16 1 15 2 13 3 14 4 12 6 10 7 11 8 73 9 71 10 74 11 70 12
REMARK SMILES IDX 72 13 7 14 8 15 9 16 6 17 5 19 3 20 4 21 77 22 76 23 75 24
REMARK SMILES IDX 2 25 1 26 78 27 79 28 82 29 80 30 81 31 83 32 17 33 18 34
REMARK SMILES IDX 19 35 20 36 21 38 22 39 23 40 69 41 24 42 68 43 25 44 26 45
REMARK SMILES IDX 27 46 62 47 28 48 67 49 61 50 63 51 29 52 66 53 60 54 59 55
REMARK SMILES IDX 30 57 52 58 37 59 51 60 38 61 41 62 50 63 64 64 39 65 40 66
REMARK SMILES IDX 49 68 65 69 42 70 31 71 32 72 36 73 33 74 35 75 34 76 53 77
REMARK SMILES IDX 54 78 58 79 55 80 57 81 56 82 43 83 44 84 48 85 45 86 47 87
REMARK SMILES IDX 46 88
REMARK H PARENT 15 5 6 18 19 37 63 56 41 67
REMARK Flexibility Score: inf
ROOT
ATOM      1  C   UNL     1      -3.860   1.873  -1.771  1.00  0.00     0.118 C 
ENDROOT
BRANCH   1   2
ATOM      2  N   UNL     1      -3.855   2.983  -0.841  1.00  0.00    -0.352 N 
ATOM      3  C   UNL     1      -3.686   3.128   0.508  1.00  0.00     0.251 C 
ATOM      4  O   UNL     1      -3.846   4.276   0.934  1.00  0.00    -0.269 OA
ATOM      5  H   UNL     1      -4.011   3.845  -1.290  1.00  0.00     0.163 HD
BRANCH   3   6
ATOM      6  C   UNL     1      -3.321   2.051   1.482  1.00  0.00     0.041 A 
ATOM      7  C   UNL     1      -2.640   1.578   3.793  1.00  0.00     0.091 A 
ATOM      8  C   UNL     1      -3.067   2.473   2.794  1.00  0.00     0.036 A 
ATOM      9  C   UNL     1      -2.539   0.199   3.530  1.00  0.00    -0.028 A 
ATOM     10  C   UNL     1      -2.712  -0.221   2.194  1.00  0.00    -0.046 A 
ATOM     11  C   UNL     1      -2.211  -0.807   4.601  1.00  0.00     0.046 C 
ATOM     12  C   UNL     1      -3.134   0.699   1.203  1.00  0.00     0.017 A 
ATOM     13  C   UNL     1      -2.444  -1.639   1.752  1.00  0.00     0.044 C 
BRANCH   7  14
ATOM     14  S   UNL     1      -1.969   2.333   5.277  1.00  0.00     0.262 S 
ATOM     15  O   UNL     1      -2.820   1.944   6.379  1.00  0.00    -0.201 OA
ATOM     16  O   UNL     1      -1.702   3.729   4.997  1.00  0.00    -0.201 OA
BRANCH  14  17
ATOM     17  N   UNL     1      -0.490   1.587   5.524  1.00  0.00    -0.279 N 
ATOM     18  H   UNL     1      -0.323   1.216   6.421  1.00  0.00     0.180 HD
BRANCH  17  19
ATOM     19  C   UNL     1       0.550   1.435   4.561  1.00  0.00     0.053 A 
ATOM     20  C   UNL     1       1.429   1.475   2.302  1.00  0.00     0.144 A 
ATOM     21  C   UNL     1       0.486   1.896   3.251  1.00  0.00     0.075 A 
ATOM     22  C   UNL     1       2.559   0.729   2.676  1.00  0.00     0.086 A 
ATOM     23  C   UNL     1       2.652   0.334   4.016  1.00  0.00     0.032 A 
ATOM     24  C   UNL     1       1.657   0.675   4.944  1.00  0.00     0.029 A 
BRANCH  20  25
ATOM     25  O   UNL     1       1.080   1.733   0.998  1.00  0.00    -0.494 OA
ATOM     26  C   UNL     1       0.723   0.534   0.306  1.00  0.00     0.278 C 
ENDBRANCH  20  25
BRANCH  22  27
ATOM     27  N   UNL     1       3.572   0.353   1.757  1.00  0.00    -0.309 N 
ATOM     28  C   UNL     1       4.224  -0.933   1.803  1.00  0.00     0.126 C 
ATOM     29  C   UNL     1       3.980   1.099   0.643  1.00  0.00     0.227 C 
ATOM     30  C   UNL     1       5.366  -0.813   0.814  1.00  0.00     0.032 C 
ATOM     31  C   UNL     1       4.871   0.211  -0.189  1.00  0.00     0.102 C 
ATOM     32  O   UNL     1       3.698   2.244   0.331  1.00  0.00    -0.275 OA
ENDBRANCH  22  27
ENDBRANCH  17  19
ENDBRANCH  14  17
ENDBRANCH   7  14
ENDBRANCH   3   6
ENDBRANCH   1   2
BRANCH   1  33
ATOM     33  C   UNL     1      -5.256   1.270  -1.913  1.00  0.00     0.042 C 
BRANCH  33  34
ATOM     34  C   UNL     1      -6.209   2.164  -2.712  1.00  0.00     0.118 C 
BRANCH  34  35
ATOM     35  N   UNL     1      -5.779   2.319  -4.097  1.00  0.00    -0.352 N 
ATOM     36  C   UNL     1      -6.179   1.685  -5.246  1.00  0.00     0.251 C 
ATOM     37  H   UNL     1      -5.078   2.998  -4.231  1.00  0.00     0.163 HD
ATOM     38  O   UNL     1      -5.464   1.750  -6.244  1.00  0.00    -0.269 OA
BRANCH  36  39
ATOM     39  C   UNL     1      -7.451   0.933  -5.312  1.00  0.00     0.039 A 
ATOM     40  C   UNL     1      -7.512  -0.220  -6.103  1.00  0.00     0.014 A 
ATOM     41  C   UNL     1      -8.607   1.404  -4.687  1.00  0.00     0.014 A 
ATOM     42  C   UNL     1      -8.714  -0.925  -6.224  1.00  0.00     0.010 A 
ATOM     43  C   UNL     1      -9.785   0.662  -4.747  1.00  0.00     0.010 A 
ATOM     44  C   UNL     1      -9.854  -0.504  -5.524  1.00  0.00    -0.014 A 
BRANCH  44  45
ATOM     45  C   UNL     1     -11.138  -1.246  -5.605  1.00  0.00     0.031 A 
ATOM     46  C   UNL     1     -12.355  -0.584  -6.194  1.00  0.00     0.074 A 
ATOM     47  C   UNL     1     -11.232  -2.485  -5.086  1.00  0.00     0.049 A 
ATOM     48  N   UNL     1     -13.594  -1.008  -6.222  1.00  0.00    -0.248 NA
ATOM     49  C   UNL     1     -12.158   0.739  -6.807  1.00  0.00     0.031 C 
ATOM     50  C   UNL     1     -10.136  -3.236  -4.470  1.00  0.00     0.029 A 
ATOM     51  N   UNL     1     -12.309  -3.329  -4.986  1.00  0.00    -0.354 N 
ATOM     52  C   UNL     1     -14.326   0.009  -6.823  1.00  0.00     0.074 A 
ATOM     53  C   UNL     1     -13.400   1.082  -7.116  1.00  0.00     0.031 C 
ATOM     54  C   UNL     1     -10.592  -4.436  -4.077  1.00  0.00     0.029 A 
ATOM     55  C   UNL     1     -12.018  -4.523  -4.374  1.00  0.00     0.049 A 
ATOM     56  H   UNL     1     -13.206  -3.100  -5.321  1.00  0.00     0.167 HD
ATOM     57  C   UNL     1     -15.648   0.044  -7.117  1.00  0.00     0.031 A 
ATOM     58  C   UNL     1     -12.812  -5.567  -4.075  1.00  0.00     0.031 A 
ATOM     59  C   UNL     1     -16.567  -1.030  -6.858  1.00  0.00     0.049 A 
ATOM     60  C   UNL     1     -14.272  -5.508  -4.421  1.00  0.00     0.074 A 
ATOM     61  C   UNL     1     -17.919  -1.100  -7.148  1.00  0.00     0.029 A 
ATOM     62  N   UNL     1     -16.222  -2.231  -6.260  1.00  0.00    -0.354 N 
ATOM     63  N   UNL     1     -14.945  -4.542  -4.997  1.00  0.00    -0.248 NA
ATOM     64  C   UNL     1     -15.080  -6.687  -4.077  1.00  0.00     0.031 C 
ATOM     65  C   UNL     1     -18.396  -2.340  -6.708  1.00  0.00     0.029 A 
ATOM     66  C   UNL     1     -17.334  -3.050  -6.173  1.00  0.00     0.049 A 
ATOM     67  H   UNL     1     -15.320  -2.467  -5.943  1.00  0.00     0.167 HD
ATOM     68  C   UNL     1     -16.249  -5.005  -5.106  1.00  0.00     0.074 A 
ATOM     69  C   UNL     1     -16.270  -6.341  -4.547  1.00  0.00     0.031 C 
ATOM     70  C   UNL     1     -17.333  -4.379  -5.623  1.00  0.00     0.031 A 
BRANCH  57  71
ATOM     71  C   UNL     1     -16.175   1.295  -7.759  1.00  0.00    -0.014 A 
ATOM     72  C   UNL     1     -15.901   1.587  -9.104  1.00  0.00     0.009 A 
ATOM     73  C   UNL     1     -16.976   2.179  -7.019  1.00  0.00     0.009 A 
ATOM     74  C   UNL     1     -16.391   2.758  -9.687  1.00  0.00     0.001 A 
ATOM     75  C   UNL     1     -17.484   3.337  -7.611  1.00  0.00     0.001 A 
ATOM     76  C   UNL     1     -17.184   3.629  -8.941  1.00  0.00     0.000 A 
ENDBRANCH  57  71
BRANCH  58  77
ATOM     77  C   UNL     1     -12.242  -6.773  -3.424  1.00  0.00    -0.014 A 
ATOM     78  C   UNL     1     -12.056  -7.951  -4.163  1.00  0.00     0.009 A 
ATOM     79  C   UNL     1     -11.895  -6.758  -2.065  1.00  0.00     0.009 A 
ATOM     80  C   UNL     1     -11.555  -9.099  -3.547  1.00  0.00     0.001 A 
ATOM     81  C   UNL     1     -11.373  -7.902  -1.458  1.00  0.00     0.001 A 
ATOM     82  C   UNL     1     -11.211  -9.073  -2.196  1.00  0.00     0.000 A 
ENDBRANCH  58  77
BRANCH  70  83
ATOM     83  C   UNL     1     -18.618  -5.150  -5.645  1.00  0.00    -0.014 A 
ATOM     84  C   UNL     1     -19.383  -5.316  -4.481  1.00  0.00     0.009 A 
ATOM     85  C   UNL     1     -19.082  -5.691  -6.854  1.00  0.00     0.009 A 
ATOM     86  C   UNL     1     -20.579  -6.035  -4.523  1.00  0.00     0.001 A 
ATOM     87  C   UNL     1     -20.288  -6.393  -6.896  1.00  0.00     0.001 A 
ATOM     88  C   UNL     1     -21.031  -6.570  -5.729  1.00  0.00     0.000 A 
ENDBRANCH  70  83
ENDBRANCH  44  45
ENDBRANCH  36  39
ENDBRANCH  34  35
ENDBRANCH  33  34
ENDBRANCH   1  33
TORSDOF 15
