REMARK SMILES C[N@H+]1[C@H](C(=O)NCCCNC(=O)c2ccc(-c3c4nc(c(-c5ccccc5)c5ccc([nH]5)c(-c5ccccc5)c5nc(c(-c6ccccc6)c6ccc3[nH]6)C=C5)C=C4)cc2)C[C@H](C(=O)NCC2(CO)CCCC2)[C@@H]1c1ccccc1F
REMARK SMILES IDX 4 1 5 2 6 3 3 5 1 6 2 7 74 8 61 10 62 11 75 12 76 13 80 14
REMARK SMILES IDX 77 15 79 16 81 17 78 18 63 19 64 20 65 21 66 23 67 24 70 25
REMARK SMILES IDX 73 26 71 27 72 28 68 29 69 30 7 32 8 33 9 34 10 35 11 36
REMARK SMILES IDX 12 38 13 39 14 40 60 41 15 42 59 43 16 44 17 45 18 46 53 47
REMARK SMILES IDX 19 48 58 49 52 50 54 51 20 52 57 53 51 54 50 55 21 57 43 58
REMARK SMILES IDX 28 59 42 60 29 61 32 62 41 63 55 64 30 65 31 66 40 68 56 69
REMARK SMILES IDX 33 70 22 71 23 72 27 73 24 74 26 75 25 76 44 77 45 78 49 79
REMARK SMILES IDX 46 80 48 81 47 82 34 83 35 84 39 85 36 86 38 87 37 88
REMARK H PARENT 6 4 2 9 65 22 69 31 10 37 54 56 32 67
REMARK Flexibility Score: inf
ROOT
ATOM      1  C   UNL     1      -0.468   2.433  -0.489  1.00  0.00     0.278 C 
ATOM      2  O   UNL     1      -0.937   3.406   0.110  1.00  0.00    -0.268 OA
ATOM      3  N   UNL     1      -0.227   2.571  -1.825  1.00  0.00    -0.351 N 
ATOM      4  H   UNL     1      -0.442   3.453  -2.208  1.00  0.00     0.163 HD
ENDROOT
BRANCH   1   5
ATOM      5  C   UNL     1      -0.122   1.139   0.276  1.00  0.00     0.275 C 
ATOM      6  C   UNL     1      -2.206  -0.077   0.323  1.00  0.00     0.333 C 
ATOM      7  N   UNL     1      -0.855  -0.039  -0.237  1.00  0.00    -0.320 N 
ATOM      8  C   UNL     1      -0.023  -1.209   0.120  1.00  0.00     0.231 C 
ATOM      9  H   UNL     1      -0.994  -0.017  -1.247  1.00  0.00     0.349 HD
ATOM     10  C   UNL     1       1.357   0.772   0.219  1.00  0.00     0.095 C 
ATOM     11  C   UNL     1       1.430  -0.723  -0.144  1.00  0.00     0.148 C 
BRANCH   8  12
ATOM     12  C   UNL     1      -0.346  -2.557  -0.493  1.00  0.00     0.046 A 
ATOM     13  C   UNL     1       0.352  -3.684  -0.008  1.00  0.00     0.013 A 
ATOM     14  C   UNL     1      -1.197  -2.748  -1.589  1.00  0.00     0.132 A 
ATOM     15  C   UNL     1       0.233  -4.931  -0.626  1.00  0.00     0.001 A 
ATOM     16  C   UNL     1      -1.331  -3.997  -2.197  1.00  0.00     0.040 A 
ATOM     17  F   UNL     1      -1.887  -1.730  -2.125  1.00  0.00    -0.206 F 
ATOM     18  C   UNL     1      -0.604  -5.086  -1.727  1.00  0.00     0.003 A 
ENDBRANCH   8  12
BRANCH  11  19
ATOM     19  C   UNL     1       2.002  -0.983  -1.557  1.00  0.00     0.229 C 
ATOM     20  O   UNL     1       1.450  -1.659  -2.423  1.00  0.00    -0.275 OA
ATOM     21  N   UNL     1       3.210  -0.458  -1.908  1.00  0.00    -0.355 N 
ATOM     22  H   UNL     1       3.473  -0.613  -2.844  1.00  0.00     0.163 HD
BRANCH  21  23
ATOM     23  C   UNL     1       4.165   0.290  -1.125  1.00  0.00     0.125 C 
BRANCH  23  24
ATOM     24  C   UNL     1       5.571  -0.328  -1.156  1.00  0.00     0.011 C 
ATOM     25  C   UNL     1       6.348   0.108   0.097  1.00  0.00     0.011 C 
ATOM     26  C   UNL     1       5.540  -1.857  -0.981  1.00  0.00     0.011 C 
ATOM     27  C   UNL     1       7.424  -0.952   0.287  1.00  0.00     0.001 C 
ATOM     28  C   UNL     1       6.890  -2.221  -0.374  1.00  0.00     0.001 C 
BRANCH  24  29
ATOM     29  C   UNL     1       6.314   0.091  -2.442  1.00  0.00     0.164 C 
BRANCH  29  30
ATOM     30  O   UNL     1       5.600  -0.311  -3.606  1.00  0.00    -0.396 OA
ATOM     31  H   UNL     1       5.512  -1.277  -3.613  1.00  0.00     0.210 HD
ENDBRANCH  29  30
ENDBRANCH  24  29
ENDBRANCH  23  24
ENDBRANCH  21  23
ENDBRANCH  11  19
ENDBRANCH   1   5
BRANCH   3  32
ATOM     32  C   UNL     1       0.301   1.596  -2.753  1.00  0.00     0.118 C 
BRANCH  32  33
ATOM     33  C   UNL     1      -0.696   1.137  -3.794  1.00  0.00     0.042 C 
BRANCH  33  34
ATOM     34  C   UNL     1      -1.062   2.228  -4.778  1.00  0.00     0.118 C 
BRANCH  34  35
ATOM     35  N   UNL     1       0.073   2.680  -5.577  1.00  0.00    -0.352 N 
ATOM     36  C   UNL     1       0.254   2.663  -6.937  1.00  0.00     0.251 C 
ATOM     37  H   UNL     1       0.824   3.054  -5.061  1.00  0.00     0.163 HD
ATOM     38  O   UNL     1       1.349   2.939  -7.419  1.00  0.00    -0.269 OA
BRANCH  36  39
ATOM     39  C   UNL     1      -0.868   2.289  -7.820  1.00  0.00     0.039 A 
ATOM     40  C   UNL     1      -0.630   1.431  -8.896  1.00  0.00     0.014 A 
ATOM     41  C   UNL     1      -2.156   2.767  -7.573  1.00  0.00     0.014 A 
ATOM     42  C   UNL     1      -1.701   0.991  -9.676  1.00  0.00     0.010 A 
ATOM     43  C   UNL     1      -3.231   2.245  -8.280  1.00  0.00     0.010 A 
ATOM     44  C   UNL     1      -3.015   1.359  -9.345  1.00  0.00    -0.014 A 
BRANCH  44  45
ATOM     45  C   UNL     1      -4.182   0.847 -10.103  1.00  0.00     0.031 A 
ATOM     46  C   UNL     1      -5.087   1.810 -10.822  1.00  0.00     0.074 A 
ATOM     47  C   UNL     1      -4.469  -0.469 -10.087  1.00  0.00     0.049 A 
ATOM     48  N   UNL     1      -6.206   1.574 -11.459  1.00  0.00    -0.248 NA
ATOM     49  C   UNL     1      -4.699   3.231 -10.799  1.00  0.00     0.031 C 
ATOM     50  C   UNL     1      -3.690  -1.502  -9.399  1.00  0.00     0.029 A 
ATOM     51  N   UNL     1      -5.503  -1.163 -10.663  1.00  0.00    -0.354 N 
ATOM     52  C   UNL     1      -6.656   2.813 -11.899  1.00  0.00     0.074 A 
ATOM     53  C   UNL     1      -5.728   3.804 -11.402  1.00  0.00     0.031 C 
ATOM     54  C   UNL     1      -4.259  -2.699  -9.617  1.00  0.00     0.029 A 
ATOM     55  C   UNL     1      -5.467  -2.514 -10.413  1.00  0.00     0.049 A 
ATOM     56  H   UNL     1      -6.206  -0.734 -11.203  1.00  0.00     0.167 HD
ATOM     57  C   UNL     1      -7.731   3.100 -12.670  1.00  0.00     0.031 A 
ATOM     58  C   UNL     1      -6.320  -3.492 -10.774  1.00  0.00     0.031 A 
ATOM     59  C   UNL     1      -8.653   2.114 -13.165  1.00  0.00     0.049 A 
ATOM     60  C   UNL     1      -7.533  -3.139 -11.592  1.00  0.00     0.074 A 
ATOM     61  C   UNL     1      -9.756   2.299 -13.981  1.00  0.00     0.029 A 
ATOM     62  N   UNL     1      -8.579   0.758 -12.890  1.00  0.00    -0.354 N 
ATOM     63  N   UNL     1      -7.912  -1.970 -12.049  1.00  0.00    -0.248 NA
ATOM     64  C   UNL     1      -8.431  -4.246 -11.951  1.00  0.00     0.031 C 
ATOM     65  C   UNL     1     -10.380   1.060 -14.156  1.00  0.00     0.029 A 
ATOM     66  C   UNL     1      -9.629   0.096 -13.504  1.00  0.00     0.049 A 
ATOM     67  H   UNL     1      -7.884   0.329 -12.340  1.00  0.00     0.167 HD
ATOM     68  C   UNL     1      -9.070  -2.207 -12.779  1.00  0.00     0.074 A 
ATOM     69  C   UNL     1      -9.321  -3.632 -12.717  1.00  0.00     0.031 C 
ATOM     70  C   UNL     1      -9.856  -1.325 -13.442  1.00  0.00     0.031 A 
BRANCH  57  71
ATOM     71  C   UNL     1      -7.962   4.543 -13.026  1.00  0.00    -0.014 A 
ATOM     72  C   UNL     1      -7.091   5.223 -13.893  1.00  0.00     0.009 A 
ATOM     73  C   UNL     1      -9.079   5.222 -12.517  1.00  0.00     0.009 A 
ATOM     74  C   UNL     1      -7.314   6.564 -14.213  1.00  0.00     0.001 A 
ATOM     75  C   UNL     1      -9.319   6.552 -12.866  1.00  0.00     0.001 A 
ATOM     76  C   UNL     1      -8.431   7.225 -13.704  1.00  0.00     0.000 A 
ENDBRANCH  57  71
BRANCH  58  77
ATOM     77  C   UNL     1      -6.065  -4.901 -10.370  1.00  0.00    -0.014 A 
ATOM     78  C   UNL     1      -5.753  -5.873 -11.333  1.00  0.00     0.009 A 
ATOM     79  C   UNL     1      -6.166  -5.290  -9.025  1.00  0.00     0.009 A 
ATOM     80  C   UNL     1      -5.587  -7.210 -10.964  1.00  0.00     0.001 A 
ATOM     81  C   UNL     1      -5.965  -6.621  -8.654  1.00  0.00     0.001 A 
ATOM     82  C   UNL     1      -5.690  -7.582  -9.625  1.00  0.00     0.000 A 
ENDBRANCH  58  77
BRANCH  70  83
ATOM     83  C   UNL     1     -11.030  -1.879 -14.200  1.00  0.00    -0.014 A 
ATOM     84  C   UNL     1     -12.159  -2.383 -13.538  1.00  0.00     0.009 A 
ATOM     85  C   UNL     1     -11.020  -1.851 -15.604  1.00  0.00     0.009 A 
ATOM     86  C   UNL     1     -13.241  -2.880 -14.269  1.00  0.00     0.001 A 
ATOM     87  C   UNL     1     -12.116  -2.317 -16.331  1.00  0.00     0.001 A 
ATOM     88  C   UNL     1     -13.221  -2.840 -15.663  1.00  0.00     0.000 A 
ENDBRANCH  70  83
ENDBRANCH  44  45
ENDBRANCH  36  39
ENDBRANCH  34  35
ENDBRANCH  33  34
ENDBRANCH  32  33
ENDBRANCH   3  32
TORSDOF 16
