REMARK SMILES CCc1ccc(C(=O)NCCCNC(=O)c2ccc(-c3c4nc(c(-c5ccccc5)c5ccc([nH]5)c(-c5ccccc5)c5nc(c(-c6ccccc6)c6ccc3[nH]6)C=C5)C=C4)cc2)cc1S(=O)(=O)Nc1ccc(F)c(F)c1F
REMARK SMILES IDX 10 1 9 2 7 3 8 4 6 6 3 7 4 8 65 9 5 10 64 11 2 12 1 13 66 14
REMARK SMILES IDX 67 15 68 16 69 17 70 19 71 20 77 21 72 22 75 23 78 24 73 25
REMARK SMILES IDX 76 26 74 27 11 28 12 29 13 30 14 31 15 33 16 34 17 35 63 36
REMARK SMILES IDX 18 37 62 38 19 39 20 40 21 41 56 42 22 43 61 44 55 45 57 46
REMARK SMILES IDX 23 47 60 48 54 49 53 50 24 52 46 53 31 54 45 55 32 56 35 57
REMARK SMILES IDX 44 58 58 59 33 60 34 61 43 63 59 64 36 65 25 66 26 67 30 68
REMARK SMILES IDX 27 69 29 70 28 71 47 72 48 73 52 74 49 75 51 76 50 77 37 78
REMARK SMILES IDX 38 79 42 80 39 81 41 82 40 83
REMARK H PARENT 9 5 69 18 13 32 57 51 35 62
REMARK Flexibility Score: inf
ROOT
ATOM      1  C   UNL     1       1.849   4.091  -6.502  1.00  0.00     0.118 C 
ENDROOT
BRANCH   1   2
ATOM      2  N   UNL     1       2.548   2.874  -6.868  1.00  0.00    -0.352 N 
ATOM      3  C   UNL     1       2.746   1.696  -6.207  1.00  0.00     0.251 C 
ATOM      4  O   UNL     1       3.430   0.829  -6.748  1.00  0.00    -0.269 OA
ATOM      5  H   UNL     1       2.957   2.902  -7.763  1.00  0.00     0.163 HD
BRANCH   3   6
ATOM      6  C   UNL     1       2.090   1.393  -4.915  1.00  0.00     0.041 A 
ATOM      7  C   UNL     1       0.778   0.632  -2.518  1.00  0.00    -0.028 A 
ATOM      8  C   UNL     1       0.954  -0.267  -3.593  1.00  0.00     0.006 A 
ATOM      9  C   UNL     1       1.237   1.957  -2.679  1.00  0.00     0.091 A 
ATOM     10  C   UNL     1       1.601   0.101  -4.766  1.00  0.00     0.014 A 
ATOM     11  C   UNL     1       1.938   2.298  -3.865  1.00  0.00     0.036 A 
BRANCH   7  12
ATOM     12  C   UNL     1       0.102   0.064  -1.306  1.00  0.00     0.033 C 
ATOM     13  C   UNL     1       0.595  -1.302  -0.832  1.00  0.00     0.009 C 
ENDBRANCH   7  12
BRANCH   9  14
ATOM     14  S   UNL     1       0.991   3.404  -1.624  1.00  0.00     0.262 S 
ATOM     15  O   UNL     1       2.258   3.706  -1.004  1.00  0.00    -0.201 OA
ATOM     16  O   UNL     1       0.395   4.382  -2.521  1.00  0.00    -0.201 OA
BRANCH  14  17
ATOM     17  N   UNL     1      -0.212   3.200  -0.489  1.00  0.00    -0.277 N 
ATOM     18  H   UNL     1      -1.075   3.617  -0.711  1.00  0.00     0.180 HD
BRANCH  17  19
ATOM     19  C   UNL     1      -0.172   2.507   0.759  1.00  0.00     0.088 A 
ATOM     20  C   UNL     1      -1.424   2.063   1.222  1.00  0.00     0.033 A 
ATOM     21  C   UNL     1       0.980   2.090   1.445  1.00  0.00     0.185 A 
ATOM     22  C   UNL     1      -1.512   1.132   2.260  1.00  0.00     0.045 A 
ATOM     23  C   UNL     1       0.887   1.164   2.480  1.00  0.00     0.196 A 
ATOM     24  F   UNL     1       2.203   2.479   1.075  1.00  0.00    -0.201 F 
ATOM     25  C   UNL     1      -0.350   0.669   2.865  1.00  0.00     0.162 A 
ATOM     26  F   UNL     1       2.003   0.695   3.058  1.00  0.00    -0.200 F 
ATOM     27  F   UNL     1      -0.434  -0.285   3.800  1.00  0.00    -0.204 F 
ENDBRANCH  17  19
ENDBRANCH  14  17
ENDBRANCH   9  14
ENDBRANCH   3   6
ENDBRANCH   1   2
BRANCH   1  28
ATOM     28  C   UNL     1       2.849   5.177  -6.111  1.00  0.00     0.042 C 
BRANCH  28  29
ATOM     29  C   UNL     1       3.748   5.606  -7.268  1.00  0.00     0.118 C 
BRANCH  29  30
ATOM     30  N   UNL     1       3.001   6.272  -8.324  1.00  0.00    -0.352 N 
ATOM     31  C   UNL     1       3.249   7.475  -8.932  1.00  0.00     0.251 C 
ATOM     32  H   UNL     1       2.206   5.790  -8.648  1.00  0.00     0.163 HD
ATOM     33  O   UNL     1       2.401   7.985  -9.657  1.00  0.00    -0.269 OA
BRANCH  31  34
ATOM     34  C   UNL     1       4.536   8.161  -8.706  1.00  0.00     0.039 A 
ATOM     35  C   UNL     1       4.532   9.534  -8.451  1.00  0.00     0.014 A 
ATOM     36  C   UNL     1       5.743   7.459  -8.781  1.00  0.00     0.014 A 
ATOM     37  C   UNL     1       5.738  10.200  -8.232  1.00  0.00     0.010 A 
ATOM     38  C   UNL     1       6.941   8.111  -8.505  1.00  0.00     0.010 A 
ATOM     39  C   UNL     1       6.949   9.489  -8.239  1.00  0.00    -0.014 A 
BRANCH  39  40
ATOM     40  C   UNL     1       8.239  10.175  -7.990  1.00  0.00     0.031 A 
ATOM     41  C   UNL     1       9.258  10.282  -9.091  1.00  0.00     0.074 A 
ATOM     42  C   UNL     1       8.514  10.651  -6.761  1.00  0.00     0.049 A 
ATOM     43  N   UNL     1      10.465  10.787  -9.052  1.00  0.00    -0.248 NA
ATOM     44  C   UNL     1       8.879   9.729 -10.402  1.00  0.00     0.031 C 
ATOM     45  C   UNL     1       7.620  10.577  -5.603  1.00  0.00     0.029 A 
ATOM     46  N   UNL     1       9.631  11.285  -6.281  1.00  0.00    -0.354 N 
ATOM     47  C   UNL     1      10.994  10.595 -10.321  1.00  0.00     0.074 A 
ATOM     48  C   UNL     1       9.995   9.892 -11.097  1.00  0.00     0.031 C 
ATOM     49  C   UNL     1       8.217  11.162  -4.552  1.00  0.00     0.029 A 
ATOM     50  C   UNL     1       9.544  11.619  -4.951  1.00  0.00     0.049 A 
ATOM     51  H   UNL     1      10.420  11.482  -6.835  1.00  0.00     0.167 HD
ATOM     52  C   UNL     1      12.198  10.983 -10.804  1.00  0.00     0.031 A 
ATOM     53  C   UNL     1      10.437  12.220  -4.144  1.00  0.00     0.031 A 
ATOM     54  C   UNL     1      13.185  11.695 -10.038  1.00  0.00     0.049 A 
ATOM     55  C   UNL     1      11.767  12.639  -4.705  1.00  0.00     0.074 A 
ATOM     56  C   UNL     1      14.415  12.177 -10.451  1.00  0.00     0.029 A 
ATOM     57  N   UNL     1      13.051  12.029  -8.700  1.00  0.00    -0.354 N 
ATOM     58  N   UNL     1      12.229  12.502  -5.923  1.00  0.00    -0.248 NA
ATOM     59  C   UNL     1      12.693  13.306  -3.779  1.00  0.00     0.031 C 
ATOM     60  C   UNL     1      15.042  12.771  -9.350  1.00  0.00     0.029 A 
ATOM     61  C   UNL     1      14.182  12.698  -8.266  1.00  0.00     0.049 A 
ATOM     62  H   UNL     1      12.268  11.821  -8.141  1.00  0.00     0.167 HD
ATOM     63  C   UNL     1      13.488  13.089  -5.918  1.00  0.00     0.074 A 
ATOM     64  C   UNL     1      13.709  13.596  -4.579  1.00  0.00     0.031 C 
ATOM     65  C   UNL     1      14.381  13.198  -6.931  1.00  0.00     0.031 A 
BRANCH  52  66
ATOM     66  C   UNL     1      12.514  10.641 -12.233  1.00  0.00    -0.014 A 
ATOM     67  C   UNL     1      11.876  11.302 -13.295  1.00  0.00     0.009 A 
ATOM     68  C   UNL     1      13.487   9.672 -12.522  1.00  0.00     0.009 A 
ATOM     69  C   UNL     1      12.182  10.975 -14.617  1.00  0.00     0.001 A 
ATOM     70  C   UNL     1      13.810   9.366 -13.845  1.00  0.00     0.001 A 
ATOM     71  C   UNL     1      13.152  10.011 -14.891  1.00  0.00     0.000 A 
ENDBRANCH  52  66
BRANCH  53  72
ATOM     72  C   UNL     1      10.100  12.478  -2.721  1.00  0.00    -0.014 A 
ATOM     73  C   UNL     1       9.854  13.786  -2.275  1.00  0.00     0.009 A 
ATOM     74  C   UNL     1      10.031  11.422  -1.799  1.00  0.00     0.009 A 
ATOM     75  C   UNL     1       9.573  14.034  -0.930  1.00  0.00     0.001 A 
ATOM     76  C   UNL     1       9.724  11.670  -0.460  1.00  0.00     0.001 A 
ATOM     77  C   UNL     1       9.506  12.976  -0.024  1.00  0.00     0.000 A 
ENDBRANCH  53  72
BRANCH  65  78
ATOM     78  C   UNL     1      15.661  13.925  -6.638  1.00  0.00    -0.014 A 
ATOM     79  C   UNL     1      16.673  13.334  -5.866  1.00  0.00     0.009 A 
ATOM     80  C   UNL     1      15.870  15.205  -7.176  1.00  0.00     0.009 A 
ATOM     81  C   UNL     1      17.859  14.025  -5.613  1.00  0.00     0.001 A 
ATOM     82  C   UNL     1      17.067  15.882  -6.942  1.00  0.00     0.001 A 
ATOM     83  C   UNL     1      18.056  15.296  -6.154  1.00  0.00     0.000 A 
ENDBRANCH  65  78
ENDBRANCH  39  40
ENDBRANCH  31  34
ENDBRANCH  29  30
ENDBRANCH  28  29
ENDBRANCH   1  28
TORSDOF 14
