REMARK SMILES COc1ccc2c(c1)c(CC(=O)NCCCNC(=O)c1ccc(-c3c4nc(c(-c5ccccc5)c5ccc([nH]5)c(-c5ccccc5)c5nc(c(-c6ccccc6)c6ccc3[nH]6)C=C5)C=C4)cc1)c(C(F)(F)F)n2C(=O)c1ccc(Cl)cc1
REMARK SMILES IDX 14 1 13 2 11 3 12 4 10 6 9 7 3 8 4 9 8 10 5 11 7 12 6 13
REMARK SMILES IDX 73 14 68 15 2 16 1 17 74 18 75 19 76 20 77 21 82 22 78 23
REMARK SMILES IDX 81 24 79 25 80 26 69 27 70 28 71 29 72 30 15 31 16 32 17 33
REMARK SMILES IDX 18 34 19 36 20 37 21 38 67 39 22 40 66 41 23 42 24 43 25 44
REMARK SMILES IDX 60 45 26 46 65 47 59 48 61 49 27 50 64 51 58 52 57 53 28 55
REMARK SMILES IDX 50 56 35 57 49 58 36 59 39 60 48 61 62 62 37 63 38 64 47 66
REMARK SMILES IDX 63 67 40 68 29 69 30 70 34 71 31 72 33 73 32 74 51 75 52 76
REMARK SMILES IDX 56 77 53 78 55 79 54 80 41 81 42 82 46 83 43 84 45 85 44 86
REMARK H PARENT 13 5 17 35 61 54 39 65
REMARK Flexibility Score: inf
ROOT
ATOM      1  C   UNL     1      -0.891  -3.994  -6.892  1.00  0.00     0.117 C 
ENDROOT
BRANCH   1   2
ATOM      2  N   UNL     1      -1.802  -3.786  -5.781  1.00  0.00    -0.356 N 
ATOM      3  C   UNL     1      -2.315  -2.624  -5.285  1.00  0.00     0.224 C 
ATOM      4  O   UNL     1      -3.085  -2.691  -4.325  1.00  0.00    -0.275 OA
ATOM      5  H   UNL     1      -2.093  -4.605  -5.318  1.00  0.00     0.163 HD
BRANCH   3   6
ATOM      6  C   UNL     1      -1.976  -1.295  -5.940  1.00  0.00     0.138 C 
BRANCH   6   7
ATOM      7  C   UNL     1      -0.531  -0.904  -5.792  1.00  0.00     0.000 A 
ATOM      8  C   UNL     1       0.743  -0.745  -2.196  1.00  0.00     0.119 A 
ATOM      9  C   UNL     1       2.012  -0.286  -2.508  1.00  0.00     0.048 A 
ATOM     10  C   UNL     1      -0.170  -1.006  -3.219  1.00  0.00     0.057 A 
ATOM     11  C   UNL     1       2.386  -0.064  -3.837  1.00  0.00     0.031 A 
ATOM     12  C   UNL     1       0.188  -0.798  -4.570  1.00  0.00     0.008 A 
ATOM     13  C   UNL     1       1.482  -0.362  -4.875  1.00  0.00     0.057 A 
ATOM     14  N   UNL     1       1.614  -0.380  -6.274  1.00  0.00    -0.271 N 
ATOM     15  C   UNL     1       0.329  -0.490  -6.807  1.00  0.00     0.135 A 
BRANCH   8  16
ATOM     16  O   UNL     1       0.305  -1.001  -0.926  1.00  0.00    -0.497 OA
ATOM     17  C   UNL     1       0.790  -0.095   0.061  1.00  0.00     0.278 C 
ENDBRANCH   8  16
BRANCH  14  18
ATOM     18  C   UNL     1       2.830  -0.355  -7.009  1.00  0.00     0.262 C 
ATOM     19  O   UNL     1       2.779  -0.593  -8.217  1.00  0.00    -0.268 OA
BRANCH  18  20
ATOM     20  C   UNL     1       4.167  -0.136  -6.432  1.00  0.00     0.040 A 
ATOM     21  C   UNL     1       4.786  -1.150  -5.691  1.00  0.00     0.015 A 
ATOM     22  C   UNL     1       4.774   1.116  -6.580  1.00  0.00     0.015 A 
ATOM     23  C   UNL     1       5.981  -0.876  -5.020  1.00  0.00     0.021 A 
ATOM     24  C   UNL     1       5.976   1.378  -5.917  1.00  0.00     0.021 A 
ATOM     25  C   UNL     1       6.562   0.390  -5.124  1.00  0.00     0.041 A 
ATOM     26  Cl  UNL     1       7.996   0.743  -4.243  1.00  0.00    -0.084 Cl
ENDBRANCH  18  20
ENDBRANCH  14  18
BRANCH  15  27
ATOM     27  C   UNL     1       0.004  -0.233  -8.242  1.00  0.00     0.432 C 
ATOM     28  F   UNL     1      -0.010  -1.378  -8.967  1.00  0.00    -0.165 F 
ATOM     29  F   UNL     1      -1.252   0.290  -8.343  1.00  0.00    -0.165 F 
ATOM     30  F   UNL     1       0.806   0.664  -8.856  1.00  0.00    -0.165 F 
ENDBRANCH  15  27
ENDBRANCH   6   7
ENDBRANCH   3   6
ENDBRANCH   1   2
BRANCH   1  31
ATOM     31  C   UNL     1       0.487  -4.474  -6.429  1.00  0.00     0.042 C 
BRANCH  31  32
ATOM     32  C   UNL     1       0.449  -5.839  -5.739  1.00  0.00     0.118 C 
BRANCH  32  33
ATOM     33  N   UNL     1      -0.173  -6.869  -6.547  1.00  0.00    -0.352 N 
ATOM     34  C   UNL     1       0.258  -7.801  -7.444  1.00  0.00     0.251 C 
ATOM     35  H   UNL     1      -1.148  -6.905  -6.416  1.00  0.00     0.163 HD
ATOM     36  O   UNL     1      -0.607  -8.567  -7.877  1.00  0.00    -0.269 OA
BRANCH  34  37
ATOM     37  C   UNL     1       1.636  -7.908  -7.987  1.00  0.00     0.039 A 
ATOM     38  C   UNL     1       2.700  -7.055  -7.694  1.00  0.00     0.014 A 
ATOM     39  C   UNL     1       1.813  -8.898  -8.974  1.00  0.00     0.014 A 
ATOM     40  C   UNL     1       3.846  -7.078  -8.480  1.00  0.00     0.010 A 
ATOM     41  C   UNL     1       2.961  -8.941  -9.745  1.00  0.00     0.010 A 
ATOM     42  C   UNL     1       3.932  -7.967  -9.554  1.00  0.00    -0.014 A 
BRANCH  42  43
ATOM     43  C   UNL     1       5.054  -7.840 -10.471  1.00  0.00     0.031 A 
ATOM     44  C   UNL     1       6.400  -8.058  -9.876  1.00  0.00     0.074 A 
ATOM     45  C   UNL     1       4.879  -7.618 -11.789  1.00  0.00     0.049 A 
ATOM     46  N   UNL     1       7.391  -7.230  -9.826  1.00  0.00    -0.248 NA
ATOM     47  C   UNL     1       6.638  -9.322  -9.161  1.00  0.00     0.031 C 
ATOM     48  C   UNL     1       3.636  -7.628 -12.568  1.00  0.00     0.029 A 
ATOM     49  N   UNL     1       5.828  -7.445 -12.746  1.00  0.00    -0.354 N 
ATOM     50  C   UNL     1       8.432  -7.903  -9.191  1.00  0.00     0.074 A 
ATOM     51  C   UNL     1       7.880  -9.145  -8.710  1.00  0.00     0.031 C 
ATOM     52  C   UNL     1       3.934  -7.742 -13.883  1.00  0.00     0.029 A 
ATOM     53  C   UNL     1       5.375  -7.650 -14.041  1.00  0.00     0.049 A 
ATOM     54  H   UNL     1       6.757  -7.195 -12.538  1.00  0.00     0.167 HD
ATOM     55  C   UNL     1       9.721  -7.466  -9.239  1.00  0.00     0.031 A 
ATOM     56  C   UNL     1       6.148  -7.817 -15.144  1.00  0.00     0.031 A 
ATOM     57  C   UNL     1       9.814  -6.094  -9.655  1.00  0.00     0.049 A 
ATOM     58  C   UNL     1       7.479  -7.237 -14.838  1.00  0.00     0.074 A 
ATOM     59  C   UNL     1       9.389  -4.896  -9.116  1.00  0.00     0.029 A 
ATOM     60  N   UNL     1      10.078  -5.838 -10.979  1.00  0.00    -0.354 N 
ATOM     61  N   UNL     1       7.671  -5.964 -14.636  1.00  0.00    -0.248 NA
ATOM     62  C   UNL     1       8.493  -8.120 -14.282  1.00  0.00     0.031 C 
ATOM     63  C   UNL     1       8.925  -4.144 -10.233  1.00  0.00     0.029 A 
ATOM     64  C   UNL     1       9.169  -4.893 -11.386  1.00  0.00     0.049 A 
ATOM     65  H   UNL     1      10.783  -6.251 -11.529  1.00  0.00     0.167 HD
ATOM     66  C   UNL     1       8.562  -5.906 -13.575  1.00  0.00     0.074 A 
ATOM     67  C   UNL     1       9.095  -7.264 -13.451  1.00  0.00     0.031 C 
ATOM     68  C   UNL     1       8.575  -4.852 -12.705  1.00  0.00     0.031 A 
BRANCH  55  69
ATOM     69  C   UNL     1      10.916  -8.375  -9.197  1.00  0.00    -0.014 A 
ATOM     70  C   UNL     1      10.833  -9.748  -9.499  1.00  0.00     0.009 A 
ATOM     71  C   UNL     1      12.205  -7.820  -9.111  1.00  0.00     0.009 A 
ATOM     72  C   UNL     1      11.972 -10.530  -9.708  1.00  0.00     0.001 A 
ATOM     73  C   UNL     1      13.347  -8.592  -9.358  1.00  0.00     0.001 A 
ATOM     74  C   UNL     1      13.229  -9.946  -9.660  1.00  0.00     0.000 A 
ENDBRANCH  55  69
BRANCH  56  75
ATOM     75  C   UNL     1       5.955  -8.845 -16.196  1.00  0.00    -0.014 A 
ATOM     76  C   UNL     1       5.304 -10.055 -15.886  1.00  0.00     0.009 A 
ATOM     77  C   UNL     1       6.648  -8.774 -17.414  1.00  0.00     0.009 A 
ATOM     78  C   UNL     1       5.374 -11.163 -16.736  1.00  0.00     0.001 A 
ATOM     79  C   UNL     1       6.717  -9.885 -18.269  1.00  0.00     0.001 A 
ATOM     80  C   UNL     1       6.094 -11.082 -17.922  1.00  0.00     0.000 A 
ENDBRANCH  56  75
BRANCH  68  81
ATOM     81  C   UNL     1       7.680  -3.664 -12.989  1.00  0.00    -0.014 A 
ATOM     82  C   UNL     1       8.242  -2.379 -12.939  1.00  0.00     0.009 A 
ATOM     83  C   UNL     1       6.279  -3.769 -13.075  1.00  0.00     0.009 A 
ATOM     84  C   UNL     1       7.434  -1.239 -12.950  1.00  0.00     0.001 A 
ATOM     85  C   UNL     1       5.471  -2.626 -13.110  1.00  0.00     0.001 A 
ATOM     86  C   UNL     1       6.049  -1.362 -13.034  1.00  0.00     0.000 A 
ENDBRANCH  68  81
ENDBRANCH  42  43
ENDBRANCH  34  37
ENDBRANCH  32  33
ENDBRANCH  31  32
ENDBRANCH   1  31
TORSDOF 15
