REMARK SMILES CNC(=O)CC[NH+]1CCC(CC(=O)NCCCNC(=O)c2ccc(-c3c4nc(c(-c5ccccc5)c5ccc([nH]5)c(-c5ccccc5)c5nc(c(-c6ccccc6)c6ccc3[nH]6)C=C5)C=C4)cc2)CC1
REMARK SMILES IDX 15 1 14 2 12 3 13 4 11 6 10 7 7 8 8 9 70 10 9 12 69 13 6 14
REMARK SMILES IDX 5 15 3 16 1 17 2 18 4 20 16 21 17 22 18 23 19 24 20 26 21 27
REMARK SMILES IDX 22 28 68 29 23 30 67 31 24 32 25 33 26 34 61 35 27 36 66 37
REMARK SMILES IDX 60 38 62 39 28 40 65 41 59 42 58 43 29 45 51 46 36 47 50 48
REMARK SMILES IDX 37 49 40 50 49 51 63 52 38 53 39 54 48 56 64 57 41 58 30 59
REMARK SMILES IDX 31 60 35 61 32 62 34 63 33 64 52 65 53 66 57 67 54 68 56 69
REMARK SMILES IDX 55 70 42 71 43 72 47 73 44 74 46 75 45 76
REMARK H PARENT 14 5 7 11 2 19 18 25 62 44 40 55
REMARK Flexibility Score: inf
ROOT
ATOM      1  C   UNL     1       2.743  -3.097  -0.978  1.00  0.00     0.117 C 
ENDROOT
BRANCH   1   2
ATOM      2  N   UNL     1       2.202  -2.937  -2.318  1.00  0.00    -0.356 N 
ATOM      3  C   UNL     1       2.263  -1.877  -3.175  1.00  0.00     0.220 C 
ATOM      4  O   UNL     1       1.660  -1.966  -4.246  1.00  0.00    -0.275 OA
ATOM      5  H   UNL     1       1.714  -3.720  -2.663  1.00  0.00     0.163 HD
BRANCH   3   6
ATOM      6  C   UNL     1       3.024  -0.609  -2.811  1.00  0.00     0.104 C 
BRANCH   6   7
ATOM      7  C   UNL     1       2.179   0.327  -1.936  1.00  0.00     0.009 C 
ATOM      8  N   UNL     1       1.498   2.581  -0.188  1.00  0.00    -0.334 N 
ATOM      9  C   UNL     1       1.780   1.247   0.339  1.00  0.00     0.262 C 
ATOM     10  C   UNL     1       1.128   2.601  -1.610  1.00  0.00     0.262 C 
ATOM     11  H   UNL     1       2.383   3.087  -0.151  1.00  0.00     0.348 HD
ATOM     12  C   UNL     1       2.764   0.478  -0.528  1.00  0.00     0.066 C 
ATOM     13  C   UNL     1       2.055   1.752  -2.499  1.00  0.00     0.066 C 
BRANCH   8  14
ATOM     14  C   UNL     1       0.534   3.310   0.668  1.00  0.00     0.272 C 
BRANCH  14  15
ATOM     15  C   UNL     1      -0.823   2.628   0.933  1.00  0.00     0.161 C 
BRANCH  15  16
ATOM     16  C   UNL     1      -0.799   1.758   2.177  1.00  0.00     0.225 C 
ATOM     17  C   UNL     1      -1.788  -0.270   1.008  1.00  0.00     0.142 C 
ATOM     18  N   UNL     1      -1.256   0.473   2.125  1.00  0.00    -0.359 N 
ATOM     19  H   UNL     1      -1.218  -0.020   2.976  1.00  0.00     0.163 HD
ATOM     20  O   UNL     1      -0.388   2.183   3.257  1.00  0.00    -0.275 OA
ENDBRANCH  15  16
ENDBRANCH  14  15
ENDBRANCH   8  14
ENDBRANCH   6   7
ENDBRANCH   3   6
ENDBRANCH   1   2
BRANCH   1  21
ATOM     21  C   UNL     1       1.688  -2.809   0.095  1.00  0.00     0.042 C 
BRANCH  21  22
ATOM     22  C   UNL     1       0.820  -4.014   0.460  1.00  0.00     0.118 C 
BRANCH  22  23
ATOM     23  N   UNL     1       1.459  -4.855   1.462  1.00  0.00    -0.352 N 
ATOM     24  C   UNL     1       1.115  -5.153   2.759  1.00  0.00     0.251 C 
ATOM     25  H   UNL     1       2.287  -5.288   1.155  1.00  0.00     0.163 HD
ATOM     26  O   UNL     1       1.951  -5.713   3.465  1.00  0.00    -0.269 OA
BRANCH  24  27
ATOM     27  C   UNL     1      -0.217  -4.830   3.340  1.00  0.00     0.039 A 
ATOM     28  C   UNL     1      -0.285  -4.553   4.714  1.00  0.00     0.014 A 
ATOM     29  C   UNL     1      -1.405  -4.905   2.610  1.00  0.00     0.014 A 
ATOM     30  C   UNL     1      -1.519  -4.327   5.338  1.00  0.00     0.010 A 
ATOM     31  C   UNL     1      -2.633  -4.616   3.220  1.00  0.00     0.010 A 
ATOM     32  C   UNL     1      -2.708  -4.338   4.594  1.00  0.00    -0.014 A 
BRANCH  32  33
ATOM     33  C   UNL     1      -4.026  -4.089   5.244  1.00  0.00     0.031 A 
ATOM     34  C   UNL     1      -5.073  -5.172   5.305  1.00  0.00     0.074 A 
ATOM     35  C   UNL     1      -4.311  -2.873   5.751  1.00  0.00     0.049 A 
ATOM     36  N   UNL     1      -6.296  -5.115   5.774  1.00  0.00    -0.248 NA
ATOM     37  C   UNL     1      -4.705  -6.485   4.751  1.00  0.00     0.031 C 
ATOM     38  C   UNL     1      -3.409  -1.720   5.751  1.00  0.00     0.029 A 
ATOM     39  N   UNL     1      -5.450  -2.404   6.361  1.00  0.00    -0.354 N 
ATOM     40  C   UNL     1      -6.850  -6.369   5.547  1.00  0.00     0.074 A 
ATOM     41  C   UNL     1      -5.841  -7.158   4.873  1.00  0.00     0.031 C 
ATOM     42  C   UNL     1      -4.023  -0.683   6.346  1.00  0.00     0.029 A 
ATOM     43  C   UNL     1      -5.370  -1.085   6.739  1.00  0.00     0.049 A 
ATOM     44  H   UNL     1      -6.248  -2.960   6.512  1.00  0.00     0.167 HD
ATOM     45  C   UNL     1      -8.081  -6.831   5.876  1.00  0.00     0.031 A 
ATOM     46  C   UNL     1      -6.277  -0.283   7.329  1.00  0.00     0.031 A 
ATOM     47  C   UNL     1      -9.084  -6.073   6.576  1.00  0.00     0.049 A 
ATOM     48  C   UNL     1      -7.634  -0.821   7.688  1.00  0.00     0.074 A 
ATOM     49  C   UNL     1     -10.333  -6.490   7.009  1.00  0.00     0.029 A 
ATOM     50  N   UNL     1      -8.955  -4.746   6.949  1.00  0.00    -0.354 N 
ATOM     51  N   UNL     1      -8.118  -2.025   7.511  1.00  0.00    -0.248 NA
ATOM     52  C   UNL     1      -8.567   0.115   8.336  1.00  0.00     0.031 C 
ATOM     53  C   UNL     1     -10.976  -5.401   7.609  1.00  0.00     0.029 A 
ATOM     54  C   UNL     1     -10.110  -4.321   7.586  1.00  0.00     0.049 A 
ATOM     55  H   UNL     1      -8.161  -4.188   6.786  1.00  0.00     0.167 HD
ATOM     56  C   UNL     1      -9.401  -1.998   8.045  1.00  0.00     0.074 A 
ATOM     57  C   UNL     1      -9.615  -0.664   8.564  1.00  0.00     0.031 C 
ATOM     58  C   UNL     1     -10.317  -2.994   8.100  1.00  0.00     0.031 A 
BRANCH  45  59
ATOM     59  C   UNL     1      -8.425  -8.237   5.470  1.00  0.00    -0.014 A 
ATOM     60  C   UNL     1      -7.882  -9.342   6.142  1.00  0.00     0.009 A 
ATOM     61  C   UNL     1      -9.348  -8.455   4.434  1.00  0.00     0.009 A 
ATOM     62  C   UNL     1      -8.232 -10.640   5.763  1.00  0.00     0.001 A 
ATOM     63  C   UNL     1      -9.714  -9.753   4.074  1.00  0.00     0.001 A 
ATOM     64  C   UNL     1      -9.150 -10.844   4.733  1.00  0.00     0.000 A 
ENDBRANCH  45  59
BRANCH  46  65
ATOM     65  C   UNL     1      -5.932   1.130   7.628  1.00  0.00    -0.014 A 
ATOM     66  C   UNL     1      -5.701   1.541   8.949  1.00  0.00     0.009 A 
ATOM     67  C   UNL     1      -5.845   2.075   6.595  1.00  0.00     0.009 A 
ATOM     68  C   UNL     1      -5.412   2.878   9.232  1.00  0.00     0.001 A 
ATOM     69  C   UNL     1      -5.532   3.405   6.879  1.00  0.00     0.001 A 
ATOM     70  C   UNL     1      -5.324   3.807   8.197  1.00  0.00     0.000 A 
ENDBRANCH  46  65
BRANCH  58  71
ATOM     71  C   UNL     1     -11.627  -2.689   8.768  1.00  0.00    -0.014 A 
ATOM     72  C   UNL     1     -12.602  -1.908   8.130  1.00  0.00     0.009 A 
ATOM     73  C   UNL     1     -11.901  -3.219  10.039  1.00  0.00     0.009 A 
ATOM     74  C   UNL     1     -13.817  -1.640   8.765  1.00  0.00     0.001 A 
ATOM     75  C   UNL     1     -13.125  -2.968  10.661  1.00  0.00     0.001 A 
ATOM     76  C   UNL     1     -14.079  -2.173  10.027  1.00  0.00     0.000 A 
ENDBRANCH  58  71
ENDBRANCH  32  33
ENDBRANCH  24  27
ENDBRANCH  22  23
ENDBRANCH  21  22
ENDBRANCH   1  21
TORSDOF 14
