REMARK SMILES O=C(NCCCNC(=O)[C@]12COc3ccccc3[C@H]1C[N@H+](CCO)C2)c1ccc(-c2c3nc(c(-c4ccccc4)c4ccc([nH]4)c(-c4ccccc4)c4nc(c(-c5ccccc5)c5ccc2[nH]5)C=C4)C=C3)cc1
REMARK SMILES IDX 5 1 4 2 3 3 1 4 2 5 26 7 27 8 73 9 28 10 72 11 29 12 30 13
REMARK SMILES IDX 31 14 66 15 32 16 71 17 65 18 67 19 33 20 70 21 64 22 63 23
REMARK SMILES IDX 34 25 56 26 41 27 55 28 42 29 45 30 54 31 68 32 43 33 44 34
REMARK SMILES IDX 53 36 69 37 46 38 35 39 36 40 40 41 37 42 39 43 38 44 57 45
REMARK SMILES IDX 58 46 62 47 59 48 61 49 60 50 47 51 48 52 52 53 49 54 51 55
REMARK SMILES IDX 50 56 6 57 7 58 8 59 9 61 10 62 11 63 19 64 25 65 12 66
REMARK SMILES IDX 18 67 20 68 21 69 13 70 17 71 14 73 16 74 15 75 22 76 23 77
REMARK SMILES IDX 24 78
REMARK H PARENT 3 6 67 24 45 35 7 60 21 72 24 79
REMARK Flexibility Score: inf
ROOT
ATOM      1  C   UNL     1       4.457   0.976  -2.213  1.00  0.00     0.042 C 
ENDROOT
BRANCH   1   2
ATOM      2  C   UNL     1       4.234   1.238  -0.734  1.00  0.00     0.118 C 
BRANCH   2   3
ATOM      3  N   UNL     1       2.845   1.075  -0.344  1.00  0.00    -0.352 N 
ATOM      4  O   UNL     1       0.979   0.034   0.328  1.00  0.00    -0.269 OA
ATOM      5  C   UNL     1       2.215   0.051   0.312  1.00  0.00     0.251 C 
ATOM      6  H   UNL     1       2.259   1.826  -0.593  1.00  0.00     0.163 HD
BRANCH   5   7
ATOM      7  C   UNL     1       2.961  -1.034   0.991  1.00  0.00     0.039 A 
ATOM      8  C   UNL     1       2.402  -2.317   1.007  1.00  0.00     0.014 A 
ATOM      9  C   UNL     1       4.146  -0.798   1.694  1.00  0.00     0.014 A 
ATOM     10  C   UNL     1       3.033  -3.351   1.703  1.00  0.00     0.010 A 
ATOM     11  C   UNL     1       4.828  -1.852   2.304  1.00  0.00     0.010 A 
ATOM     12  C   UNL     1       4.261  -3.132   2.349  1.00  0.00    -0.014 A 
BRANCH  12  13
ATOM     13  C   UNL     1       4.917  -4.219   3.122  1.00  0.00     0.031 A 
ATOM     14  C   UNL     1       5.096  -4.095   4.613  1.00  0.00     0.074 A 
ATOM     15  C   UNL     1       5.353  -5.324   2.487  1.00  0.00     0.049 A 
ATOM     16  N   UNL     1       5.606  -4.957   5.457  1.00  0.00    -0.248 NA
ATOM     17  C   UNL     1       4.667  -2.833   5.236  1.00  0.00     0.031 C 
ATOM     18  C   UNL     1       5.277  -5.552   1.044  1.00  0.00     0.029 A 
ATOM     19  N   UNL     1       5.931  -6.469   2.977  1.00  0.00    -0.354 N 
ATOM     20  C   UNL     1       5.560  -4.341   6.702  1.00  0.00     0.074 A 
ATOM     21  C   UNL     1       5.042  -3.008   6.494  1.00  0.00     0.031 C 
ATOM     22  C   UNL     1       5.740  -6.782   0.771  1.00  0.00     0.029 A 
ATOM     23  C   UNL     1       6.177  -7.415   2.012  1.00  0.00     0.049 A 
ATOM     24  H   UNL     1       6.148  -6.599   3.928  1.00  0.00     0.167 HD
ATOM     25  C   UNL     1       5.886  -4.847   7.915  1.00  0.00     0.031 A 
ATOM     26  C   UNL     1       6.682  -8.660   2.111  1.00  0.00     0.031 A 
ATOM     27  C   UNL     1       6.394  -6.176   8.125  1.00  0.00     0.049 A 
ATOM     28  C   UNL     1       7.044  -9.203   3.464  1.00  0.00     0.074 A 
ATOM     29  C   UNL     1       6.717  -6.794   9.320  1.00  0.00     0.029 A 
ATOM     30  N   UNL     1       6.651  -7.093   7.117  1.00  0.00    -0.354 N 
ATOM     31  N   UNL     1       6.945  -8.625   4.637  1.00  0.00    -0.248 NA
ATOM     32  C   UNL     1       7.572 -10.574   3.510  1.00  0.00     0.031 C 
ATOM     33  C   UNL     1       7.223  -8.064   9.031  1.00  0.00     0.029 A 
ATOM     34  C   UNL     1       7.152  -8.263   7.661  1.00  0.00     0.049 A 
ATOM     35  H   UNL     1       6.499  -6.935   6.157  1.00  0.00     0.167 HD
ATOM     36  C   UNL     1       7.393  -9.560   5.561  1.00  0.00     0.074 A 
ATOM     37  C   UNL     1       7.734 -10.755   4.815  1.00  0.00     0.031 C 
ATOM     38  C   UNL     1       7.516  -9.436   6.906  1.00  0.00     0.031 A 
BRANCH  25  39
ATOM     39  C   UNL     1       5.688  -3.960   9.116  1.00  0.00    -0.014 A 
ATOM     40  C   UNL     1       6.794  -3.519   9.858  1.00  0.00     0.009 A 
ATOM     41  C   UNL     1       4.399  -3.601   9.546  1.00  0.00     0.009 A 
ATOM     42  C   UNL     1       6.616  -2.740  11.003  1.00  0.00     0.001 A 
ATOM     43  C   UNL     1       4.225  -2.793  10.672  1.00  0.00     0.001 A 
ATOM     44  C   UNL     1       5.333  -2.370  11.404  1.00  0.00     0.000 A 
ENDBRANCH  25  39
BRANCH  26  45
ATOM     45  C   UNL     1       6.816  -9.485   0.881  1.00  0.00    -0.014 A 
ATOM     46  C   UNL     1       7.770  -9.159  -0.097  1.00  0.00     0.009 A 
ATOM     47  C   UNL     1       5.939 -10.553   0.644  1.00  0.00     0.009 A 
ATOM     48  C   UNL     1       7.820  -9.866  -1.301  1.00  0.00     0.001 A 
ATOM     49  C   UNL     1       6.011 -11.277  -0.549  1.00  0.00     0.001 A 
ATOM     50  C   UNL     1       6.942 -10.925  -1.525  1.00  0.00     0.000 A 
ENDBRANCH  26  45
BRANCH  38  51
ATOM     51  C   UNL     1       8.062 -10.613   7.668  1.00  0.00    -0.014 A 
ATOM     52  C   UNL     1       7.237 -11.318   8.559  1.00  0.00     0.009 A 
ATOM     53  C   UNL     1       9.416 -10.971   7.568  1.00  0.00     0.009 A 
ATOM     54  C   UNL     1       7.757 -12.350   9.341  1.00  0.00     0.001 A 
ATOM     55  C   UNL     1       9.926 -12.025   8.329  1.00  0.00     0.001 A 
ATOM     56  C   UNL     1       9.099 -12.707   9.220  1.00  0.00     0.000 A 
ENDBRANCH  38  51
ENDBRANCH  12  13
ENDBRANCH   5   7
ENDBRANCH   2   3
ENDBRANCH   1   2
BRANCH   1  57
ATOM     57  C   UNL     1       3.898   2.039  -3.158  1.00  0.00     0.117 C 
BRANCH  57  58
ATOM     58  N   UNL     1       4.205   3.427  -2.845  1.00  0.00    -0.355 N 
ATOM     59  C   UNL     1       5.048   4.388  -3.296  1.00  0.00     0.236 C 
ATOM     60  H   UNL     1       3.649   3.758  -2.103  1.00  0.00     0.163 HD
ATOM     61  O   UNL     1       4.636   5.528  -3.028  1.00  0.00    -0.274 OA
BRANCH  59  62
ATOM     62  C   UNL     1       6.404   4.224  -4.033  1.00  0.00     0.144 C 
ATOM     63  C   UNL     1       7.362   5.221  -3.295  1.00  0.00     0.253 C 
ATOM     64  C   UNL     1       6.315   4.559  -5.537  1.00  0.00     0.103 C 
ATOM     65  C   UNL     1       6.983   2.798  -4.043  1.00  0.00     0.283 C 
ATOM     66  O   UNL     1       8.276   5.983  -4.090  1.00  0.00    -0.492 OA
ATOM     67  C   UNL     1       6.735   5.946  -5.931  1.00  0.00     0.004 A 
ATOM     68  C   UNL     1       7.343   3.624  -6.198  1.00  0.00     0.272 C 
ATOM     69  N   UNL     1       7.337   2.413  -5.410  1.00  0.00    -0.331 N 
ATOM     70  C   UNL     1       7.704   6.595  -5.170  1.00  0.00     0.123 A 
ATOM     71  C   UNL     1       6.387   6.469  -7.186  1.00  0.00     0.008 A 
ATOM     72  H   UNL     1       8.266   1.992  -5.382  1.00  0.00     0.348 HD
ATOM     73  C   UNL     1       8.279   7.783  -5.617  1.00  0.00     0.047 A 
ATOM     74  C   UNL     1       6.992   7.636  -7.655  1.00  0.00     0.001 A 
ATOM     75  C   UNL     1       7.922   8.305  -6.862  1.00  0.00     0.004 A 
BRANCH  69  76
ATOM     76  C   UNL     1       6.652   1.264  -6.013  1.00  0.00     0.290 C 
BRANCH  76  77
ATOM     77  C   UNL     1       5.270   1.445  -6.673  1.00  0.00     0.217 C 
BRANCH  77  78
ATOM     78  O   UNL     1       5.349   2.044  -7.961  1.00  0.00    -0.391 OA
ATOM     79  H   UNL     1       5.736   2.930  -7.882  1.00  0.00     0.210 HD
ENDBRANCH  77  78
ENDBRANCH  76  77
ENDBRANCH  69  76
ENDBRANCH  59  62
ENDBRANCH  57  58
ENDBRANCH   1  57
TORSDOF 13
