REMARK SMILES O=Cc1ccc(-c2ccc(C(=O)NCCCNC(=O)c3ccc(-c4c5nc(c(-c6ccccc6)c6ccc([nH]6)c(-c6ccccc6)c6nc(c(-c7ccccc7)c7ccc4[nH]7)C=C6)C=C5)cc3)cn2)cc1
REMARK SMILES IDX 15 1 14 2 13 3 11 4 12 5 10 7 7 8 8 9 69 10 9 11 68 12 6 13
REMARK SMILES IDX 3 14 4 15 71 16 5 17 70 18 2 19 1 20 16 21 17 22 18 23 19 25
REMARK SMILES IDX 20 26 21 27 67 28 22 29 66 30 23 31 24 32 25 33 60 34 26 35
REMARK SMILES IDX 65 36 59 37 61 38 27 39 64 40 58 41 57 42 28 44 50 45 35 46
REMARK SMILES IDX 49 47 36 48 39 49 48 50 62 51 37 52 38 53 47 55 63 56 40 57
REMARK SMILES IDX 29 58 30 59 34 60 31 61 33 62 32 63 51 64 52 65 56 66 53 67
REMARK SMILES IDX 55 68 54 69 41 70 42 71 46 72 43 73 45 74 44 75
REMARK H PARENT 13 6 17 24 61 43 39 54
REMARK Flexibility Score: inf
ROOT
ATOM      1  C   UNL     1       8.504   6.502   6.329  1.00  0.00     0.042 C 
ENDROOT
BRANCH   1   2
ATOM      2  C   UNL     1       7.339   7.335   5.794  1.00  0.00     0.118 C 
BRANCH   2   3
ATOM      3  N   UNL     1       7.691   7.999   4.552  1.00  0.00    -0.352 N 
ATOM      4  C   UNL     1       7.412   7.711   3.240  1.00  0.00     0.252 C 
ATOM      5  O   UNL     1       7.785   8.516   2.387  1.00  0.00    -0.269 OA
ATOM      6  H   UNL     1       8.233   8.812   4.675  1.00  0.00     0.163 HD
BRANCH   4   7
ATOM      7  C   UNL     1       6.662   6.509   2.807  1.00  0.00     0.058 A 
ATOM      8  C   UNL     1       5.171   4.418   1.776  1.00  0.00     0.070 A 
ATOM      9  C   UNL     1       5.869   4.237   2.966  1.00  0.00     0.030 A 
ATOM     10  N   UNL     1       5.223   5.574   1.077  1.00  0.00    -0.255 NA
ATOM     11  C   UNL     1       6.639   5.286   3.470  1.00  0.00     0.018 A 
ATOM     12  C   UNL     1       5.960   6.587   1.607  1.00  0.00     0.125 A 
BRANCH   8  13
ATOM     13  C   UNL     1       4.357   3.344   1.207  1.00  0.00     0.000 A 
ATOM     14  C   UNL     1       2.877   1.181   0.202  1.00  0.00     0.014 A 
ATOM     15  C   UNL     1       4.043   1.585  -0.451  1.00  0.00     0.012 A 
ATOM     16  C   UNL     1       2.430   1.860   1.336  1.00  0.00     0.012 A 
ATOM     17  C   UNL     1       4.774   2.668   0.048  1.00  0.00     0.011 A 
ATOM     18  C   UNL     1       3.169   2.935   1.835  1.00  0.00     0.011 A 
BRANCH  14  19
ATOM     19  C   UNL     1       2.126   0.017  -0.309  1.00  0.00     0.260 C 
ATOM     20  O   UNL     1       1.099  -0.381   0.227  1.00  0.00    -0.298 OA
ENDBRANCH  14  19
ENDBRANCH   8  13
ENDBRANCH   4   7
ENDBRANCH   2   3
ENDBRANCH   1   2
BRANCH   1  21
ATOM     21  C   UNL     1       9.622   7.342   6.942  1.00  0.00     0.118 C 
BRANCH  21  22
ATOM     22  N   UNL     1       9.220   7.945   8.204  1.00  0.00    -0.352 N 
ATOM     23  C   UNL     1       9.771   7.830   9.456  1.00  0.00     0.251 C 
ATOM     24  H   UNL     1       8.428   8.527   8.152  1.00  0.00     0.163 HD
ATOM     25  O   UNL     1       9.147   8.243  10.428  1.00  0.00    -0.269 OA
BRANCH  23  26
ATOM     26  C   UNL     1      11.101   7.210   9.650  1.00  0.00     0.039 A 
ATOM     27  C   UNL     1      11.301   6.390  10.765  1.00  0.00     0.014 A 
ATOM     28  C   UNL     1      12.165   7.480   8.784  1.00  0.00     0.014 A 
ATOM     29  C   UNL     1      12.549   5.804  10.986  1.00  0.00     0.010 A 
ATOM     30  C   UNL     1      13.392   6.845   8.970  1.00  0.00     0.010 A 
ATOM     31  C   UNL     1      13.599   6.007  10.076  1.00  0.00    -0.014 A 
BRANCH  31  32
ATOM     32  C   UNL     1      14.919   5.356  10.269  1.00  0.00     0.031 A 
ATOM     33  C   UNL     1      16.143   6.187  10.541  1.00  0.00     0.074 A 
ATOM     34  C   UNL     1      15.028   4.021  10.134  1.00  0.00     0.049 A 
ATOM     35  N   UNL     1      17.389   5.804  10.669  1.00  0.00    -0.248 NA
ATOM     36  C   UNL     1      15.945   7.640  10.664  1.00  0.00     0.031 C 
ATOM     37  C   UNL     1      13.924   3.106   9.836  1.00  0.00     0.029 A 
ATOM     38  N   UNL     1      16.125   3.201  10.222  1.00  0.00    -0.354 N 
ATOM     39  C   UNL     1      18.123   6.968  10.862  1.00  0.00     0.074 A 
ATOM     40  C   UNL     1      17.190   8.072  10.797  1.00  0.00     0.031 C 
ATOM     41  C   UNL     1      14.397   1.850   9.785  1.00  0.00     0.029 A 
ATOM     42  C   UNL     1      15.838   1.875  10.009  1.00  0.00     0.049 A 
ATOM     43  H   UNL     1      17.031   3.532  10.419  1.00  0.00     0.167 HD
ATOM     44  C   UNL     1      19.452   7.105  11.088  1.00  0.00     0.031 A 
ATOM     45  C   UNL     1      16.646   0.799   9.989  1.00  0.00     0.031 A 
ATOM     46  C   UNL     1      20.378   6.007  11.169  1.00  0.00     0.049 A 
ATOM     47  C   UNL     1      18.116   0.977  10.242  1.00  0.00     0.074 A 
ATOM     48  C   UNL     1      21.732   6.040  11.454  1.00  0.00     0.029 A 
ATOM     49  N   UNL     1      20.044   4.678  10.963  1.00  0.00    -0.354 N 
ATOM     50  N   UNL     1      18.784   2.078  10.485  1.00  0.00    -0.248 NA
ATOM     51  C   UNL     1      18.941  -0.240  10.227  1.00  0.00     0.031 C 
ATOM     52  C   UNL     1      22.226   4.733  11.378  1.00  0.00     0.029 A 
ATOM     53  C   UNL     1      21.170   3.883  11.093  1.00  0.00     0.049 A 
ATOM     54  H   UNL     1      19.140   4.348  10.755  1.00  0.00     0.167 HD
ATOM     55  C   UNL     1      20.102   1.685  10.678  1.00  0.00     0.074 A 
ATOM     56  C   UNL     1      20.136   0.244  10.537  1.00  0.00     0.031 C 
ATOM     57  C   UNL     1      21.187   2.451  10.948  1.00  0.00     0.031 A 
BRANCH  44  58
ATOM     58  C   UNL     1      19.985   8.501  11.254  1.00  0.00    -0.014 A 
ATOM     59  C   UNL     1      19.703   9.256  12.404  1.00  0.00     0.009 A 
ATOM     60  C   UNL     1      20.806   9.057  10.261  1.00  0.00     0.009 A 
ATOM     61  C   UNL     1      20.202  10.553  12.538  1.00  0.00     0.001 A 
ATOM     62  C   UNL     1      21.326  10.344  10.410  1.00  0.00     0.001 A 
ATOM     63  C   UNL     1      21.016  11.095  11.543  1.00  0.00     0.000 A 
ENDBRANCH  44  58
BRANCH  45  64
ATOM     64  C   UNL     1      16.078  -0.550   9.734  1.00  0.00    -0.014 A 
ATOM     65  C   UNL     1      15.979  -1.486  10.773  1.00  0.00     0.009 A 
ATOM     66  C   UNL     1      15.630  -0.906   8.452  1.00  0.00     0.009 A 
ATOM     67  C   UNL     1      15.463  -2.761  10.530  1.00  0.00     0.001 A 
ATOM     68  C   UNL     1      15.091  -2.172   8.217  1.00  0.00     0.001 A 
ATOM     69  C   UNL     1      15.016  -3.102   9.254  1.00  0.00     0.000 A 
ENDBRANCH  45  64
BRANCH  57  70
ATOM     70  C   UNL     1      22.496   1.740  11.139  1.00  0.00    -0.014 A 
ATOM     71  C   UNL     1      23.195   1.198  10.050  1.00  0.00     0.009 A 
ATOM     72  C   UNL     1      23.054   1.645  12.423  1.00  0.00     0.009 A 
ATOM     73  C   UNL     1      24.414   0.546  10.248  1.00  0.00     0.001 A 
ATOM     74  C   UNL     1      24.285   1.016  12.615  1.00  0.00     0.001 A 
ATOM     75  C   UNL     1      24.959   0.460  11.529  1.00  0.00     0.000 A 
ENDBRANCH  57  70
ENDBRANCH  31  32
ENDBRANCH  23  26
ENDBRANCH  21  22
ENDBRANCH   1  21
TORSDOF 12
