REMARK SMILES Cc1cccc(-c2cc(C(=O)NCCCNC(=O)c3ccc(-c4c5nc(c(-c6ccccc6)c6ccc([nH]6)c(-c6ccccc6)c6nc(c(-c7ccccc7)c7ccc4[nH]7)C=C6)C=C5)cc3)ccn2)c1
REMARK SMILES IDX 14 1 13 2 12 3 10 4 11 5 9 7 7 8 8 9 69 10 68 11 67 12 6 13
REMARK SMILES IDX 1 14 2 15 3 16 70 17 4 18 5 19 15 20 16 21 17 22 18 24 19 25
REMARK SMILES IDX 20 26 66 27 21 28 65 29 22 30 23 31 24 32 59 33 25 34 64 35
REMARK SMILES IDX 58 36 60 37 26 38 63 39 57 40 56 41 27 43 49 44 34 45 48 46
REMARK SMILES IDX 35 47 38 48 47 49 61 50 36 51 37 52 46 54 62 55 39 56 28 57
REMARK SMILES IDX 29 58 33 59 30 60 32 61 31 62 50 63 51 64 55 65 52 66 54 67
REMARK SMILES IDX 53 68 40 69 41 70 45 71 42 72 44 73 43 74
REMARK H PARENT 12 6 16 23 60 42 38 53
REMARK Flexibility Score: inf
ROOT
ATOM      1  C   UNL     1      -0.388   3.124  -3.788  1.00  0.00     0.042 C 
ENDROOT
BRANCH   1   2
ATOM      2  C   UNL     1      -0.031   4.440  -3.086  1.00  0.00     0.118 C 
BRANCH   2   3
ATOM      3  N   UNL     1      -1.185   5.319  -2.928  1.00  0.00    -0.352 N 
ATOM      4  C   UNL     1      -2.163   5.426  -1.963  1.00  0.00     0.251 C 
ATOM      5  O   UNL     1      -2.943   6.375  -2.058  1.00  0.00    -0.269 OA
ATOM      6  H   UNL     1      -1.285   5.969  -3.660  1.00  0.00     0.163 HD
BRANCH   4   7
ATOM      7  C   UNL     1      -2.335   4.483  -0.819  1.00  0.00     0.043 A 
ATOM      8  C   UNL     1      -1.964   2.397   0.338  1.00  0.00     0.071 A 
ATOM      9  C   UNL     1      -1.760   3.225  -0.760  1.00  0.00     0.042 A 
ATOM     10  N   UNL     1      -2.767   2.744   1.361  1.00  0.00    -0.256 NA
ATOM     11  C   UNL     1      -3.348   3.964   1.290  1.00  0.00     0.112 A 
ATOM     12  C   UNL     1      -3.161   4.856   0.242  1.00  0.00     0.034 A 
BRANCH   8  13
ATOM     13  C   UNL     1      -1.255   1.114   0.391  1.00  0.00     0.000 A 
ATOM     14  C   UNL     1       2.363  -0.090   0.077  1.00  0.00     0.044 C 
ATOM     15  C   UNL     1       0.868  -0.101   0.190  1.00  0.00    -0.050 A 
ATOM     16  C   UNL     1       0.161  -1.305   0.166  1.00  0.00     0.003 A 
ATOM     17  C   UNL     1       0.153   1.096   0.314  1.00  0.00     0.013 A 
ATOM     18  C   UNL     1      -1.232  -1.310   0.270  1.00  0.00     0.001 A 
ATOM     19  C   UNL     1      -1.937  -0.108   0.385  1.00  0.00     0.010 A 
ENDBRANCH   8  13
ENDBRANCH   4   7
ENDBRANCH   2   3
ENDBRANCH   1   2
BRANCH   1  20
ATOM     20  C   UNL     1      -0.129   3.124  -5.284  1.00  0.00     0.118 C 
BRANCH  20  21
ATOM     21  N   UNL     1       1.055   2.363  -5.680  1.00  0.00    -0.352 N 
ATOM     22  C   UNL     1       1.599   2.249  -6.951  1.00  0.00     0.251 C 
ATOM     23  H   UNL     1       1.520   1.876  -4.962  1.00  0.00     0.163 HD
ATOM     24  O   UNL     1       2.616   1.612  -7.157  1.00  0.00    -0.269 OA
BRANCH  22  25
ATOM     25  C   UNL     1       0.959   3.031  -8.031  1.00  0.00     0.039 A 
ATOM     26  C   UNL     1       1.702   4.073  -8.588  1.00  0.00     0.014 A 
ATOM     27  C   UNL     1      -0.422   2.945  -8.210  1.00  0.00     0.014 A 
ATOM     28  C   UNL     1       1.025   5.171  -9.102  1.00  0.00     0.010 A 
ATOM     29  C   UNL     1      -1.095   4.071  -8.644  1.00  0.00     0.010 A 
ATOM     30  C   UNL     1      -0.368   5.210  -9.009  1.00  0.00    -0.014 A 
BRANCH  30  31
ATOM     31  C   UNL     1      -1.109   6.462  -9.115  1.00  0.00     0.031 A 
ATOM     32  C   UNL     1      -1.848   6.794 -10.342  1.00  0.00     0.074 A 
ATOM     33  C   UNL     1      -1.087   7.347  -8.094  1.00  0.00     0.049 A 
ATOM     34  N   UNL     1      -2.023   7.996 -10.782  1.00  0.00    -0.248 NA
ATOM     35  C   UNL     1      -2.393   5.767 -11.217  1.00  0.00     0.031 C 
ATOM     36  C   UNL     1      -1.895   8.552  -7.939  1.00  0.00     0.029 A 
ATOM     37  N   UNL     1      -0.129   7.439  -7.088  1.00  0.00    -0.354 N 
ATOM     38  C   UNL     1      -2.950   7.924 -11.794  1.00  0.00     0.074 A 
ATOM     39  C   UNL     1      -3.048   6.516 -12.108  1.00  0.00     0.031 C 
ATOM     40  C   UNL     1      -1.277   9.378  -7.079  1.00  0.00     0.029 A 
ATOM     41  C   UNL     1       0.016   8.794  -6.760  1.00  0.00     0.049 A 
ATOM     42  H   UNL     1       0.359   6.688  -6.681  1.00  0.00     0.167 HD
ATOM     43  C   UNL     1      -3.662   9.036 -12.136  1.00  0.00     0.031 A 
ATOM     44  C   UNL     1       1.215   9.428  -6.907  1.00  0.00     0.031 A 
ATOM     45  C   UNL     1      -3.200  10.229 -11.420  1.00  0.00     0.049 A 
ATOM     46  C   UNL     1       1.185  10.574  -7.894  1.00  0.00     0.074 A 
ATOM     47  C   UNL     1      -3.713  10.940 -10.347  1.00  0.00     0.029 A 
ATOM     48  N   UNL     1      -1.899  10.688 -11.607  1.00  0.00    -0.354 N 
ATOM     49  N   UNL     1       0.241  10.759  -8.774  1.00  0.00    -0.248 NA
ATOM     50  C   UNL     1       2.250  11.568  -8.001  1.00  0.00     0.031 C 
ATOM     51  C   UNL     1      -2.692  11.790  -9.851  1.00  0.00     0.029 A 
ATOM     52  C   UNL     1      -1.565  11.613 -10.634  1.00  0.00     0.049 A 
ATOM     53  H   UNL     1      -1.300  10.396 -12.331  1.00  0.00     0.167 HD
ATOM     54  C   UNL     1       0.556  11.836  -9.563  1.00  0.00     0.074 A 
ATOM     55  C   UNL     1       1.813  12.322  -9.024  1.00  0.00     0.031 C 
ATOM     56  C   UNL     1      -0.240  12.220 -10.605  1.00  0.00     0.031 A 
BRANCH  43  57
ATOM     57  C   UNL     1      -4.994   8.963 -12.859  1.00  0.00    -0.014 A 
ATOM     58  C   UNL     1      -5.948   9.980 -12.667  1.00  0.00     0.009 A 
ATOM     59  C   UNL     1      -5.409   7.891 -13.666  1.00  0.00     0.009 A 
ATOM     60  C   UNL     1      -7.263   9.872 -13.143  1.00  0.00     0.001 A 
ATOM     61  C   UNL     1      -6.731   7.753 -14.114  1.00  0.00     0.001 A 
ATOM     62  C   UNL     1      -7.665   8.739 -13.838  1.00  0.00     0.000 A 
ENDBRANCH  43  57
BRANCH  44  63
ATOM     63  C   UNL     1       2.397   8.548  -6.690  1.00  0.00    -0.014 A 
ATOM     64  C   UNL     1       2.615   8.016  -5.403  1.00  0.00     0.009 A 
ATOM     65  C   UNL     1       3.088   7.986  -7.772  1.00  0.00     0.009 A 
ATOM     66  C   UNL     1       3.419   6.887  -5.220  1.00  0.00     0.001 A 
ATOM     67  C   UNL     1       3.903   6.863  -7.582  1.00  0.00     0.001 A 
ATOM     68  C   UNL     1       4.042   6.295  -6.315  1.00  0.00     0.000 A 
ENDBRANCH  44  63
BRANCH  56  69
ATOM     69  C   UNL     1       0.102  13.253 -11.654  1.00  0.00    -0.014 A 
ATOM     70  C   UNL     1       1.402  13.675 -11.964  1.00  0.00     0.009 A 
ATOM     71  C   UNL     1      -0.934  13.762 -12.471  1.00  0.00     0.009 A 
ATOM     72  C   UNL     1       1.648  14.594 -12.995  1.00  0.00     0.001 A 
ATOM     73  C   UNL     1      -0.689  14.642 -13.529  1.00  0.00     0.001 A 
ATOM     74  C   UNL     1       0.605  15.070 -13.782  1.00  0.00     0.000 A 
ENDBRANCH  56  69
ENDBRANCH  30  31
ENDBRANCH  22  25
ENDBRANCH  20  21
ENDBRANCH   1  20
TORSDOF 11
