REMARK SMILES Cc1ccccc1OCC(=O)c1nc(C)c(C(=O)NCCCNC(=O)c2ccc(-c3c4nc(c(-c5ccccc5)c5ccc([nH]5)c(-c5ccccc5)c5nc(c(-c6ccccc6)c6ccc3[nH]6)C=C5)C=C4)cc2)s1
REMARK SMILES IDX 20 1 19 2 17 3 18 4 16 6 12 7 13 8 74 9 14 10 15 11 10 12
REMARK SMILES IDX 11 13 9 14 8 15 7 16 1 17 2 18 3 19 4 20 6 21 5 22 21 23
REMARK SMILES IDX 22 24 23 25 24 26 25 28 26 29 27 30 73 31 28 32 72 33 29 34
REMARK SMILES IDX 30 35 31 36 66 37 32 38 71 39 65 40 67 41 33 42 70 43 64 44
REMARK SMILES IDX 63 45 34 47 56 48 41 49 55 50 42 51 45 52 54 53 68 54 43 55
REMARK SMILES IDX 44 56 53 58 69 59 46 60 35 61 36 62 40 63 37 64 39 65 38 66
REMARK SMILES IDX 57 67 58 68 62 69 59 70 61 71 60 72 47 73 48 74 52 75 49 76
REMARK SMILES IDX 51 77 50 78
REMARK H PARENT 19 5 23 27 67 46 45 57
REMARK Flexibility Score: inf
ROOT
ATOM      1  C   UNL     1       2.049   2.650   7.766  1.00  0.00     0.118 C 
ENDROOT
BRANCH   1   2
ATOM      2  N   UNL     1       1.042   3.133   6.848  1.00  0.00    -0.351 N 
ATOM      3  C   UNL     1       0.916   3.201   5.484  1.00  0.00     0.263 C 
ATOM      4  O   UNL     1      -0.178   3.681   5.153  1.00  0.00    -0.268 OA
ATOM      5  H   UNL     1       0.257   3.502   7.315  1.00  0.00     0.163 HD
BRANCH   3   6
ATOM      6  C   UNL     1       1.907   2.783   4.487  1.00  0.00     0.115 A 
ATOM      7  C   UNL     1       2.815   2.367   2.215  1.00  0.00     0.164 A 
ATOM      8  N   UNL     1       3.695   2.068   3.137  1.00  0.00    -0.237 NA
ATOM      9  S   UNL     1       1.346   2.946   2.825  1.00  0.00    -0.105 S 
ATOM     10  C   UNL     1       3.218   2.310   4.419  1.00  0.00     0.062 A 
ATOM     11  C   UNL     1       4.266   2.049   5.431  1.00  0.00     0.068 C 
BRANCH   7  12
ATOM     12  C   UNL     1       3.156   2.225   0.804  1.00  0.00     0.228 C 
ATOM     13  O   UNL     1       4.280   1.860   0.431  1.00  0.00    -0.288 OA
BRANCH  12  14
ATOM     14  C   UNL     1       2.148   2.612  -0.276  1.00  0.00     0.313 C 
BRANCH  14  15
ATOM     15  O   UNL     1       0.784   2.306  -0.164  1.00  0.00    -0.485 OA
BRANCH  15  16
ATOM     16  C   UNL     1       0.272   1.045  -0.168  1.00  0.00     0.122 A 
ATOM     17  C   UNL     1       2.352  -0.468  -0.525  1.00  0.00     0.048 C 
ATOM     18  C   UNL     1       0.889  -0.206  -0.310  1.00  0.00    -0.009 A 
ATOM     19  C   UNL     1       0.080  -1.363  -0.203  1.00  0.00     0.007 A 
ATOM     20  C   UNL     1      -1.298  -1.289  -0.008  1.00  0.00     0.001 A 
ATOM     21  C   UNL     1      -1.123   1.099   0.020  1.00  0.00     0.047 A 
ATOM     22  C   UNL     1      -1.905  -0.050   0.095  1.00  0.00     0.004 A 
ENDBRANCH  15  16
ENDBRANCH  14  15
ENDBRANCH  12  14
ENDBRANCH   7  12
ENDBRANCH   3   6
ENDBRANCH   1   2
BRANCH   1  23
ATOM     23  C   UNL     1       3.213   3.624   7.891  1.00  0.00     0.042 C 
BRANCH  23  24
ATOM     24  C   UNL     1       3.285   4.361   9.216  1.00  0.00     0.118 C 
BRANCH  24  25
ATOM     25  N   UNL     1       4.336   3.838  10.095  1.00  0.00    -0.352 N 
ATOM     26  C   UNL     1       4.718   4.277  11.351  1.00  0.00     0.251 C 
ATOM     27  H   UNL     1       4.840   3.068   9.744  1.00  0.00     0.163 HD
ATOM     28  O   UNL     1       5.599   3.714  11.979  1.00  0.00    -0.269 OA
BRANCH  26  29
ATOM     29  C   UNL     1       3.915   5.352  11.972  1.00  0.00     0.039 A 
ATOM     30  C   UNL     1       3.213   5.014  13.131  1.00  0.00     0.014 A 
ATOM     31  C   UNL     1       3.579   6.476  11.223  1.00  0.00     0.014 A 
ATOM     32  C   UNL     1       1.996   5.633  13.373  1.00  0.00     0.010 A 
ATOM     33  C   UNL     1       2.318   7.008  11.396  1.00  0.00     0.010 A 
ATOM     34  C   UNL     1       1.496   6.520  12.419  1.00  0.00    -0.014 A 
BRANCH  34  35
ATOM     35  C   UNL     1       0.081   6.863  12.348  1.00  0.00     0.031 A 
ATOM     36  C   UNL     1      -0.372   8.194  12.795  1.00  0.00     0.074 A 
ATOM     37  C   UNL     1      -0.817   5.961  11.885  1.00  0.00     0.049 A 
ATOM     38  N   UNL     1      -1.535   8.440  13.298  1.00  0.00    -0.248 NA
ATOM     39  C   UNL     1       0.507   9.358  12.769  1.00  0.00     0.031 C 
ATOM     40  C   UNL     1      -2.225   6.202  11.580  1.00  0.00     0.029 A 
ATOM     41  N   UNL     1      -0.692   4.569  11.818  1.00  0.00    -0.354 N 
ATOM     42  C   UNL     1      -1.661   9.808  13.383  1.00  0.00     0.074 A 
ATOM     43  C   UNL     1      -0.337  10.327  13.131  1.00  0.00     0.031 C 
ATOM     44  C   UNL     1      -2.887   5.037  11.669  1.00  0.00     0.029 A 
ATOM     45  C   UNL     1      -1.947   4.046  12.169  1.00  0.00     0.049 A 
ATOM     46  H   UNL     1       0.114   4.059  11.573  1.00  0.00     0.167 HD
ATOM     47  C   UNL     1      -2.896  10.371  13.508  1.00  0.00     0.031 A 
ATOM     48  C   UNL     1      -2.158   3.231  13.243  1.00  0.00     0.031 A 
ATOM     49  C   UNL     1      -3.944   9.364  13.637  1.00  0.00     0.049 A 
ATOM     50  C   UNL     1      -3.187   3.778  14.211  1.00  0.00     0.074 A 
ATOM     51  C   UNL     1      -4.828   8.809  12.726  1.00  0.00     0.029 A 
ATOM     52  N   UNL     1      -3.988   8.562  14.771  1.00  0.00    -0.354 N 
ATOM     53  N   UNL     1      -3.570   5.024  14.235  1.00  0.00    -0.248 NA
ATOM     54  C   UNL     1      -3.796   2.987  15.279  1.00  0.00     0.031 C 
ATOM     55  C   UNL     1      -5.342   7.613  13.290  1.00  0.00     0.029 A 
ATOM     56  C   UNL     1      -4.793   7.462  14.551  1.00  0.00     0.049 A 
ATOM     57  H   UNL     1      -3.513   8.752  15.613  1.00  0.00     0.167 HD
ATOM     58  C   UNL     1      -4.425   5.217  15.286  1.00  0.00     0.074 A 
ATOM     59  C   UNL     1      -4.546   3.911  15.905  1.00  0.00     0.031 C 
ATOM     60  C   UNL     1      -4.945   6.443  15.578  1.00  0.00     0.031 A 
BRANCH  47  61
ATOM     61  C   UNL     1      -3.170  11.822  13.185  1.00  0.00    -0.014 A 
ATOM     62  C   UNL     1      -4.427  12.193  12.672  1.00  0.00     0.009 A 
ATOM     63  C   UNL     1      -2.224  12.855  13.293  1.00  0.00     0.009 A 
ATOM     64  C   UNL     1      -4.684  13.484  12.191  1.00  0.00     0.001 A 
ATOM     65  C   UNL     1      -2.457  14.137  12.774  1.00  0.00     0.001 A 
ATOM     66  C   UNL     1      -3.685  14.448  12.210  1.00  0.00     0.000 A 
ENDBRANCH  47  61
BRANCH  48  67
ATOM     67  C   UNL     1      -0.979   2.436  13.675  1.00  0.00    -0.014 A 
ATOM     68  C   UNL     1      -0.509   1.407  12.838  1.00  0.00     0.009 A 
ATOM     69  C   UNL     1      -0.149   2.893  14.708  1.00  0.00     0.009 A 
ATOM     70  C   UNL     1       0.793   0.916  12.971  1.00  0.00     0.001 A 
ATOM     71  C   UNL     1       1.153   2.396  14.841  1.00  0.00     0.001 A 
ATOM     72  C   UNL     1       1.633   1.432  13.955  1.00  0.00     0.000 A 
ENDBRANCH  48  67
BRANCH  60  73
ATOM     73  C   UNL     1      -5.700   6.786  16.832  1.00  0.00    -0.014 A 
ATOM     74  C   UNL     1      -5.473   6.168  18.069  1.00  0.00     0.009 A 
ATOM     75  C   UNL     1      -6.582   7.888  16.817  1.00  0.00     0.009 A 
ATOM     76  C   UNL     1      -6.132   6.600  19.227  1.00  0.00     0.001 A 
ATOM     77  C   UNL     1      -7.211   8.346  17.977  1.00  0.00     0.001 A 
ATOM     78  C   UNL     1      -6.993   7.693  19.182  1.00  0.00     0.000 A 
ENDBRANCH  60  73
ENDBRANCH  34  35
ENDBRANCH  26  29
ENDBRANCH  24  25
ENDBRANCH  23  24
ENDBRANCH   1  23
TORSDOF 14
