REMARK SMILES O=C(NCCCNC(=O)[C@H]1[C@H]2CC[C@H](CC2)[C@@H]1C(=O)Nc1ccc(Cc2ccncc2)cc1)c1ccc(-c2c3nc(c(-c4ccccc4)c4ccc([nH]4)c(-c4ccccc4)c4nc(c(-c5ccccc5)c5ccc2[nH]5)C=C4)C=C3)cc1
REMARK SMILES IDX 6 1 5 2 4 3 3 4 1 5 2 6 34 8 35 9 81 10 36 11 80 12 37 13
REMARK SMILES IDX 38 14 39 15 74 16 40 17 79 18 73 19 75 20 41 21 78 22 72 23
REMARK SMILES IDX 71 24 42 26 64 27 49 28 63 29 50 30 53 31 62 32 76 33 51 34
REMARK SMILES IDX 52 35 61 37 77 38 54 39 43 40 44 41 48 42 45 43 47 44 46 45
REMARK SMILES IDX 65 46 66 47 70 48 67 49 69 50 68 51 55 52 56 53 60 54 57 55
REMARK SMILES IDX 59 56 58 57 7 58 8 59 9 61 10 62 11 63 17 64 12 65 16 66
REMARK SMILES IDX 14 67 13 68 15 69 18 70 19 71 20 72 21 74 22 75 33 76 23 77
REMARK SMILES IDX 32 78 24 79 25 80 26 81 27 82 31 83 28 84 30 85 29 86
REMARK H PARENT 3 7 75 25 53 36 7 60 20 73
REMARK Flexibility Score: inf
ROOT
ATOM      1  C   UNL     1       3.768   0.554   3.784  1.00  0.00     0.117 C 
ENDROOT
BRANCH   1   2
ATOM      2  C   UNL     1       4.255   0.858   2.372  1.00  0.00     0.042 C 
BRANCH   2   3
ATOM      3  C   UNL     1       4.136  -0.350   1.458  1.00  0.00     0.118 C 
BRANCH   3   4
ATOM      4  N   UNL     1       2.748  -0.574   1.075  1.00  0.00    -0.352 N 
ATOM      5  O   UNL     1       0.903  -0.318  -0.182  1.00  0.00    -0.269 OA
ATOM      6  C   UNL     1       2.128  -0.376  -0.133  1.00  0.00     0.251 C 
ATOM      7  H   UNL     1       2.168  -0.920   1.791  1.00  0.00     0.163 HD
BRANCH   6   8
ATOM      8  C   UNL     1       2.923  -0.243  -1.374  1.00  0.00     0.039 A 
ATOM      9  C   UNL     1       4.080  -1.001  -1.565  1.00  0.00     0.014 A 
ATOM     10  C   UNL     1       2.460   0.591  -2.397  1.00  0.00     0.014 A 
ATOM     11  C   UNL     1       4.838  -0.835  -2.716  1.00  0.00     0.010 A 
ATOM     12  C   UNL     1       3.167   0.677  -3.600  1.00  0.00     0.010 A 
ATOM     13  C   UNL     1       4.367  -0.029  -3.763  1.00  0.00    -0.014 A 
BRANCH  13  14
ATOM     14  C   UNL     1       5.096  -0.039  -5.054  1.00  0.00     0.031 A 
ATOM     15  C   UNL     1       5.761   1.195  -5.585  1.00  0.00     0.074 A 
ATOM     16  C   UNL     1       5.175  -1.204  -5.729  1.00  0.00     0.049 A 
ATOM     17  N   UNL     1       6.464   1.340  -6.680  1.00  0.00    -0.248 NA
ATOM     18  C   UNL     1       5.619   2.427  -4.794  1.00  0.00     0.031 C 
ATOM     19  C   UNL     1       4.561  -2.467  -5.306  1.00  0.00     0.029 A 
ATOM     20  N   UNL     1       5.825  -1.526  -6.891  1.00  0.00    -0.354 N 
ATOM     21  C   UNL     1       6.830   2.679  -6.722  1.00  0.00     0.074 A 
ATOM     22  C   UNL     1       6.256   3.310  -5.552  1.00  0.00     0.031 C 
ATOM     23  C   UNL     1       4.917  -3.438  -6.158  1.00  0.00     0.029 A 
ATOM     24  C   UNL     1       5.720  -2.855  -7.224  1.00  0.00     0.049 A 
ATOM     25  H   UNL     1       6.320  -0.871  -7.433  1.00  0.00     0.167 HD
ATOM     26  C   UNL     1       7.580   3.319  -7.651  1.00  0.00     0.031 A 
ATOM     27  C   UNL     1       6.202  -3.531  -8.282  1.00  0.00     0.031 A 
ATOM     28  C   UNL     1       8.142   2.683  -8.814  1.00  0.00     0.049 A 
ATOM     29  C   UNL     1       6.997  -2.787  -9.312  1.00  0.00     0.074 A 
ATOM     30  C   UNL     1       8.931   3.241  -9.806  1.00  0.00     0.029 A 
ATOM     31  N   UNL     1       7.971   1.347  -9.144  1.00  0.00    -0.354 N 
ATOM     32  N   UNL     1       7.353  -1.525  -9.323  1.00  0.00    -0.248 NA
ATOM     33  C   UNL     1       7.452  -3.557 -10.476  1.00  0.00     0.031 C 
ATOM     34  C   UNL     1       9.196   2.253 -10.761  1.00  0.00     0.029 A 
ATOM     35  C   UNL     1       8.619   1.067 -10.336  1.00  0.00     0.049 A 
ATOM     36  H   UNL     1       7.464   0.694  -8.610  1.00  0.00     0.167 HD
ATOM     37  C   UNL     1       8.084  -1.351 -10.488  1.00  0.00     0.074 A 
ATOM     38  C   UNL     1       8.141  -2.643 -11.144  1.00  0.00     0.031 C 
ATOM     39  C   UNL     1       8.655  -0.223 -10.975  1.00  0.00     0.031 A 
BRANCH  26  40
ATOM     40  C   UNL     1       7.809   4.793  -7.463  1.00  0.00    -0.014 A 
ATOM     41  C   UNL     1       8.670   5.277  -6.465  1.00  0.00     0.009 A 
ATOM     42  C   UNL     1       7.185   5.710  -8.324  1.00  0.00     0.009 A 
ATOM     43  C   UNL     1       8.877   6.651  -6.316  1.00  0.00     0.001 A 
ATOM     44  C   UNL     1       7.414   7.080  -8.188  1.00  0.00     0.001 A 
ATOM     45  C   UNL     1       8.253   7.551  -7.180  1.00  0.00     0.000 A 
ENDBRANCH  26  40
BRANCH  27  46
ATOM     46  C   UNL     1       5.928  -4.984  -8.420  1.00  0.00    -0.014 A 
ATOM     47  C   UNL     1       6.960  -5.923  -8.276  1.00  0.00     0.009 A 
ATOM     48  C   UNL     1       4.625  -5.441  -8.676  1.00  0.00     0.009 A 
ATOM     49  C   UNL     1       6.694  -7.289  -8.403  1.00  0.00     0.001 A 
ATOM     50  C   UNL     1       4.357  -6.807  -8.773  1.00  0.00     0.001 A 
ATOM     51  C   UNL     1       5.394  -7.730  -8.645  1.00  0.00     0.000 A 
ENDBRANCH  27  46
BRANCH  39  52
ATOM     52  C   UNL     1       9.409  -0.350 -12.266  1.00  0.00    -0.014 A 
ATOM     53  C   UNL     1       8.736  -0.513 -13.487  1.00  0.00     0.009 A 
ATOM     54  C   UNL     1      10.811  -0.286 -12.261  1.00  0.00     0.009 A 
ATOM     55  C   UNL     1       9.457  -0.644 -14.675  1.00  0.00     0.001 A 
ATOM     56  C   UNL     1      11.527  -0.389 -13.454  1.00  0.00     0.001 A 
ATOM     57  C   UNL     1      10.850  -0.578 -14.658  1.00  0.00     0.000 A 
ENDBRANCH  39  52
ENDBRANCH  13  14
ENDBRANCH   6   8
ENDBRANCH   3   4
ENDBRANCH   2   3
ENDBRANCH   1   2
BRANCH   1  58
ATOM     58  N   UNL     1       4.851   0.112   4.614  1.00  0.00    -0.356 N 
ATOM     59  C   UNL     1       5.807   0.774   5.289  1.00  0.00     0.224 C 
ATOM     60  H   UNL     1       4.905  -0.867   4.708  1.00  0.00     0.163 HD
ATOM     61  O   UNL     1       6.552   0.029   5.941  1.00  0.00    -0.275 OA
BRANCH  59  62
ATOM     62  C   UNL     1       5.988   2.300   5.398  1.00  0.00     0.094 C 
ATOM     63  C   UNL     1       5.701   3.338   4.265  1.00  0.00     0.002 C 
ATOM     64  C   UNL     1       5.416   2.796   6.741  1.00  0.00     0.094 C 
ATOM     65  C   UNL     1       4.245   3.816   4.134  1.00  0.00     0.005 C 
ATOM     66  C   UNL     1       6.441   4.648   4.668  1.00  0.00     0.005 C 
ATOM     67  C   UNL     1       4.802   4.212   6.549  1.00  0.00     0.002 C 
ATOM     68  C   UNL     1       3.662   4.109   5.515  1.00  0.00     0.005 C 
ATOM     69  C   UNL     1       5.868   5.177   5.997  1.00  0.00     0.005 C 
BRANCH  64  70
ATOM     70  C   UNL     1       6.202   2.713   8.080  1.00  0.00     0.228 C 
ATOM     71  O   UNL     1       5.575   2.950   9.126  1.00  0.00    -0.274 OA
ATOM     72  N   UNL     1       7.481   2.273   8.246  1.00  0.00    -0.326 N 
ATOM     73  H   UNL     1       7.693   1.969   9.158  1.00  0.00     0.169 HD
BRANCH  72  74
ATOM     74  C   UNL     1       8.541   2.178   7.345  1.00  0.00     0.041 A 
ATOM     75  C   UNL     1       9.138   0.937   7.142  1.00  0.00     0.026 A 
ATOM     76  C   UNL     1       8.969   3.280   6.611  1.00  0.00     0.026 A 
ATOM     77  C   UNL     1       9.948   0.744   6.020  1.00  0.00     0.006 A 
ATOM     78  C   UNL     1       9.802   3.096   5.506  1.00  0.00     0.006 A 
ATOM     79  C   UNL     1      10.215   1.807   5.147  1.00  0.00    -0.043 A 
BRANCH  79  80
ATOM     80  C   UNL     1      10.838   1.552   3.795  1.00  0.00     0.071 C 
BRANCH  80  81
ATOM     81  C   UNL     1      12.232   2.087   3.629  1.00  0.00    -0.041 A 
ATOM     82  C   UNL     1      13.285   1.567   4.383  1.00  0.00     0.024 A 
ATOM     83  C   UNL     1      12.508   3.094   2.700  1.00  0.00     0.024 A 
ATOM     84  C   UNL     1      14.557   2.074   4.182  1.00  0.00     0.111 A 
ATOM     85  C   UNL     1      13.815   3.534   2.570  1.00  0.00     0.111 A 
ATOM     86  N   UNL     1      14.847   3.046   3.290  1.00  0.00    -0.265 NA
ENDBRANCH  80  81
ENDBRANCH  79  80
ENDBRANCH  72  74
ENDBRANCH  64  70
ENDBRANCH  59  62
ENDBRANCH   1  58
TORSDOF 14
