REMARK SMILES O=C(C[C@]12CSc3[nH]c(=O)sc3[C@@H]1c1cc(Cl)ccc1OC2=O)NCCCNC(=O)c1ccc(-c2c3nc(c(-c4ccccc4)c4ccc([nH]4)c(-c4ccccc4)c4nc(c(-c5ccccc5)c5ccc2[nH]5)C=C4)C=C3)cc1
REMARK SMILES IDX 26 1 25 2 24 3 1 4 2 5 3 7 4 8 5 9 13 10 22 11 6 12 12 13
REMARK SMILES IDX 14 14 21 15 23 16 7 17 11 18 15 19 20 20 8 21 9 22 16 23
REMARK SMILES IDX 19 24 10 26 17 27 18 28 27 29 28 30 29 31 30 33 31 34 32 35
REMARK SMILES IDX 78 36 33 37 77 38 34 39 35 40 36 41 71 42 37 43 76 44 70 45
REMARK SMILES IDX 72 46 38 47 75 48 69 49 68 50 39 52 61 53 46 54 60 55 47 56
REMARK SMILES IDX 50 57 59 58 73 59 48 60 49 61 58 63 74 64 51 65 40 66 41 67
REMARK SMILES IDX 45 68 42 69 44 70 43 71 62 72 63 73 67 74 64 75 66 76 65 77
REMARK SMILES IDX 52 78 53 79 57 80 54 81 56 82 55 83
REMARK H PARENT 24 6 8 25 28 32 72 51 50 62
REMARK Flexibility Score: inf
ROOT
ATOM      1  C   UNL     1       3.597   3.691   0.167  1.00  0.00     0.042 C 
ENDROOT
BRANCH   1   2
ATOM      2  C   UNL     1       3.277   2.204   0.061  1.00  0.00     0.117 C 
BRANCH   2   3
ATOM      3  N   UNL     1       4.038   1.202   0.849  1.00  0.00    -0.356 N 
ATOM      4  O   UNL     1       3.075   0.536   2.757  1.00  0.00    -0.275 OA
ATOM      5  C   UNL     1       3.466   0.213   1.629  1.00  0.00     0.221 C 
ATOM      6  H   UNL     1       5.021   1.244   0.814  1.00  0.00     0.163 HD
BRANCH   5   7
ATOM      7  C   UNL     1       3.275  -1.363   1.191  1.00  0.00     0.120 C 
BRANCH   7   8
ATOM      8  C   UNL     1       2.941  -2.160  -0.317  1.00  0.00     0.098 C 
ATOM      9  C   UNL     1       3.046  -3.633   0.129  1.00  0.00     0.097 C 
ATOM     10  C   UNL     1       3.744  -1.114  -1.079  1.00  0.00     0.085 C 
ATOM     11  C   UNL     1       3.042  -2.662  -1.980  1.00  0.00     0.319 C 
ATOM     12  S   UNL     1       4.726  -4.247   0.287  1.00  0.00    -0.106 SA
ATOM     13  C   UNL     1       5.162  -1.599  -0.515  1.00  0.00     0.049 A 
ATOM     14  C   UNL     1       2.118  -0.551  -1.123  1.00  0.00     0.006 A 
ATOM     15  O   UNL     1       2.113  -2.115  -2.859  1.00  0.00    -0.426 OA
ATOM     16  O   UNL     1       3.900  -3.405  -2.456  1.00  0.00    -0.251 OA
ATOM     17  C   UNL     1       5.590  -2.810  -0.051  1.00  0.00     0.090 A 
ATOM     18  S   UNL     1       6.590  -0.527  -0.560  1.00  0.00    -0.077 S 
ATOM     19  C   UNL     1       1.221   0.051  -0.206  1.00  0.00     0.028 A 
ATOM     20  C   UNL     1       1.450  -1.099  -2.218  1.00  0.00     0.134 A 
ATOM     21  N   UNL     1       6.907  -2.904   0.264  1.00  0.00    -0.307 N 
ATOM     22  C   UNL     1       7.668  -1.788   0.090  1.00  0.00     0.305 A 
ATOM     23  C   UNL     1      -0.147   0.252  -0.472  1.00  0.00     0.041 A 
ATOM     24  C   UNL     1       0.102  -0.897  -2.535  1.00  0.00     0.049 A 
ATOM     25  H   UNL     1       7.295  -3.742   0.604  1.00  0.00     0.171 HD
ATOM     26  O   UNL     1       8.842  -1.660   0.346  1.00  0.00    -0.257 OA
ATOM     27  Cl  UNL     1      -1.146   0.986   0.727  1.00  0.00    -0.084 Cl
ATOM     28  C   UNL     1      -0.703  -0.191  -1.655  1.00  0.00     0.024 A 
ENDBRANCH   7   8
ENDBRANCH   5   7
ENDBRANCH   2   3
ENDBRANCH   1   2
BRANCH   1  29
ATOM     29  C   UNL     1       4.996   4.081  -0.281  1.00  0.00     0.118 C 
BRANCH  29  30
ATOM     30  N   UNL     1       5.210   3.894  -1.705  1.00  0.00    -0.352 N 
ATOM     31  C   UNL     1       5.381   4.745  -2.761  1.00  0.00     0.251 C 
ATOM     32  H   UNL     1       5.237   2.945  -1.967  1.00  0.00     0.163 HD
ATOM     33  O   UNL     1       5.839   4.242  -3.790  1.00  0.00    -0.269 OA
BRANCH  31  34
ATOM     34  C   UNL     1       4.996   6.181  -2.793  1.00  0.00     0.039 A 
ATOM     35  C   UNL     1       4.176   6.816  -1.860  1.00  0.00     0.014 A 
ATOM     36  C   UNL     1       5.373   6.885  -3.957  1.00  0.00     0.014 A 
ATOM     37  C   UNL     1       3.661   8.081  -2.138  1.00  0.00     0.010 A 
ATOM     38  C   UNL     1       4.861   8.143  -4.239  1.00  0.00     0.010 A 
ATOM     39  C   UNL     1       3.953   8.709  -3.357  1.00  0.00    -0.014 A 
BRANCH  39  40
ATOM     40  C   UNL     1       3.349  10.007  -3.635  1.00  0.00     0.031 A 
ATOM     41  C   UNL     1       3.725  11.071  -2.664  1.00  0.00     0.074 A 
ATOM     42  C   UNL     1       2.572  10.258  -4.709  1.00  0.00     0.049 A 
ATOM     43  N   UNL     1       2.939  11.705  -1.859  1.00  0.00    -0.248 NA
ATOM     44  C   UNL     1       5.152  11.366  -2.463  1.00  0.00     0.031 C 
ATOM     45  C   UNL     1       2.293   9.405  -5.868  1.00  0.00     0.029 A 
ATOM     46  N   UNL     1       1.922  11.410  -5.031  1.00  0.00    -0.354 N 
ATOM     47  C   UNL     1       3.741  12.584  -1.137  1.00  0.00     0.074 A 
ATOM     48  C   UNL     1       5.104  12.249  -1.464  1.00  0.00     0.031 C 
ATOM     49  C   UNL     1       1.758  10.156  -6.861  1.00  0.00     0.029 A 
ATOM     50  C   UNL     1       1.518  11.498  -6.358  1.00  0.00     0.049 A 
ATOM     51  H   UNL     1       1.751  12.125  -4.375  1.00  0.00     0.167 HD
ATOM     52  C   UNL     1       3.209  13.631  -0.447  1.00  0.00     0.031 A 
ATOM     53  C   UNL     1       1.075  12.613  -6.998  1.00  0.00     0.031 A 
ATOM     54  C   UNL     1       1.794  13.469  -0.251  1.00  0.00     0.049 A 
ATOM     55  C   UNL     1       0.598  13.555  -5.956  1.00  0.00     0.074 A 
ATOM     56  C   UNL     1       1.021  12.553   0.434  1.00  0.00     0.029 A 
ATOM     57  N   UNL     1       0.951  14.090  -1.142  1.00  0.00    -0.354 N 
ATOM     58  N   UNL     1      -0.451  13.325  -5.220  1.00  0.00    -0.248 NA
ATOM     59  C   UNL     1       1.561  14.497  -5.405  1.00  0.00     0.031 C 
ATOM     60  C   UNL     1      -0.091  12.312  -0.420  1.00  0.00     0.029 A 
ATOM     61  C   UNL     1       0.012  13.165  -1.521  1.00  0.00     0.049 A 
ATOM     62  H   UNL     1       1.010  15.023  -1.450  1.00  0.00     0.167 HD
ATOM     63  C   UNL     1      -0.070  13.713  -3.945  1.00  0.00     0.074 A 
ATOM     64  C   UNL     1       1.149  14.502  -4.133  1.00  0.00     0.031 C 
ATOM     65  C   UNL     1      -0.595  13.117  -2.834  1.00  0.00     0.031 A 
BRANCH  52  66
ATOM     66  C   UNL     1       3.898  14.954  -0.249  1.00  0.00    -0.014 A 
ATOM     67  C   UNL     1       5.047  15.340  -0.962  1.00  0.00     0.009 A 
ATOM     68  C   UNL     1       3.232  15.963   0.472  1.00  0.00     0.009 A 
ATOM     69  C   UNL     1       5.491  16.665  -0.988  1.00  0.00     0.001 A 
ATOM     70  C   UNL     1       3.652  17.298   0.418  1.00  0.00     0.001 A 
ATOM     71  C   UNL     1       4.778  17.649  -0.320  1.00  0.00     0.000 A 
ENDBRANCH  52  66
BRANCH  53  72
ATOM     72  C   UNL     1       1.437  13.080  -8.360  1.00  0.00    -0.014 A 
ATOM     73  C   UNL     1       2.647  12.669  -8.948  1.00  0.00     0.009 A 
ATOM     74  C   UNL     1       0.764  14.163  -8.954  1.00  0.00     0.009 A 
ATOM     75  C   UNL     1       3.193  13.344 -10.047  1.00  0.00     0.001 A 
ATOM     76  C   UNL     1       1.311  14.840 -10.056  1.00  0.00     0.001 A 
ATOM     77  C   UNL     1       2.534  14.442 -10.589  1.00  0.00     0.000 A 
ENDBRANCH  53  72
BRANCH  65  78
ATOM     78  C   UNL     1      -1.722  12.121  -3.001  1.00  0.00    -0.014 A 
ATOM     79  C   UNL     1      -2.849  12.259  -2.176  1.00  0.00     0.009 A 
ATOM     80  C   UNL     1      -1.605  10.947  -3.768  1.00  0.00     0.009 A 
ATOM     81  C   UNL     1      -3.811  11.251  -2.093  1.00  0.00     0.001 A 
ATOM     82  C   UNL     1      -2.584   9.947  -3.707  1.00  0.00     0.001 A 
ATOM     83  C   UNL     1      -3.679  10.095  -2.858  1.00  0.00     0.000 A 
ENDBRANCH  65  78
ENDBRANCH  39  40
ENDBRANCH  31  34
ENDBRANCH  29  30
ENDBRANCH   1  29
TORSDOF 11
