REMARK SMILES CCC[C@@]1(C(=O)NCCCNC(=O)c2ccc(-c3c4nc(c(-c5ccccc5)c5ccc([nH]5)c(-c5ccccc5)c5nc(c(-c6ccccc6)c6ccc3[nH]6)C=C5)C=C4)cc2)CCCN(C(=O)CCn2cncn2)C1
REMARK SMILES IDX 8 1 7 2 5 3 6 4 4 6 62 7 75 8 63 9 65 10 64 11 3 12 2 13
REMARK SMILES IDX 1 14 66 15 67 16 68 17 69 18 70 19 71 20 74 21 72 22 73 23
REMARK SMILES IDX 9 24 10 25 11 26 12 27 13 29 14 30 15 31 61 32 16 33 60 34
REMARK SMILES IDX 17 35 18 36 19 37 54 38 20 39 59 40 53 41 55 42 21 43 58 44
REMARK SMILES IDX 52 45 51 46 22 48 44 49 29 50 43 51 30 52 33 53 42 54 56 55
REMARK SMILES IDX 31 56 32 57 41 59 57 60 34 61 23 62 24 63 28 64 25 65 27 66
REMARK SMILES IDX 26 67 45 68 46 69 50 70 47 71 49 72 48 73 35 74 36 75 40 76
REMARK SMILES IDX 37 77 39 78 38 79
REMARK H PARENT 7 5 11 28 55 47 33 58
REMARK Flexibility Score: inf
ROOT
ATOM      1  C   UNL     1       2.891  -3.102   2.284  1.00  0.00     0.117 C 
ENDROOT
BRANCH   1   2
ATOM      2  N   UNL     1       1.749  -2.765   1.464  1.00  0.00    -0.355 N 
ATOM      3  C   UNL     1       1.088  -1.565   1.456  1.00  0.00     0.228 C 
ATOM      4  O   UNL     1       0.909  -1.085   0.332  1.00  0.00    -0.274 OA
ATOM      5  H   UNL     1       1.415  -3.462   0.855  1.00  0.00     0.163 HD
BRANCH   3   6
ATOM      6  C   UNL     1       0.427  -0.938   2.725  1.00  0.00     0.067 C 
ATOM      7  C   UNL     1      -0.028   0.524   2.423  1.00  0.00     0.020 C 
ATOM      8  C   UNL     1       1.344  -0.834   3.974  1.00  0.00     0.136 C 
ATOM      9  C   UNL     1       1.143   1.495   2.268  1.00  0.00     0.023 C 
ATOM     10  N   UNL     1       2.489   0.062   3.742  1.00  0.00    -0.342 N 
ATOM     11  C   UNL     1       2.106   1.436   3.443  1.00  0.00     0.119 C 
BRANCH   6  12
ATOM     12  C   UNL     1      -0.808  -1.833   3.083  1.00  0.00     0.018 C 
BRANCH  12  13
ATOM     13  C   UNL     1      -2.148  -1.556   2.372  1.00  0.00    -0.002 C 
ATOM     14  C   UNL     1      -2.172  -1.788   0.869  1.00  0.00     0.004 C 
ENDBRANCH  12  13
ENDBRANCH   6  12
BRANCH  10  15
ATOM     15  C   UNL     1       3.778  -0.333   4.064  1.00  0.00     0.224 C 
ATOM     16  O   UNL     1       4.000  -1.348   4.730  1.00  0.00    -0.275 OA
BRANCH  15  17
ATOM     17  C   UNL     1       4.962   0.437   3.504  1.00  0.00     0.124 C 
BRANCH  17  18
ATOM     18  C   UNL     1       5.163   0.205   2.004  1.00  0.00     0.156 C 
BRANCH  18  19
ATOM     19  N   UNL     1       4.570   1.200   1.138  1.00  0.00    -0.252 N 
ATOM     20  C   UNL     1       3.903   1.005  -0.032  1.00  0.00     0.219 A 
ATOM     21  N   UNL     1       4.696   2.515   1.404  1.00  0.00    -0.160 NA
ATOM     22  N   UNL     1       3.534   2.167  -0.523  1.00  0.00    -0.224 NA
ATOM     23  C   UNL     1       4.027   3.057   0.384  1.00  0.00     0.246 A 
ENDBRANCH  18  19
ENDBRANCH  17  18
ENDBRANCH  15  17
ENDBRANCH  10  15
ENDBRANCH   3   6
ENDBRANCH   1   2
BRANCH   1  24
ATOM     24  C   UNL     1       2.953  -4.532   2.771  1.00  0.00     0.042 C 
BRANCH  24  25
ATOM     25  C   UNL     1       3.558  -5.481   1.752  1.00  0.00     0.118 C 
BRANCH  25  26
ATOM     26  N   UNL     1       4.952  -5.169   1.435  1.00  0.00    -0.352 N 
ATOM     27  C   UNL     1       6.122  -5.840   1.709  1.00  0.00     0.251 C 
ATOM     28  H   UNL     1       5.075  -4.329   0.937  1.00  0.00     0.163 HD
ATOM     29  O   UNL     1       7.195  -5.290   1.502  1.00  0.00    -0.269 OA
BRANCH  27  30
ATOM     30  C   UNL     1       6.088  -7.209   2.268  1.00  0.00     0.039 A 
ATOM     31  C   UNL     1       7.029  -7.578   3.233  1.00  0.00     0.014 A 
ATOM     32  C   UNL     1       5.135  -8.132   1.839  1.00  0.00     0.014 A 
ATOM     33  C   UNL     1       6.946  -8.836   3.835  1.00  0.00     0.010 A 
ATOM     34  C   UNL     1       4.979  -9.331   2.519  1.00  0.00     0.010 A 
ATOM     35  C   UNL     1       5.885  -9.701   3.522  1.00  0.00    -0.014 A 
BRANCH  35  36
ATOM     36  C   UNL     1       5.691 -10.993   4.226  1.00  0.00     0.031 A 
ATOM     37  C   UNL     1       5.684 -12.282   3.448  1.00  0.00     0.074 A 
ATOM     38  C   UNL     1       5.424 -10.998   5.547  1.00  0.00     0.049 A 
ATOM     39  N   UNL     1       5.428 -13.496   3.865  1.00  0.00    -0.248 NA
ATOM     40  C   UNL     1       5.962 -12.190   2.005  1.00  0.00     0.031 C 
ATOM     41  C   UNL     1       5.344  -9.813   6.404  1.00  0.00     0.029 A 
ATOM     42  N   UNL     1       5.159 -12.041   6.399  1.00  0.00    -0.354 N 
ATOM     43  C   UNL     1       5.487 -14.302   2.734  1.00  0.00     0.074 A 
ATOM     44  C   UNL     1       5.745 -13.434   1.607  1.00  0.00     0.031 C 
ATOM     45  C   UNL     1       5.085 -10.197   7.664  1.00  0.00     0.029 A 
ATOM     46  C   UNL     1       4.934 -11.647   7.696  1.00  0.00     0.049 A 
ATOM     47  H   UNL     1       5.133 -12.981   6.109  1.00  0.00     0.167 HD
ATOM     48  C   UNL     1       5.362 -15.647   2.643  1.00  0.00     0.031 A 
ATOM     49  C   UNL     1       4.630 -12.372   8.789  1.00  0.00     0.031 A 
ATOM     50  C   UNL     1       5.131 -16.511   3.768  1.00  0.00     0.049 A 
ATOM     51  C   UNL     1       4.502 -13.864   8.664  1.00  0.00     0.074 A 
ATOM     52  C   UNL     1       5.064 -17.893   3.794  1.00  0.00     0.029 A 
ATOM     53  N   UNL     1       4.929 -16.074   5.068  1.00  0.00    -0.354 N 
ATOM     54  N   UNL     1       4.637 -14.618   7.600  1.00  0.00    -0.248 NA
ATOM     55  C   UNL     1       4.186 -14.605   9.893  1.00  0.00     0.031 C 
ATOM     56  C   UNL     1       4.770 -18.290   5.103  1.00  0.00     0.029 A 
ATOM     57  C   UNL     1       4.710 -17.158   5.901  1.00  0.00     0.049 A 
ATOM     58  H   UNL     1       4.941 -15.133   5.357  1.00  0.00     0.167 HD
ATOM     59  C   UNL     1       4.446 -15.923   8.035  1.00  0.00     0.074 A 
ATOM     60  C   UNL     1       4.206 -15.858   9.462  1.00  0.00     0.031 C 
ATOM     61  C   UNL     1       4.467 -17.073   7.317  1.00  0.00     0.031 A 
BRANCH  48  62
ATOM     62  C   UNL     1       5.471 -16.262   1.275  1.00  0.00    -0.014 A 
ATOM     63  C   UNL     1       6.693 -16.286   0.582  1.00  0.00     0.009 A 
ATOM     64  C   UNL     1       4.344 -16.849   0.681  1.00  0.00     0.009 A 
ATOM     65  C   UNL     1       6.773 -16.849  -0.693  1.00  0.00     0.001 A 
ATOM     66  C   UNL     1       4.434 -17.440  -0.581  1.00  0.00     0.001 A 
ATOM     67  C   UNL     1       5.645 -17.429  -1.271  1.00  0.00     0.000 A 
ENDBRANCH  48  62
BRANCH  49  68
ATOM     68  C   UNL     1       4.444 -11.700  10.101  1.00  0.00    -0.014 A 
ATOM     69  C   UNL     1       5.395 -11.859  11.122  1.00  0.00     0.009 A 
ATOM     70  C   UNL     1       3.319 -10.896  10.342  1.00  0.00     0.009 A 
ATOM     71  C   UNL     1       5.209 -11.249  12.364  1.00  0.00     0.001 A 
ATOM     72  C   UNL     1       3.151 -10.264  11.576  1.00  0.00     0.001 A 
ATOM     73  C   UNL     1       4.091 -10.448  12.589  1.00  0.00     0.000 A 
ENDBRANCH  49  68
BRANCH  61  74
ATOM     74  C   UNL     1       4.246 -18.353   8.070  1.00  0.00    -0.014 A 
ATOM     75  C   UNL     1       2.979 -18.698   8.564  1.00  0.00     0.009 A 
ATOM     76  C   UNL     1       5.315 -19.245   8.252  1.00  0.00     0.009 A 
ATOM     77  C   UNL     1       2.793 -19.897   9.254  1.00  0.00     0.001 A 
ATOM     78  C   UNL     1       5.120 -20.457   8.916  1.00  0.00     0.001 A 
ATOM     79  C   UNL     1       3.862 -20.777   9.425  1.00  0.00     0.000 A 
ENDBRANCH  61  74
ENDBRANCH  35  36
ENDBRANCH  27  30
ENDBRANCH  25  26
ENDBRANCH  24  25
ENDBRANCH   1  24
TORSDOF 16
