REMARK SMILES O=C(NCCCNC(=O)[C@@H]1CCC[N@@H+](Cc2ccc(F)cc2Cl)C1)c1ccc(-c2c3nc(c(-c4ccccc4)c4ccc([nH]4)c(-c4ccccc4)c4nc(c(-c5ccccc5)c5ccc2[nH]5)C=C4)C=C3)cc1
REMARK SMILES IDX 5 1 4 2 3 3 1 4 2 5 25 7 26 8 72 9 27 10 71 11 28 12 29 13
REMARK SMILES IDX 30 14 65 15 31 16 70 17 64 18 66 19 32 20 69 21 63 22 62 23
REMARK SMILES IDX 33 25 55 26 40 27 54 28 41 29 44 30 53 31 67 32 42 33 43 34
REMARK SMILES IDX 52 36 68 37 45 38 34 39 35 40 39 41 36 42 38 43 37 44 56 45
REMARK SMILES IDX 57 46 61 47 58 48 60 49 59 50 46 51 47 52 51 53 48 54 50 55
REMARK SMILES IDX 49 56 6 57 7 58 8 59 9 61 10 62 11 63 24 64 12 65 14 66
REMARK SMILES IDX 13 67 15 69 16 70 17 71 22 72 18 73 21 74 23 75 19 76 20 77
REMARK H PARENT 3 6 66 24 44 35 7 60 14 68
REMARK Flexibility Score: inf
ROOT
ATOM      1  C   UNL     1       4.779  -1.257   1.659  1.00  0.00     0.042 C 
ENDROOT
BRANCH   1   2
ATOM      2  C   UNL     1       4.375  -1.302   0.196  1.00  0.00     0.118 C 
BRANCH   2   3
ATOM      3  N   UNL     1       2.934  -1.145   0.018  1.00  0.00    -0.352 N 
ATOM      4  O   UNL     1       0.980  -0.068  -0.243  1.00  0.00    -0.269 OA
ATOM      5  C   UNL     1       2.193  -0.079  -0.423  1.00  0.00     0.251 C 
ATOM      6  H   UNL     1       2.405  -1.941   0.255  1.00  0.00     0.163 HD
BRANCH   5   7
ATOM      7  C   UNL     1       2.845   1.052  -1.113  1.00  0.00     0.039 A 
ATOM      8  C   UNL     1       3.904   0.833  -1.995  1.00  0.00     0.014 A 
ATOM      9  C   UNL     1       2.351   2.345  -0.919  1.00  0.00     0.014 A 
ATOM     10  C   UNL     1       4.575   1.909  -2.555  1.00  0.00     0.010 A 
ATOM     11  C   UNL     1       2.953   3.419  -1.577  1.00  0.00     0.010 A 
ATOM     12  C   UNL     1       4.085   3.209  -2.380  1.00  0.00    -0.014 A 
BRANCH  12  13
ATOM     13  C   UNL     1       4.717   4.334  -3.105  1.00  0.00     0.031 A 
ATOM     14  C   UNL     1       5.344   5.472  -2.358  1.00  0.00     0.074 A 
ATOM     15  C   UNL     1       4.697   4.327  -4.452  1.00  0.00     0.049 A 
ATOM     16  N   UNL     1       5.852   6.583  -2.826  1.00  0.00    -0.248 NA
ATOM     17  C   UNL     1       5.395   5.355  -0.892  1.00  0.00     0.031 C 
ATOM     18  C   UNL     1       4.126   3.264  -5.283  1.00  0.00     0.029 A 
ATOM     19  N   UNL     1       5.163   5.243  -5.358  1.00  0.00    -0.354 N 
ATOM     20  C   UNL     1       6.251   7.313  -1.714  1.00  0.00     0.074 A 
ATOM     21  C   UNL     1       5.908   6.527  -0.548  1.00  0.00     0.031 C 
ATOM     22  C   UNL     1       4.296   3.575  -6.575  1.00  0.00     0.029 A 
ATOM     23  C   UNL     1       4.909   4.894  -6.662  1.00  0.00     0.049 A 
ATOM     24  H   UNL     1       5.633   6.069  -5.101  1.00  0.00     0.167 HD
ATOM     25  C   UNL     1       6.845   8.530  -1.675  1.00  0.00     0.031 A 
ATOM     26  C   UNL     1       5.103   5.577  -7.804  1.00  0.00     0.031 A 
ATOM     27  C   UNL     1       7.168   9.303  -2.846  1.00  0.00     0.049 A 
ATOM     28  C   UNL     1       5.710   6.945  -7.733  1.00  0.00     0.074 A 
ATOM     29  C   UNL     1       7.794  10.535  -2.921  1.00  0.00     0.029 A 
ATOM     30  N   UNL     1       6.877   8.921  -4.149  1.00  0.00    -0.354 N 
ATOM     31  N   UNL     1       6.101   7.617  -6.678  1.00  0.00    -0.248 NA
ATOM     32  C   UNL     1       5.903   7.649  -9.007  1.00  0.00     0.031 C 
ATOM     33  C   UNL     1       7.824  10.927  -4.263  1.00  0.00     0.029 A 
ATOM     34  C   UNL     1       7.284   9.907  -5.032  1.00  0.00     0.049 A 
ATOM     35  H   UNL     1       6.445   8.075  -4.406  1.00  0.00     0.167 HD
ATOM     36  C   UNL     1       6.616   8.812  -7.159  1.00  0.00     0.074 A 
ATOM     37  C   UNL     1       6.489   8.768  -8.603  1.00  0.00     0.031 C 
ATOM     38  C   UNL     1       7.152   9.845  -6.467  1.00  0.00     0.031 A 
BRANCH  25  39
ATOM     39  C   UNL     1       7.127   9.118  -0.318  1.00  0.00    -0.014 A 
ATOM     40  C   UNL     1       8.090   8.566   0.542  1.00  0.00     0.009 A 
ATOM     41  C   UNL     1       6.415  10.252   0.106  1.00  0.00     0.009 A 
ATOM     42  C   UNL     1       8.296   9.104   1.815  1.00  0.00     0.001 A 
ATOM     43  C   UNL     1       6.646  10.809   1.365  1.00  0.00     0.001 A 
ATOM     44  C   UNL     1       7.575  10.226   2.224  1.00  0.00     0.000 A 
ENDBRANCH  25  39
BRANCH  26  45
ATOM     45  C   UNL     1       4.687   4.968  -9.093  1.00  0.00    -0.014 A 
ATOM     46  C   UNL     1       5.643   4.512 -10.010  1.00  0.00     0.009 A 
ATOM     47  C   UNL     1       3.324   4.783  -9.382  1.00  0.00     0.009 A 
ATOM     48  C   UNL     1       5.243   3.890 -11.195  1.00  0.00     0.001 A 
ATOM     49  C   UNL     1       2.929   4.134 -10.552  1.00  0.00     0.001 A 
ATOM     50  C   UNL     1       3.888   3.693 -11.461  1.00  0.00     0.000 A 
ENDBRANCH  26  45
BRANCH  38  51
ATOM     51  C   UNL     1       7.697  10.997  -7.262  1.00  0.00    -0.014 A 
ATOM     52  C   UNL     1       6.851  11.917  -7.898  1.00  0.00     0.009 A 
ATOM     53  C   UNL     1       9.086  11.199  -7.313  1.00  0.00     0.009 A 
ATOM     54  C   UNL     1       7.388  13.007  -8.587  1.00  0.00     0.001 A 
ATOM     55  C   UNL     1       9.618  12.304  -7.976  1.00  0.00     0.001 A 
ATOM     56  C   UNL     1       8.769  13.204  -8.618  1.00  0.00     0.000 A 
ENDBRANCH  38  51
ENDBRANCH  12  13
ENDBRANCH   5   7
ENDBRANCH   2   3
ENDBRANCH   1   2
BRANCH   1  57
ATOM     57  C   UNL     1       4.168  -2.388   2.466  1.00  0.00     0.117 C 
BRANCH  57  58
ATOM     58  N   UNL     1       4.897  -3.627   2.374  1.00  0.00    -0.356 N 
ATOM     59  C   UNL     1       5.601  -4.295   3.321  1.00  0.00     0.228 C 
ATOM     60  H   UNL     1       4.881  -4.055   1.487  1.00  0.00     0.163 HD
ATOM     61  O   UNL     1       6.073  -5.387   2.982  1.00  0.00    -0.275 OA
BRANCH  59  62
ATOM     62  C   UNL     1       5.902  -3.747   4.720  1.00  0.00     0.133 C 
ATOM     63  C   UNL     1       4.750  -3.283   5.617  1.00  0.00     0.025 C 
ATOM     64  C   UNL     1       7.082  -2.784   4.698  1.00  0.00     0.276 C 
ATOM     65  C   UNL     1       4.578  -1.770   5.814  1.00  0.00     0.062 C 
ATOM     66  N   UNL     1       6.676  -1.402   4.449  1.00  0.00    -0.330 N 
ATOM     67  C   UNL     1       5.800  -0.897   5.511  1.00  0.00     0.262 C 
ATOM     68  H   UNL     1       6.118  -1.399   3.595  1.00  0.00     0.348 HD
BRANCH  66  69
ATOM     69  C   UNL     1       7.829  -0.514   4.160  1.00  0.00     0.300 C 
BRANCH  69  70
ATOM     70  C   UNL     1       8.566   0.030   5.373  1.00  0.00     0.025 A 
ATOM     71  C   UNL     1       9.352  -0.846   6.148  1.00  0.00     0.014 A 
ATOM     72  C   UNL     1       8.413   1.357   5.819  1.00  0.00     0.052 A 
ATOM     73  C   UNL     1       9.869  -0.445   7.379  1.00  0.00     0.040 A 
ATOM     74  C   UNL     1       8.953   1.763   7.041  1.00  0.00     0.060 A 
ATOM     75  Cl  UNL     1       7.542   2.545   4.914  1.00  0.00    -0.084 Cl
ATOM     76  C   UNL     1       9.650   0.851   7.820  1.00  0.00     0.124 A 
ATOM     77  F   UNL     1      10.116   1.227   9.017  1.00  0.00    -0.207 F 
ENDBRANCH  69  70
ENDBRANCH  66  69
ENDBRANCH  59  62
ENDBRANCH  57  58
ENDBRANCH   1  57
TORSDOF 12
