REMARK SMILES CC[C@](C)(C(=O)NCCCNC(=O)c1ccc(-c2c3nc(c(-c4ccccc4)c4ccc([nH]4)c(-c4ccccc4)c4nc(c(-c5ccccc5)c5ccc2[nH]5)C=C4)C=C3)cc1)n1nnnc1-c1ccco1
REMARK SMILES IDX 9 1 8 2 7 3 5 4 6 5 3 7 4 8 2 9 1 10 62 11 63 12 66 13 64 14
REMARK SMILES IDX 65 15 67 16 68 17 71 18 69 19 70 20 10 21 11 22 12 23 13 25
REMARK SMILES IDX 14 26 15 27 61 28 16 29 60 30 17 31 18 32 19 33 54 34 20 35
REMARK SMILES IDX 59 36 53 37 55 38 21 39 58 40 52 41 51 42 22 44 44 45 29 46
REMARK SMILES IDX 43 47 30 48 33 49 42 50 56 51 31 52 32 53 41 55 57 56 34 57
REMARK SMILES IDX 23 58 24 59 28 60 25 61 27 62 26 63 45 64 46 65 50 66 47 67
REMARK SMILES IDX 49 68 48 69 35 70 36 71 40 72 37 73 39 74 38 75
REMARK H PARENT 7 6 11 24 55 43 33 54
REMARK Flexibility Score: inf
ROOT
ATOM      1  C   UNL     1      -2.786   0.783  -2.843  1.00  0.00     0.042 C 
ENDROOT
BRANCH   1   2
ATOM      2  C   UNL     1      -1.952  -0.468  -3.069  1.00  0.00     0.117 C 
BRANCH   2   3
ATOM      3  N   UNL     1      -0.753  -0.236  -3.849  1.00  0.00    -0.354 N 
ATOM      4  C   UNL     1       0.572  -0.394  -3.554  1.00  0.00     0.247 C 
ATOM      5  O   UNL     1       1.322  -0.363  -4.535  1.00  0.00    -0.272 OA
ATOM      6  H   UNL     1      -0.924   0.096  -4.760  1.00  0.00     0.163 HD
BRANCH   4   7
ATOM      7  C   UNL     1       1.115  -0.580  -2.103  1.00  0.00     0.142 C 
ATOM      8  C   UNL     1       0.758   0.707  -1.314  1.00  0.00     0.048 C 
BRANCH   7   9
ATOM      9  C   UNL     1       0.510  -1.857  -1.423  1.00  0.00     0.037 C 
ATOM     10  C   UNL     1      -0.267  -1.702  -0.116  1.00  0.00     0.007 C 
ENDBRANCH   7   9
BRANCH   7  11
ATOM     11  N   UNL     1       2.593  -0.678  -2.219  1.00  0.00    -0.207 N 
ATOM     12  N   UNL     1       3.362   0.428  -2.058  1.00  0.00    -0.044 NA
ATOM     13  C   UNL     1       3.423  -1.734  -2.533  1.00  0.00     0.218 A 
ATOM     14  N   UNL     1       4.610   0.037  -2.257  1.00  0.00    -0.023 NA
ATOM     15  N   UNL     1       4.667  -1.302  -2.529  1.00  0.00    -0.105 NA
BRANCH  13  16
ATOM     16  C   UNL     1       3.058  -3.103  -2.685  1.00  0.00     0.172 A 
ATOM     17  C   UNL     1       2.322  -3.721  -3.682  1.00  0.00     0.054 A 
ATOM     18  O   UNL     1       3.339  -4.029  -1.711  1.00  0.00    -0.461 OA
ATOM     19  C   UNL     1       2.112  -5.063  -3.272  1.00  0.00     0.043 A 
ATOM     20  C   UNL     1       2.757  -5.199  -2.067  1.00  0.00     0.196 A 
ENDBRANCH  13  16
ENDBRANCH   7  11
ENDBRANCH   4   7
ENDBRANCH   2   3
ENDBRANCH   1   2
BRANCH   1  21
ATOM     21  C   UNL     1      -3.517   1.272  -4.085  1.00  0.00     0.118 C 
BRANCH  21  22
ATOM     22  N   UNL     1      -4.486   0.303  -4.583  1.00  0.00    -0.352 N 
ATOM     23  C   UNL     1      -5.854   0.361  -4.659  1.00  0.00     0.251 C 
ATOM     24  H   UNL     1      -4.093  -0.534  -4.921  1.00  0.00     0.163 HD
ATOM     25  O   UNL     1      -6.485  -0.665  -4.920  1.00  0.00    -0.269 OA
BRANCH  23  26
ATOM     26  C   UNL     1      -6.580   1.624  -4.414  1.00  0.00     0.039 A 
ATOM     27  C   UNL     1      -7.800   1.581  -3.732  1.00  0.00     0.014 A 
ATOM     28  C   UNL     1      -6.085   2.846  -4.873  1.00  0.00     0.014 A 
ATOM     29  C   UNL     1      -8.479   2.768  -3.448  1.00  0.00     0.010 A 
ATOM     30  C   UNL     1      -6.711   4.034  -4.506  1.00  0.00     0.010 A 
ATOM     31  C   UNL     1      -7.917   4.008  -3.792  1.00  0.00    -0.014 A 
BRANCH  31  32
ATOM     32  C   UNL     1      -8.570   5.284  -3.403  1.00  0.00     0.031 A 
ATOM     33  C   UNL     1      -9.038   6.254  -4.454  1.00  0.00     0.074 A 
ATOM     34  C   UNL     1      -8.692   5.593  -2.097  1.00  0.00     0.049 A 
ATOM     35  N   UNL     1      -9.591   7.431  -4.301  1.00  0.00    -0.248 NA
ATOM     36  C   UNL     1      -8.839   5.864  -5.860  1.00  0.00     0.031 C 
ATOM     37  C   UNL     1      -8.236   4.760  -0.981  1.00  0.00     0.029 A 
ATOM     38  N   UNL     1      -9.234   6.696  -1.485  1.00  0.00    -0.354 N 
ATOM     39  C   UNL     1      -9.795   7.923  -5.585  1.00  0.00     0.074 A 
ATOM     40  C   UNL     1      -9.255   6.945  -6.503  1.00  0.00     0.031 C 
ATOM     41  C   UNL     1      -8.548   5.365   0.177  1.00  0.00     0.029 A 
ATOM     42  C   UNL     1      -9.182   6.646  -0.113  1.00  0.00     0.049 A 
ATOM     43  H   UNL     1      -9.623   7.451  -1.983  1.00  0.00     0.167 HD
ATOM     44  C   UNL     1     -10.398   9.073  -5.967  1.00  0.00     0.031 A 
ATOM     45  C   UNL     1      -9.593   7.535   0.811  1.00  0.00     0.031 A 
ATOM     46  C   UNL     1     -10.940  10.044  -5.054  1.00  0.00     0.049 A 
ATOM     47  C   UNL     1     -10.239   8.815   0.357  1.00  0.00     0.074 A 
ATOM     48  C   UNL     1     -11.612  11.219  -5.345  1.00  0.00     0.029 A 
ATOM     49  N   UNL     1     -10.868   9.955  -3.673  1.00  0.00    -0.354 N 
ATOM     50  N   UNL     1     -10.488   9.229  -0.861  1.00  0.00    -0.248 NA
ATOM     51  C   UNL     1     -10.671   9.744   1.410  1.00  0.00     0.031 C 
ATOM     52  C   UNL     1     -11.899  11.868  -4.140  1.00  0.00     0.029 A 
ATOM     53  C   UNL     1     -11.462  11.066  -3.098  1.00  0.00     0.049 A 
ATOM     54  H   UNL     1     -10.457   9.212  -3.175  1.00  0.00     0.167 HD
ATOM     55  C   UNL     1     -11.130  10.452  -0.720  1.00  0.00     0.074 A 
ATOM     56  C   UNL     1     -11.254  10.699   0.701  1.00  0.00     0.031 C 
ATOM     57  C   UNL     1     -11.575  11.298  -1.681  1.00  0.00     0.031 A 
BRANCH  44  58
ATOM     58  C   UNL     1     -10.508   9.346  -7.442  1.00  0.00    -0.014 A 
ATOM     59  C   UNL     1     -11.365   8.590  -8.258  1.00  0.00     0.009 A 
ATOM     60  C   UNL     1      -9.787  10.405  -8.015  1.00  0.00     0.009 A 
ATOM     61  C   UNL     1     -11.475   8.870  -9.622  1.00  0.00     0.001 A 
ATOM     62  C   UNL     1      -9.922  10.703  -9.373  1.00  0.00     0.001 A 
ATOM     63  C   UNL     1     -10.759   9.930 -10.176  1.00  0.00     0.000 A 
ENDBRANCH  44  58
BRANCH  45  64
ATOM     64  C   UNL     1      -9.410   7.252   2.260  1.00  0.00    -0.014 A 
ATOM     65  C   UNL     1     -10.519   7.028   3.091  1.00  0.00     0.009 A 
ATOM     66  C   UNL     1      -8.125   7.232   2.826  1.00  0.00     0.009 A 
ATOM     67  C   UNL     1     -10.348   6.829   4.463  1.00  0.00     0.001 A 
ATOM     68  C   UNL     1      -7.955   6.998   4.192  1.00  0.00     0.001 A 
ATOM     69  C   UNL     1      -9.066   6.811   5.011  1.00  0.00     0.000 A 
ENDBRANCH  45  64
BRANCH  57  70
ATOM     70  C   UNL     1     -12.268  12.551  -1.223  1.00  0.00    -0.014 A 
ATOM     71  C   UNL     1     -11.561  13.593  -0.604  1.00  0.00     0.009 A 
ATOM     72  C   UNL     1     -13.647  12.700  -1.439  1.00  0.00     0.009 A 
ATOM     73  C   UNL     1     -12.229  14.741  -0.172  1.00  0.00     0.001 A 
ATOM     74  C   UNL     1     -14.306  13.863  -1.038  1.00  0.00     0.001 A 
ATOM     75  C   UNL     1     -13.599  14.876  -0.394  1.00  0.00     0.000 A 
ENDBRANCH  57  70
ENDBRANCH  31  32
ENDBRANCH  23  26
ENDBRANCH  21  22
ENDBRANCH   1  21
TORSDOF 13
