REMARK SMILES CC1=NN(c2ccccc2)C(=O)/C1=C\c1ccc(-c2cc(C(=O)NCCCNC(=O)c3ccc(-c4c5nc(c(-c6ccccc6)c6ccc([nH]6)c(-c6ccccc6)c6nc(c(-c7ccccc7)c7ccc4[nH]7)C=C6)C=C5)cc3)ccc2Cl)o1
REMARK SMILES IDX 25 1 24 2 22 3 23 4 21 6 19 7 20 8 81 9 80 10 82 11 79 12
REMARK SMILES IDX 18 13 15 14 16 15 83 16 17 17 14 18 1 19 2 20 3 21 13 22
REMARK SMILES IDX 4 23 11 24 12 25 5 26 6 27 10 28 7 29 9 30 8 31 26 32 27 33
REMARK SMILES IDX 28 34 29 35 30 37 31 38 32 39 78 40 33 41 77 42 34 43 35 44
REMARK SMILES IDX 36 45 71 46 37 47 76 48 70 49 72 50 38 51 75 52 69 53 68 54
REMARK SMILES IDX 39 56 61 57 46 58 60 59 47 60 50 61 59 62 73 63 48 64 49 65
REMARK SMILES IDX 58 67 74 68 51 69 40 70 41 71 45 72 42 73 44 74 43 75 62 76
REMARK SMILES IDX 63 77 67 78 64 79 66 80 65 81 52 82 53 83 57 84 54 85 56 86
REMARK SMILES IDX 55 87
REMARK H PARENT 24 5 28 36 72 55 50 66
REMARK Flexibility Score: inf
ROOT
ATOM      1  C   UNL     1       6.417  -7.800  -4.923  1.00  0.00     0.118 C 
ENDROOT
BRANCH   1   2
ATOM      2  N   UNL     1       5.939  -6.475  -5.298  1.00  0.00    -0.352 N 
ATOM      3  C   UNL     1       5.459  -5.415  -4.561  1.00  0.00     0.251 C 
ATOM      4  O   UNL     1       5.072  -4.415  -5.163  1.00  0.00    -0.269 OA
ATOM      5  H   UNL     1       5.965  -6.304  -6.268  1.00  0.00     0.163 HD
BRANCH   3   6
ATOM      6  C   UNL     1       5.349  -5.462  -3.078  1.00  0.00     0.040 A 
ATOM      7  C   UNL     1       4.149  -4.829  -1.046  1.00  0.00     0.037 A 
ATOM      8  C   UNL     1       4.328  -4.734  -2.438  1.00  0.00     0.027 A 
ATOM      9  C   UNL     1       4.940  -5.749  -0.330  1.00  0.00     0.052 A 
ATOM     10  C   UNL     1       6.014  -6.385  -0.945  1.00  0.00     0.022 A 
ATOM     11  Cl  UNL     1       4.653  -6.152   1.330  1.00  0.00    -0.084 Cl
ATOM     12  C   UNL     1       6.263  -6.168  -2.294  1.00  0.00     0.015 A 
BRANCH   7  13
ATOM     13  C   UNL     1       3.302  -3.881  -0.331  1.00  0.00     0.136 A 
ATOM     14  C   UNL     1       1.492  -2.652   0.018  1.00  0.00     0.128 A 
ATOM     15  C   UNL     1       2.381  -2.415   1.062  1.00  0.00     0.051 A 
ATOM     16  O   UNL     1       2.058  -3.595  -0.819  1.00  0.00    -0.457 OA
ATOM     17  C   UNL     1       3.548  -3.144   0.806  1.00  0.00     0.051 A 
BRANCH  14  18
ATOM     18  C   UNL     1       0.216  -2.046  -0.158  1.00  0.00     0.063 C 
ATOM     19  C   UNL     1      -2.486  -0.483   0.075  1.00  0.00     0.069 C 
ATOM     20  C   UNL     1      -1.111   0.093   0.010  1.00  0.00     0.071 C 
ATOM     21  N   UNL     1      -0.846   1.365   0.167  1.00  0.00    -0.169 NA
ATOM     22  C   UNL     1       0.107  -0.711  -0.196  1.00  0.00     0.068 C 
ATOM     23  N   UNL     1       0.523   1.493  -0.045  1.00  0.00    -0.196 N 
ATOM     24  C   UNL     1       1.192   0.295  -0.316  1.00  0.00     0.280 C 
ATOM     25  O   UNL     1       2.359   0.087  -0.578  1.00  0.00    -0.267 OA
BRANCH  23  26
ATOM     26  C   UNL     1       1.114   2.771  -0.066  1.00  0.00     0.069 A 
ATOM     27  C   UNL     1       0.679   3.775   0.805  1.00  0.00     0.028 A 
ATOM     28  C   UNL     1       2.169   3.046  -0.948  1.00  0.00     0.028 A 
ATOM     29  C   UNL     1       1.321   5.017   0.821  1.00  0.00     0.002 A 
ATOM     30  C   UNL     1       2.774   4.302  -0.968  1.00  0.00     0.002 A 
ATOM     31  C   UNL     1       2.360   5.283  -0.072  1.00  0.00     0.000 A 
ENDBRANCH  23  26
ENDBRANCH  14  18
ENDBRANCH   7  13
ENDBRANCH   3   6
ENDBRANCH   1   2
BRANCH   1  32
ATOM     32  C   UNL     1       5.601  -8.941  -5.505  1.00  0.00     0.042 C 
BRANCH  32  33
ATOM     33  C   UNL     1       5.699  -9.081  -7.013  1.00  0.00     0.118 C 
BRANCH  33  34
ATOM     34  N   UNL     1       7.051  -9.378  -7.472  1.00  0.00    -0.352 N 
ATOM     35  C   UNL     1       7.605 -10.528  -7.980  1.00  0.00     0.251 C 
ATOM     36  H   UNL     1       7.677  -8.621  -7.406  1.00  0.00     0.163 HD
ATOM     37  O   UNL     1       8.823 -10.597  -8.124  1.00  0.00    -0.269 OA
BRANCH  35  38
ATOM     38  C   UNL     1       6.761 -11.693  -8.329  1.00  0.00     0.039 A 
ATOM     39  C   UNL     1       7.245 -12.981  -8.078  1.00  0.00     0.014 A 
ATOM     40  C   UNL     1       5.510 -11.531  -8.923  1.00  0.00     0.014 A 
ATOM     41  C   UNL     1       6.440 -14.091  -8.343  1.00  0.00     0.010 A 
ATOM     42  C   UNL     1       4.666 -12.625  -9.078  1.00  0.00     0.010 A 
ATOM     43  C   UNL     1       5.123 -13.920  -8.798  1.00  0.00    -0.014 A 
BRANCH  43  44
ATOM     44  C   UNL     1       4.209 -15.075  -8.992  1.00  0.00     0.031 A 
ATOM     45  C   UNL     1       3.626 -15.364 -10.349  1.00  0.00     0.074 A 
ATOM     46  C   UNL     1       3.848 -15.824  -7.931  1.00  0.00     0.049 A 
ATOM     47  N   UNL     1       2.764 -16.286 -10.699  1.00  0.00    -0.248 NA
ATOM     48  C   UNL     1       4.041 -14.484 -11.455  1.00  0.00     0.031 C 
ATOM     49  C   UNL     1       4.306 -15.624  -6.554  1.00  0.00     0.029 A 
ATOM     50  N   UNL     1       3.007 -16.905  -7.844  1.00  0.00    -0.354 N 
ATOM     51  C   UNL     1       2.523 -16.084 -12.052  1.00  0.00     0.074 A 
ATOM     52  C   UNL     1       3.280 -14.918 -12.448  1.00  0.00     0.031 C 
ATOM     53  C   UNL     1       3.771 -16.572  -5.769  1.00  0.00     0.029 A 
ATOM     54  C   UNL     1       2.893 -17.415  -6.573  1.00  0.00     0.049 A 
ATOM     55  H   UNL     1       2.530 -17.280  -8.619  1.00  0.00     0.167 HD
ATOM     56  C   UNL     1       1.757 -16.815 -12.897  1.00  0.00     0.031 A 
ATOM     57  C   UNL     1       2.157 -18.440  -6.103  1.00  0.00     0.031 A 
ATOM     58  C   UNL     1       1.009 -17.979 -12.505  1.00  0.00     0.049 A 
ATOM     59  C   UNL     1       1.295 -19.220  -7.057  1.00  0.00     0.074 A 
ATOM     60  C   UNL     1       0.250 -18.822 -13.297  1.00  0.00     0.029 A 
ATOM     61  N   UNL     1       0.920 -18.460 -11.207  1.00  0.00    -0.354 N 
ATOM     62  N   UNL     1       1.138 -19.061  -8.348  1.00  0.00    -0.248 NA
ATOM     63  C   UNL     1       0.517 -20.329  -6.487  1.00  0.00     0.031 C 
ATOM     64  C   UNL     1      -0.351 -19.775 -12.469  1.00  0.00     0.029 A 
ATOM     65  C   UNL     1       0.092 -19.570 -11.172  1.00  0.00     0.049 A 
ATOM     66  H   UNL     1       1.378 -18.071 -10.428  1.00  0.00     0.167 HD
ATOM     67  C   UNL     1       0.269 -20.068  -8.751  1.00  0.00     0.074 A 
ATOM     68  C   UNL     1      -0.050 -20.842  -7.569  1.00  0.00     0.031 C 
ATOM     69  C   UNL     1      -0.219 -20.329  -9.988  1.00  0.00     0.031 A 
BRANCH  56  70
ATOM     70  C   UNL     1       1.683 -16.367 -14.332  1.00  0.00    -0.014 A 
ATOM     71  C   UNL     1       2.799 -16.447 -15.182  1.00  0.00     0.009 A 
ATOM     72  C   UNL     1       0.470 -15.890 -14.853  1.00  0.00     0.009 A 
ATOM     73  C   UNL     1       2.711 -16.021 -16.509  1.00  0.00     0.001 A 
ATOM     74  C   UNL     1       0.376 -15.497 -16.189  1.00  0.00     0.001 A 
ATOM     75  C   UNL     1       1.499 -15.552 -17.013  1.00  0.00     0.000 A 
ENDBRANCH  56  70
BRANCH  57  76
ATOM     76  C   UNL     1       2.208 -18.797  -4.660  1.00  0.00    -0.014 A 
ATOM     77  C   UNL     1       2.790 -20.005  -4.244  1.00  0.00     0.009 A 
ATOM     78  C   UNL     1       1.665 -17.939  -3.690  1.00  0.00     0.009 A 
ATOM     79  C   UNL     1       2.799 -20.360  -2.893  1.00  0.00     0.001 A 
ATOM     80  C   UNL     1       1.705 -18.281  -2.337  1.00  0.00     0.001 A 
ATOM     81  C   UNL     1       2.261 -19.496  -1.940  1.00  0.00     0.000 A 
ENDBRANCH  57  76
BRANCH  69  82
ATOM     82  C   UNL     1      -1.119 -21.524 -10.135  1.00  0.00    -0.014 A 
ATOM     83  C   UNL     1      -2.417 -21.537  -9.601  1.00  0.00     0.009 A 
ATOM     84  C   UNL     1      -0.672 -22.642 -10.857  1.00  0.00     0.009 A 
ATOM     85  C   UNL     1      -3.233 -22.660  -9.754  1.00  0.00     0.001 A 
ATOM     86  C   UNL     1      -1.502 -23.749 -11.039  1.00  0.00     0.001 A 
ATOM     87  C   UNL     1      -2.777 -23.761 -10.477  1.00  0.00     0.000 A 
ENDBRANCH  69  82
ENDBRANCH  43  44
ENDBRANCH  35  38
ENDBRANCH  33  34
ENDBRANCH  32  33
ENDBRANCH   1  32
TORSDOF 13
