REMARK SMILES CCC[N@@H+](C)CC[C@@H]1CCC[C@]1([NH2+]C)C(=O)NCCCNC(=O)c1ccc(-c2c3nc(c(-c4ccccc4)c4ccc([nH]4)c(-c4ccccc4)c4nc(c(-c5ccccc5)c5ccc2[nH]5)C=C4)C=C3)cc1
REMARK SMILES IDX 15 1 16 2 17 3 12 5 8 6 9 7 10 8 11 9 7 10 6 11 4 12 5 13
REMARK SMILES IDX 3 15 2 16 1 17 13 18 14 19 18 22 19 23 20 24 21 25 22 26
REMARK SMILES IDX 23 28 24 29 25 30 71 31 26 32 70 33 27 34 28 35 29 36 64 37
REMARK SMILES IDX 30 38 69 39 63 40 65 41 31 42 68 43 62 44 61 45 32 47 54 48
REMARK SMILES IDX 39 49 53 50 40 51 43 52 52 53 66 54 41 55 42 56 51 58 67 59
REMARK SMILES IDX 44 60 33 61 34 62 38 63 35 64 37 65 36 66 55 67 56 68 60 69
REMARK SMILES IDX 57 70 59 71 58 72 45 73 46 74 50 75 47 76 49 77 48 78
REMARK H PARENT 17 4 4 14 13 20 13 21 21 27 65 46 43 57
REMARK Flexibility Score: inf
ROOT
ATOM      1  C   UNL     1       1.108  -3.390  -0.022  1.00  0.00     0.281 C 
ATOM      2  O   UNL     1       0.259  -3.070  -0.880  1.00  0.00    -0.268 OA
ATOM      3  N   UNL     1       0.477  -3.953   1.054  1.00  0.00    -0.351 N 
ATOM      4  H   UNL     1      -0.481  -4.052   0.851  1.00  0.00     0.163 HD
ENDROOT
BRANCH   1   5
ATOM      5  C   UNL     1       2.691  -3.138  -0.364  1.00  0.00     0.178 C 
ATOM      6  C   UNL     1       3.536  -1.753  -0.255  1.00  0.00     0.066 C 
ATOM      7  C   UNL     1       3.287  -0.896  -1.513  1.00  0.00     0.011 C 
ATOM      8  C   UNL     1       2.439  -1.748  -2.419  1.00  0.00     0.008 C 
ATOM      9  C   UNL     1       2.728  -3.174  -1.956  1.00  0.00     0.079 C 
BRANCH   6  10
ATOM     10  C   UNL     1       3.892  -0.841   0.936  1.00  0.00     0.072 C 
BRANCH  10  11
ATOM     11  C   UNL     1       2.903   0.224   1.468  1.00  0.00     0.262 C 
BRANCH  11  12
ATOM     12  N   UNL     1       1.729  -0.275   2.184  1.00  0.00    -0.337 N 
ATOM     13  C   UNL     1       2.209  -1.320   3.100  1.00  0.00     0.332 C 
ATOM     14  H   UNL     1       1.266   0.446   2.738  1.00  0.00     0.347 HD
BRANCH  12  15
ATOM     15  C   UNL     1       0.701  -0.716   1.230  1.00  0.00     0.261 C 
BRANCH  15  16
ATOM     16  C   UNL     1      -0.530   0.150   0.967  1.00  0.00     0.058 C 
ATOM     17  C   UNL     1      -0.235   1.564   0.525  1.00  0.00     0.010 C 
ENDBRANCH  15  16
ENDBRANCH  12  15
ENDBRANCH  11  12
ENDBRANCH  10  11
ENDBRANCH   6  10
BRANCH   5  18
ATOM     18  N   UNL     1       3.491  -4.268   0.200  1.00  0.00    -0.336 N 
ATOM     19  C   UNL     1       3.190  -5.570  -0.401  1.00  0.00     0.331 C 
ATOM     20  H   UNL     1       3.303  -4.326   1.201  1.00  0.00     0.346 HD
ATOM     21  H   UNL     1       4.470  -4.068  -0.004  1.00  0.00     0.346 HD
ENDBRANCH   5  18
ENDBRANCH   1   5
BRANCH   3  22
ATOM     22  C   UNL     1       0.739  -4.462   2.415  1.00  0.00     0.118 C 
BRANCH  22  23
ATOM     23  C   UNL     1       0.131  -3.587   3.555  1.00  0.00     0.042 C 
BRANCH  23  24
ATOM     24  C   UNL     1      -1.343  -3.642   3.978  1.00  0.00     0.118 C 
BRANCH  24  25
ATOM     25  N   UNL     1      -1.593  -4.531   5.098  1.00  0.00    -0.352 N 
ATOM     26  C   UNL     1      -1.625  -4.380   6.467  1.00  0.00     0.251 C 
ATOM     27  H   UNL     1      -1.783  -5.454   4.814  1.00  0.00     0.163 HD
ATOM     28  O   UNL     1      -1.692  -5.424   7.121  1.00  0.00    -0.269 OA
BRANCH  26  29
ATOM     29  C   UNL     1      -1.599  -3.089   7.231  1.00  0.00     0.039 A 
ATOM     30  C   UNL     1      -1.097  -3.146   8.547  1.00  0.00     0.014 A 
ATOM     31  C   UNL     1      -2.196  -1.895   6.823  1.00  0.00     0.014 A 
ATOM     32  C   UNL     1      -1.214  -2.061   9.434  1.00  0.00     0.010 A 
ATOM     33  C   UNL     1      -2.263  -0.784   7.697  1.00  0.00     0.010 A 
ATOM     34  C   UNL     1      -1.810  -0.861   9.027  1.00  0.00    -0.014 A 
BRANCH  34  35
ATOM     35  C   UNL     1      -2.033   0.254  10.008  1.00  0.00     0.031 A 
ATOM     36  C   UNL     1      -3.436   0.675  10.393  1.00  0.00     0.074 A 
ATOM     37  C   UNL     1      -0.993   0.897  10.581  1.00  0.00     0.049 A 
ATOM     38  N   UNL     1      -3.829   1.618  11.219  1.00  0.00    -0.248 NA
ATOM     39  C   UNL     1      -4.543  -0.043   9.746  1.00  0.00     0.031 C 
ATOM     40  C   UNL     1       0.420   0.634  10.308  1.00  0.00     0.029 A 
ATOM     41  N   UNL     1      -0.965   1.905  11.520  1.00  0.00    -0.354 N 
ATOM     42  C   UNL     1      -5.219   1.630  11.157  1.00  0.00     0.074 A 
ATOM     43  C   UNL     1      -5.599   0.623  10.188  1.00  0.00     0.031 C 
ATOM     44  C   UNL     1       1.175   1.433  11.081  1.00  0.00     0.029 A 
ATOM     45  C   UNL     1       0.305   2.284  11.890  1.00  0.00     0.049 A 
ATOM     46  H   UNL     1      -1.778   2.316  11.892  1.00  0.00     0.167 HD
ATOM     47  C   UNL     1      -6.108   2.389  11.847  1.00  0.00     0.031 A 
ATOM     48  C   UNL     1       0.729   3.200  12.783  1.00  0.00     0.031 A 
ATOM     49  C   UNL     1      -5.753   3.362  12.848  1.00  0.00     0.049 A 
ATOM     50  C   UNL     1      -0.272   3.990  13.582  1.00  0.00     0.074 A 
ATOM     51  C   UNL     1      -6.589   4.140  13.633  1.00  0.00     0.029 A 
ATOM     52  N   UNL     1      -4.456   3.680  13.212  1.00  0.00    -0.354 N 
ATOM     53  N   UNL     1      -1.581   3.954  13.534  1.00  0.00    -0.248 NA
ATOM     54  C   UNL     1       0.267   4.931  14.578  1.00  0.00     0.031 C 
ATOM     55  C   UNL     1      -5.795   4.946  14.457  1.00  0.00     0.029 A 
ATOM     56  C   UNL     1      -4.467   4.640  14.211  1.00  0.00     0.049 A 
ATOM     57  H   UNL     1      -3.645   3.282  12.820  1.00  0.00     0.167 HD
ATOM     58  C   UNL     1      -2.020   4.844  14.507  1.00  0.00     0.074 A 
ATOM     59  C   UNL     1      -0.840   5.392  15.141  1.00  0.00     0.031 C 
ATOM     60  C   UNL     1      -3.290   5.175  14.843  1.00  0.00     0.031 A 
BRANCH  47  61
ATOM     61  C   UNL     1      -7.569   2.196  11.536  1.00  0.00    -0.014 A 
ATOM     62  C   UNL     1      -8.250   1.031  11.926  1.00  0.00     0.009 A 
ATOM     63  C   UNL     1      -8.280   3.202  10.863  1.00  0.00     0.009 A 
ATOM     64  C   UNL     1      -9.599   0.858  11.605  1.00  0.00     0.001 A 
ATOM     65  C   UNL     1      -9.636   3.039  10.569  1.00  0.00     0.001 A 
ATOM     66  C   UNL     1     -10.291   1.862  10.929  1.00  0.00     0.000 A 
ENDBRANCH  47  61
BRANCH  48  67
ATOM     67  C   UNL     1       2.186   3.395  13.014  1.00  0.00    -0.014 A 
ATOM     68  C   UNL     1       2.787   2.921  14.191  1.00  0.00     0.009 A 
ATOM     69  C   UNL     1       2.980   4.058  12.066  1.00  0.00     0.009 A 
ATOM     70  C   UNL     1       4.150   3.125  14.423  1.00  0.00     0.001 A 
ATOM     71  C   UNL     1       4.348   4.239  12.290  1.00  0.00     0.001 A 
ATOM     72  C   UNL     1       4.929   3.779  13.471  1.00  0.00     0.000 A 
ENDBRANCH  48  67
BRANCH  60  73
ATOM     73  C   UNL     1      -3.470   6.146  15.975  1.00  0.00    -0.014 A 
ATOM     74  C   UNL     1      -3.198   7.514  15.814  1.00  0.00     0.009 A 
ATOM     75  C   UNL     1      -3.941   5.687  17.215  1.00  0.00     0.009 A 
ATOM     76  C   UNL     1      -3.357   8.396  16.886  1.00  0.00     0.001 A 
ATOM     77  C   UNL     1      -4.121   6.575  18.277  1.00  0.00     0.001 A 
ATOM     78  C   UNL     1      -3.820   7.926  18.114  1.00  0.00     0.000 A 
ENDBRANCH  60  73
ENDBRANCH  34  35
ENDBRANCH  26  29
ENDBRANCH  24  25
ENDBRANCH  23  24
ENDBRANCH  22  23
ENDBRANCH   3  22
TORSDOF 16
