REMARK SMILES O=C1C[C@H](C(=O)NCCCNC(=O)c2ccc(-c3c4nc(c(-c5ccccc5)c5ccc([nH]5)c(-c5ccccc5)c5nc(c(-c6ccccc6)c6ccc3[nH]6)C=C5)C=C4)cc2)c2c(nc(N3CCSCC3)[nH]c2=O)N1
REMARK SMILES IDX 9 1 8 2 7 3 5 4 6 5 4 7 1 8 2 9 3 10 75 11 63 12 62 14 64 15
REMARK SMILES IDX 73 16 65 17 72 18 74 19 66 21 67 22 71 23 68 24 70 25 69 26
REMARK SMILES IDX 10 27 11 28 12 29 13 31 14 32 15 33 61 34 16 35 60 36 17 37
REMARK SMILES IDX 18 38 19 39 54 40 20 41 59 42 53 43 55 44 21 45 58 46 52 47
REMARK SMILES IDX 51 48 22 50 44 51 29 52 43 53 30 54 33 55 42 56 56 57 31 58
REMARK SMILES IDX 32 59 41 61 57 62 34 63 23 64 24 65 28 66 25 67 27 68 26 69
REMARK SMILES IDX 45 70 46 71 50 72 47 73 49 74 48 75 35 76 36 77 40 78 37 79
REMARK SMILES IDX 39 80 38 81
REMARK H PARENT 7 6 75 13 72 20 11 30 55 49 33 60
REMARK Flexibility Score: inf
ROOT
ATOM      1  C   UNL     1       6.314  -1.239   2.063  1.00  0.00     0.042 C 
ENDROOT
BRANCH   1   2
ATOM      2  C   UNL     1       6.316  -1.061   0.551  1.00  0.00     0.117 C 
BRANCH   2   3
ATOM      3  N   UNL     1       5.930  -2.283  -0.135  1.00  0.00    -0.355 N 
ATOM      4  C   UNL     1       4.857  -2.585  -0.917  1.00  0.00     0.228 C 
ATOM      5  O   UNL     1       4.709  -3.768  -1.234  1.00  0.00    -0.274 OA
ATOM      6  H   UNL     1       6.559  -3.030  -0.011  1.00  0.00     0.163 HD
BRANCH   4   7
ATOM      7  C   UNL     1       3.826  -1.533  -1.336  1.00  0.00     0.127 C 
ATOM      8  O   UNL     1       1.659   0.588   0.792  1.00  0.00    -0.275 OA
ATOM      9  C   UNL     1       2.549   0.239   0.019  1.00  0.00     0.226 C 
ATOM     10  C   UNL     1       2.926  -1.215  -0.140  1.00  0.00     0.119 C 
ATOM     11  N   UNL     1       3.283   1.163  -0.662  1.00  0.00    -0.310 N 
ATOM     12  C   UNL     1       4.236   0.911  -1.599  1.00  0.00     0.146 A 
ATOM     13  H   UNL     1       3.106   2.109  -0.455  1.00  0.00     0.171 HD
ATOM     14  C   UNL     1       4.480  -0.348  -1.972  1.00  0.00     0.073 A 
ATOM     15  N   UNL     1       4.887   2.018  -2.061  1.00  0.00    -0.196 NA
ATOM     16  C   UNL     1       5.470  -0.532  -3.047  1.00  0.00     0.258 A 
ATOM     17  C   UNL     1       5.774   1.848  -2.991  1.00  0.00     0.207 A 
ATOM     18  N   UNL     1       6.051   0.612  -3.496  1.00  0.00    -0.292 N 
ATOM     19  O   UNL     1       5.764  -1.629  -3.500  1.00  0.00    -0.269 OA
ATOM     20  H   UNL     1       6.707   0.544  -4.227  1.00  0.00     0.173 HD
BRANCH  17  21
ATOM     21  N   UNL     1       6.522   2.874  -3.503  1.00  0.00    -0.341 N 
ATOM     22  C   UNL     1       6.543   3.187  -4.935  1.00  0.00     0.130 C 
ATOM     23  C   UNL     1       7.210   3.821  -2.618  1.00  0.00     0.130 C 
ATOM     24  C   UNL     1       5.855   4.524  -5.225  1.00  0.00     0.091 C 
ATOM     25  C   UNL     1       6.626   5.230  -2.689  1.00  0.00     0.091 C 
ATOM     26  S   UNL     1       6.685   5.912  -4.381  1.00  0.00    -0.158 SA
ENDBRANCH  17  21
ENDBRANCH   4   7
ENDBRANCH   2   3
ENDBRANCH   1   2
BRANCH   1  27
ATOM     27  C   UNL     1       7.357  -2.234   2.554  1.00  0.00     0.118 C 
BRANCH  27  28
ATOM     28  N   UNL     1       8.715  -1.727   2.405  1.00  0.00    -0.352 N 
ATOM     29  C   UNL     1       9.590  -1.301   3.374  1.00  0.00     0.251 C 
ATOM     30  H   UNL     1       9.052  -1.684   1.482  1.00  0.00     0.163 HD
ATOM     31  O   UNL     1      10.615  -0.702   3.067  1.00  0.00    -0.269 OA
BRANCH  29  32
ATOM     32  C   UNL     1       9.277  -1.552   4.794  1.00  0.00     0.039 A 
ATOM     33  C   UNL     1       9.366  -0.500   5.707  1.00  0.00     0.014 A 
ATOM     34  C   UNL     1       8.891  -2.828   5.216  1.00  0.00     0.014 A 
ATOM     35  C   UNL     1       9.005  -0.714   7.038  1.00  0.00     0.010 A 
ATOM     36  C   UNL     1       8.467  -3.023   6.526  1.00  0.00     0.010 A 
ATOM     37  C   UNL     1       8.530  -1.970   7.449  1.00  0.00    -0.014 A 
BRANCH  37  38
ATOM     38  C   UNL     1       8.130  -2.210   8.854  1.00  0.00     0.031 A 
ATOM     39  C   UNL     1       8.959  -3.115   9.719  1.00  0.00     0.074 A 
ATOM     40  C   UNL     1       7.011  -1.641   9.341  1.00  0.00     0.049 A 
ATOM     41  N   UNL     1       8.769  -3.458  10.967  1.00  0.00    -0.248 NA
ATOM     42  C   UNL     1      10.147  -3.726   9.101  1.00  0.00     0.031 C 
ATOM     43  C   UNL     1       6.111  -0.764   8.591  1.00  0.00     0.029 A 
ATOM     44  N   UNL     1       6.444  -1.713  10.589  1.00  0.00    -0.354 N 
ATOM     45  C   UNL     1       9.809  -4.322  11.279  1.00  0.00     0.074 A 
ATOM     46  C   UNL     1      10.600  -4.493  10.082  1.00  0.00     0.031 C 
ATOM     47  C   UNL     1       5.124  -0.352   9.404  1.00  0.00     0.029 A 
ATOM     48  C   UNL     1       5.306  -0.956  10.721  1.00  0.00     0.049 A 
ATOM     49  H   UNL     1       6.818  -2.256  11.320  1.00  0.00     0.167 HD
ATOM     50  C   UNL     1      10.097  -4.898  12.468  1.00  0.00     0.031 A 
ATOM     51  C   UNL     1       4.503  -0.764  11.785  1.00  0.00     0.031 A 
ATOM     52  C   UNL     1       9.326  -4.714  13.664  1.00  0.00     0.049 A 
ATOM     53  C   UNL     1       4.827  -1.440  13.087  1.00  0.00     0.074 A 
ATOM     54  C   UNL     1       9.571  -5.221  14.927  1.00  0.00     0.029 A 
ATOM     55  N   UNL     1       8.167  -3.961  13.745  1.00  0.00    -0.354 N 
ATOM     56  N   UNL     1       5.840  -2.218  13.378  1.00  0.00    -0.248 NA
ATOM     57  C   UNL     1       3.903  -1.210  14.207  1.00  0.00     0.031 C 
ATOM     58  C   UNL     1       8.536  -4.806  15.768  1.00  0.00     0.029 A 
ATOM     59  C   UNL     1       7.672  -4.006  15.035  1.00  0.00     0.049 A 
ATOM     60  H   UNL     1       7.757  -3.469  12.998  1.00  0.00     0.167 HD
ATOM     61  C   UNL     1       5.687  -2.556  14.715  1.00  0.00     0.074 A 
ATOM     62  C   UNL     1       4.486  -1.896  15.183  1.00  0.00     0.031 C 
ATOM     63  C   UNL     1       6.477  -3.343  15.485  1.00  0.00     0.031 A 
BRANCH  50  64
ATOM     64  C   UNL     1      11.316  -5.769  12.543  1.00  0.00    -0.014 A 
ATOM     65  C   UNL     1      12.599  -5.202  12.574  1.00  0.00     0.009 A 
ATOM     66  C   UNL     1      11.178  -7.160  12.661  1.00  0.00     0.009 A 
ATOM     67  C   UNL     1      13.725  -6.014  12.711  1.00  0.00     0.001 A 
ATOM     68  C   UNL     1      12.305  -7.968  12.818  1.00  0.00     0.001 A 
ATOM     69  C   UNL     1      13.577  -7.395  12.840  1.00  0.00     0.000 A 
ENDBRANCH  50  64
BRANCH  51  70
ATOM     70  C   UNL     1       3.336   0.144  11.664  1.00  0.00    -0.014 A 
ATOM     71  C   UNL     1       3.388   1.434  12.213  1.00  0.00     0.009 A 
ATOM     72  C   UNL     1       2.188  -0.252  10.960  1.00  0.00     0.009 A 
ATOM     73  C   UNL     1       2.309   2.309  12.062  1.00  0.00     0.001 A 
ATOM     74  C   UNL     1       1.120   0.632  10.796  1.00  0.00     0.001 A 
ATOM     75  C   UNL     1       1.180   1.911  11.349  1.00  0.00     0.000 A 
ENDBRANCH  51  70
BRANCH  63  76
ATOM     76  C   UNL     1       6.093  -3.541  16.920  1.00  0.00    -0.014 A 
ATOM     77  C   UNL     1       5.095  -4.460  17.273  1.00  0.00     0.009 A 
ATOM     78  C   UNL     1       6.836  -2.911  17.931  1.00  0.00     0.009 A 
ATOM     79  C   UNL     1       4.849  -4.747  18.617  1.00  0.00     0.001 A 
ATOM     80  C   UNL     1       6.600  -3.215  19.272  1.00  0.00     0.001 A 
ATOM     81  C   UNL     1       5.609  -4.133  19.614  1.00  0.00     0.000 A 
ENDBRANCH  63  76
ENDBRANCH  37  38
ENDBRANCH  29  32
ENDBRANCH  27  28
ENDBRANCH   1  27
TORSDOF 11
