REMARK SMILES O=C(/C=C/[C@@]12C=C(O)C(=O)C=C1C(=O)C1=Cc3cc(O)c(O)cc3O[C@@H](c3ccc(O)c(O)c3)[C@@H]12)NCCCNC(=O)c1ccc(-c2c3nc(c(-c4ccccc4)c4ccc([nH]4)c(-c4ccccc4)c4nc(c(-c5ccccc5)c5ccc2[nH]5)C=C4)C=C3)cc1
REMARK SMILES IDX 1 1 2 2 36 3 3 5 4 6 5 7 6 8 12 9 35 10 7 11 11 12 13 13
REMARK SMILES IDX 15 14 9 16 14 17 16 18 10 19 8 20 17 22 18 23 24 24 19 25
REMARK SMILES IDX 23 26 21 27 25 28 26 29 27 31 28 32 34 33 29 34 32 35 30 36
REMARK SMILES IDX 33 37 31 39 20 41 22 43 37 45 38 46 39 47 40 48 41 49 42 51
REMARK SMILES IDX 43 52 44 53 90 54 45 55 89 56 46 57 47 58 48 59 83 60 49 61
REMARK SMILES IDX 88 62 82 63 84 64 50 65 87 66 81 67 80 68 51 70 73 71 58 72
REMARK SMILES IDX 72 73 59 74 62 75 71 76 85 77 60 78 61 79 70 81 86 82 63 83
REMARK SMILES IDX 52 84 53 85 57 86 54 87 56 88 55 89 74 90 75 91 79 92 76 93
REMARK SMILES IDX 78 94 77 95 64 96 65 97 69 98 66 99 68 100 67 101
REMARK H PARENT 36 4 8 21 33 38 31 40 20 42 22 44 40 50 84 69 62 80
REMARK Flexibility Score: 90.00
ROOT
ATOM      1  O   UNL     1       0.737  -0.462  -0.615  1.00  0.00    -0.270 OA
ATOM      2  C   UNL     1       1.871  -0.151  -0.282  1.00  0.00     0.243 C 
ATOM      3  N   UNL     1       2.577  -0.715   0.758  1.00  0.00    -0.352 N 
ATOM      4  H   UNL     1       3.500  -0.411   0.914  1.00  0.00     0.163 HD
ENDROOT
BRANCH   2   5
ATOM      5  C   UNL     1       2.578   0.987  -0.943  1.00  0.00     0.068 C 
ATOM      6  C   UNL     1       3.883   0.891  -1.247  1.00  0.00    -0.005 C 
BRANCH   6   7
ATOM      7  C   UNL     1       4.870   1.987  -1.726  1.00  0.00     0.051 C 
ATOM      8  C   UNL     1       4.662   3.199  -0.859  1.00  0.00     0.040 C 
ATOM      9  C   UNL     1       6.246   1.389  -1.523  1.00  0.00     0.018 C 
ATOM     10  C   UNL     1       4.905   2.213  -3.276  1.00  0.00     0.087 CG0
ATOM     11  C   UNL     1       5.499   3.547   0.129  1.00  0.00     0.160 C 
ATOM     12  C   UNL     1       7.127   1.703  -0.570  1.00  0.00     0.065 C 
ATOM     13  C   UNL     1       6.466   0.445  -2.657  1.00  0.00     0.186 C 
ATOM     14  C   UNL     1       5.547   0.915  -3.735  1.00  0.00     0.009 C 
ATOM     15  G   UNL     1       5.846   3.315  -3.891  1.00  0.00     0.000 G0
ATOM     16  C   UNL     1       6.770   2.791   0.370  1.00  0.00     0.220 C 
ATOM     17  O   UNL     1       7.241  -0.477  -2.690  1.00  0.00    -0.289 OA
ATOM     18  C   UNL     1       5.430   0.409  -4.965  1.00  0.00     0.020 C 
ATOM     19  O   UNL     1       7.510   3.129   1.287  1.00  0.00    -0.286 OA
BRANCH  11  20
ATOM     20  O   UNL     1       5.232   4.642   0.926  1.00  0.00    -0.504 OA
ATOM     21  H   UNL     1       4.445   5.134   0.798  1.00  0.00     0.293 HD
ENDBRANCH  11  20
BRANCH  18  22
ATOM     22  C   UNL     1       4.781   1.252  -5.981  1.00  0.00     0.021 A 
ATOM     23  C   UNL     1       3.825   0.704  -6.850  1.00  0.00     0.062 A 
ATOM     24  C   UNL     1       5.149   2.610  -6.127  1.00  0.00     0.131 A 
ATOM     25  C   UNL     1       3.279   1.503  -7.854  1.00  0.00     0.158 A 
ATOM     26  C   UNL     1       4.656   3.369  -7.188  1.00  0.00     0.097 A 
ATOM     27  C   UNL     1       3.708   2.816  -8.030  1.00  0.00     0.161 A 
BRANCH  24  28
ATOM     28  O   UNL     1       6.066   3.248  -5.331  1.00  0.00    -0.484 OA
BRANCH  28  29
ATOM     29  C   UNL     1       5.846   3.315  -3.891  1.00  0.00     0.213 CG0
ATOM     30  G   UNL     1       4.905   2.213  -3.276  1.00  0.00     0.000 G0
BRANCH  29  31
ATOM     31  C   UNL     1       5.511   4.755  -3.539  1.00  0.00    -0.003 A 
ATOM     32  C   UNL     1       6.209   5.399  -2.501  1.00  0.00     0.011 A 
ATOM     33  C   UNL     1       4.536   5.485  -4.233  1.00  0.00     0.057 A 
ATOM     34  C   UNL     1       5.854   6.681  -2.078  1.00  0.00     0.050 A 
ATOM     35  C   UNL     1       4.240   6.796  -3.860  1.00  0.00     0.157 A 
ATOM     36  C   UNL     1       4.853   7.369  -2.751  1.00  0.00     0.157 A 
BRANCH  35  37
ATOM     37  O   UNL     1       3.331   7.518  -4.579  1.00  0.00    -0.504 OA
ATOM     38  H   UNL     1       3.131   8.399  -4.330  1.00  0.00     0.293 HD
ENDBRANCH  35  37
BRANCH  36  39
ATOM     39  O   UNL     1       4.477   8.613  -2.334  1.00  0.00    -0.504 OA
ATOM     40  H   UNL     1       4.888   9.001  -1.587  1.00  0.00     0.293 HD
ENDBRANCH  36  39
ENDBRANCH  29  31
ENDBRANCH  28  29
ENDBRANCH  24  28
BRANCH  25  41
ATOM     41  O   UNL     1       2.317   1.040  -8.710  1.00  0.00    -0.504 OA
ATOM     42  H   UNL     1       1.999   0.163  -8.628  1.00  0.00     0.293 HD
ENDBRANCH  25  41
BRANCH  27  43
ATOM     43  O   UNL     1       3.189   3.583  -9.033  1.00  0.00    -0.504 OA
ATOM     44  H   UNL     1       2.546   3.224  -9.612  1.00  0.00     0.293 HD
ENDBRANCH  27  43
ENDBRANCH  18  22
ENDBRANCH   6   7
ENDBRANCH   2   5
BRANCH   3  45
ATOM     45  C   UNL     1       2.030  -1.734   1.638  1.00  0.00     0.118 C 
BRANCH  45  46
ATOM     46  C   UNL     1       2.424  -3.154   1.244  1.00  0.00     0.042 C 
BRANCH  46  47
ATOM     47  C   UNL     1       3.925  -3.436   1.268  1.00  0.00     0.118 C 
BRANCH  47  48
ATOM     48  N   UNL     1       4.502  -3.479   2.608  1.00  0.00    -0.352 N 
ATOM     49  C   UNL     1       5.152  -4.497   3.271  1.00  0.00     0.251 C 
ATOM     50  H   UNL     1       4.413  -2.644   3.122  1.00  0.00     0.163 HD
ATOM     51  O   UNL     1       5.488  -4.346   4.442  1.00  0.00    -0.269 OA
BRANCH  49  52
ATOM     52  C   UNL     1       5.400  -5.795   2.602  1.00  0.00     0.039 A 
ATOM     53  C   UNL     1       5.909  -5.857   1.305  1.00  0.00     0.014 A 
ATOM     54  C   UNL     1       5.082  -6.975   3.283  1.00  0.00     0.014 A 
ATOM     55  C   UNL     1       5.898  -7.068   0.617  1.00  0.00     0.010 A 
ATOM     56  C   UNL     1       5.150  -8.203   2.617  1.00  0.00     0.010 A 
ATOM     57  C   UNL     1       5.487  -8.249   1.255  1.00  0.00    -0.014 A 
BRANCH  57  58
ATOM     58  C   UNL     1       5.349  -9.508   0.475  1.00  0.00     0.031 A 
ATOM     59  C   UNL     1       3.990 -10.132   0.275  1.00  0.00     0.074 A 
ATOM     60  C   UNL     1       6.429 -10.066  -0.105  1.00  0.00     0.049 A 
ATOM     61  N   UNL     1       3.673 -11.231  -0.364  1.00  0.00    -0.248 NA
ATOM     62  C   UNL     1       2.837  -9.434   0.867  1.00  0.00     0.031 C 
ATOM     63  C   UNL     1       7.792  -9.540  -0.027  1.00  0.00     0.029 A 
ATOM     64  N   UNL     1       6.547 -11.186  -0.890  1.00  0.00    -0.354 N 
ATOM     65  C   UNL     1       2.295 -11.363  -0.235  1.00  0.00     0.074 A 
ATOM     66  C   UNL     1       1.837 -10.251   0.567  1.00  0.00     0.031 C 
ATOM     67  C   UNL     1       8.601 -10.310  -0.771  1.00  0.00     0.029 A 
ATOM     68  C   UNL     1       7.830 -11.422  -1.321  1.00  0.00     0.049 A 
ATOM     69  H   UNL     1       5.785 -11.765  -1.123  1.00  0.00     0.167 HD
ATOM     70  C   UNL     1       1.483 -12.316  -0.750  1.00  0.00     0.031 A 
ATOM     71  C   UNL     1       8.340 -12.428  -2.059  1.00  0.00     0.031 A 
ATOM     72  C   UNL     1       1.934 -13.411  -1.566  1.00  0.00     0.049 A 
ATOM     73  C   UNL     1       7.431 -13.519  -2.550  1.00  0.00     0.074 A 
ATOM     74  C   UNL     1       1.176 -14.408  -2.155  1.00  0.00     0.029 A 
ATOM     75  N   UNL     1       3.254 -13.655  -1.907  1.00  0.00    -0.354 N 
ATOM     76  N   UNL     1       6.131 -13.625  -2.422  1.00  0.00    -0.248 NA
ATOM     77  C   UNL     1       8.057 -14.633  -3.277  1.00  0.00     0.031 C 
ATOM     78  C   UNL     1       2.044 -15.292  -2.799  1.00  0.00     0.029 A 
ATOM     79  C   UNL     1       3.336 -14.808  -2.668  1.00  0.00     0.049 A 
ATOM     80  H   UNL     1       4.019 -13.092  -1.647  1.00  0.00     0.167 HD
ATOM     81  C   UNL     1       5.781 -14.808  -3.060  1.00  0.00     0.074 A 
ATOM     82  C   UNL     1       7.003 -15.376  -3.592  1.00  0.00     0.031 C 
ATOM     83  C   UNL     1       4.556 -15.370  -3.188  1.00  0.00     0.031 A 
BRANCH  70  84
ATOM     84  C   UNL     1       0.012 -12.238  -0.446  1.00  0.00    -0.014 A 
ATOM     85  C   UNL     1      -0.580 -13.212   0.375  1.00  0.00     0.009 A 
ATOM     86  C   UNL     1      -0.807 -11.272  -1.051  1.00  0.00     0.009 A 
ATOM     87  C   UNL     1      -1.962 -13.230   0.572  1.00  0.00     0.001 A 
ATOM     88  C   UNL     1      -2.186 -11.276  -0.829  1.00  0.00     0.001 A 
ATOM     89  C   UNL     1      -2.763 -12.260  -0.027  1.00  0.00     0.000 A 
ENDBRANCH  70  84
BRANCH  71  90
ATOM     90  C   UNL     1       9.796 -12.443  -2.360  1.00  0.00    -0.014 A 
ATOM     91  C   UNL     1      10.734 -12.636  -1.332  1.00  0.00     0.009 A 
ATOM     92  C   UNL     1      10.258 -12.210  -3.663  1.00  0.00     0.009 A 
ATOM     93  C   UNL     1      12.103 -12.561  -1.595  1.00  0.00     0.001 A 
ATOM     94  C   UNL     1      11.629 -12.166  -3.929  1.00  0.00     0.001 A 
ATOM     95  C   UNL     1      12.550 -12.329  -2.894  1.00  0.00     0.000 A 
ENDBRANCH  71  90
BRANCH  83  96
ATOM     96  C   UNL     1       4.447 -16.672  -3.931  1.00  0.00    -0.014 A 
ATOM     97  C   UNL     1       3.803 -16.713  -5.178  1.00  0.00     0.009 A 
ATOM     98  C   UNL     1       4.865 -17.874  -3.340  1.00  0.00     0.009 A 
ATOM     99  C   UNL     1       3.556 -17.933  -5.808  1.00  0.00     0.001 A 
ATOM    100  C   UNL     1       4.642 -19.091  -3.987  1.00  0.00     0.001 A 
ATOM    101  C   UNL     1       3.977 -19.121  -5.213  1.00  0.00     0.000 A 
ENDBRANCH  83  96
ENDBRANCH  57  58
ENDBRANCH  49  52
ENDBRANCH  47  48
ENDBRANCH  46  47
ENDBRANCH  45  46
ENDBRANCH   3  45
TORSDOF 17
