REMARK SMILES CC(C)CCc1cc2c(cc1Cl)C=C(C(=O)NCCCNC(=O)c1ccc(-c3c4nc(c(-c5ccccc5)c5ccc([nH]5)c(-c5ccccc5)c5nc(c(-c6ccccc6)c6ccc3[nH]6)C=C5)C=C4)cc1)[C@H](C(F)(F)F)O2
REMARK SMILES IDX 18 1 17 2 15 3 16 4 14 6 6 7 7 8 11 9 8 10 10 11 12 12 9 13
REMARK SMILES IDX 77 14 13 15 72 16 5 17 4 18 2 19 1 20 3 21 73 22 74 23 75 24
REMARK SMILES IDX 76 25 19 26 20 27 21 28 22 29 23 31 24 32 25 33 71 34 26 35
REMARK SMILES IDX 70 36 27 37 28 38 29 39 64 40 30 41 69 42 63 43 65 44 31 45
REMARK SMILES IDX 68 46 62 47 61 48 32 50 54 51 39 52 53 53 40 54 43 55 52 56
REMARK SMILES IDX 66 57 41 58 42 59 51 61 67 62 44 63 33 64 34 65 38 66 35 67
REMARK SMILES IDX 37 68 36 69 55 70 56 71 60 72 57 73 59 74 58 75 45 76 46 77
REMARK SMILES IDX 50 78 47 79 49 80 48 81
REMARK H PARENT 17 5 21 30 65 49 43 60
REMARK Flexibility Score: inf
ROOT
ATOM      1  C   UNL     1       0.771   3.453  -9.599  1.00  0.00     0.118 C 
ENDROOT
BRANCH   1   2
ATOM      2  N   UNL     1       1.080   2.035  -9.679  1.00  0.00    -0.352 N 
ATOM      3  C   UNL     1       1.006   0.961  -8.860  1.00  0.00     0.251 C 
ATOM      4  O   UNL     1       1.339  -0.113  -9.369  1.00  0.00    -0.270 OA
ATOM      5  H   UNL     1       1.438   1.791 -10.563  1.00  0.00     0.163 HD
BRANCH   3   6
ATOM      6  C   UNL     1       0.554   0.997  -7.441  1.00  0.00     0.067 C 
ATOM      7  C   UNL     1      -1.207  -0.368  -2.894  1.00  0.00    -0.026 A 
ATOM      8  C   UNL     1      -0.862   0.853  -3.503  1.00  0.00     0.052 A 
ATOM      9  C   UNL     1      -1.122  -1.535  -3.673  1.00  0.00     0.045 A 
ATOM     10  C   UNL     1      -0.411   0.902  -4.822  1.00  0.00     0.128 A 
ATOM     11  C   UNL     1      -0.652  -1.483  -4.992  1.00  0.00     0.032 A 
ATOM     12  Cl  UNL     1      -1.626  -3.082  -3.098  1.00  0.00    -0.084 Cl
ATOM     13  C   UNL     1      -0.299  -0.263  -5.571  1.00  0.00     0.019 A 
ATOM     14  O   UNL     1      -0.146   2.141  -5.327  1.00  0.00    -0.475 OA
ATOM     15  C   UNL     1       0.124  -0.184  -6.960  1.00  0.00     0.025 C 
ATOM     16  C   UNL     1       0.646   2.202  -6.545  1.00  0.00     0.314 C 
BRANCH   7  17
ATOM     17  C   UNL     1      -1.683  -0.320  -1.457  1.00  0.00     0.037 C 
BRANCH  17  18
ATOM     18  C   UNL     1      -0.968  -1.224  -0.441  1.00  0.00     0.008 C 
BRANCH  18  19
ATOM     19  C   UNL     1       0.571  -1.202  -0.491  1.00  0.00    -0.017 C 
ATOM     20  C   UNL     1       1.140   0.105   0.061  1.00  0.00     0.007 C 
ATOM     21  C   UNL     1       1.127  -2.393   0.293  1.00  0.00     0.007 C 
ENDBRANCH  18  19
ENDBRANCH  17  18
ENDBRANCH   7  17
BRANCH  16  22
ATOM     22  C   UNL     1       2.087   2.606  -6.196  1.00  0.00     0.429 C 
ATOM     23  F   UNL     1       2.494   2.118  -5.003  1.00  0.00    -0.167 F 
ATOM     24  F   UNL     1       2.986   2.194  -7.119  1.00  0.00    -0.167 F 
ATOM     25  F   UNL     1       2.189   3.959  -6.134  1.00  0.00    -0.167 F 
ENDBRANCH  16  22
ENDBRANCH   3   6
ENDBRANCH   1   2
BRANCH   1  26
ATOM     26  C   UNL     1       2.037   4.287  -9.443  1.00  0.00     0.042 C 
BRANCH  26  27
ATOM     27  C   UNL     1       2.847   4.367 -10.733  1.00  0.00     0.118 C 
BRANCH  27  28
ATOM     28  N   UNL     1       2.222   5.244 -11.716  1.00  0.00    -0.352 N 
ATOM     29  C   UNL     1       2.615   6.479 -12.174  1.00  0.00     0.251 C 
ATOM     30  H   UNL     1       1.391   4.898 -12.114  1.00  0.00     0.163 HD
ATOM     31  O   UNL     1       1.829   7.168 -12.821  1.00  0.00    -0.269 OA
BRANCH  29  32
ATOM     32  C   UNL     1       3.968   6.990 -11.871  1.00  0.00     0.039 A 
ATOM     33  C   UNL     1       5.074   6.141 -11.925  1.00  0.00     0.014 A 
ATOM     34  C   UNL     1       4.137   8.335 -11.530  1.00  0.00     0.014 A 
ATOM     35  C   UNL     1       6.302   6.579 -11.448  1.00  0.00     0.010 A 
ATOM     36  C   UNL     1       5.401   8.804 -11.159  1.00  0.00     0.010 A 
ATOM     37  C   UNL     1       6.484   7.917 -11.063  1.00  0.00    -0.014 A 
BRANCH  37  38
ATOM     38  C   UNL     1       7.816   8.358 -10.574  1.00  0.00     0.031 A 
ATOM     39  C   UNL     1       7.992   8.875  -9.171  1.00  0.00     0.074 A 
ATOM     40  C   UNL     1       8.887   8.232 -11.383  1.00  0.00     0.049 A 
ATOM     41  N   UNL     1       9.087   9.275  -8.575  1.00  0.00    -0.248 NA
ATOM     42  C   UNL     1       6.788   8.959  -8.328  1.00  0.00     0.031 C 
ATOM     43  C   UNL     1       8.847   7.718 -12.754  1.00  0.00     0.029 A 
ATOM     44  N   UNL     1      10.217   8.487 -11.163  1.00  0.00    -0.354 N 
ATOM     45  C   UNL     1       8.703   9.673  -7.300  1.00  0.00     0.074 A 
ATOM     46  C   UNL     1       7.269   9.503  -7.219  1.00  0.00     0.031 C 
ATOM     47  C   UNL     1      10.098   7.627 -13.225  1.00  0.00     0.029 A 
ATOM     48  C   UNL     1      11.021   8.154 -12.226  1.00  0.00     0.049 A 
ATOM     49  H   UNL     1      10.561   8.871 -10.325  1.00  0.00     0.167 HD
ATOM     50  C   UNL     1       9.478  10.126  -6.286  1.00  0.00     0.031 A 
ATOM     51  C   UNL     1      12.352   8.268 -12.393  1.00  0.00     0.031 A 
ATOM     52  C   UNL     1      10.906  10.284  -6.371  1.00  0.00     0.049 A 
ATOM     53  C   UNL     1      13.182   8.831 -11.277  1.00  0.00     0.074 A 
ATOM     54  C   UNL     1      11.779  10.724  -5.391  1.00  0.00     0.029 A 
ATOM     55  N   UNL     1      11.671  10.008  -7.494  1.00  0.00    -0.354 N 
ATOM     56  N   UNL     1      12.803   9.202 -10.078  1.00  0.00    -0.248 NA
ATOM     57  C   UNL     1      14.620   8.993 -11.532  1.00  0.00     0.031 C 
ATOM     58  C   UNL     1      13.060  10.782  -5.942  1.00  0.00     0.029 A 
ATOM     59  C   UNL     1      13.001  10.299  -7.240  1.00  0.00     0.049 A 
ATOM     60  H   UNL     1      11.321   9.658  -8.345  1.00  0.00     0.167 HD
ATOM     61  C   UNL     1      13.953   9.629  -9.431  1.00  0.00     0.074 A 
ATOM     62  C   UNL     1      15.048   9.451 -10.363  1.00  0.00     0.031 C 
ATOM     63  C   UNL     1      14.085  10.125  -8.177  1.00  0.00     0.031 A 
BRANCH  50  64
ATOM     64  C   UNL     1       8.804  10.504  -4.993  1.00  0.00    -0.014 A 
ATOM     65  C   UNL     1       8.806  11.844  -4.572  1.00  0.00     0.009 A 
ATOM     66  C   UNL     1       8.244   9.532  -4.149  1.00  0.00     0.009 A 
ATOM     67  C   UNL     1       8.275  12.201  -3.330  1.00  0.00     0.001 A 
ATOM     68  C   UNL     1       7.683   9.897  -2.922  1.00  0.00     0.001 A 
ATOM     69  C   UNL     1       7.708  11.229  -2.510  1.00  0.00     0.000 A 
ENDBRANCH  50  64
BRANCH  51  70
ATOM     70  C   UNL     1      12.960   7.821 -13.675  1.00  0.00    -0.014 A 
ATOM     71  C   UNL     1      12.666   8.489 -14.876  1.00  0.00     0.009 A 
ATOM     72  C   UNL     1      13.763   6.672 -13.720  1.00  0.00     0.009 A 
ATOM     73  C   UNL     1      13.125   7.993 -16.097  1.00  0.00     0.001 A 
ATOM     74  C   UNL     1      14.250   6.197 -14.941  1.00  0.00     0.001 A 
ATOM     75  C   UNL     1      13.918   6.849 -16.129  1.00  0.00     0.000 A 
ENDBRANCH  51  70
BRANCH  63  76
ATOM     76  C   UNL     1      15.462  10.511  -7.712  1.00  0.00    -0.014 A 
ATOM     77  C   UNL     1      16.076   9.784  -6.678  1.00  0.00     0.009 A 
ATOM     78  C   UNL     1      16.102  11.656  -8.210  1.00  0.00     0.009 A 
ATOM     79  C   UNL     1      17.290  10.209  -6.136  1.00  0.00     0.001 A 
ATOM     80  C   UNL     1      17.333  12.060  -7.688  1.00  0.00     0.001 A 
ATOM     81  C   UNL     1      17.919  11.344  -6.644  1.00  0.00     0.000 A 
ENDBRANCH  63  76
ENDBRANCH  37  38
ENDBRANCH  29  32
ENDBRANCH  27  28
ENDBRANCH  26  27
ENDBRANCH   1  26
TORSDOF 14
