REMARK SMILES C[NH2+][C@@]1(C(=O)NCCCNC(=O)c2ccc(-c3c4nc(c(-c5ccccc5)c5ccc([nH]5)c(-c5ccccc5)c5nc(c(-c6ccccc6)c6ccc3[nH]6)C=C5)C=C4)cc2)CCC[C@H]1CCSc1nccc(=O)[nH]1
REMARK SMILES IDX 7 1 6 2 4 3 5 4 3 6 61 7 64 8 62 9 63 10 2 11 1 12 65 15
REMARK SMILES IDX 66 16 67 17 68 18 69 19 74 20 70 21 72 22 71 24 73 25 8 26
REMARK SMILES IDX 9 27 10 28 11 29 12 31 13 32 14 33 60 34 15 35 59 36 16 37
REMARK SMILES IDX 17 38 18 39 53 40 19 41 58 42 52 43 54 44 20 45 57 46 51 47
REMARK SMILES IDX 50 48 21 50 43 51 28 52 42 53 29 54 32 55 41 56 55 57 30 58
REMARK SMILES IDX 31 59 40 61 56 62 33 63 22 64 23 65 27 66 24 67 26 68 25 69
REMARK SMILES IDX 44 70 45 71 49 72 46 73 48 74 47 75 34 76 35 77 39 78 36 79
REMARK SMILES IDX 38 80 37 81
REMARK H PARENT 6 5 2 13 2 14 74 23 10 30 54 49 32 60
REMARK Flexibility Score: inf
ROOT
ATOM      1  C   UNL     1      -4.039   0.200   2.273  1.00  0.00     0.118 C 
ENDROOT
BRANCH   1   2
ATOM      2  N   UNL     1      -2.745   0.393   2.869  1.00  0.00    -0.351 N 
ATOM      3  C   UNL     1      -1.492   0.509   2.365  1.00  0.00     0.281 C 
ATOM      4  O   UNL     1      -0.680   0.908   3.219  1.00  0.00    -0.268 OA
ATOM      5  H   UNL     1      -2.775   0.452   3.851  1.00  0.00     0.163 HD
BRANCH   3   6
ATOM      6  C   UNL     1      -1.023   0.194   0.854  1.00  0.00     0.178 C 
ATOM      7  C   UNL     1      -1.590   1.254  -0.108  1.00  0.00     0.079 C 
ATOM      8  C   UNL     1      -1.532  -1.191   0.327  1.00  0.00     0.061 C 
ATOM      9  C   UNL     1      -2.752   0.638  -0.868  1.00  0.00     0.008 C 
ATOM     10  C   UNL     1      -2.709  -0.864  -0.632  1.00  0.00     0.011 C 
BRANCH   6  11
ATOM     11  N   UNL     1       0.439   0.280   0.966  1.00  0.00    -0.336 N 
ATOM     12  C   UNL     1       1.313   0.637  -0.112  1.00  0.00     0.331 C 
ATOM     13  H   UNL     1       0.619   0.961   1.703  1.00  0.00     0.346 HD
ATOM     14  H   UNL     1       0.679  -0.704   1.088  1.00  0.00     0.346 HD
ENDBRANCH   6  11
BRANCH   8  15
ATOM     15  C   UNL     1      -0.577  -2.117  -0.480  1.00  0.00     0.022 C 
BRANCH  15  16
ATOM     16  C   UNL     1       0.632  -2.769   0.200  1.00  0.00     0.079 C 
BRANCH  16  17
ATOM     17  S   UNL     1       0.235  -4.284   1.121  1.00  0.00    -0.088 SA
BRANCH  17  18
ATOM     18  C   UNL     1      -0.382  -3.635   2.599  1.00  0.00     0.168 A 
ATOM     19  N   UNL     1      -0.002  -2.509   3.098  1.00  0.00    -0.233 NA
ATOM     20  N   UNL     1      -1.320  -4.446   3.152  1.00  0.00    -0.301 N 
ATOM     21  C   UNL     1      -0.611  -2.133   4.269  1.00  0.00     0.120 A 
ATOM     22  C   UNL     1      -1.999  -4.090   4.274  1.00  0.00     0.251 A 
ATOM     23  H   UNL     1      -1.512  -5.314   2.730  1.00  0.00     0.172 HD
ATOM     24  C   UNL     1      -1.578  -2.821   4.883  1.00  0.00     0.091 A 
ATOM     25  O   UNL     1      -2.922  -4.747   4.742  1.00  0.00    -0.269 OA
ENDBRANCH  17  18
ENDBRANCH  16  17
ENDBRANCH  15  16
ENDBRANCH   8  15
ENDBRANCH   3   6
ENDBRANCH   1   2
BRANCH   1  26
ATOM     26  C   UNL     1      -4.682  -1.127   2.639  1.00  0.00     0.042 C 
BRANCH  26  27
ATOM     27  C   UNL     1      -5.256  -1.149   4.050  1.00  0.00     0.118 C 
BRANCH  27  28
ATOM     28  N   UNL     1      -6.266  -0.114   4.255  1.00  0.00    -0.352 N 
ATOM     29  C   UNL     1      -7.631  -0.189   4.358  1.00  0.00     0.251 C 
ATOM     30  H   UNL     1      -5.902   0.797   4.334  1.00  0.00     0.163 HD
ATOM     31  O   UNL     1      -8.301   0.836   4.259  1.00  0.00    -0.269 OA
BRANCH  29  32
ATOM     32  C   UNL     1      -8.303  -1.485   4.587  1.00  0.00     0.039 A 
ATOM     33  C   UNL     1      -9.553  -1.718   4.003  1.00  0.00     0.014 A 
ATOM     34  C   UNL     1      -7.731  -2.450   5.415  1.00  0.00     0.014 A 
ATOM     35  C   UNL     1     -10.193  -2.943   4.204  1.00  0.00     0.010 A 
ATOM     36  C   UNL     1      -8.313  -3.707   5.521  1.00  0.00     0.010 A 
ATOM     37  C   UNL     1      -9.560  -3.960   4.936  1.00  0.00    -0.014 A 
BRANCH  37  38
ATOM     38  C   UNL     1     -10.191  -5.288   5.131  1.00  0.00     0.031 A 
ATOM     39  C   UNL     1     -10.509  -5.771   6.522  1.00  0.00     0.074 A 
ATOM     40  C   UNL     1     -10.407  -6.087   4.069  1.00  0.00     0.049 A 
ATOM     41  N   UNL     1     -10.987  -6.927   6.906  1.00  0.00    -0.248 NA
ATOM     42  C   UNL     1     -10.224  -4.843   7.630  1.00  0.00     0.031 C 
ATOM     43  C   UNL     1     -10.102  -5.751   2.676  1.00  0.00     0.029 A 
ATOM     44  N   UNL     1     -10.929  -7.354   3.998  1.00  0.00    -0.354 N 
ATOM     45  C   UNL     1     -11.032  -6.873   8.294  1.00  0.00     0.074 A 
ATOM     46  C   UNL     1     -10.481  -5.596   8.688  1.00  0.00     0.031 C 
ATOM     47  C   UNL     1     -10.475  -6.771   1.887  1.00  0.00     0.029 A 
ATOM     48  C   UNL     1     -10.997  -7.849   2.718  1.00  0.00     0.049 A 
ATOM     49  H   UNL     1     -11.227  -7.859   4.788  1.00  0.00     0.167 HD
ATOM     50  C   UNL     1     -11.511  -7.793   9.164  1.00  0.00     0.031 A 
ATOM     51  C   UNL     1     -11.425  -9.043   2.267  1.00  0.00     0.031 A 
ATOM     52  C   UNL     1     -12.070  -9.057   8.767  1.00  0.00     0.049 A 
ATOM     53  C   UNL     1     -11.938 -10.055   3.254  1.00  0.00     0.074 A 
ATOM     54  C   UNL     1     -12.638 -10.036   9.563  1.00  0.00     0.029 A 
ATOM     55  N   UNL     1     -12.128  -9.517   7.460  1.00  0.00    -0.354 N 
ATOM     56  N   UNL     1     -12.043  -9.960   4.558  1.00  0.00    -0.248 NA
ATOM     57  C   UNL     1     -12.403 -11.335   2.704  1.00  0.00     0.031 C 
ATOM     58  C   UNL     1     -12.986 -11.115   8.744  1.00  0.00     0.029 A 
ATOM     59  C   UNL     1     -12.698 -10.778   7.430  1.00  0.00     0.049 A 
ATOM     60  H   UNL     1     -11.811  -9.021   6.672  1.00  0.00     0.167 HD
ATOM     61  C   UNL     1     -12.617 -11.152   4.980  1.00  0.00     0.074 A 
ATOM     62  C   UNL     1     -12.851 -11.946   3.791  1.00  0.00     0.031 C 
ATOM     63  C   UNL     1     -12.925 -11.553   6.237  1.00  0.00     0.031 A 
BRANCH  50  64
ATOM     64  C   UNL     1     -11.437  -7.467  10.631  1.00  0.00    -0.014 A 
ATOM     65  C   UNL     1     -12.219  -6.443  11.193  1.00  0.00     0.009 A 
ATOM     66  C   UNL     1     -10.593  -8.211  11.470  1.00  0.00     0.009 A 
ATOM     67  C   UNL     1     -12.124  -6.145  12.554  1.00  0.00     0.001 A 
ATOM     68  C   UNL     1     -10.526  -7.933  12.836  1.00  0.00     0.001 A 
ATOM     69  C   UNL     1     -11.282  -6.893  13.375  1.00  0.00     0.000 A 
ENDBRANCH  50  64
BRANCH  51  70
ATOM     70  C   UNL     1     -11.405  -9.342   0.811  1.00  0.00    -0.014 A 
ATOM     71  C   UNL     1     -12.605  -9.466   0.093  1.00  0.00     0.009 A 
ATOM     72  C   UNL     1     -10.189  -9.514   0.131  1.00  0.00     0.009 A 
ATOM     73  C   UNL     1     -12.588  -9.787  -1.266  1.00  0.00     0.001 A 
ATOM     74  C   UNL     1     -10.175  -9.803  -1.235  1.00  0.00     0.001 A 
ATOM     75  C   UNL     1     -11.374  -9.951  -1.930  1.00  0.00     0.000 A 
ENDBRANCH  51  70
BRANCH  63  76
ATOM     76  C   UNL     1     -13.593 -12.891   6.388  1.00  0.00    -0.014 A 
ATOM     77  C   UNL     1     -12.896 -14.089   6.169  1.00  0.00     0.009 A 
ATOM     78  C   UNL     1     -14.935 -12.950   6.800  1.00  0.00     0.009 A 
ATOM     79  C   UNL     1     -13.541 -15.318   6.322  1.00  0.00     0.001 A 
ATOM     80  C   UNL     1     -15.566 -14.180   6.986  1.00  0.00     0.001 A 
ATOM     81  C   UNL     1     -14.872 -15.362   6.736  1.00  0.00     0.000 A 
ENDBRANCH  63  76
ENDBRANCH  37  38
ENDBRANCH  29  32
ENDBRANCH  27  28
ENDBRANCH  26  27
ENDBRANCH   1  26
TORSDOF 15
