REMARK SMILES CCC[C@H]1CC[C@H](C(=O)NCCCNC(=O)c2ccc(-c3c4nc(c(-c5ccccc5)c5ccc([nH]5)c(-c5ccccc5)c5nc(c(-c6ccccc6)c6ccc3[nH]6)C=C5)C=C4)cc2)[C@H](Sc2ccncc2)C1
REMARK SMILES IDX 12 1 11 2 10 3 8 4 9 5 7 7 4 8 5 9 73 10 6 11 65 12 3 13
REMARK SMILES IDX 2 14 1 15 66 16 67 17 68 18 72 19 69 20 71 21 70 22 13 23
REMARK SMILES IDX 14 24 15 25 16 27 17 28 18 29 64 30 19 31 63 32 20 33 21 34
REMARK SMILES IDX 22 35 57 36 23 37 62 38 56 39 58 40 24 41 61 42 55 43 54 44
REMARK SMILES IDX 25 46 47 47 32 48 46 49 33 50 36 51 45 52 59 53 34 54 35 55
REMARK SMILES IDX 44 57 60 58 37 59 26 60 27 61 31 62 28 63 30 64 29 65 48 66
REMARK SMILES IDX 49 67 53 68 50 69 52 70 51 71 38 72 39 73 43 74 40 75 42 76
REMARK SMILES IDX 41 77
REMARK H PARENT 10 6 14 26 58 45 36 56
REMARK Flexibility Score: inf
ROOT
ATOM      1  C   UNL     1       3.316  -1.223  -0.555  1.00  0.00     0.042 C 
ENDROOT
BRANCH   1   2
ATOM      2  C   UNL     1       3.366  -2.505  -1.364  1.00  0.00     0.117 C 
BRANCH   2   3
ATOM      3  N   UNL     1       3.160  -3.660  -0.527  1.00  0.00    -0.356 N 
ATOM      4  C   UNL     1       2.157  -4.561  -0.441  1.00  0.00     0.224 C 
ATOM      5  O   UNL     1       2.317  -5.446   0.412  1.00  0.00    -0.275 OA
ATOM      6  H   UNL     1       3.895  -3.825   0.107  1.00  0.00     0.163 HD
BRANCH   4   7
ATOM      7  C   UNL     1       0.846  -4.533  -1.230  1.00  0.00     0.092 C 
ATOM      8  C   UNL     1      -0.097  -1.955  -2.560  1.00  0.00    -0.010 C 
ATOM      9  C   UNL     1      -0.000  -2.141  -1.048  1.00  0.00     0.004 C 
ATOM     10  C   UNL     1       0.590  -3.060  -3.411  1.00  0.00     0.019 C 
ATOM     11  C   UNL     1      -0.138  -3.571  -0.558  1.00  0.00     0.015 C 
ATOM     12  C   UNL     1       0.738  -4.449  -2.761  1.00  0.00     0.064 C 
BRANCH   8  13
ATOM     13  C   UNL     1      -1.517  -1.574  -3.049  1.00  0.00     0.003 C 
BRANCH  13  14
ATOM     14  C   UNL     1      -2.736  -2.280  -2.443  1.00  0.00    -0.003 C 
ATOM     15  C   UNL     1      -3.194  -1.732  -1.093  1.00  0.00     0.004 C 
ENDBRANCH  13  14
ENDBRANCH   8  13
BRANCH  12  16
ATOM     16  S   UNL     1       1.712  -5.627  -3.832  1.00  0.00    -0.122 SA
BRANCH  16  17
ATOM     17  C   UNL     1       3.404  -5.524  -3.290  1.00  0.00     0.011 A 
ATOM     18  C   UNL     1       3.844  -6.287  -2.210  1.00  0.00     0.035 A 
ATOM     19  C   UNL     1       4.344  -4.790  -4.010  1.00  0.00     0.035 A 
ATOM     20  C   UNL     1       5.163  -6.170  -1.804  1.00  0.00     0.112 A 
ATOM     21  C   UNL     1       5.655  -4.770  -3.555  1.00  0.00     0.112 A 
ATOM     22  N   UNL     1       6.076  -5.411  -2.445  1.00  0.00    -0.265 NA
ENDBRANCH  16  17
ENDBRANCH  12  16
ENDBRANCH   4   7
ENDBRANCH   2   3
ENDBRANCH   1   2
BRANCH   1  23
ATOM     23  C   UNL     1       4.670  -0.844  -0.009  1.00  0.00     0.118 C 
BRANCH  23  24
ATOM     24  N   UNL     1       5.539  -0.307  -1.046  1.00  0.00    -0.352 N 
ATOM     25  C   UNL     1       6.093   0.947  -1.150  1.00  0.00     0.251 C 
ATOM     26  H   UNL     1       5.762  -0.930  -1.775  1.00  0.00     0.163 HD
ATOM     27  O   UNL     1       6.601   1.310  -2.202  1.00  0.00    -0.269 OA
BRANCH  25  28
ATOM     28  C   UNL     1       6.046   1.858   0.015  1.00  0.00     0.039 A 
ATOM     29  C   UNL     1       5.834   3.222  -0.188  1.00  0.00     0.014 A 
ATOM     30  C   UNL     1       6.192   1.357   1.310  1.00  0.00     0.014 A 
ATOM     31  C   UNL     1       5.721   4.069   0.915  1.00  0.00     0.010 A 
ATOM     32  C   UNL     1       5.923   2.168   2.399  1.00  0.00     0.010 A 
ATOM     33  C   UNL     1       5.732   3.542   2.217  1.00  0.00    -0.014 A 
BRANCH  33  34
ATOM     34  C   UNL     1       5.622   4.411   3.413  1.00  0.00     0.031 A 
ATOM     35  C   UNL     1       6.738   4.422   4.427  1.00  0.00     0.074 A 
ATOM     36  C   UNL     1       4.508   5.141   3.613  1.00  0.00     0.049 A 
ATOM     37  N   UNL     1       6.817   5.068   5.561  1.00  0.00    -0.248 NA
ATOM     38  C   UNL     1       7.903   3.561   4.151  1.00  0.00     0.031 C 
ATOM     39  C   UNL     1       3.340   5.170   2.731  1.00  0.00     0.029 A 
ATOM     40  N   UNL     1       4.180   6.004   4.626  1.00  0.00    -0.354 N 
ATOM     41  C   UNL     1       8.019   4.670   6.136  1.00  0.00     0.074 A 
ATOM     42  C   UNL     1       8.597   3.671   5.271  1.00  0.00     0.031 C 
ATOM     43  C   UNL     1       2.446   6.048   3.214  1.00  0.00     0.029 A 
ATOM     44  C   UNL     1       2.956   6.605   4.462  1.00  0.00     0.049 A 
ATOM     45  H   UNL     1       4.766   6.177   5.399  1.00  0.00     0.167 HD
ATOM     46  C   UNL     1       8.610   5.122   7.266  1.00  0.00     0.031 A 
ATOM     47  C   UNL     1       2.320   7.507   5.232  1.00  0.00     0.031 A 
ATOM     48  C   UNL     1       8.042   6.137   8.109  1.00  0.00     0.049 A 
ATOM     49  C   UNL     1       2.994   7.993   6.485  1.00  0.00     0.074 A 
ATOM     50  C   UNL     1       8.580   6.716   9.244  1.00  0.00     0.029 A 
ATOM     51  N   UNL     1       6.804   6.726   7.902  1.00  0.00    -0.354 N 
ATOM     52  N   UNL     1       4.165   7.662   6.976  1.00  0.00    -0.248 NA
ATOM     53  C   UNL     1       2.264   8.986   7.284  1.00  0.00     0.031 C 
ATOM     54  C   UNL     1       7.640   7.614   9.757  1.00  0.00     0.029 A 
ATOM     55  C   UNL     1       6.548   7.644   8.904  1.00  0.00     0.049 A 
ATOM     56  H   UNL     1       6.198   6.520   7.154  1.00  0.00     0.167 HD
ATOM     57  C   UNL     1       4.325   8.430   8.123  1.00  0.00     0.074 A 
ATOM     58  C   UNL     1       3.140   9.254   8.242  1.00  0.00     0.031 C 
ATOM     59  C   UNL     1       5.360   8.453   8.999  1.00  0.00     0.031 A 
BRANCH  46  60
ATOM     60  C   UNL     1       9.935   4.518   7.646  1.00  0.00    -0.014 A 
ATOM     61  C   UNL     1      11.086   4.731   6.868  1.00  0.00     0.009 A 
ATOM     62  C   UNL     1      10.038   3.734   8.805  1.00  0.00     0.009 A 
ATOM     63  C   UNL     1      12.300   4.136   7.219  1.00  0.00     0.001 A 
ATOM     64  C   UNL     1      11.261   3.170   9.173  1.00  0.00     0.001 A 
ATOM     65  C   UNL     1      12.387   3.361   8.374  1.00  0.00     0.000 A 
ENDBRANCH  46  60
BRANCH  47  66
ATOM     66  C   UNL     1       0.988   8.029   4.827  1.00  0.00    -0.014 A 
ATOM     67  C   UNL     1       0.839   9.364   4.420  1.00  0.00     0.009 A 
ATOM     68  C   UNL     1      -0.143   7.198   4.846  1.00  0.00     0.009 A 
ATOM     69  C   UNL     1      -0.418   9.864   4.070  1.00  0.00     0.001 A 
ATOM     70  C   UNL     1      -1.393   7.691   4.465  1.00  0.00     0.001 A 
ATOM     71  C   UNL     1      -1.532   9.026   4.088  1.00  0.00     0.000 A 
ENDBRANCH  47  66
BRANCH  59  72
ATOM     72  C   UNL     1       5.272   9.428  10.139  1.00  0.00    -0.014 A 
ATOM     73  C   UNL     1       4.371   9.238  11.197  1.00  0.00     0.009 A 
ATOM     74  C   UNL     1       6.143  10.529  10.173  1.00  0.00     0.009 A 
ATOM     75  C   UNL     1       4.319  10.154  12.249  1.00  0.00     0.001 A 
ATOM     76  C   UNL     1       6.112  11.422  11.243  1.00  0.00     0.001 A 
ATOM     77  C   UNL     1       5.193  11.240  12.275  1.00  0.00     0.000 A 
ENDBRANCH  59  72
ENDBRANCH  33  34
ENDBRANCH  25  28
ENDBRANCH  23  24
ENDBRANCH   1  23
TORSDOF 14
