REMARK SMILES Cc1cc([C@H]([NH3+])C(=O)NCCCNC(=O)c2ccc(-c3c4nc(c(-c5ccccc5)c5ccc([nH]5)c(-c5ccccc5)c5nc(c(-c6ccccc6)c6ccc3[nH]6)C=C5)C=C4)cc2)ccc1F
REMARK SMILES IDX 11 1 10 2 9 3 7 4 8 5 5 7 4 8 1 9 2 10 3 11 66 12 65 13
REMARK SMILES IDX 67 14 64 15 6 16 12 20 13 21 14 22 15 24 16 25 17 26 63 27
REMARK SMILES IDX 18 28 62 29 19 30 20 31 21 32 56 33 22 34 61 35 55 36 57 37
REMARK SMILES IDX 23 38 60 39 54 40 53 41 24 43 46 44 31 45 45 46 32 47 35 48
REMARK SMILES IDX 44 49 58 50 33 51 34 52 43 54 59 55 36 56 25 57 26 58 30 59
REMARK SMILES IDX 27 60 29 61 28 62 47 63 48 64 52 65 49 66 51 67 50 68 37 69
REMARK SMILES IDX 38 70 42 71 39 72 41 73 40 74
REMARK H PARENT 9 6 6 17 6 18 6 19 13 23 57 42 35 53
REMARK Flexibility Score: inf
ROOT
ATOM      1  C   UNL     1      -2.872  -2.736   1.681  1.00  0.00     0.042 C 
ENDROOT
BRANCH   1   2
ATOM      2  C   UNL     1      -3.615  -1.798   0.755  1.00  0.00     0.118 C 
BRANCH   2   3
ATOM      3  N   UNL     1      -4.126  -0.596   1.376  1.00  0.00    -0.351 N 
ATOM      4  C   UNL     1      -4.119   0.681   0.877  1.00  0.00     0.283 C 
ATOM      5  O   UNL     1      -4.738   1.538   1.519  1.00  0.00    -0.268 OA
ATOM      6  H   UNL     1      -4.529  -0.709   2.267  1.00  0.00     0.163 HD
BRANCH   4   7
ATOM      7  C   UNL     1      -3.363   1.067  -0.432  1.00  0.00     0.302 C 
BRANCH   7   8
ATOM      8  C   UNL     1      -4.074   0.621  -1.703  1.00  0.00     0.019 A 
ATOM      9  C   UNL     1      -4.639  -2.547  -3.751  1.00  0.00     0.047 C 
ATOM     10  C   UNL     1      -4.706  -1.115  -3.316  1.00  0.00    -0.015 A 
ATOM     11  C   UNL     1      -3.916  -0.662  -2.255  1.00  0.00     0.017 A 
ATOM     12  C   UNL     1      -5.551  -0.207  -3.943  1.00  0.00     0.126 A 
ATOM     13  C   UNL     1      -5.664   1.100  -3.482  1.00  0.00     0.040 A 
ATOM     14  F   UNL     1      -6.273  -0.590  -5.004  1.00  0.00    -0.207 F 
ATOM     15  C   UNL     1      -4.957   1.504  -2.346  1.00  0.00     0.013 A 
ENDBRANCH   7   8
BRANCH   7  16
ATOM     16  N   UNL     1      -1.943   0.657  -0.378  1.00  0.00    -0.343 N 
ATOM     17  H   UNL     1      -1.884  -0.360  -0.326  1.00  0.00     0.345 HD
ATOM     18  H   UNL     1      -1.502   1.065   0.446  1.00  0.00     0.345 HD
ATOM     19  H   UNL     1      -1.463   0.983  -1.217  1.00  0.00     0.345 HD
ENDBRANCH   7  16
ENDBRANCH   4   7
ENDBRANCH   2   3
ENDBRANCH   1   2
BRANCH   1  20
ATOM     20  C   UNL     1      -3.730  -3.396   2.739  1.00  0.00     0.118 C 
BRANCH  20  21
ATOM     21  N   UNL     1      -4.728  -4.307   2.193  1.00  0.00    -0.352 N 
ATOM     22  C   UNL     1      -4.829  -5.679   2.237  1.00  0.00     0.251 C 
ATOM     23  H   UNL     1      -5.460  -3.863   1.707  1.00  0.00     0.163 HD
ATOM     24  O   UNL     1      -5.696  -6.240   1.577  1.00  0.00    -0.269 OA
BRANCH  22  25
ATOM     25  C   UNL     1      -3.881  -6.489   3.038  1.00  0.00     0.039 A 
ATOM     26  C   UNL     1      -3.451  -7.721   2.533  1.00  0.00     0.014 A 
ATOM     27  C   UNL     1      -3.411  -6.056   4.277  1.00  0.00     0.014 A 
ATOM     28  C   UNL     1      -2.487  -8.459   3.225  1.00  0.00     0.010 A 
ATOM     29  C   UNL     1      -2.358  -6.720   4.894  1.00  0.00     0.010 A 
ATOM     30  C   UNL     1      -1.889  -7.937   4.383  1.00  0.00    -0.014 A 
BRANCH  30  31
ATOM     31  C   UNL     1      -0.781  -8.649   5.072  1.00  0.00     0.031 A 
ATOM     32  C   UNL     1      -0.924  -9.075   6.510  1.00  0.00     0.074 A 
ATOM     33  C   UNL     1       0.380  -8.862   4.420  1.00  0.00     0.049 A 
ATOM     34  N   UNL     1      -0.057  -9.684   7.280  1.00  0.00    -0.248 NA
ATOM     35  C   UNL     1      -2.193  -8.748   7.183  1.00  0.00     0.031 C 
ATOM     36  C   UNL     1       0.671  -8.446   3.046  1.00  0.00     0.029 A 
ATOM     37  N   UNL     1       1.533  -9.485   4.828  1.00  0.00    -0.354 N 
ATOM     38  C   UNL     1      -0.669  -9.796   8.523  1.00  0.00     0.074 A 
ATOM     39  C   UNL     1      -1.950  -9.135   8.425  1.00  0.00     0.031 C 
ATOM     40  C   UNL     1       1.900  -8.869   2.709  1.00  0.00     0.029 A 
ATOM     41  C   UNL     1       2.502  -9.541   3.855  1.00  0.00     0.049 A 
ATOM     42  H   UNL     1       1.654  -9.857   5.731  1.00  0.00     0.167 HD
ATOM     43  C   UNL     1      -0.221 -10.417   9.640  1.00  0.00     0.031 A 
ATOM     44  C   UNL     1       3.738 -10.074   3.880  1.00  0.00     0.031 A 
ATOM     45  C   UNL     1       1.050 -11.085   9.736  1.00  0.00     0.049 A 
ATOM     46  C   UNL     1       4.216 -10.750   5.135  1.00  0.00     0.074 A 
ATOM     47  C   UNL     1       1.571 -11.796  10.802  1.00  0.00     0.029 A 
ATOM     48  N   UNL     1       2.001 -11.118   8.728  1.00  0.00    -0.354 N 
ATOM     49  N   UNL     1       3.591 -10.919   6.274  1.00  0.00    -0.248 NA
ATOM     50  C   UNL     1       5.570 -11.320   5.100  1.00  0.00     0.031 C 
ATOM     51  C   UNL     1       2.864 -12.208  10.461  1.00  0.00     0.029 A 
ATOM     52  C   UNL     1       3.120 -11.812   9.158  1.00  0.00     0.049 A 
ATOM     53  H   UNL     1       1.897 -10.709   7.838  1.00  0.00     0.167 HD
ATOM     54  C   UNL     1       4.463 -11.637   7.082  1.00  0.00     0.074 A 
ATOM     55  C   UNL     1       5.650 -11.892   6.292  1.00  0.00     0.031 C 
ATOM     56  C   UNL     1       4.298 -12.047   8.364  1.00  0.00     0.031 A 
BRANCH  43  57
ATOM     57  C   UNL     1      -1.115 -10.398  10.851  1.00  0.00    -0.014 A 
ATOM     58  C   UNL     1      -2.328 -11.105  10.874  1.00  0.00     0.009 A 
ATOM     59  C   UNL     1      -0.725  -9.687  11.996  1.00  0.00     0.009 A 
ATOM     60  C   UNL     1      -3.150 -11.066  12.002  1.00  0.00     0.001 A 
ATOM     61  C   UNL     1      -1.532  -9.678  13.135  1.00  0.00     0.001 A 
ATOM     62  C   UNL     1      -2.749 -10.358  13.134  1.00  0.00     0.000 A 
ENDBRANCH  43  57
BRANCH  44  63
ATOM     63  C   UNL     1       4.605 -10.009   2.674  1.00  0.00    -0.014 A 
ATOM     64  C   UNL     1       4.920 -11.175   1.958  1.00  0.00     0.009 A 
ATOM     65  C   UNL     1       5.132  -8.784   2.237  1.00  0.00     0.009 A 
ATOM     66  C   UNL     1       5.769 -11.119   0.849  1.00  0.00     0.001 A 
ATOM     67  C   UNL     1       5.954  -8.726   1.109  1.00  0.00     0.001 A 
ATOM     68  C   UNL     1       6.280  -9.894   0.423  1.00  0.00     0.000 A 
ENDBRANCH  44  63
BRANCH  56  69
ATOM     69  C   UNL     1       5.420 -12.838   8.978  1.00  0.00    -0.014 A 
ATOM     70  C   UNL     1       6.650 -12.240   9.294  1.00  0.00     0.009 A 
ATOM     71  C   UNL     1       5.233 -14.200   9.266  1.00  0.00     0.009 A 
ATOM     72  C   UNL     1       7.684 -13.000   9.843  1.00  0.00     0.001 A 
ATOM     73  C   UNL     1       6.256 -14.948   9.848  1.00  0.00     0.001 A 
ATOM     74  C   UNL     1       7.485 -14.352  10.123  1.00  0.00     0.000 A 
ENDBRANCH  56  69
ENDBRANCH  30  31
ENDBRANCH  22  25
ENDBRANCH  20  21
ENDBRANCH   1  20
TORSDOF 12
