REMARK SMILES CC[C@H](C(=O)NCCCNC(=O)c1ccc(-c2c3nc(c(-c4ccccc4)c4ccc([nH]4)c(-c4ccccc4)c4nc(c(-c5ccccc5)c5ccc2[nH]5)C=C4)C=C3)cc1)C(=O)c1ccc(OC)cc1
REMARK SMILES IDX 7 1 6 2 4 3 5 4 3 6 2 7 1 8 61 9 62 10 63 11 64 12 70 13
REMARK SMILES IDX 65 14 69 15 66 16 67 17 68 18 8 19 9 20 10 21 11 22 12 24
REMARK SMILES IDX 13 25 14 26 60 27 15 28 59 29 16 30 17 31 18 32 53 33 19 34
REMARK SMILES IDX 58 35 52 36 54 37 20 38 57 39 51 40 50 41 21 43 43 44 28 45
REMARK SMILES IDX 42 46 29 47 32 48 41 49 55 50 30 51 31 52 40 54 56 55 33 56
REMARK SMILES IDX 22 57 23 58 27 59 24 60 26 61 25 62 44 63 45 64 49 65 46 66
REMARK SMILES IDX 48 67 47 68 34 69 35 70 39 71 36 72 38 73 37 74
REMARK H PARENT 6 5 10 23 54 42 32 53
REMARK Flexibility Score: inf
ROOT
ATOM      1  C   UNL     1       0.716   0.803   1.351  1.00  0.00     0.117 C 
ENDROOT
BRANCH   1   2
ATOM      2  N   UNL     1       0.639  -0.150   0.269  1.00  0.00    -0.355 N 
ATOM      3  C   UNL     1       0.628  -1.498   0.237  1.00  0.00     0.230 C 
ATOM      4  O   UNL     1       0.529  -1.973  -0.903  1.00  0.00    -0.274 OA
ATOM      5  H   UNL     1       0.585   0.267  -0.622  1.00  0.00     0.163 HD
BRANCH   3   6
ATOM      6  C   UNL     1       0.823  -2.417   1.436  1.00  0.00     0.150 C 
BRANCH   6   7
ATOM      7  C   UNL     1       0.490  -2.066   2.900  1.00  0.00     0.018 C 
ATOM      8  C   UNL     1      -0.748  -1.242   3.210  1.00  0.00     0.005 C 
ENDBRANCH   6   7
BRANCH   6   9
ATOM      9  C   UNL     1       0.305  -3.833   1.159  1.00  0.00     0.175 C 
ATOM     10  O   UNL     1       1.067  -4.802   1.176  1.00  0.00    -0.293 OA
BRANCH   9  11
ATOM     11  C   UNL     1      -1.161  -4.092   1.053  1.00  0.00     0.019 A 
ATOM     12  C   UNL     1      -1.673  -5.180   1.767  1.00  0.00     0.015 A 
ATOM     13  C   UNL     1      -2.028  -3.316   0.281  1.00  0.00     0.015 A 
ATOM     14  C   UNL     1      -3.042  -5.461   1.734  1.00  0.00     0.047 A 
ATOM     15  C   UNL     1      -3.397  -3.608   0.241  1.00  0.00     0.047 A 
ATOM     16  C   UNL     1      -3.912  -4.674   0.976  1.00  0.00     0.118 A 
BRANCH  16  17
ATOM     17  O   UNL     1      -5.225  -5.049   1.032  1.00  0.00    -0.497 OA
ATOM     18  C   UNL     1      -6.147  -4.265   0.283  1.00  0.00     0.278 C 
ENDBRANCH  16  17
ENDBRANCH   9  11
ENDBRANCH   6   9
ENDBRANCH   3   6
ENDBRANCH   1   2
BRANCH   1  19
ATOM     19  C   UNL     1       1.266   2.153   0.912  1.00  0.00     0.042 C 
BRANCH  19  20
ATOM     20  C   UNL     1       0.416   2.863  -0.139  1.00  0.00     0.118 C 
BRANCH  20  21
ATOM     21  N   UNL     1      -0.893   3.290   0.341  1.00  0.00    -0.352 N 
ATOM     22  C   UNL     1      -1.372   4.523   0.726  1.00  0.00     0.251 C 
ATOM     23  H   UNL     1      -1.556   2.564   0.400  1.00  0.00     0.163 HD
ATOM     24  O   UNL     1      -2.496   4.612   1.200  1.00  0.00    -0.269 OA
BRANCH  22  25
ATOM     25  C   UNL     1      -0.521   5.731   0.627  1.00  0.00     0.039 A 
ATOM     26  C   UNL     1      -0.527   6.648   1.682  1.00  0.00     0.014 A 
ATOM     27  C   UNL     1       0.295   5.960  -0.478  1.00  0.00     0.014 A 
ATOM     28  C   UNL     1       0.379   7.713   1.683  1.00  0.00     0.010 A 
ATOM     29  C   UNL     1       1.278   6.941  -0.420  1.00  0.00     0.010 A 
ATOM     30  C   UNL     1       1.343   7.822   0.669  1.00  0.00    -0.014 A 
BRANCH  30  31
ATOM     31  C   UNL     1       2.448   8.814   0.737  1.00  0.00     0.031 A 
ATOM     32  C   UNL     1       2.649   9.811  -0.372  1.00  0.00     0.074 A 
ATOM     33  C   UNL     1       3.340   8.748   1.746  1.00  0.00     0.049 A 
ATOM     34  N   UNL     1       3.626  10.666  -0.548  1.00  0.00    -0.248 NA
ATOM     35  C   UNL     1       1.642   9.823  -1.445  1.00  0.00     0.031 C 
ATOM     36  C   UNL     1       3.300   7.794   2.858  1.00  0.00     0.029 A 
ATOM     37  N   UNL     1       4.466   9.494   1.994  1.00  0.00    -0.354 N 
ATOM     38  C   UNL     1       3.368  11.287  -1.763  1.00  0.00     0.074 A 
ATOM     39  C   UNL     1       2.175  10.675  -2.306  1.00  0.00     0.031 C 
ATOM     40  C   UNL     1       4.325   8.041   3.688  1.00  0.00     0.029 A 
ATOM     41  C   UNL     1       5.126   9.131   3.143  1.00  0.00     0.049 A 
ATOM     42  H   UNL     1       4.772  10.220   1.403  1.00  0.00     0.167 HD
ATOM     43  C   UNL     1       4.048  12.292  -2.366  1.00  0.00     0.031 A 
ATOM     44  C   UNL     1       6.254   9.613   3.696  1.00  0.00     0.031 A 
ATOM     45  C   UNL     1       5.217  12.922  -1.815  1.00  0.00     0.049 A 
ATOM     46  C   UNL     1       6.994  10.724   3.009  1.00  0.00     0.074 A 
ATOM     47  C   UNL     1       5.927  14.004  -2.308  1.00  0.00     0.029 A 
ATOM     48  N   UNL     1       5.848  12.527  -0.647  1.00  0.00    -0.354 N 
ATOM     49  N   UNL     1       6.697  11.347   1.895  1.00  0.00    -0.248 NA
ATOM     50  C   UNL     1       8.225  11.198   3.658  1.00  0.00     0.031 C 
ATOM     51  C   UNL     1       7.017  14.232  -1.461  1.00  0.00     0.029 A 
ATOM     52  C   UNL     1       6.958  13.323  -0.416  1.00  0.00     0.049 A 
ATOM     53  H   UNL     1       5.552  11.789  -0.066  1.00  0.00     0.167 HD
ATOM     54  C   UNL     1       7.694  12.296   1.716  1.00  0.00     0.074 A 
ATOM     55  C   UNL     1       8.594  12.179   2.846  1.00  0.00     0.031 C 
ATOM     56  C   UNL     1       7.850  13.184   0.705  1.00  0.00     0.031 A 
BRANCH  43  57
ATOM     57  C   UNL     1       3.537  12.763  -3.700  1.00  0.00    -0.014 A 
ATOM     58  C   UNL     1       2.321  13.458  -3.811  1.00  0.00     0.009 A 
ATOM     59  C   UNL     1       4.284  12.516  -4.862  1.00  0.00     0.009 A 
ATOM     60  C   UNL     1       1.840  13.849  -5.062  1.00  0.00     0.001 A 
ATOM     61  C   UNL     1       3.816  12.936  -6.108  1.00  0.00     0.001 A 
ATOM     62  C   UNL     1       2.589  13.591  -6.209  1.00  0.00     0.000 A 
ENDBRANCH  43  57
BRANCH  44  63
ATOM     63  C   UNL     1       6.742   9.058   4.985  1.00  0.00    -0.014 A 
ATOM     64  C   UNL     1       6.621   9.808   6.165  1.00  0.00     0.009 A 
ATOM     65  C   UNL     1       7.311   7.777   5.049  1.00  0.00     0.009 A 
ATOM     66  C   UNL     1       7.076   9.292   7.380  1.00  0.00     0.001 A 
ATOM     67  C   UNL     1       7.742   7.254   6.270  1.00  0.00     0.001 A 
ATOM     68  C   UNL     1       7.630   8.014   7.433  1.00  0.00     0.000 A 
ENDBRANCH  44  63
BRANCH  56  69
ATOM     69  C   UNL     1       9.032  14.107   0.782  1.00  0.00    -0.014 A 
ATOM     70  C   UNL     1      10.331  13.642   0.523  1.00  0.00     0.009 A 
ATOM     71  C   UNL     1       8.839  15.465   1.076  1.00  0.00     0.009 A 
ATOM     72  C   UNL     1      11.417  14.517   0.583  1.00  0.00     0.001 A 
ATOM     73  C   UNL     1       9.924  16.342   1.110  1.00  0.00     0.001 A 
ATOM     74  C   UNL     1      11.213  15.866   0.871  1.00  0.00     0.000 A 
ENDBRANCH  56  69
ENDBRANCH  30  31
ENDBRANCH  22  25
ENDBRANCH  20  21
ENDBRANCH  19  20
ENDBRANCH   1  19
TORSDOF 14
