REMARK SMILES O=C(NCCCNC(=O)c1cc(-c2ccc(F)c(C(F)(F)F)c2)cnc1O)c1ccc(-c2c3nc(c(-c4ccccc4)c4ccc([nH]4)c(-c4ccccc4)c4nc(c(-c5ccccc5)c5ccc2[nH]5)C=C4)C=C3)cc1
REMARK SMILES IDX 5 1 4 2 3 3 1 4 2 5 28 7 29 8 75 9 30 10 74 11 31 12 32 13
REMARK SMILES IDX 33 14 68 15 34 16 73 17 67 18 69 19 35 20 72 21 66 22 65 23
REMARK SMILES IDX 36 25 58 26 43 27 57 28 44 29 47 30 56 31 70 32 45 33 46 34
REMARK SMILES IDX 55 36 71 37 48 38 37 39 38 40 42 41 39 42 41 43 40 44 59 45
REMARK SMILES IDX 60 46 64 47 61 48 63 49 62 50 49 51 50 52 54 53 51 54 53 55
REMARK SMILES IDX 52 56 6 57 7 58 8 59 9 61 10 62 11 63 26 64 12 65 25 66
REMARK SMILES IDX 24 67 27 68 13 70 14 71 23 72 15 73 18 74 16 75 17 76 19 77
REMARK SMILES IDX 20 78 21 79 22 80
REMARK H PARENT 3 6 69 24 47 35 7 60 27 69
REMARK Flexibility Score: inf
ROOT
ATOM      1  C   UNL     1       4.983  -1.641  -2.020  1.00  0.00     0.042 C 
ENDROOT
BRANCH   1   2
ATOM      2  C   UNL     1       4.633  -0.288  -1.411  1.00  0.00     0.118 C 
BRANCH   2   3
ATOM      3  N   UNL     1       3.201  -0.097  -1.242  1.00  0.00    -0.352 N 
ATOM      4  O   UNL     1       1.215   0.035  -0.216  1.00  0.00    -0.269 OA
ATOM      5  C   UNL     1       2.440   0.071  -0.114  1.00  0.00     0.251 C 
ATOM      6  H   UNL     1       2.690  -0.087  -2.083  1.00  0.00     0.163 HD
BRANCH   5   7
ATOM      7  C   UNL     1       3.051   0.294   1.216  1.00  0.00     0.039 A 
ATOM      8  C   UNL     1       2.408  -0.237   2.340  1.00  0.00     0.014 A 
ATOM      9  C   UNL     1       4.187   1.090   1.386  1.00  0.00     0.014 A 
ATOM     10  C   UNL     1       2.911   0.010   3.620  1.00  0.00     0.010 A 
ATOM     11  C   UNL     1       4.737   1.267   2.655  1.00  0.00     0.010 A 
ATOM     12  C   UNL     1       4.087   0.757   3.787  1.00  0.00    -0.014 A 
BRANCH  12  13
ATOM     13  C   UNL     1       4.599   1.090   5.141  1.00  0.00     0.031 A 
ATOM     14  C   UNL     1       4.613   2.524   5.602  1.00  0.00     0.074 A 
ATOM     15  C   UNL     1       5.063   0.119   5.951  1.00  0.00     0.049 A 
ATOM     16  N   UNL     1       5.067   3.027   6.722  1.00  0.00    -0.248 NA
ATOM     17  C   UNL     1       4.064   3.528   4.674  1.00  0.00     0.031 C 
ATOM     18  C   UNL     1       5.111  -1.307   5.625  1.00  0.00     0.029 A 
ATOM     19  N   UNL     1       5.574   0.188   7.223  1.00  0.00    -0.354 N 
ATOM     20  C   UNL     1       4.881   4.401   6.621  1.00  0.00     0.074 A 
ATOM     21  C   UNL     1       4.316   4.659   5.316  1.00  0.00     0.031 C 
ATOM     22  C   UNL     1       5.580  -1.982   6.686  1.00  0.00     0.029 A 
ATOM     23  C   UNL     1       5.902  -1.036   7.752  1.00  0.00     0.049 A 
ATOM     24  H   UNL     1       5.694   1.035   7.710  1.00  0.00     0.167 HD
ATOM     25  C   UNL     1       5.134   5.361   7.540  1.00  0.00     0.031 A 
ATOM     26  C   UNL     1       6.396  -1.363   8.961  1.00  0.00     0.031 A 
ATOM     27  C   UNL     1       5.660   5.106   8.852  1.00  0.00     0.049 A 
ATOM     28  C   UNL     1       6.665  -0.279   9.968  1.00  0.00     0.074 A 
ATOM     29  C   UNL     1       5.925   6.014   9.863  1.00  0.00     0.029 A 
ATOM     30  N   UNL     1       5.980   3.851   9.343  1.00  0.00    -0.354 N 
ATOM     31  N   UNL     1       6.476   1.013   9.858  1.00  0.00    -0.248 NA
ATOM     32  C   UNL     1       7.204  -0.700  11.270  1.00  0.00     0.031 C 
ATOM     33  C   UNL     1       6.436   5.310  10.956  1.00  0.00     0.029 A 
ATOM     34  C   UNL     1       6.442   3.960  10.642  1.00  0.00     0.049 A 
ATOM     35  H   UNL     1       5.891   3.008   8.842  1.00  0.00     0.167 HD
ATOM     36  C   UNL     1       6.846   1.556  11.082  1.00  0.00     0.074 A 
ATOM     37  C   UNL     1       7.262   0.453  11.923  1.00  0.00     0.031 C 
ATOM     38  C   UNL     1       6.840   2.853  11.471  1.00  0.00     0.031 A 
BRANCH  25  39
ATOM     39  C   UNL     1       4.833   6.784   7.163  1.00  0.00    -0.014 A 
ATOM     40  C   UNL     1       5.883   7.691   6.958  1.00  0.00     0.009 A 
ATOM     41  C   UNL     1       3.509   7.243   7.075  1.00  0.00     0.009 A 
ATOM     42  C   UNL     1       5.615   9.031   6.674  1.00  0.00     0.001 A 
ATOM     43  C   UNL     1       3.244   8.578   6.764  1.00  0.00     0.001 A 
ATOM     44  C   UNL     1       4.296   9.472   6.572  1.00  0.00     0.000 A 
ENDBRANCH  25  39
BRANCH  26  45
ATOM     45  C   UNL     1       6.620  -2.791   9.304  1.00  0.00    -0.014 A 
ATOM     46  C   UNL     1       7.675  -3.514   8.727  1.00  0.00     0.009 A 
ATOM     47  C   UNL     1       5.755  -3.444  10.195  1.00  0.00     0.009 A 
ATOM     48  C   UNL     1       7.851  -4.867   9.027  1.00  0.00     0.001 A 
ATOM     49  C   UNL     1       5.949  -4.790  10.511  1.00  0.00     0.001 A 
ATOM     50  C   UNL     1       6.992  -5.502   9.923  1.00  0.00     0.000 A 
ENDBRANCH  26  45
BRANCH  38  51
ATOM     51  C   UNL     1       7.261   3.166  12.877  1.00  0.00    -0.014 A 
ATOM     52  C   UNL     1       6.300   3.585  13.811  1.00  0.00     0.009 A 
ATOM     53  C   UNL     1       8.613   3.146  13.250  1.00  0.00     0.009 A 
ATOM     54  C   UNL     1       6.685   3.987  15.090  1.00  0.00     0.001 A 
ATOM     55  C   UNL     1       8.992   3.527  14.539  1.00  0.00     0.001 A 
ATOM     56  C   UNL     1       8.030   3.955  15.454  1.00  0.00     0.000 A 
ENDBRANCH  38  51
ENDBRANCH  12  13
ENDBRANCH   5   7
ENDBRANCH   2   3
ENDBRANCH   1   2
BRANCH   1  57
ATOM     57  C   UNL     1       4.387  -1.892  -3.400  1.00  0.00     0.118 C 
BRANCH  57  58
ATOM     58  N   UNL     1       4.853  -0.928  -4.391  1.00  0.00    -0.352 N 
ATOM     59  C   UNL     1       5.706  -1.111  -5.448  1.00  0.00     0.256 C 
ATOM     60  H   UNL     1       4.505  -0.013  -4.284  1.00  0.00     0.163 HD
ATOM     61  O   UNL     1       6.182  -0.139  -6.028  1.00  0.00    -0.269 OA
BRANCH  59  62
ATOM     62  C   UNL     1       6.037  -2.465  -5.911  1.00  0.00     0.102 A 
ATOM     63  C   UNL     1       7.382  -2.793  -6.122  1.00  0.00     0.029 A 
ATOM     64  C   UNL     1       5.066  -3.410  -6.218  1.00  0.00     0.223 A 
ATOM     65  C   UNL     1       7.723  -4.069  -6.584  1.00  0.00     0.001 A 
ATOM     66  N   UNL     1       5.356  -4.661  -6.619  1.00  0.00    -0.221 NA
ATOM     67  C   UNL     1       6.665  -4.959  -6.789  1.00  0.00     0.124 A 
BRANCH  64  68
ATOM     68  O   UNL     1       3.725  -3.161  -6.153  1.00  0.00    -0.493 OA
ATOM     69  H   UNL     1       3.418  -2.317  -5.884  1.00  0.00     0.295 HD
ENDBRANCH  64  68
BRANCH  65  70
ATOM     70  C   UNL     1       9.108  -4.453  -6.878  1.00  0.00    -0.016 A 
ATOM     71  C   UNL     1       9.458  -4.911  -8.161  1.00  0.00     0.012 A 
ATOM     72  C   UNL     1      10.114  -4.386  -5.899  1.00  0.00     0.025 A 
ATOM     73  C   UNL     1      10.765  -5.301  -8.452  1.00  0.00     0.040 A 
ATOM     74  C   UNL     1      11.435  -4.780  -6.184  1.00  0.00     0.092 A 
ATOM     75  C   UNL     1      11.738  -5.237  -7.463  1.00  0.00     0.135 A 
ATOM     76  F   UNL     1      12.983  -5.630  -7.758  1.00  0.00    -0.206 F 
BRANCH  74  77
ATOM     77  C   UNL     1      12.519  -4.748  -5.149  1.00  0.00     0.419 C 
ATOM     78  F   UNL     1      12.953  -5.992  -4.804  1.00  0.00    -0.166 F 
ATOM     79  F   UNL     1      13.620  -4.053  -5.544  1.00  0.00    -0.166 F 
ATOM     80  F   UNL     1      12.119  -4.165  -3.981  1.00  0.00    -0.166 F 
ENDBRANCH  74  77
ENDBRANCH  65  70
ENDBRANCH  59  62
ENDBRANCH  57  58
ENDBRANCH   1  57
TORSDOF 13
