REMARK SMILES COC(=O)C[C@@H](NC(=O)c1ccccc1C(=O)NCCCNC(=O)c1ccc(-c2c3nc(c(-c4ccccc4)c4ccc([nH]4)c(-c4ccccc4)c4nc(c(-c5ccccc5)c5ccc2[nH]5)C=C4)C=C3)cc1)c1cccc(C)c1C
REMARK SMILES IDX 16 1 17 2 18 3 15 5 10 6 11 7 12 8 14 9 13 10 8 11 7 12 9 14
REMARK SMILES IDX 6 15 5 16 3 17 4 18 2 19 1 20 73 21 74 22 79 23 75 24 77 25
REMARK SMILES IDX 80 26 76 27 78 28 19 29 20 30 21 31 22 32 23 33 24 35 25 36
REMARK SMILES IDX 26 37 72 38 27 39 71 40 28 41 29 42 30 43 65 44 31 45 70 46
REMARK SMILES IDX 64 47 66 48 32 49 69 50 63 51 62 52 33 54 55 55 40 56 54 57
REMARK SMILES IDX 41 58 44 59 53 60 67 61 42 62 43 63 52 65 68 66 45 67 34 68
REMARK SMILES IDX 35 69 39 70 36 71 38 72 37 73 56 74 57 75 61 76 58 77 60 78
REMARK SMILES IDX 59 79 46 80 47 81 51 82 48 83 50 84 49 85
REMARK H PARENT 18 4 7 13 22 34 66 53 44 64
REMARK Flexibility Score: inf
ROOT
ATOM      1  C   UNL     1       1.666  -2.636   6.356  1.00  0.00     0.252 C 
ATOM      2  O   UNL     1       2.450  -3.237   7.104  1.00  0.00    -0.269 OA
ATOM      3  N   UNL     1       2.299  -2.017   5.327  1.00  0.00    -0.352 N 
ATOM      4  H   UNL     1       3.276  -2.034   5.447  1.00  0.00     0.163 HD
ENDROOT
BRANCH   1   5
ATOM      5  C   UNL     1       0.217  -2.625   6.720  1.00  0.00     0.052 A 
ATOM      6  C   UNL     1      -0.924  -2.223   6.023  1.00  0.00     0.052 A 
ATOM      7  C   UNL     1      -2.194  -2.223   6.671  1.00  0.00     0.014 A 
ATOM      8  C   UNL     1      -2.365  -2.695   7.966  1.00  0.00     0.001 A 
ATOM      9  C   UNL     1      -0.002  -3.105   8.044  1.00  0.00     0.014 A 
ATOM     10  C   UNL     1      -1.261  -3.155   8.653  1.00  0.00     0.001 A 
BRANCH   6  11
ATOM     11  C   UNL     1      -1.070  -1.725   4.655  1.00  0.00     0.252 C 
ATOM     12  N   UNL     1      -1.275  -2.560   3.581  1.00  0.00    -0.345 N 
ATOM     13  H   UNL     1      -2.096  -2.359   3.077  1.00  0.00     0.164 HD
ATOM     14  O   UNL     1      -1.325  -0.528   4.511  1.00  0.00    -0.269 OA
BRANCH  12  15
ATOM     15  C   UNL     1      -0.498  -3.711   3.027  1.00  0.00     0.124 C 
BRANCH  15  16
ATOM     16  C   UNL     1      -0.823  -3.777   1.520  1.00  0.00     0.152 C 
BRANCH  16  17
ATOM     17  C   UNL     1      -0.029  -2.691   0.823  1.00  0.00     0.307 C 
ATOM     18  O   UNL     1       1.180  -2.537   0.947  1.00  0.00    -0.252 OA
BRANCH  17  19
ATOM     19  O   UNL     1      -0.851  -1.892   0.091  1.00  0.00    -0.469 OA
ATOM     20  C   UNL     1      -0.199  -0.813  -0.593  1.00  0.00     0.282 C 
ENDBRANCH  17  19
ENDBRANCH  16  17
ENDBRANCH  15  16
BRANCH  15  21
ATOM     21  C   UNL     1      -0.571  -5.042   3.773  1.00  0.00    -0.022 A 
ATOM     22  C   UNL     1      -1.387  -5.159   4.906  1.00  0.00     0.006 A 
ATOM     23  C   UNL     1       0.291  -6.137   3.456  1.00  0.00    -0.043 A 
ATOM     24  C   UNL     1      -1.245  -6.210   5.804  1.00  0.00     0.001 A 
ATOM     25  C   UNL     1       0.294  -7.287   4.286  1.00  0.00    -0.048 A 
ATOM     26  C   UNL     1       1.184  -6.135   2.234  1.00  0.00     0.045 C 
ATOM     27  C   UNL     1      -0.402  -7.264   5.500  1.00  0.00     0.004 A 
ATOM     28  C   UNL     1       1.053  -8.546   3.953  1.00  0.00     0.044 C 
ENDBRANCH  15  21
ENDBRANCH  12  15
ENDBRANCH   6  11
ENDBRANCH   1   5
BRANCH   3  29
ATOM     29  C   UNL     1       1.935  -1.346   4.115  1.00  0.00     0.118 C 
BRANCH  29  30
ATOM     30  C   UNL     1       1.828   0.154   4.225  1.00  0.00     0.042 C 
BRANCH  30  31
ATOM     31  C   UNL     1       2.736   0.806   3.209  1.00  0.00     0.118 C 
BRANCH  31  32
ATOM     32  N   UNL     1       2.479   0.416   1.819  1.00  0.00    -0.352 N 
ATOM     33  C   UNL     1       2.732   1.172   0.698  1.00  0.00     0.251 C 
ATOM     34  H   UNL     1       2.086  -0.474   1.673  1.00  0.00     0.163 HD
ATOM     35  O   UNL     1       2.467   0.786  -0.434  1.00  0.00    -0.269 OA
BRANCH  33  36
ATOM     36  C   UNL     1       3.295   2.512   0.906  1.00  0.00     0.039 A 
ATOM     37  C   UNL     1       2.613   3.619   0.402  1.00  0.00     0.014 A 
ATOM     38  C   UNL     1       4.415   2.655   1.727  1.00  0.00     0.014 A 
ATOM     39  C   UNL     1       3.037   4.892   0.766  1.00  0.00     0.010 A 
ATOM     40  C   UNL     1       4.743   3.909   2.198  1.00  0.00     0.010 A 
ATOM     41  C   UNL     1       4.088   5.038   1.684  1.00  0.00    -0.014 A 
BRANCH  41  42
ATOM     42  C   UNL     1       4.640   6.359   2.036  1.00  0.00     0.031 A 
ATOM     43  C   UNL     1       6.073   6.633   1.676  1.00  0.00     0.074 A 
ATOM     44  C   UNL     1       3.903   7.240   2.734  1.00  0.00     0.049 A 
ATOM     45  N   UNL     1       6.847   7.618   2.042  1.00  0.00    -0.248 NA
ATOM     46  C   UNL     1       6.748   5.619   0.841  1.00  0.00     0.031 C 
ATOM     47  C   UNL     1       2.514   7.047   3.158  1.00  0.00     0.029 A 
ATOM     48  N   UNL     1       4.232   8.476   3.220  1.00  0.00    -0.354 N 
ATOM     49  C   UNL     1       8.103   7.308   1.534  1.00  0.00     0.074 A 
ATOM     50  C   UNL     1       8.007   6.017   0.897  1.00  0.00     0.031 C 
ATOM     51  C   UNL     1       2.099   8.146   3.812  1.00  0.00     0.029 A 
ATOM     52  C   UNL     1       3.206   9.092   3.893  1.00  0.00     0.049 A 
ATOM     53  H   UNL     1       5.119   8.885   3.098  1.00  0.00     0.167 HD
ATOM     54  C   UNL     1       9.230   8.053   1.569  1.00  0.00     0.031 A 
ATOM     55  C   UNL     1       3.179  10.289   4.506  1.00  0.00     0.031 A 
ATOM     56  C   UNL     1       9.281   9.362   2.153  1.00  0.00     0.049 A 
ATOM     57  C   UNL     1       4.430  11.125   4.487  1.00  0.00     0.074 A 
ATOM     58  C   UNL     1      10.337  10.251   2.199  1.00  0.00     0.029 A 
ATOM     59  N   UNL     1       8.203   9.978   2.775  1.00  0.00    -0.354 N 
ATOM     60  N   UNL     1       5.605  10.841   3.975  1.00  0.00    -0.248 NA
ATOM     61  C   UNL     1       4.348  12.450   5.113  1.00  0.00     0.031 C 
ATOM     62  C   UNL     1       9.906  11.395   2.877  1.00  0.00     0.029 A 
ATOM     63  C   UNL     1       8.568  11.238   3.208  1.00  0.00     0.049 A 
ATOM     64  H   UNL     1       7.311   9.576   2.890  1.00  0.00     0.167 HD
ATOM     65  C   UNL     1       6.394  11.962   4.191  1.00  0.00     0.074 A 
ATOM     66  C   UNL     1       5.556  12.935   4.865  1.00  0.00     0.031 C 
ATOM     67  C   UNL     1       7.693  12.175   3.865  1.00  0.00     0.031 A 
BRANCH  54  68
ATOM     68  C   UNL     1      10.469   7.462   0.955  1.00  0.00    -0.014 A 
ATOM     69  C   UNL     1      10.563   7.232  -0.429  1.00  0.00     0.009 A 
ATOM     70  C   UNL     1      11.555   7.115   1.772  1.00  0.00     0.009 A 
ATOM     71  C   UNL     1      11.695   6.620  -0.972  1.00  0.00     0.001 A 
ATOM     72  C   UNL     1      12.701   6.536   1.221  1.00  0.00     0.001 A 
ATOM     73  C   UNL     1      12.765   6.277  -0.147  1.00  0.00     0.000 A 
ENDBRANCH  54  68
BRANCH  55  74
ATOM     74  C   UNL     1       1.929  10.777   5.146  1.00  0.00    -0.014 A 
ATOM     75  C   UNL     1       1.208  11.838   4.575  1.00  0.00     0.009 A 
ATOM     76  C   UNL     1       1.439  10.183   6.319  1.00  0.00     0.009 A 
ATOM     77  C   UNL     1       0.040  12.310   5.179  1.00  0.00     0.001 A 
ATOM     78  C   UNL     1       0.255  10.639   6.906  1.00  0.00     0.001 A 
ATOM     79  C   UNL     1      -0.438  11.708   6.341  1.00  0.00     0.000 A 
ENDBRANCH  55  74
BRANCH  67  80
ATOM     80  C   UNL     1       8.260  13.525   4.191  1.00  0.00    -0.014 A 
ATOM     81  C   UNL     1       8.564  13.887   5.511  1.00  0.00     0.009 A 
ATOM     82  C   UNL     1       8.539  14.423   3.150  1.00  0.00     0.009 A 
ATOM     83  C   UNL     1       9.107  15.142   5.785  1.00  0.00     0.001 A 
ATOM     84  C   UNL     1       9.111  15.665   3.424  1.00  0.00     0.001 A 
ATOM     85  C   UNL     1       9.385  16.027   4.742  1.00  0.00     0.000 A 
ENDBRANCH  67  80
ENDBRANCH  41  42
ENDBRANCH  33  36
ENDBRANCH  31  32
ENDBRANCH  30  31
ENDBRANCH  29  30
ENDBRANCH   3  29
TORSDOF 16
