REMARK SMILES CC1(C)CCC[C@@H]1[C@H](O)C(=O)NCCCNC(=O)c1ccc(-c2c3nc(c(-c4ccccc4)c4ccc([nH]4)c(-c4ccccc4)c4nc(c(-c5ccccc5)c5ccc2[nH]5)C=C4)C=C3)cc1
REMARK SMILES IDX 14 1 13 2 12 3 10 4 11 5 8 7 7 8 1 9 2 10 3 11 4 12 5 13
REMARK SMILES IDX 6 14 9 15 15 17 16 18 17 19 18 21 19 22 20 23 66 24 21 25
REMARK SMILES IDX 65 26 22 27 23 28 24 29 59 30 25 31 64 32 58 33 60 34 26 35
REMARK SMILES IDX 63 36 57 37 56 38 27 40 49 41 34 42 48 43 35 44 38 45 47 46
REMARK SMILES IDX 61 47 36 48 37 49 46 51 62 52 39 53 28 54 29 55 33 56 30 57
REMARK SMILES IDX 32 58 31 59 50 60 51 61 55 62 52 63 54 64 53 65 40 66 41 67
REMARK SMILES IDX 45 68 42 69 44 70 43 71
REMARK H PARENT 12 6 9 16 16 20 60 39 38 50
REMARK Flexibility Score: inf
ROOT
ATOM      1  C   UNL     1      -1.687  -0.093  -0.159  1.00  0.00     0.042 C 
ENDROOT
BRANCH   1   2
ATOM      2  C   UNL     1      -0.903   0.420   1.031  1.00  0.00     0.117 C 
BRANCH   2   3
ATOM      3  N   UNL     1       0.167  -0.480   1.431  1.00  0.00    -0.354 N 
ATOM      4  C   UNL     1       1.504  -0.228   1.545  1.00  0.00     0.249 C 
ATOM      5  O   UNL     1       2.245  -1.136   1.924  1.00  0.00    -0.272 OA
ATOM      6  H   UNL     1      -0.112  -1.399   1.650  1.00  0.00     0.163 HD
BRANCH   4   7
ATOM      7  C   UNL     1       2.054   1.161   1.179  1.00  0.00     0.206 C 
BRANCH   7   8
ATOM      8  C   UNL     1       1.574   2.226   2.182  1.00  0.00     0.033 C 
ATOM      9  C   UNL     1       0.983   4.296   0.778  1.00  0.00     0.011 C 
ATOM     10  C   UNL     1       1.893   3.707   1.866  1.00  0.00    -0.030 C 
ATOM     11  C   UNL     1       3.361   3.938   1.480  1.00  0.00     0.011 C 
ATOM     12  C   UNL     1       1.573   4.354   3.226  1.00  0.00     0.007 C 
ATOM     13  C   UNL     1       2.088   3.372   4.276  1.00  0.00     0.001 C 
ATOM     14  C   UNL     1       2.119   2.001   3.601  1.00  0.00     0.007 C 
ENDBRANCH   7   8
BRANCH   7  15
ATOM     15  O   UNL     1       1.664   1.484  -0.155  1.00  0.00    -0.383 OA
ATOM     16  H   UNL     1       0.696   1.503  -0.213  1.00  0.00     0.211 HD
ENDBRANCH   7  15
ENDBRANCH   4   7
ENDBRANCH   2   3
ENDBRANCH   1   2
BRANCH   1  17
ATOM     17  C   UNL     1      -2.357  -1.431   0.089  1.00  0.00     0.118 C 
BRANCH  17  18
ATOM     18  N   UNL     1      -3.337  -1.383   1.168  1.00  0.00    -0.352 N 
ATOM     19  C   UNL     1      -4.695  -1.578   1.133  1.00  0.00     0.251 C 
ATOM     20  H   UNL     1      -2.967  -1.181   2.058  1.00  0.00     0.163 HD
ATOM     21  O   UNL     1      -5.380  -1.319   2.118  1.00  0.00    -0.269 OA
BRANCH  19  22
ATOM     22  C   UNL     1      -5.333  -2.071  -0.104  1.00  0.00     0.039 A 
ATOM     23  C   UNL     1      -6.528  -1.489  -0.532  1.00  0.00     0.014 A 
ATOM     24  C   UNL     1      -4.740  -3.088  -0.854  1.00  0.00     0.014 A 
ATOM     25  C   UNL     1      -7.081  -1.873  -1.754  1.00  0.00     0.010 A 
ATOM     26  C   UNL     1      -5.226  -3.384  -2.120  1.00  0.00     0.010 A 
ATOM     27  C   UNL     1      -6.409  -2.789  -2.580  1.00  0.00    -0.014 A 
BRANCH  27  28
ATOM     28  C   UNL     1      -6.928  -3.153  -3.921  1.00  0.00     0.031 A 
ATOM     29  C   UNL     1      -7.292  -4.581  -4.224  1.00  0.00     0.074 A 
ATOM     30  C   UNL     1      -7.010  -2.215  -4.885  1.00  0.00     0.049 A 
ATOM     31  N   UNL     1      -7.704  -5.108  -5.349  1.00  0.00    -0.248 NA
ATOM     32  C   UNL     1      -7.145  -5.552  -3.126  1.00  0.00     0.031 C 
ATOM     33  C   UNL     1      -6.651  -0.803  -4.731  1.00  0.00     0.029 A 
ATOM     34  N   UNL     1      -7.423  -2.311  -6.189  1.00  0.00    -0.354 N 
ATOM     35  C   UNL     1      -7.849  -6.466  -5.097  1.00  0.00     0.074 A 
ATOM     36  C   UNL     1      -7.417  -6.694  -3.737  1.00  0.00     0.031 C 
ATOM     37  C   UNL     1      -6.901  -0.159  -5.881  1.00  0.00     0.029 A 
ATOM     38  C   UNL     1      -7.389  -1.117  -6.867  1.00  0.00     0.049 A 
ATOM     39  H   UNL     1      -7.717  -3.156  -6.601  1.00  0.00     0.167 HD
ATOM     40  C   UNL     1      -8.325  -7.436  -5.913  1.00  0.00     0.031 A 
ATOM     41  C   UNL     1      -7.711  -0.827  -8.142  1.00  0.00     0.031 A 
ATOM     42  C   UNL     1      -8.758  -7.209  -7.265  1.00  0.00     0.049 A 
ATOM     43  C   UNL     1      -8.201  -1.928  -9.041  1.00  0.00     0.074 A 
ATOM     44  C   UNL     1      -9.299  -8.114  -8.161  1.00  0.00     0.029 A 
ATOM     45  N   UNL     1      -8.695  -5.987  -7.918  1.00  0.00    -0.354 N 
ATOM     46  N   UNL     1      -8.394  -3.196  -8.768  1.00  0.00    -0.248 NA
ATOM     47  C   UNL     1      -8.526  -1.552 -10.424  1.00  0.00     0.031 C 
ATOM     48  C   UNL     1      -9.508  -7.452  -9.376  1.00  0.00     0.029 A 
ATOM     49  C   UNL     1      -9.161  -6.120  -9.214  1.00  0.00     0.049 A 
ATOM     50  H   UNL     1      -8.367  -5.149  -7.518  1.00  0.00     0.167 HD
ATOM     51  C   UNL     1      -8.894  -3.762  -9.934  1.00  0.00     0.074 A 
ATOM     52  C   UNL     1      -8.988  -2.696 -10.910  1.00  0.00     0.031 C 
ATOM     53  C   UNL     1      -9.247  -5.049 -10.174  1.00  0.00     0.031 A 
BRANCH  40  54
ATOM     54  C   UNL     1      -8.391  -8.833  -5.357  1.00  0.00    -0.014 A 
ATOM     55  C   UNL     1      -9.284  -9.165  -4.324  1.00  0.00     0.009 A 
ATOM     56  C   UNL     1      -7.561  -9.835  -5.881  1.00  0.00     0.009 A 
ATOM     57  C   UNL     1      -9.309 -10.457  -3.796  1.00  0.00     0.001 A 
ATOM     58  C   UNL     1      -7.612 -11.135  -5.375  1.00  0.00     0.001 A 
ATOM     59  C   UNL     1      -8.476 -11.442  -4.325  1.00  0.00     0.000 A 
ENDBRANCH  40  54
BRANCH  41  60
ATOM     60  C   UNL     1      -7.605   0.570  -8.640  1.00  0.00    -0.014 A 
ATOM     61  C   UNL     1      -8.762   1.303  -8.947  1.00  0.00     0.009 A 
ATOM     62  C   UNL     1      -6.352   1.176  -8.819  1.00  0.00     0.009 A 
ATOM     63  C   UNL     1      -8.665   2.603  -9.449  1.00  0.00     0.001 A 
ATOM     64  C   UNL     1      -6.259   2.488  -9.291  1.00  0.00     0.001 A 
ATOM     65  C   UNL     1      -7.415   3.196  -9.616  1.00  0.00     0.000 A 
ENDBRANCH  41  60
BRANCH  53  66
ATOM     66  C   UNL     1      -9.807  -5.366 -11.533  1.00  0.00    -0.014 A 
ATOM     67  C   UNL     1      -8.996  -5.368 -12.678  1.00  0.00     0.009 A 
ATOM     68  C   UNL     1     -11.163  -5.709 -11.659  1.00  0.00     0.009 A 
ATOM     69  C   UNL     1      -9.541  -5.670 -13.928  1.00  0.00     0.001 A 
ATOM     70  C   UNL     1     -11.697  -6.044 -12.904  1.00  0.00     0.001 A 
ATOM     71  C   UNL     1     -10.888  -6.014 -14.038  1.00  0.00     0.000 A 
ENDBRANCH  53  66
ENDBRANCH  27  28
ENDBRANCH  19  22
ENDBRANCH  17  18
ENDBRANCH   1  17
TORSDOF 12
