REMARK SMILES CC(=O)c1cccc(C(=O)NCCCNC(=O)c2ccc(-c3c4nc(c(-c5ccccc5)c5ccc([nH]5)c(-c5ccccc5)c5nc(c(-c6ccccc6)c6ccc3[nH]6)C=C5)C=C4)cc2)c1C
REMARK SMILES IDX 13 1 12 2 11 3 9 4 10 5 8 7 4 8 5 9 66 10 6 11 67 12 7 13
REMARK SMILES IDX 2 14 1 15 3 16 14 17 15 18 16 19 17 21 18 22 19 23 65 24
REMARK SMILES IDX 20 25 64 26 21 27 22 28 23 29 58 30 24 31 63 32 57 33 59 34
REMARK SMILES IDX 25 35 62 36 56 37 55 38 26 40 48 41 33 42 47 43 34 44 37 45
REMARK SMILES IDX 46 46 60 47 35 48 36 49 45 51 61 52 38 53 27 54 28 55 32 56
REMARK SMILES IDX 29 57 31 58 30 59 49 60 50 61 54 62 51 63 53 64 52 65 39 66
REMARK SMILES IDX 40 67 44 68 41 69 43 70 42 71
REMARK H PARENT 11 6 15 20 59 39 37 50
REMARK Flexibility Score: inf
ROOT
ATOM      1  C   UNL     1      -0.166   3.052  -2.578  1.00  0.00     0.042 C 
ENDROOT
BRANCH   1   2
ATOM      2  C   UNL     1      -1.652   3.094  -2.251  1.00  0.00     0.118 C 
BRANCH   2   3
ATOM      3  N   UNL     1      -2.504   2.301  -3.123  1.00  0.00    -0.352 N 
ATOM      4  C   UNL     1      -2.708   0.989  -3.442  1.00  0.00     0.251 C 
ATOM      5  O   UNL     1      -3.650   0.780  -4.214  1.00  0.00    -0.269 OA
ATOM      6  H   UNL     1      -3.114   2.882  -3.633  1.00  0.00     0.163 HD
BRANCH   4   7
ATOM      7  C   UNL     1      -1.863  -0.176  -3.044  1.00  0.00     0.043 A 
ATOM      8  C   UNL     1      -0.417  -1.569  -1.683  1.00  0.00     0.021 A 
ATOM      9  C   UNL     1      -0.397  -2.563  -2.670  1.00  0.00     0.012 A 
ATOM     10  C   UNL     1      -1.235  -0.415  -1.807  1.00  0.00    -0.028 A 
ATOM     11  C   UNL     1      -1.121  -2.387  -3.835  1.00  0.00     0.002 A 
ATOM     12  C   UNL     1      -1.515   0.404  -0.583  1.00  0.00     0.046 C 
ATOM     13  C   UNL     1      -1.810  -1.192  -4.031  1.00  0.00     0.014 A 
BRANCH   8  14
ATOM     14  C   UNL     1       0.462  -1.811  -0.510  1.00  0.00     0.160 C 
ATOM     15  C   UNL     1       1.403  -0.709  -0.095  1.00  0.00     0.093 C 
ATOM     16  O   UNL     1       0.447  -2.902   0.051  1.00  0.00    -0.295 OA
ENDBRANCH   8  14
ENDBRANCH   4   7
ENDBRANCH   2   3
ENDBRANCH   1   2
BRANCH   1  17
ATOM     17  C   UNL     1       0.481   4.422  -2.394  1.00  0.00     0.118 C 
BRANCH  17  18
ATOM     18  N   UNL     1       0.743   4.845  -1.021  1.00  0.00    -0.352 N 
ATOM     19  C   UNL     1       1.004   6.128  -0.538  1.00  0.00     0.251 C 
ATOM     20  H   UNL     1       0.734   4.128  -0.346  1.00  0.00     0.163 HD
ATOM     21  O   UNL     1       1.256   6.310   0.633  1.00  0.00    -0.269 OA
BRANCH  19  22
ATOM     22  C   UNL     1       0.833   7.286  -1.458  1.00  0.00     0.039 A 
ATOM     23  C   UNL     1      -0.001   8.330  -1.042  1.00  0.00     0.014 A 
ATOM     24  C   UNL     1       1.238   7.194  -2.785  1.00  0.00     0.014 A 
ATOM     25  C   UNL     1      -0.662   9.088  -2.004  1.00  0.00     0.010 A 
ATOM     26  C   UNL     1       0.492   7.856  -3.739  1.00  0.00     0.010 A 
ATOM     27  C   UNL     1      -0.512   8.747  -3.346  1.00  0.00    -0.014 A 
BRANCH  27  28
ATOM     28  C   UNL     1      -1.442   9.174  -4.386  1.00  0.00     0.031 A 
ATOM     29  C   UNL     1      -1.020  10.153  -5.403  1.00  0.00     0.074 A 
ATOM     30  C   UNL     1      -2.681   8.638  -4.453  1.00  0.00     0.049 A 
ATOM     31  N   UNL     1      -1.833  10.913  -6.056  1.00  0.00    -0.248 NA
ATOM     32  C   UNL     1       0.381  10.397  -5.720  1.00  0.00     0.031 C 
ATOM     33  C   UNL     1      -3.638   8.734  -5.553  1.00  0.00     0.029 A 
ATOM     34  N   UNL     1      -3.413   8.072  -3.410  1.00  0.00    -0.354 N 
ATOM     35  C   UNL     1      -1.114  11.508  -7.066  1.00  0.00     0.074 A 
ATOM     36  C   UNL     1       0.269  11.231  -6.757  1.00  0.00     0.031 C 
ATOM     37  C   UNL     1      -4.871   8.492  -5.080  1.00  0.00     0.029 A 
ATOM     38  C   UNL     1      -4.766   8.380  -3.635  1.00  0.00     0.049 A 
ATOM     39  H   UNL     1      -3.049   7.554  -2.656  1.00  0.00     0.167 HD
ATOM     40  C   UNL     1      -1.773  12.042  -8.132  1.00  0.00     0.031 A 
ATOM     41  C   UNL     1      -5.476   9.126  -2.740  1.00  0.00     0.031 A 
ATOM     42  C   UNL     1      -3.224  11.993  -7.958  1.00  0.00     0.049 A 
ATOM     43  C   UNL     1      -6.005  10.428  -3.305  1.00  0.00     0.074 A 
ATOM     44  C   UNL     1      -4.214  11.164  -8.461  1.00  0.00     0.029 A 
ATOM     45  N   UNL     1      -3.807  12.714  -6.923  1.00  0.00    -0.354 N 
ATOM     46  N   UNL     1      -5.606  10.955  -4.429  1.00  0.00    -0.248 NA
ATOM     47  C   UNL     1      -6.985  11.267  -2.619  1.00  0.00     0.031 C 
ATOM     48  C   UNL     1      -5.388  11.356  -7.684  1.00  0.00     0.029 A 
ATOM     49  C   UNL     1      -5.117  12.319  -6.730  1.00  0.00     0.049 A 
ATOM     50  H   UNL     1      -3.350  13.411  -6.399  1.00  0.00     0.167 HD
ATOM     51  C   UNL     1      -6.218  12.169  -4.617  1.00  0.00     0.074 A 
ATOM     52  C   UNL     1      -7.092  12.307  -3.466  1.00  0.00     0.031 C 
ATOM     53  C   UNL     1      -5.925  12.957  -5.695  1.00  0.00     0.031 A 
BRANCH  40  54
ATOM     54  C   UNL     1      -1.099  12.334  -9.453  1.00  0.00    -0.014 A 
ATOM     55  C   UNL     1      -1.848  12.284 -10.642  1.00  0.00     0.009 A 
ATOM     56  C   UNL     1       0.273  12.597  -9.606  1.00  0.00     0.009 A 
ATOM     57  C   UNL     1      -1.248  12.381 -11.905  1.00  0.00     0.001 A 
ATOM     58  C   UNL     1       0.889  12.651 -10.864  1.00  0.00     0.001 A 
ATOM     59  C   UNL     1       0.128  12.530 -12.016  1.00  0.00     0.000 A 
ENDBRANCH  40  54
BRANCH  41  60
ATOM     60  C   UNL     1      -5.034   8.927  -1.330  1.00  0.00    -0.014 A 
ATOM     61  C   UNL     1      -5.194   7.647  -0.759  1.00  0.00     0.009 A 
ATOM     62  C   UNL     1      -4.148   9.825  -0.721  1.00  0.00     0.009 A 
ATOM     63  C   UNL     1      -4.390   7.232   0.306  1.00  0.00     0.001 A 
ATOM     64  C   UNL     1      -3.358   9.411   0.359  1.00  0.00     0.001 A 
ATOM     65  C   UNL     1      -3.450   8.106   0.844  1.00  0.00     0.000 A 
ENDBRANCH  41  60
BRANCH  53  66
ATOM     66  C   UNL     1      -6.374  14.383  -5.939  1.00  0.00    -0.014 A 
ATOM     67  C   UNL     1      -6.907  15.240  -4.968  1.00  0.00     0.009 A 
ATOM     68  C   UNL     1      -6.146  14.955  -7.215  1.00  0.00     0.009 A 
ATOM     69  C   UNL     1      -7.223  16.576  -5.263  1.00  0.00     0.001 A 
ATOM     70  C   UNL     1      -6.415  16.295  -7.501  1.00  0.00     0.001 A 
ATOM     71  C   UNL     1      -6.965  17.107  -6.523  1.00  0.00     0.000 A 
ENDBRANCH  53  66
ENDBRANCH  27  28
ENDBRANCH  19  22
ENDBRANCH  17  18
ENDBRANCH   1  17
TORSDOF 11
