REMARK SMILES C[C@H](CS[C@H]1CCOC2(CCCCC2)C1)C(=O)NCCCNC(=O)c1ccc(-c2c3nc(c(-c4ccccc4)c4ccc([nH]4)c(-c4ccccc4)c4nc(c(-c5ccccc5)c5ccc2[nH]5)C=C4)C=C3)cc1
REMARK SMILES IDX 19 1 18 2 16 3 17 4 2 6 1 7 3 8 4 9 5 10 6 11 15 12 7 13
REMARK SMILES IDX 9 14 8 15 10 16 14 17 11 18 13 19 12 20 20 21 21 22 22 23
REMARK SMILES IDX 23 24 24 26 25 27 26 28 72 29 27 30 71 31 28 32 29 33 30 34
REMARK SMILES IDX 65 35 31 36 70 37 64 38 66 39 32 40 69 41 63 42 62 43 33 45
REMARK SMILES IDX 55 46 40 47 54 48 41 49 44 50 53 51 67 52 42 53 43 54 52 56
REMARK SMILES IDX 68 57 45 58 34 59 35 60 39 61 36 62 38 63 37 64 56 65 57 66
REMARK SMILES IDX 61 67 58 68 60 69 59 70 46 71 47 72 51 73 48 74 50 75 49 76
REMARK H PARENT 18 5 22 25 66 44 44 55
REMARK Flexibility Score: inf
ROOT
ATOM      1  C   UNL     1      -3.708   3.684  -1.026  1.00  0.00     0.117 C 
ENDROOT
BRANCH   1   2
ATOM      2  N   UNL     1      -3.957   3.239   0.330  1.00  0.00    -0.356 N 
ATOM      3  C   UNL     1      -3.101   2.842   1.306  1.00  0.00     0.223 C 
ATOM      4  O   UNL     1      -3.603   2.385   2.337  1.00  0.00    -0.275 OA
ATOM      5  H   UNL     1      -4.907   3.221   0.587  1.00  0.00     0.163 HD
BRANCH   3   6
ATOM      6  C   UNL     1      -1.583   2.951   1.177  1.00  0.00     0.085 C 
ATOM      7  C   UNL     1      -1.126   4.410   1.085  1.00  0.00     0.019 C 
BRANCH   6   8
ATOM      8  C   UNL     1      -0.987   1.913   0.199  1.00  0.00     0.083 C 
BRANCH   8   9
ATOM      9  S   UNL     1      -0.442   2.600  -1.399  1.00  0.00    -0.158 SA
BRANCH   9  10
ATOM     10  C   UNL     1      -0.021   1.128  -2.402  1.00  0.00     0.052 C 
ATOM     11  C   UNL     1      -1.036  -0.012  -2.456  1.00  0.00     0.043 C 
ATOM     12  C   UNL     1       0.155   1.676  -3.823  1.00  0.00     0.050 C 
ATOM     13  C   UNL     1      -0.589  -1.063  -3.473  1.00  0.00     0.162 C 
ATOM     14  C   UNL     1       0.597   0.583  -4.805  1.00  0.00     0.069 C 
ATOM     15  O   UNL     1      -0.342  -0.504  -4.762  1.00  0.00    -0.375 OA
ATOM     16  C   UNL     1       2.035   0.117  -4.492  1.00  0.00     0.035 C 
ATOM     17  C   UNL     1       0.538   1.171  -6.234  1.00  0.00     0.035 C 
ATOM     18  C   UNL     1       2.591  -0.829  -5.551  1.00  0.00     0.003 C 
ATOM     19  C   UNL     1       1.127   0.238  -7.292  1.00  0.00     0.003 C 
ATOM     20  C   UNL     1       2.544  -0.192  -6.933  1.00  0.00     0.000 C 
ENDBRANCH   9  10
ENDBRANCH   8   9
ENDBRANCH   6   8
ENDBRANCH   3   6
ENDBRANCH   1   2
BRANCH   1  21
ATOM     21  C   UNL     1      -3.854   2.534  -2.013  1.00  0.00     0.042 C 
BRANCH  21  22
ATOM     22  C   UNL     1      -5.300   2.179  -2.318  1.00  0.00     0.118 C 
BRANCH  22  23
ATOM     23  N   UNL     1      -5.975   3.230  -3.066  1.00  0.00    -0.352 N 
ATOM     24  C   UNL     1      -6.587   3.174  -4.292  1.00  0.00     0.251 C 
ATOM     25  H   UNL     1      -5.995   4.110  -2.627  1.00  0.00     0.163 HD
ATOM     26  O   UNL     1      -6.919   4.213  -4.859  1.00  0.00    -0.269 OA
BRANCH  24  27
ATOM     27  C   UNL     1      -6.835   1.870  -4.937  1.00  0.00     0.039 A 
ATOM     28  C   UNL     1      -6.606   1.734  -6.309  1.00  0.00     0.014 A 
ATOM     29  C   UNL     1      -7.304   0.786  -4.191  1.00  0.00     0.014 A 
ATOM     30  C   UNL     1      -6.789   0.492  -6.921  1.00  0.00     0.010 A 
ATOM     31  C   UNL     1      -7.401  -0.467  -4.782  1.00  0.00     0.010 A 
ATOM     32  C   UNL     1      -7.154  -0.625  -6.155  1.00  0.00    -0.014 A 
BRANCH  32  33
ATOM     33  C   UNL     1      -7.308  -1.973  -6.755  1.00  0.00     0.031 A 
ATOM     34  C   UNL     1      -8.646  -2.658  -6.710  1.00  0.00     0.074 A 
ATOM     35  C   UNL     1      -6.233  -2.614  -7.251  1.00  0.00     0.049 A 
ATOM     36  N   UNL     1      -8.959  -3.885  -7.041  1.00  0.00    -0.248 NA
ATOM     37  C   UNL     1      -9.777  -1.868  -6.193  1.00  0.00     0.031 C 
ATOM     38  C   UNL     1      -4.877  -2.066  -7.331  1.00  0.00     0.029 A 
ATOM     39  N   UNL     1      -6.111  -3.880  -7.766  1.00  0.00    -0.354 N 
ATOM     40  C   UNL     1     -10.310  -4.020  -6.747  1.00  0.00     0.074 A 
ATOM     41  C   UNL     1     -10.746  -2.770  -6.165  1.00  0.00     0.031 C 
ATOM     42  C   UNL     1      -4.065  -2.984  -7.879  1.00  0.00     0.029 A 
ATOM     43  C   UNL     1      -4.827  -4.200  -8.139  1.00  0.00     0.049 A 
ATOM     44  H   UNL     1      -6.870  -4.500  -7.859  1.00  0.00     0.167 HD
ATOM     45  C   UNL     1     -11.120  -5.085  -6.955  1.00  0.00     0.031 A 
ATOM     46  C   UNL     1      -4.319  -5.352  -8.616  1.00  0.00     0.031 A 
ATOM     47  C   UNL     1     -10.684  -6.324  -7.542  1.00  0.00     0.049 A 
ATOM     48  C   UNL     1      -5.232  -6.532  -8.810  1.00  0.00     0.074 A 
ATOM     49  C   UNL     1     -11.435  -7.447  -7.840  1.00  0.00     0.029 A 
ATOM     50  N   UNL     1      -9.379  -6.601  -7.919  1.00  0.00    -0.354 N 
ATOM     51  N   UNL     1      -6.518  -6.630  -8.573  1.00  0.00    -0.248 NA
ATOM     52  C   UNL     1      -4.624  -7.759  -9.345  1.00  0.00     0.031 C 
ATOM     53  C   UNL     1     -10.574  -8.426  -8.343  1.00  0.00     0.029 A 
ATOM     54  C   UNL     1      -9.299  -7.887  -8.426  1.00  0.00     0.049 A 
ATOM     55  H   UNL     1      -8.622  -5.977  -7.838  1.00  0.00     0.167 HD
ATOM     56  C   UNL     1      -6.880  -7.912  -8.968  1.00  0.00     0.074 A 
ATOM     57  C   UNL     1      -5.680  -8.552  -9.465  1.00  0.00     0.031 C 
ATOM     58  C   UNL     1      -8.099  -8.503  -8.930  1.00  0.00     0.031 A 
BRANCH  45  59
ATOM     59  C   UNL     1     -12.557  -4.960  -6.529  1.00  0.00    -0.014 A 
ATOM     60  C   UNL     1     -13.443  -4.092  -7.189  1.00  0.00     0.009 A 
ATOM     61  C   UNL     1     -13.042  -5.745  -5.472  1.00  0.00     0.009 A 
ATOM     62  C   UNL     1     -14.771  -3.983  -6.773  1.00  0.00     0.001 A 
ATOM     63  C   UNL     1     -14.379  -5.661  -5.080  1.00  0.00     0.001 A 
ATOM     64  C   UNL     1     -15.239  -4.772  -5.723  1.00  0.00     0.000 A 
ENDBRANCH  45  59
BRANCH  46  65
ATOM     65  C   UNL     1      -2.873  -5.448  -8.951  1.00  0.00    -0.014 A 
ATOM     66  C   UNL     1      -2.459  -5.575 -10.286  1.00  0.00     0.009 A 
ATOM     67  C   UNL     1      -1.899  -5.421  -7.941  1.00  0.00     0.009 A 
ATOM     68  C   UNL     1      -1.104  -5.706 -10.599  1.00  0.00     0.001 A 
ATOM     69  C   UNL     1      -0.543  -5.517  -8.259  1.00  0.00     0.001 A 
ATOM     70  C   UNL     1      -0.147  -5.672  -9.586  1.00  0.00     0.000 A 
ENDBRANCH  46  65
BRANCH  58  71
ATOM     71  C   UNL     1      -8.217  -9.891  -9.497  1.00  0.00    -0.014 A 
ATOM     72  C   UNL     1      -7.679 -11.005  -8.838  1.00  0.00     0.009 A 
ATOM     73  C   UNL     1      -8.940 -10.086 -10.686  1.00  0.00     0.009 A 
ATOM     74  C   UNL     1      -7.838 -12.286  -9.373  1.00  0.00     0.001 A 
ATOM     75  C   UNL     1      -9.125 -11.369 -11.201  1.00  0.00     0.001 A 
ATOM     76  C   UNL     1      -8.567 -12.467 -10.549  1.00  0.00     0.000 A 
ENDBRANCH  58  71
ENDBRANCH  32  33
ENDBRANCH  24  27
ENDBRANCH  22  23
ENDBRANCH  21  22
ENDBRANCH   1  21
TORSDOF 13
