REMARK SMILES C[C@H]([NH2+][C@@H](C)Cc1cccs1)[C@@H](C)C(=O)NCCCNC(=O)c1ccc(-c2c3nc(c(-c4ccccc4)c4ccc([nH]4)c(-c4ccccc4)c4nc(c(-c5ccccc5)c5ccc2[nH]5)C=C4)C=C3)cc1
REMARK SMILES IDX 14 1 15 2 16 3 12 5 13 6 2 7 1 8 3 9 4 12 5 13 6 14 7 15
REMARK SMILES IDX 8 16 11 17 9 18 10 19 17 20 18 21 19 22 20 23 21 24 22 26
REMARK SMILES IDX 23 27 24 28 70 29 25 30 69 31 26 32 27 33 28 34 63 35 29 36
REMARK SMILES IDX 68 37 62 38 64 39 30 40 67 41 61 42 60 43 31 45 53 46 38 47
REMARK SMILES IDX 52 48 39 49 42 50 51 51 65 52 40 53 41 54 50 56 66 57 43 58
REMARK SMILES IDX 32 59 33 60 37 61 34 62 36 63 35 64 54 65 55 66 59 67 56 68
REMARK SMILES IDX 58 69 57 70 44 71 45 72 49 73 46 74 48 75 47 76
REMARK H PARENT 16 4 3 10 3 11 20 25 64 44 42 55
REMARK Flexibility Score: inf
ROOT
ATOM      1  C   UNL     1      -1.504   2.870   0.320  1.00  0.00     0.228 C 
ATOM      2  O   UNL     1      -2.295   3.321  -0.514  1.00  0.00    -0.275 OA
ATOM      3  N   UNL     1      -1.206   3.666   1.373  1.00  0.00    -0.356 N 
ATOM      4  H   UNL     1      -1.741   4.492   1.419  1.00  0.00     0.163 HD
ENDROOT
BRANCH   1   5
ATOM      5  C   UNL     1      -0.937   1.465   0.173  1.00  0.00     0.133 C 
ATOM      6  C   UNL     1      -1.462   0.576   1.308  1.00  0.00     0.024 C 
BRANCH   5   7
ATOM      7  C   UNL     1       0.589   1.383  -0.094  1.00  0.00     0.191 C 
ATOM      8  C   UNL     1       1.059   2.430  -1.115  1.00  0.00     0.076 C 
BRANCH   7   9
ATOM      9  N   UNL     1       1.043  -0.000  -0.353  1.00  0.00    -0.341 N 
ATOM     10  H   UNL     1       0.248  -0.607  -0.155  1.00  0.00     0.346 HD
ATOM     11  H   UNL     1       1.871  -0.076   0.239  1.00  0.00     0.346 HD
BRANCH   9  12
ATOM     12  C   UNL     1       1.556  -0.401  -1.669  1.00  0.00     0.184 C 
ATOM     13  C   UNL     1       2.750  -1.323  -1.360  1.00  0.00     0.075 C 
BRANCH  12  14
ATOM     14  C   UNL     1       0.574  -1.197  -2.571  1.00  0.00     0.111 C 
BRANCH  14  15
ATOM     15  C   UNL     1      -0.707  -0.492  -2.909  1.00  0.00     0.010 A 
ATOM     16  C   UNL     1      -1.959  -0.707  -2.366  1.00  0.00     0.015 A 
ATOM     17  S   UNL     1      -0.759   0.701  -4.138  1.00  0.00    -0.149 S 
ATOM     18  C   UNL     1      -2.923   0.228  -2.844  1.00  0.00     0.012 A 
ATOM     19  C   UNL     1      -2.393   1.071  -3.794  1.00  0.00     0.065 A 
ENDBRANCH  14  15
ENDBRANCH  12  14
ENDBRANCH   9  12
ENDBRANCH   7   9
ENDBRANCH   5   7
ENDBRANCH   1   5
BRANCH   3  20
ATOM     20  C   UNL     1      -0.242   3.522   2.445  1.00  0.00     0.117 C 
BRANCH  20  21
ATOM     21  C   UNL     1       0.985   4.395   2.218  1.00  0.00     0.042 C 
BRANCH  21  22
ATOM     22  C   UNL     1       0.646   5.862   1.995  1.00  0.00     0.118 C 
BRANCH  22  23
ATOM     23  N   UNL     1      -0.082   6.433   3.122  1.00  0.00    -0.352 N 
ATOM     24  C   UNL     1       0.348   7.310   4.082  1.00  0.00     0.251 C 
ATOM     25  H   UNL     1      -1.020   6.146   3.205  1.00  0.00     0.163 HD
ATOM     26  O   UNL     1      -0.308   7.472   5.112  1.00  0.00    -0.269 OA
BRANCH  24  27
ATOM     27  C   UNL     1       1.605   8.051   3.882  1.00  0.00     0.039 A 
ATOM     28  C   UNL     1       2.499   8.190   4.946  1.00  0.00     0.014 A 
ATOM     29  C   UNL     1       1.897   8.610   2.635  1.00  0.00     0.014 A 
ATOM     30  C   UNL     1       3.717   8.838   4.738  1.00  0.00     0.010 A 
ATOM     31  C   UNL     1       3.148   9.161   2.404  1.00  0.00     0.010 A 
ATOM     32  C   UNL     1       4.064   9.297   3.457  1.00  0.00    -0.014 A 
BRANCH  32  33
ATOM     33  C   UNL     1       5.366   9.954   3.193  1.00  0.00     0.031 A 
ATOM     34  C   UNL     1       5.398  11.380   2.716  1.00  0.00     0.074 A 
ATOM     35  C   UNL     1       6.508   9.250   3.315  1.00  0.00     0.049 A 
ATOM     36  N   UNL     1       6.423  12.107   2.353  1.00  0.00    -0.248 NA
ATOM     37  C   UNL     1       4.102  12.072   2.601  1.00  0.00     0.031 C 
ATOM     38  C   UNL     1       6.603   7.849   3.731  1.00  0.00     0.029 A 
ATOM     39  N   UNL     1       7.810   9.620   3.094  1.00  0.00    -0.354 N 
ATOM     40  C   UNL     1       5.895  13.327   1.950  1.00  0.00     0.074 A 
ATOM     41  C   UNL     1       4.457  13.223   2.053  1.00  0.00     0.031 C 
ATOM     42  C   UNL     1       7.897   7.489   3.769  1.00  0.00     0.029 A 
ATOM     43  C   UNL     1       8.716   8.616   3.337  1.00  0.00     0.049 A 
ATOM     44  H   UNL     1       8.070  10.519   2.789  1.00  0.00     0.167 HD
ATOM     45  C   UNL     1       6.548  14.445   1.555  1.00  0.00     0.031 A 
ATOM     46  C   UNL     1      10.056   8.607   3.219  1.00  0.00     0.031 A 
ATOM     47  C   UNL     1       7.978  14.551   1.468  1.00  0.00     0.049 A 
ATOM     48  C   UNL     1      10.757   9.855   2.758  1.00  0.00     0.074 A 
ATOM     49  C   UNL     1       8.743  15.651   1.125  1.00  0.00     0.029 A 
ATOM     50  N   UNL     1       8.860  13.513   1.729  1.00  0.00    -0.354 N 
ATOM     51  N   UNL     1      10.246  11.021   2.441  1.00  0.00    -0.248 NA
ATOM     52  C   UNL     1      12.221   9.788   2.651  1.00  0.00     0.031 C 
ATOM     53  C   UNL     1      10.087  15.266   1.132  1.00  0.00     0.029 A 
ATOM     54  C   UNL     1      10.161  13.942   1.536  1.00  0.00     0.049 A 
ATOM     55  H   UNL     1       8.599  12.606   2.010  1.00  0.00     0.167 HD
ATOM     56  C   UNL     1      11.328  11.834   2.129  1.00  0.00     0.074 A 
ATOM     57  C   UNL     1      12.521  11.033   2.310  1.00  0.00     0.031 C 
ATOM     58  C   UNL     1      11.334  13.129   1.729  1.00  0.00     0.031 A 
BRANCH  45  59
ATOM     59  C   UNL     1       5.712  15.641   1.190  1.00  0.00    -0.014 A 
ATOM     60  C   UNL     1       4.988  16.348   2.166  1.00  0.00     0.009 A 
ATOM     61  C   UNL     1       5.664  16.083  -0.140  1.00  0.00     0.009 A 
ATOM     62  C   UNL     1       4.203  17.445   1.809  1.00  0.00     0.001 A 
ATOM     63  C   UNL     1       4.904  17.201  -0.489  1.00  0.00     0.001 A 
ATOM     64  C   UNL     1       4.165  17.875   0.484  1.00  0.00     0.000 A 
ENDBRANCH  45  59
BRANCH  46  65
ATOM     65  C   UNL     1      10.831   7.384   3.561  1.00  0.00    -0.014 A 
ATOM     66  C   UNL     1      11.659   7.363   4.694  1.00  0.00     0.009 A 
ATOM     67  C   UNL     1      10.760   6.240   2.752  1.00  0.00     0.009 A 
ATOM     68  C   UNL     1      12.425   6.233   4.991  1.00  0.00     0.001 A 
ATOM     69  C   UNL     1      11.504   5.101   3.068  1.00  0.00     0.001 A 
ATOM     70  C   UNL     1      12.344   5.102   4.180  1.00  0.00     0.000 A 
ENDBRANCH  46  65
BRANCH  58  71
ATOM     71  C   UNL     1      12.674  13.771   1.505  1.00  0.00    -0.014 A 
ATOM     72  C   UNL     1      13.470  13.437   0.399  1.00  0.00     0.009 A 
ATOM     73  C   UNL     1      13.124  14.759   2.396  1.00  0.00     0.009 A 
ATOM     74  C   UNL     1      14.707  14.055   0.210  1.00  0.00     0.001 A 
ATOM     75  C   UNL     1      14.346  15.397   2.186  1.00  0.00     0.001 A 
ATOM     76  C   UNL     1      15.142  15.037   1.100  1.00  0.00     0.000 A 
ENDBRANCH  58  71
ENDBRANCH  32  33
ENDBRANCH  24  27
ENDBRANCH  22  23
ENDBRANCH  21  22
ENDBRANCH  20  21
ENDBRANCH   3  20
TORSDOF 15
