REMARK SMILES O=C(/C=C/c1cc(F)cc(COCc2ccco2)c1)NCCCNC(=O)c1ccc(-c2c3nc(c(-c4ccccc4)c4ccc([nH]4)c(-c4ccccc4)c4nc(c(-c5ccccc5)c5ccc2[nH]5)C=C4)C=C3)cc1
REMARK SMILES IDX 1 1 2 2 20 3 3 5 4 6 5 7 6 8 19 9 7 10 10 11 8 12 9 13 11 14
REMARK SMILES IDX 12 15 13 16 14 17 15 18 18 19 16 20 17 21 21 22 22 23 23 24
REMARK SMILES IDX 24 25 25 26 26 28 27 29 28 30 74 31 29 32 73 33 30 34 31 35
REMARK SMILES IDX 32 36 67 37 33 38 72 39 66 40 68 41 34 42 71 43 65 44 64 45
REMARK SMILES IDX 35 47 57 48 42 49 56 50 43 51 46 52 55 53 69 54 44 55 45 56
REMARK SMILES IDX 54 58 70 59 47 60 36 61 37 62 41 63 38 64 40 65 39 66 58 67
REMARK SMILES IDX 59 68 63 69 60 70 62 71 61 72 48 73 49 74 53 75 50 76 52 77
REMARK SMILES IDX 51 78
REMARK H PARENT 20 4 24 27 68 46 46 57
REMARK Flexibility Score: inf
ROOT
ATOM      1  O   UNL     1       1.013   0.463  -0.341  1.00  0.00    -0.270 OA
ATOM      2  C   UNL     1       2.160   0.096  -0.119  1.00  0.00     0.244 C 
ATOM      3  N   UNL     1       2.768  -0.958  -0.750  1.00  0.00    -0.352 N 
ATOM      4  H   UNL     1       3.702  -1.176  -0.525  1.00  0.00     0.163 HD
ENDROOT
BRANCH   2   5
ATOM      5  C   UNL     1       2.951   0.758   0.950  1.00  0.00     0.072 C 
ATOM      6  C   UNL     1       4.291   0.815   1.006  1.00  0.00     0.014 C 
BRANCH   6   7
ATOM      7  C   UNL     1       5.025   1.516   2.071  1.00  0.00    -0.022 A 
ATOM      8  C   UNL     1       4.607   1.502   3.406  1.00  0.00     0.047 A 
ATOM      9  C   UNL     1       6.209   2.193   1.744  1.00  0.00     0.014 A 
ATOM     10  C   UNL     1       5.345   2.178   4.374  1.00  0.00     0.124 A 
ATOM     11  C   UNL     1       6.948   2.886   2.719  1.00  0.00    -0.019 A 
ATOM     12  F   UNL     1       4.923   2.168   5.645  1.00  0.00    -0.207 F 
ATOM     13  C   UNL     1       6.504   2.870   4.045  1.00  0.00     0.045 A 
BRANCH  11  14
ATOM     14  C   UNL     1       8.166   3.687   2.329  1.00  0.00     0.196 C 
BRANCH  14  15
ATOM     15  O   UNL     1       8.004   5.093   2.522  1.00  0.00    -0.369 OA
BRANCH  15  16
ATOM     16  C   UNL     1       6.920   5.694   1.808  1.00  0.00     0.235 C 
BRANCH  16  17
ATOM     17  C   UNL     1       7.233   5.802   0.360  1.00  0.00     0.129 A 
ATOM     18  C   UNL     1       7.587   6.859  -0.453  1.00  0.00     0.048 A 
ATOM     19  O   UNL     1       7.101   4.668  -0.392  1.00  0.00    -0.467 OA
ATOM     20  C   UNL     1       7.692   6.340  -1.766  1.00  0.00     0.042 A 
ATOM     21  C   UNL     1       7.398   5.001  -1.673  1.00  0.00     0.195 A 
ENDBRANCH  16  17
ENDBRANCH  15  16
ENDBRANCH  14  15
ENDBRANCH  11  14
ENDBRANCH   6   7
ENDBRANCH   2   5
BRANCH   3  22
ATOM     22  C   UNL     1       2.078  -1.762  -1.740  1.00  0.00     0.118 C 
BRANCH  22  23
ATOM     23  C   UNL     1       2.361  -1.320  -3.171  1.00  0.00     0.042 C 
BRANCH  23  24
ATOM     24  C   UNL     1       3.830  -1.397  -3.579  1.00  0.00     0.118 C 
BRANCH  24  25
ATOM     25  N   UNL     1       4.367  -2.752  -3.567  1.00  0.00    -0.352 N 
ATOM     26  C   UNL     1       5.033  -3.447  -4.548  1.00  0.00     0.251 C 
ATOM     27  H   UNL     1       4.232  -3.246  -2.726  1.00  0.00     0.163 HD
ATOM     28  O   UNL     1       5.310  -4.632  -4.378  1.00  0.00    -0.269 OA
BRANCH  26  29
ATOM     29  C   UNL     1       5.389  -2.787  -5.822  1.00  0.00     0.039 A 
ATOM     30  C   UNL     1       5.123  -3.452  -7.024  1.00  0.00     0.014 A 
ATOM     31  C   UNL     1       5.976  -1.520  -5.838  1.00  0.00     0.014 A 
ATOM     32  C   UNL     1       5.359  -2.808  -8.242  1.00  0.00     0.010 A 
ATOM     33  C   UNL     1       6.148  -0.855  -7.050  1.00  0.00     0.010 A 
ATOM     34  C   UNL     1       5.828  -1.486  -8.262  1.00  0.00    -0.014 A 
BRANCH  34  35
ATOM     35  C   UNL     1       5.963  -0.723  -9.530  1.00  0.00     0.031 A 
ATOM     36  C   UNL     1       7.312  -0.237  -9.980  1.00  0.00     0.074 A 
ATOM     37  C   UNL     1       4.860  -0.380 -10.224  1.00  0.00     0.049 A 
ATOM     38  N   UNL     1       7.614   0.564 -10.970  1.00  0.00    -0.248 NA
ATOM     39  C   UNL     1       8.473  -0.691  -9.197  1.00  0.00     0.031 C 
ATOM     40  C   UNL     1       3.488  -0.765  -9.885  1.00  0.00     0.029 A 
ATOM     41  N   UNL     1       4.718   0.393 -11.350  1.00  0.00    -0.354 N 
ATOM     42  C   UNL     1       8.991   0.731 -10.915  1.00  0.00     0.074 A 
ATOM     43  C   UNL     1       9.462  -0.023  -9.772  1.00  0.00     0.031 C 
ATOM     44  C   UNL     1       2.647  -0.239 -10.789  1.00  0.00     0.029 A 
ATOM     45  C   UNL     1       3.411   0.561 -11.741  1.00  0.00     0.049 A 
ATOM     46  H   UNL     1       5.480   0.788 -11.832  1.00  0.00     0.167 HD
ATOM     47  C   UNL     1       9.794   1.438 -11.746  1.00  0.00     0.031 A 
ATOM     48  C   UNL     1       2.882   1.294 -12.739  1.00  0.00     0.031 A 
ATOM     49  C   UNL     1       9.329   2.177 -12.889  1.00  0.00     0.049 A 
ATOM     50  C   UNL     1       3.792   2.092 -13.631  1.00  0.00     0.074 A 
ATOM     51  C   UNL     1      10.073   2.882 -13.819  1.00  0.00     0.029 A 
ATOM     52  N   UNL     1       7.999   2.307 -13.257  1.00  0.00    -0.354 N 
ATOM     53  N   UNL     1       5.097   2.200 -13.594  1.00  0.00    -0.248 NA
ATOM     54  C   UNL     1       3.154   2.866 -14.707  1.00  0.00     0.031 C 
ATOM     55  C   UNL     1       9.190   3.479 -14.724  1.00  0.00     0.029 A 
ATOM     56  C   UNL     1       7.900   3.099 -14.389  1.00  0.00     0.049 A 
ATOM     57  H   UNL     1       7.239   1.898 -12.785  1.00  0.00     0.167 HD
ATOM     58  C   UNL     1       5.439   3.023 -14.659  1.00  0.00     0.074 A 
ATOM     59  C   UNL     1       4.205   3.382 -15.327  1.00  0.00     0.031 C 
ATOM     60  C   UNL     1       6.668   3.438 -15.051  1.00  0.00     0.031 A 
BRANCH  47  61
ATOM     61  C   UNL     1      11.265   1.455 -11.439  1.00  0.00    -0.014 A 
ATOM     62  C   UNL     1      12.061   0.313 -11.621  1.00  0.00     0.009 A 
ATOM     63  C   UNL     1      11.872   2.642 -10.999  1.00  0.00     0.009 A 
ATOM     64  C   UNL     1      13.427   0.350 -11.334  1.00  0.00     0.001 A 
ATOM     65  C   UNL     1      13.243   2.684 -10.742  1.00  0.00     0.001 A 
ATOM     66  C   UNL     1      14.017   1.536 -10.899  1.00  0.00     0.000 A 
ENDBRANCH  47  61
BRANCH  48  67
ATOM     67  C   UNL     1       1.411   1.308 -12.953  1.00  0.00    -0.014 A 
ATOM     68  C   UNL     1       0.851   0.666 -14.069  1.00  0.00     0.009 A 
ATOM     69  C   UNL     1       0.561   1.964 -12.050  1.00  0.00     0.009 A 
ATOM     70  C   UNL     1      -0.528   0.704 -14.288  1.00  0.00     0.001 A 
ATOM     71  C   UNL     1      -0.820   1.975 -12.256  1.00  0.00     0.001 A 
ATOM     72  C   UNL     1      -1.362   1.353 -13.379  1.00  0.00     0.000 A 
ENDBRANCH  48  67
BRANCH  60  73
ATOM     73  C   UNL     1       6.751   4.286 -16.288  1.00  0.00    -0.014 A 
ATOM     74  C   UNL     1       6.361   5.633 -16.280  1.00  0.00     0.009 A 
ATOM     75  C   UNL     1       7.291   3.739 -17.464  1.00  0.00     0.009 A 
ATOM     76  C   UNL     1       6.489   6.410 -17.434  1.00  0.00     0.001 A 
ATOM     77  C   UNL     1       7.442   4.525 -18.606  1.00  0.00     0.001 A 
ATOM     78  C   UNL     1       7.035   5.858 -18.593  1.00  0.00     0.000 A 
ENDBRANCH  60  73
ENDBRANCH  34  35
ENDBRANCH  26  29
ENDBRANCH  24  25
ENDBRANCH  23  24
ENDBRANCH  22  23
ENDBRANCH   3  22
TORSDOF 15
