REMARK SMILES O=C(CC[C@@H]1COc2ccc(Br)cc2C1=O)NCCCNC(=O)c1ccc(-c2c3nc(c(-c4ccccc4)c4ccc([nH]4)c(-c4ccccc4)c4nc(c(-c5ccccc5)c5ccc2[nH]5)C=C4)C=C3)cc1
REMARK SMILES IDX 19 1 18 2 17 3 1 4 2 5 3 7 4 8 5 9 6 10 15 11 7 12 14 13
REMARK SMILES IDX 16 14 8 15 13 16 9 17 11 18 10 19 12 20 20 21 21 22 22 23
REMARK SMILES IDX 23 25 24 26 25 27 71 28 26 29 70 30 27 31 28 32 29 33 64 34
REMARK SMILES IDX 30 35 69 36 63 37 65 38 31 39 68 40 62 41 61 42 32 44 54 45
REMARK SMILES IDX 39 46 53 47 40 48 43 49 52 50 66 51 41 52 42 53 51 55 67 56
REMARK SMILES IDX 44 57 33 58 34 59 38 60 35 61 37 62 36 63 55 64 56 65 60 66
REMARK SMILES IDX 57 67 59 68 58 69 45 70 46 71 50 72 47 73 49 74 48 75
REMARK H PARENT 17 6 21 24 65 43 43 54
REMARK Flexibility Score: inf
ROOT
ATOM      1  C   UNL     1       2.010   0.314   3.629  1.00  0.00     0.042 C 
ENDROOT
BRANCH   1   2
ATOM      2  C   UNL     1       1.682   1.212   2.438  1.00  0.00     0.117 C 
BRANCH   2   3
ATOM      3  N   UNL     1       2.418   0.829   1.250  1.00  0.00    -0.356 N 
ATOM      4  O   UNL     1       0.711  -0.282   0.227  1.00  0.00    -0.275 OA
ATOM      5  C   UNL     1       1.884   0.084   0.231  1.00  0.00     0.220 C 
ATOM      6  H   UNL     1       3.355   1.121   1.169  1.00  0.00     0.163 HD
BRANCH   5   7
ATOM      7  C   UNL     1       2.868  -0.428  -0.817  1.00  0.00     0.101 C 
BRANCH   7   8
ATOM      8  C   UNL     1       3.787   0.555  -1.554  1.00  0.00     0.025 C 
BRANCH   8   9
ATOM      9  C   UNL     1       5.034   1.123  -0.833  1.00  0.00     0.099 C 
ATOM     10  C   UNL     1       5.644   0.194   0.212  1.00  0.00     0.241 C 
ATOM     11  C   UNL     1       4.764   2.492  -0.242  1.00  0.00     0.173 C 
ATOM     12  O   UNL     1       6.750   0.767   0.914  1.00  0.00    -0.492 OA
ATOM     13  C   UNL     1       5.566   2.891   0.924  1.00  0.00     0.061 A 
ATOM     14  O   UNL     1       3.921   3.263  -0.689  1.00  0.00    -0.294 OA
ATOM     15  C   UNL     1       6.487   1.993   1.457  1.00  0.00     0.130 A 
ATOM     16  C   UNL     1       5.391   4.160   1.488  1.00  0.00     0.031 A 
ATOM     17  C   UNL     1       7.233   2.360   2.576  1.00  0.00     0.048 A 
ATOM     18  C   UNL     1       6.145   4.519   2.601  1.00  0.00     0.018 A 
ATOM     19  C   UNL     1       7.056   3.621   3.154  1.00  0.00     0.019 A 
ATOM     20  Br  UNL     1       5.932   6.237   3.360  1.00  0.00    -0.051 Br
ENDBRANCH   8   9
ENDBRANCH   7   8
ENDBRANCH   5   7
ENDBRANCH   2   3
ENDBRANCH   1   2
BRANCH   1  21
ATOM     21  C   UNL     1       3.486   0.250   4.024  1.00  0.00     0.118 C 
BRANCH  21  22
ATOM     22  N   UNL     1       4.058   1.528   4.423  1.00  0.00    -0.352 N 
ATOM     23  C   UNL     1       4.823   1.869   5.513  1.00  0.00     0.251 C 
ATOM     24  H   UNL     1       3.864   2.273   3.809  1.00  0.00     0.163 HD
ATOM     25  O   UNL     1       5.134   3.047   5.681  1.00  0.00    -0.269 OA
BRANCH  23  26
ATOM     26  C   UNL     1       5.236   0.866   6.522  1.00  0.00     0.039 A 
ATOM     27  C   UNL     1       5.649  -0.421   6.176  1.00  0.00     0.014 A 
ATOM     28  C   UNL     1       5.210   1.242   7.871  1.00  0.00     0.014 A 
ATOM     29  C   UNL     1       5.846  -1.378   7.173  1.00  0.00     0.010 A 
ATOM     30  C   UNL     1       5.483   0.304   8.869  1.00  0.00     0.010 A 
ATOM     31  C   UNL     1       5.736  -1.033   8.530  1.00  0.00    -0.014 A 
BRANCH  31  32
ATOM     32  C   UNL     1       5.828  -2.083   9.580  1.00  0.00     0.031 A 
ATOM     33  C   UNL     1       4.621  -2.428  10.416  1.00  0.00     0.074 A 
ATOM     34  C   UNL     1       6.977  -2.762   9.756  1.00  0.00     0.049 A 
ATOM     35  N   UNL     1       4.500  -3.335  11.354  1.00  0.00    -0.248 NA
ATOM     36  C   UNL     1       3.391  -1.657  10.171  1.00  0.00     0.031 C 
ATOM     37  C   UNL     1       8.212  -2.537   9.004  1.00  0.00     0.029 A 
ATOM     38  N   UNL     1       7.287  -3.792  10.609  1.00  0.00    -0.354 N 
ATOM     39  C   UNL     1       3.192  -3.235  11.814  1.00  0.00     0.074 A 
ATOM     40  C   UNL     1       2.568  -2.155  11.083  1.00  0.00     0.031 C 
ATOM     41  C   UNL     1       9.130  -3.434   9.396  1.00  0.00     0.029 A 
ATOM     42  C   UNL     1       8.570  -4.261  10.461  1.00  0.00     0.049 A 
ATOM     43  H   UNL     1       6.651  -4.160  11.264  1.00  0.00     0.167 HD
ATOM     44  C   UNL     1       2.562  -3.984  12.748  1.00  0.00     0.031 A 
ATOM     45  C   UNL     1       9.228  -5.242  11.109  1.00  0.00     0.031 A 
ATOM     46  C   UNL     1       3.175  -5.067  13.470  1.00  0.00     0.049 A 
ATOM     47  C   UNL     1       8.522  -6.026  12.181  1.00  0.00     0.074 A 
ATOM     48  C   UNL     1       2.601  -5.901  14.415  1.00  0.00     0.029 A 
ATOM     49  N   UNL     1       4.494  -5.467  13.330  1.00  0.00    -0.354 N 
ATOM     50  N   UNL     1       7.279  -5.933  12.584  1.00  0.00    -0.248 NA
ATOM     51  C   UNL     1       9.308  -7.050  12.884  1.00  0.00     0.031 C 
ATOM     52  C   UNL     1       3.588  -6.765  14.890  1.00  0.00     0.029 A 
ATOM     53  C   UNL     1       4.760  -6.516  14.193  1.00  0.00     0.049 A 
ATOM     54  H   UNL     1       5.144  -5.065  12.710  1.00  0.00     0.167 HD
ATOM     55  C   UNL     1       7.128  -6.894  13.576  1.00  0.00     0.074 A 
ATOM     56  C   UNL     1       8.401  -7.572  13.700  1.00  0.00     0.031 C 
ATOM     57  C   UNL     1       6.030  -7.183  14.315  1.00  0.00     0.031 A 
BRANCH  44  58
ATOM     58  C   UNL     1       1.124  -3.666  13.059  1.00  0.00    -0.014 A 
ATOM     59  C   UNL     1       0.781  -3.138  14.314  1.00  0.00     0.009 A 
ATOM     60  C   UNL     1       0.100  -3.977  12.151  1.00  0.00     0.009 A 
ATOM     61  C   UNL     1      -0.557  -2.940  14.659  1.00  0.00     0.001 A 
ATOM     62  C   UNL     1      -1.237  -3.750  12.488  1.00  0.00     0.001 A 
ATOM     63  C   UNL     1      -1.564  -3.242  13.745  1.00  0.00     0.000 A 
ENDBRANCH  44  58
BRANCH  45  64
ATOM     64  C   UNL     1      10.636  -5.541  10.740  1.00  0.00    -0.014 A 
ATOM     65  C   UNL     1      11.659  -4.619  11.017  1.00  0.00     0.009 A 
ATOM     66  C   UNL     1      10.959  -6.726  10.062  1.00  0.00     0.009 A 
ATOM     67  C   UNL     1      12.968  -4.863  10.598  1.00  0.00     0.001 A 
ATOM     68  C   UNL     1      12.275  -6.982   9.671  1.00  0.00     0.001 A 
ATOM     69  C   UNL     1      13.276  -6.045   9.929  1.00  0.00     0.000 A 
ENDBRANCH  45  64
BRANCH  57  70
ATOM     70  C   UNL     1       6.133  -8.287  15.331  1.00  0.00    -0.014 A 
ATOM     71  C   UNL     1       5.423  -9.483  15.135  1.00  0.00     0.009 A 
ATOM     72  C   UNL     1       6.838  -8.103  16.529  1.00  0.00     0.009 A 
ATOM     73  C   UNL     1       5.401 -10.465  16.127  1.00  0.00     0.001 A 
ATOM     74  C   UNL     1       6.838  -9.099  17.508  1.00  0.00     0.001 A 
ATOM     75  C   UNL     1       6.111 -10.274  17.311  1.00  0.00     0.000 A 
ENDBRANCH  57  70
ENDBRANCH  31  32
ENDBRANCH  23  26
ENDBRANCH  21  22
ENDBRANCH   1  21
TORSDOF 12
