REMARK SMILES O=C(NCCCNC(=O)[C@@H]1CCCN1S(=O)(=O)c1ccc2c3c(cccc13)C(=O)N2)c1ccc(-c2c3nc(c(-c4ccccc4)c4ccc([nH]4)c(-c4ccccc4)c4nc(c(-c5ccccc5)c5ccc2[nH]5)C=C4)C=C3)cc1
REMARK SMILES IDX 5 1 4 2 3 3 1 4 2 5 31 7 32 8 78 9 33 10 77 11 34 12 35 13
REMARK SMILES IDX 36 14 71 15 37 16 76 17 70 18 72 19 38 20 75 21 69 22 68 23
REMARK SMILES IDX 39 25 61 26 46 27 60 28 47 29 50 30 59 31 73 32 48 33 49 34
REMARK SMILES IDX 58 36 74 37 51 38 40 39 41 40 45 41 42 42 44 43 43 44 62 45
REMARK SMILES IDX 63 46 67 47 64 48 66 49 65 50 52 51 53 52 57 53 54 54 56 55
REMARK SMILES IDX 55 56 6 57 7 58 8 59 9 61 10 62 11 63 14 64 12 65 13 66
REMARK SMILES IDX 15 67 16 68 17 69 18 70 19 71 27 72 20 73 22 74 26 75 21 76
REMARK SMILES IDX 23 77 25 78 30 79 24 80 28 81 29 83
REMARK H PARENT 3 6 72 24 50 35 7 60 30 82
REMARK Flexibility Score: inf
ROOT
ATOM      1  C   UNL     1       4.916   2.366   0.908  1.00  0.00     0.042 C 
ENDROOT
BRANCH   1   2
ATOM      2  C   UNL     1       4.548   0.887   0.917  1.00  0.00     0.118 C 
BRANCH   2   3
ATOM      3  N   UNL     1       3.112   0.663   0.971  1.00  0.00    -0.352 N 
ATOM      4  O   UNL     1       1.097   0.026   0.171  1.00  0.00    -0.269 OA
ATOM      5  C   UNL     1       2.318  -0.002   0.070  1.00  0.00     0.251 C 
ATOM      6  H   UNL     1       2.650   1.038   1.756  1.00  0.00     0.163 HD
BRANCH   5   7
ATOM      7  C   UNL     1       2.953  -0.727  -1.048  1.00  0.00     0.039 A 
ATOM      8  C   UNL     1       3.985  -1.641  -0.806  1.00  0.00     0.014 A 
ATOM      9  C   UNL     1       2.532  -0.460  -2.352  1.00  0.00     0.014 A 
ATOM     10  C   UNL     1       4.680  -2.192  -1.877  1.00  0.00     0.010 A 
ATOM     11  C   UNL     1       3.192  -1.060  -3.424  1.00  0.00     0.010 A 
ATOM     12  C   UNL     1       4.291  -1.903  -3.195  1.00  0.00    -0.014 A 
BRANCH  12  13
ATOM     13  C   UNL     1       5.012  -2.519  -4.333  1.00  0.00     0.031 A 
ATOM     14  C   UNL     1       5.871  -1.688  -5.241  1.00  0.00     0.074 A 
ATOM     15  C   UNL     1       4.893  -3.843  -4.538  1.00  0.00     0.049 A 
ATOM     16  N   UNL     1       6.546  -2.062  -6.298  1.00  0.00    -0.248 NA
ATOM     17  C   UNL     1       5.997  -0.257  -4.922  1.00  0.00     0.031 C 
ATOM     18  C   UNL     1       4.113  -4.758  -3.703  1.00  0.00     0.029 A 
ATOM     19  N   UNL     1       5.434  -4.649  -5.506  1.00  0.00    -0.354 N 
ATOM     20  C   UNL     1       7.176  -0.918  -6.770  1.00  0.00     0.074 A 
ATOM     21  C   UNL     1       6.781   0.171  -5.903  1.00  0.00     0.031 C 
ATOM     22  C   UNL     1       4.249  -6.004  -4.177  1.00  0.00     0.029 A 
ATOM     23  C   UNL     1       5.079  -5.968  -5.378  1.00  0.00     0.049 A 
ATOM     24  H   UNL     1       6.021  -4.315  -6.222  1.00  0.00     0.167 HD
ATOM     25  C   UNL     1       8.016  -0.794  -7.824  1.00  0.00     0.031 A 
ATOM     26  C   UNL     1       5.372  -7.033  -6.146  1.00  0.00     0.031 A 
ATOM     27  C   UNL     1       8.396  -1.876  -8.693  1.00  0.00     0.049 A 
ATOM     28  C   UNL     1       6.236  -6.853  -7.358  1.00  0.00     0.074 A 
ATOM     29  C   UNL     1       9.239  -1.839  -9.791  1.00  0.00     0.029 A 
ATOM     30  N   UNL     1       7.961  -3.186  -8.567  1.00  0.00    -0.354 N 
ATOM     31  N   UNL     1       6.812  -5.763  -7.800  1.00  0.00    -0.248 NA
ATOM     32  C   UNL     1       6.493  -8.047  -8.175  1.00  0.00     0.031 C 
ATOM     33  C   UNL     1       9.277  -3.115 -10.357  1.00  0.00     0.029 A 
ATOM     34  C   UNL     1       8.506  -3.961  -9.576  1.00  0.00     0.049 A 
ATOM     35  H   UNL     1       7.355  -3.515  -7.864  1.00  0.00     0.167 HD
ATOM     36  C   UNL     1       7.520  -6.141  -8.932  1.00  0.00     0.074 A 
ATOM     37  C   UNL     1       7.304  -7.563  -9.107  1.00  0.00     0.031 C 
ATOM     38  C   UNL     1       8.285  -5.374  -9.746  1.00  0.00     0.031 A 
BRANCH  25  39
ATOM     39  C   UNL     1       8.594   0.562  -8.111  1.00  0.00    -0.014 A 
ATOM     40  C   UNL     1       9.628   1.084  -7.319  1.00  0.00     0.009 A 
ATOM     41  C   UNL     1       8.182   1.273  -9.250  1.00  0.00     0.009 A 
ATOM     42  C   UNL     1      10.236   2.294  -7.660  1.00  0.00     0.001 A 
ATOM     43  C   UNL     1       8.808   2.470  -9.601  1.00  0.00     0.001 A 
ATOM     44  C   UNL     1       9.833   2.980  -8.806  1.00  0.00     0.000 A 
ENDBRANCH  25  39
BRANCH  26  45
ATOM     45  C   UNL     1       4.849  -8.365  -5.755  1.00  0.00    -0.014 A 
ATOM     46  C   UNL     1       5.701  -9.312  -5.170  1.00  0.00     0.009 A 
ATOM     47  C   UNL     1       3.483  -8.661  -5.882  1.00  0.00     0.009 A 
ATOM     48  C   UNL     1       5.193 -10.530  -4.712  1.00  0.00     0.001 A 
ATOM     49  C   UNL     1       2.974  -9.870  -5.403  1.00  0.00     0.001 A 
ATOM     50  C   UNL     1       3.830 -10.802  -4.819  1.00  0.00     0.000 A 
ENDBRANCH  26  45
BRANCH  38  51
ATOM     51  C   UNL     1       8.980  -6.047 -10.894  1.00  0.00    -0.014 A 
ATOM     52  C   UNL     1       8.275  -6.435 -12.043  1.00  0.00     0.009 A 
ATOM     53  C   UNL     1      10.376  -6.198 -10.866  1.00  0.00     0.009 A 
ATOM     54  C   UNL     1       8.956  -6.974 -13.137  1.00  0.00     0.001 A 
ATOM     55  C   UNL     1      11.056  -6.712 -11.971  1.00  0.00     0.001 A 
ATOM     56  C   UNL     1      10.344  -7.103 -13.104  1.00  0.00     0.000 A 
ENDBRANCH  38  51
ENDBRANCH  12  13
ENDBRANCH   5   7
ENDBRANCH   2   3
ENDBRANCH   1   2
BRANCH   1  57
ATOM     57  C   UNL     1       4.674   3.058   2.242  1.00  0.00     0.117 C 
BRANCH  57  58
ATOM     58  N   UNL     1       5.526   2.495   3.277  1.00  0.00    -0.355 N 
ATOM     59  C   UNL     1       6.299   3.133   4.204  1.00  0.00     0.238 C 
ATOM     60  H   UNL     1       5.548   1.512   3.315  1.00  0.00     0.163 HD
ATOM     61  O   UNL     1       6.957   2.438   4.977  1.00  0.00    -0.273 OA
BRANCH  59  62
ATOM     62  C   UNL     1       6.329   4.635   4.203  1.00  0.00     0.162 C 
ATOM     63  C   UNL     1       7.462   5.212   5.041  1.00  0.00     0.032 C 
ATOM     64  N   UNL     1       5.127   5.449   4.596  1.00  0.00    -0.185 NA
ATOM     65  C   UNL     1       7.210   6.701   4.931  1.00  0.00     0.019 C 
ATOM     66  C   UNL     1       5.699   6.847   4.724  1.00  0.00     0.103 C 
BRANCH  64  67
ATOM     67  S   UNL     1       4.197   5.019   5.995  1.00  0.00     0.244 S 
ATOM     68  O   UNL     1       5.121   4.604   7.028  1.00  0.00    -0.207 OA
ATOM     69  O   UNL     1       3.312   6.138   6.244  1.00  0.00    -0.207 OA
BRANCH  67  70
ATOM     70  C   UNL     1       3.173   3.605   5.587  1.00  0.00     0.090 A 
ATOM     71  C   UNL     1       3.769   2.324   5.736  1.00  0.00     0.024 A 
ATOM     72  C   UNL     1       1.764   3.705   5.316  1.00  0.00     0.005 A 
ATOM     73  C   UNL     1       3.098   1.130   5.420  1.00  0.00     0.028 A 
ATOM     74  C   UNL     1       1.155   2.505   5.058  1.00  0.00     0.019 A 
ATOM     75  C   UNL     1       0.851   4.801   5.313  1.00  0.00     0.010 A 
ATOM     76  C   UNL     1       1.777   1.276   5.063  1.00  0.00     0.050 A 
ATOM     77  C   UNL     1      -0.197   2.289   4.817  1.00  0.00     0.050 A 
ATOM     78  C   UNL     1      -0.538   4.617   5.112  1.00  0.00     0.002 A 
ATOM     79  N   UNL     1       0.827   0.320   4.756  1.00  0.00    -0.321 N 
ATOM     80  C   UNL     1      -1.088   3.354   4.858  1.00  0.00     0.014 A 
ATOM     81  C   UNL     1      -0.447   0.877   4.604  1.00  0.00     0.256 C 
ATOM     82  H   UNL     1       1.024  -0.639   4.657  1.00  0.00     0.170 HD
ATOM     83  O   UNL     1      -1.465   0.239   4.375  1.00  0.00    -0.269 OA
ENDBRANCH  67  70
ENDBRANCH  64  67
ENDBRANCH  59  62
ENDBRANCH  57  58
ENDBRANCH   1  57
TORSDOF 12
