REMARK SMILES Cc1ccc(C#N)cc1S(=O)(=O)Nc1cccc(C(=O)NCCCNC(=O)c2ccc(-c3c4nc(c(-c5ccccc5)c5ccc([nH]5)c(-c5ccccc5)c5nc(c(-c6ccccc6)c6ccc3[nH]6)C=C5)C=C4)cc2)c1
REMARK SMILES IDX 22 1 21 2 19 3 20 4 18 6 14 7 15 8 76 9 16 10 17 11 13 12
REMARK SMILES IDX 10 14 11 15 12 16 9 17 1 18 2 19 3 20 4 21 8 22 5 23 6 24
REMARK SMILES IDX 7 25 23 26 24 27 25 28 26 29 27 31 28 32 29 33 75 34 30 35
REMARK SMILES IDX 74 36 31 37 32 38 33 39 68 40 34 41 73 42 67 43 69 44 35 45
REMARK SMILES IDX 72 46 66 47 65 48 36 50 58 51 43 52 57 53 44 54 47 55 56 56
REMARK SMILES IDX 70 57 45 58 46 59 55 61 71 62 48 63 37 64 38 65 42 66 39 67
REMARK SMILES IDX 41 68 40 69 59 70 60 71 64 72 61 73 63 74 62 75 49 76 50 77
REMARK SMILES IDX 54 78 51 79 53 80 52 81
REMARK H PARENT 21 5 13 13 25 30 69 49 47 60
REMARK Flexibility Score: inf
ROOT
ATOM      1  C   UNL     1       1.308   4.049   2.299  1.00  0.00     0.118 C 
ENDROOT
BRANCH   1   2
ATOM      2  N   UNL     1       2.610   3.796   1.698  1.00  0.00    -0.352 N 
ATOM      3  C   UNL     1       3.002   3.271   0.480  1.00  0.00     0.251 C 
ATOM      4  O   UNL     1       4.210   3.281   0.236  1.00  0.00    -0.269 OA
ATOM      5  H   UNL     1       3.365   4.050   2.277  1.00  0.00     0.163 HD
BRANCH   3   6
ATOM      6  C   UNL     1       2.082   2.594  -0.493  1.00  0.00     0.041 A 
ATOM      7  C   UNL     1      -0.009   1.438  -0.787  1.00  0.00     0.050 A 
ATOM      8  C   UNL     1       0.484   0.696  -1.843  1.00  0.00     0.027 A 
ATOM      9  C   UNL     1       0.712   2.537  -0.321  1.00  0.00     0.040 A 
ATOM     10  C   UNL     1       1.802   0.929  -2.253  1.00  0.00     0.003 A 
ATOM     11  C   UNL     1       2.622   1.810  -1.521  1.00  0.00     0.014 A 
BRANCH   7  12
ATOM     12  N   UNL     1      -1.113   1.109   0.032  1.00  0.00    -0.280 N 
ATOM     13  H   UNL     1      -1.547   1.874   0.474  1.00  0.00     0.180 HD
BRANCH  12  14
ATOM     14  S   UNL     1      -1.788  -0.368   0.361  1.00  0.00     0.262 S 
ATOM     15  O   UNL     1      -2.612  -0.708  -0.781  1.00  0.00    -0.201 OA
ATOM     16  O   UNL     1      -2.393  -0.173   1.666  1.00  0.00    -0.201 OA
BRANCH  14  17
ATOM     17  C   UNL     1      -0.667  -1.747   0.580  1.00  0.00     0.092 A 
ATOM     18  C   UNL     1       1.631  -0.608   0.965  1.00  0.00     0.046 C 
ATOM     19  C   UNL     1       0.730  -1.765   0.680  1.00  0.00    -0.030 A 
ATOM     20  C   UNL     1       1.395  -3.009   0.557  1.00  0.00     0.006 A 
ATOM     21  C   UNL     1       0.699  -4.215   0.502  1.00  0.00     0.020 A 
ATOM     22  C   UNL     1      -1.359  -2.983   0.600  1.00  0.00     0.042 A 
ATOM     23  C   UNL     1      -0.686  -4.207   0.587  1.00  0.00     0.053 A 
BRANCH  23  24
ATOM     24  C   UNL     1      -1.409  -5.440   0.662  1.00  0.00     0.099 C 
ATOM     25  N   UNL     1      -1.981  -6.450   0.743  1.00  0.00    -0.192 NA
ENDBRANCH  23  24
ENDBRANCH  14  17
ENDBRANCH  12  14
ENDBRANCH   7  12
ENDBRANCH   3   6
ENDBRANCH   1   2
BRANCH   1  26
ATOM     26  C   UNL     1       1.245   3.965   3.810  1.00  0.00     0.042 C 
BRANCH  26  27
ATOM     27  C   UNL     1       2.072   4.983   4.560  1.00  0.00     0.118 C 
BRANCH  27  28
ATOM     28  N   UNL     1       1.604   6.356   4.402  1.00  0.00    -0.352 N 
ATOM     29  C   UNL     1       0.966   7.206   5.282  1.00  0.00     0.251 C 
ATOM     30  H   UNL     1       1.773   6.743   3.513  1.00  0.00     0.163 HD
ATOM     31  O   UNL     1       0.539   8.286   4.882  1.00  0.00    -0.269 OA
BRANCH  29  32
ATOM     32  C   UNL     1       0.743   6.802   6.689  1.00  0.00     0.039 A 
ATOM     33  C   UNL     1       1.706   6.070   7.372  1.00  0.00     0.014 A 
ATOM     34  C   UNL     1      -0.464   7.113   7.324  1.00  0.00     0.014 A 
ATOM     35  C   UNL     1       1.353   5.392   8.527  1.00  0.00     0.010 A 
ATOM     36  C   UNL     1      -0.746   6.571   8.585  1.00  0.00     0.010 A 
ATOM     37  C   UNL     1       0.125   5.635   9.161  1.00  0.00    -0.014 A 
BRANCH  37  38
ATOM     38  C   UNL     1      -0.197   4.891  10.411  1.00  0.00     0.031 A 
ATOM     39  C   UNL     1      -1.425   4.020  10.509  1.00  0.00     0.074 A 
ATOM     40  C   UNL     1       0.679   4.928  11.437  1.00  0.00     0.049 A 
ATOM     41  N   UNL     1      -1.802   3.244  11.497  1.00  0.00    -0.248 NA
ATOM     42  C   UNL     1      -2.354   4.016   9.367  1.00  0.00     0.031 C 
ATOM     43  C   UNL     1       1.913   5.720  11.459  1.00  0.00     0.029 A 
ATOM     44  N   UNL     1       0.702   4.254  12.633  1.00  0.00    -0.354 N 
ATOM     45  C   UNL     1      -3.011   2.682  11.104  1.00  0.00     0.074 A 
ATOM     46  C   UNL     1      -3.331   3.235   9.808  1.00  0.00     0.031 C 
ATOM     47  C   UNL     1       2.611   5.418  12.560  1.00  0.00     0.029 A 
ATOM     48  C   UNL     1       1.834   4.495  13.378  1.00  0.00     0.049 A 
ATOM     49  H   UNL     1      -0.021   3.656  12.930  1.00  0.00     0.167 HD
ATOM     50  C   UNL     1      -3.775   1.775  11.757  1.00  0.00     0.031 A 
ATOM     51  C   UNL     1       2.210   4.045  14.590  1.00  0.00     0.031 A 
ATOM     52  C   UNL     1      -3.442   1.216  13.042  1.00  0.00     0.049 A 
ATOM     53  C   UNL     1       1.320   3.076  15.312  1.00  0.00     0.074 A 
ATOM     54  C   UNL     1      -4.145   0.271  13.770  1.00  0.00     0.029 A 
ATOM     55  N   UNL     1      -2.319   1.541  13.788  1.00  0.00    -0.354 N 
ATOM     56  N   UNL     1       0.193   2.539  14.912  1.00  0.00    -0.248 NA
ATOM     57  C   UNL     1       1.755   2.638  16.645  1.00  0.00     0.031 C 
ATOM     58  C   UNL     1      -3.500   0.096  14.994  1.00  0.00     0.029 A 
ATOM     59  C   UNL     1      -2.331   0.839  14.983  1.00  0.00     0.049 A 
ATOM     60  H   UNL     1      -1.619   2.175  13.511  1.00  0.00     0.167 HD
ATOM     61  C   UNL     1      -0.199   1.676  15.927  1.00  0.00     0.074 A 
ATOM     62  C   UNL     1       0.823   1.746  16.951  1.00  0.00     0.031 C 
ATOM     63  C   UNL     1      -1.306   0.898  15.996  1.00  0.00     0.031 A 
BRANCH  50  64
ATOM     64  C   UNL     1      -5.060   1.316  11.114  1.00  0.00    -0.014 A 
ATOM     65  C   UNL     1      -6.287   1.578  11.749  1.00  0.00     0.009 A 
ATOM     66  C   UNL     1      -5.058   0.515   9.961  1.00  0.00     0.009 A 
ATOM     67  C   UNL     1      -7.474   1.021  11.267  1.00  0.00     0.001 A 
ATOM     68  C   UNL     1      -6.252  -0.007   9.457  1.00  0.00     0.001 A 
ATOM     69  C   UNL     1      -7.455   0.231  10.120  1.00  0.00     0.000 A 
ENDBRANCH  50  64
BRANCH  51  70
ATOM     70  C   UNL     1       3.502   4.507  15.171  1.00  0.00    -0.014 A 
ATOM     71  C   UNL     1       3.707   5.868  15.460  1.00  0.00     0.009 A 
ATOM     72  C   UNL     1       4.561   3.611  15.379  1.00  0.00     0.009 A 
ATOM     73  C   UNL     1       4.951   6.327  15.898  1.00  0.00     0.001 A 
ATOM     74  C   UNL     1       5.791   4.066  15.863  1.00  0.00     0.001 A 
ATOM     75  C   UNL     1       5.990   5.424  16.106  1.00  0.00     0.000 A 
ENDBRANCH  51  70
BRANCH  63  76
ATOM     76  C   UNL     1      -1.477   0.006  17.200  1.00  0.00    -0.014 A 
ATOM     77  C   UNL     1      -1.514  -1.389  17.024  1.00  0.00     0.009 A 
ATOM     78  C   UNL     1      -1.714   0.530  18.479  1.00  0.00     0.009 A 
ATOM     79  C   UNL     1      -1.811  -2.235  18.093  1.00  0.00     0.001 A 
ATOM     80  C   UNL     1      -1.964  -0.322  19.558  1.00  0.00     0.001 A 
ATOM     81  C   UNL     1      -2.028  -1.701  19.361  1.00  0.00     0.000 A 
ENDBRANCH  63  76
ENDBRANCH  37  38
ENDBRANCH  29  32
ENDBRANCH  27  28
ENDBRANCH  26  27
ENDBRANCH   1  26
TORSDOF 14
