REMARK SMILES O=C(NCCCNC(=O)c1ccc([C@@H]2CC(O)=Nc3c2c(=O)[nH]n3C2CCCCCCC2)cc1)c1ccc(-c2c3nc(c(-c4ccccc4)c4ccc([nH]4)c(-c4ccccc4)c4nc(c(-c5ccccc5)c5ccc2[nH]5)C=C4)C=C3)cc1
REMARK SMILES IDX 7 1 8 2 9 3 6 5 5 6 4 7 3 8 1 9 2 10 35 12 36 13 82 14 37 15
REMARK SMILES IDX 81 16 38 17 39 18 40 19 75 20 41 21 80 22 74 23 76 24 42 25
REMARK SMILES IDX 79 26 73 27 72 28 43 30 65 31 50 32 64 33 51 34 54 35 63 36
REMARK SMILES IDX 77 37 52 38 53 39 62 41 78 42 55 43 44 44 45 45 49 46 46 47
REMARK SMILES IDX 48 48 47 49 66 50 67 51 71 52 68 53 70 54 69 55 56 56 57 57
REMARK SMILES IDX 61 58 58 59 60 60 59 61 10 62 11 63 34 64 12 65 33 66 13 67
REMARK SMILES IDX 14 68 15 69 20 70 16 71 19 72 21 73 18 74 24 75 22 76 23 77
REMARK SMILES IDX 17 79 25 81 26 82 27 83 28 84 29 85 32 87 31 88 30 89
REMARK H PARENT 7 4 3 11 76 29 54 40 23 78 17 80
REMARK Flexibility Score: 80.00
ROOT
ATOM      1  N   UNL     1       4.984  -3.267  -2.573  1.00  0.00    -0.352 N 
ATOM      2  C   UNL     1       5.769  -4.134  -3.289  1.00  0.00     0.251 C 
ATOM      3  O   UNL     1       6.189  -3.800  -4.394  1.00  0.00    -0.269 OA
ATOM      4  H   UNL     1       4.700  -2.463  -3.066  1.00  0.00     0.163 HD
ENDROOT
BRANCH   1   5
ATOM      5  C   UNL     1       4.502  -3.344  -1.204  1.00  0.00     0.118 C 
BRANCH   5   6
ATOM      6  C   UNL     1       5.023  -2.214  -0.323  1.00  0.00     0.042 C 
BRANCH   6   7
ATOM      7  C   UNL     1       4.656  -0.809  -0.791  1.00  0.00     0.118 C 
BRANCH   7   8
ATOM      8  N   UNL     1       3.242  -0.588  -1.010  1.00  0.00    -0.352 N 
ATOM      9  O   UNL     1       1.182   0.176  -0.840  1.00  0.00    -0.269 OA
ATOM     10  C   UNL     1       2.209  -0.145  -0.235  1.00  0.00     0.251 C 
ATOM     11  H   UNL     1       2.961  -0.806  -1.928  1.00  0.00     0.163 HD
BRANCH  10  12
ATOM     12  C   UNL     1       2.193  -0.123   1.252  1.00  0.00     0.039 A 
ATOM     13  C   UNL     1       3.266  -0.417   2.096  1.00  0.00     0.014 A 
ATOM     14  C   UNL     1       0.934   0.130   1.829  1.00  0.00     0.014 A 
ATOM     15  C   UNL     1       3.055  -0.587   3.464  1.00  0.00     0.010 A 
ATOM     16  C   UNL     1       0.719  -0.030   3.189  1.00  0.00     0.010 A 
ATOM     17  C   UNL     1       1.771  -0.443   3.997  1.00  0.00    -0.014 A 
BRANCH  17  18
ATOM     18  C   UNL     1       1.584  -0.543   5.441  1.00  0.00     0.031 A 
ATOM     19  C   UNL     1       2.215   0.575   6.196  1.00  0.00     0.074 A 
ATOM     20  C   UNL     1       0.777  -1.453   6.030  1.00  0.00     0.049 A 
ATOM     21  N   UNL     1       3.173   0.507   7.060  1.00  0.00    -0.248 NA
ATOM     22  C   UNL     1       1.827   1.953   5.843  1.00  0.00     0.031 C 
ATOM     23  C   UNL     1      -0.116  -2.416   5.379  1.00  0.00     0.029 A 
ATOM     24  N   UNL     1       0.496  -1.635   7.353  1.00  0.00    -0.354 N 
ATOM     25  C   UNL     1       3.375   1.810   7.512  1.00  0.00     0.074 A 
ATOM     26  C   UNL     1       2.650   2.667   6.611  1.00  0.00     0.031 C 
ATOM     27  C   UNL     1      -1.002  -2.892   6.286  1.00  0.00     0.029 A 
ATOM     28  C   UNL     1      -0.659  -2.374   7.600  1.00  0.00     0.049 A 
ATOM     29  H   UNL     1       1.062  -1.273   8.073  1.00  0.00     0.167 HD
ATOM     30  C   UNL     1       3.893   2.056   8.748  1.00  0.00     0.031 A 
ATOM     31  C   UNL     1      -1.316  -2.502   8.784  1.00  0.00     0.031 A 
ATOM     32  C   UNL     1       4.554   0.893   9.283  1.00  0.00     0.049 A 
ATOM     33  C   UNL     1      -0.381  -2.110   9.861  1.00  0.00     0.074 A 
ATOM     34  C   UNL     1       5.615   0.100   8.897  1.00  0.00     0.029 A 
ATOM     35  N   UNL     1       3.860   0.164  10.218  1.00  0.00    -0.354 N 
ATOM     36  N   UNL     1       0.672  -2.803  10.182  1.00  0.00    -0.248 NA
ATOM     37  C   UNL     1      -0.362  -0.713  10.263  1.00  0.00     0.031 C 
ATOM     38  C   UNL     1       5.228  -1.227   9.252  1.00  0.00     0.029 A 
ATOM     39  C   UNL     1       3.995  -1.158   9.902  1.00  0.00     0.049 A 
ATOM     40  H   UNL     1       3.355   0.530  10.980  1.00  0.00     0.167 HD
ATOM     41  C   UNL     1       1.658  -1.852  10.392  1.00  0.00     0.074 A 
ATOM     42  C   UNL     1       0.942  -0.582  10.519  1.00  0.00     0.031 C 
ATOM     43  C   UNL     1       2.971  -2.142  10.153  1.00  0.00     0.031 A 
BRANCH  30  44
ATOM     44  C   UNL     1       3.363   3.147   9.659  1.00  0.00    -0.014 A 
ATOM     45  C   UNL     1       3.873   3.218  10.970  1.00  0.00     0.009 A 
ATOM     46  C   UNL     1       2.181   3.867   9.407  1.00  0.00     0.009 A 
ATOM     47  C   UNL     1       3.162   3.850  11.997  1.00  0.00     0.001 A 
ATOM     48  C   UNL     1       1.491   4.537  10.421  1.00  0.00     0.001 A 
ATOM     49  C   UNL     1       1.961   4.493  11.725  1.00  0.00     0.000 A 
ENDBRANCH  30  44
BRANCH  31  50
ATOM     50  C   UNL     1      -2.769  -2.645   9.047  1.00  0.00    -0.014 A 
ATOM     51  C   UNL     1      -3.243  -3.054  10.307  1.00  0.00     0.009 A 
ATOM     52  C   UNL     1      -3.704  -2.095   8.152  1.00  0.00     0.009 A 
ATOM     53  C   UNL     1      -4.589  -2.882  10.668  1.00  0.00     0.001 A 
ATOM     54  C   UNL     1      -5.047  -1.924   8.511  1.00  0.00     0.001 A 
ATOM     55  C   UNL     1      -5.487  -2.303   9.774  1.00  0.00     0.000 A 
ENDBRANCH  31  50
BRANCH  43  56
ATOM     56  C   UNL     1       3.348  -3.578   9.899  1.00  0.00    -0.014 A 
ATOM     57  C   UNL     1       2.863  -4.327   8.812  1.00  0.00     0.009 A 
ATOM     58  C   UNL     1       4.350  -4.140  10.703  1.00  0.00     0.009 A 
ATOM     59  C   UNL     1       3.353  -5.613   8.558  1.00  0.00     0.001 A 
ATOM     60  C   UNL     1       4.854  -5.413  10.436  1.00  0.00     0.001 A 
ATOM     61  C   UNL     1       4.352  -6.152   9.367  1.00  0.00     0.000 A 
ENDBRANCH  43  56
ENDBRANCH  17  18
ENDBRANCH  10  12
ENDBRANCH   7   8
ENDBRANCH   6   7
ENDBRANCH   5   6
ENDBRANCH   1   5
BRANCH   2  62
ATOM     62  C   UNL     1       6.121  -5.463  -2.747  1.00  0.00     0.039 A 
ATOM     63  C   UNL     1       7.431  -5.923  -2.898  1.00  0.00     0.014 A 
ATOM     64  C   UNL     1       5.160  -6.282  -2.150  1.00  0.00     0.014 A 
ATOM     65  C   UNL     1       7.790  -7.180  -2.409  1.00  0.00     0.005 A 
ATOM     66  C   UNL     1       5.526  -7.522  -1.631  1.00  0.00     0.005 A 
ATOM     67  C   UNL     1       6.841  -7.994  -1.769  1.00  0.00    -0.040 A 
BRANCH  67  68
ATOM     68  C   UNL     1       7.235  -9.388  -1.309  1.00  0.00     0.068 C 
ATOM     69  C   UNL     1       6.389 -10.460  -2.027  1.00  0.00     0.110 C 
ATOM     70  C   UNL     1       7.124  -9.585   0.150  1.00  0.00     0.071 A 
ATOM     71  C   UNL     1       5.173 -10.828  -1.215  1.00  0.00     0.188 C 
ATOM     72  C   UNL     1       6.140 -10.270   0.756  1.00  0.00     0.160 A 
ATOM     73  C   UNL     1       8.128  -9.270   1.185  1.00  0.00     0.270 A 
ATOM     74  N   UNL     1       5.053 -10.732   0.066  1.00  0.00    -0.198 NA
ATOM     75  N   UNL     1       6.444 -10.453   2.095  1.00  0.00    -0.264 N 
ATOM     76  O   UNL     1       9.149  -8.643   1.016  1.00  0.00    -0.268 OA
ATOM     77  N   UNL     1       7.661  -9.844   2.355  1.00  0.00    -0.262 N 
ATOM     78  H   UNL     1       8.118  -9.823   3.227  1.00  0.00     0.191 HD
BRANCH  71  79
ATOM     79  O   UNL     1       4.155 -11.357  -1.915  1.00  0.00    -0.496 OA
ATOM     80  H   UNL     1       4.219 -11.437  -2.846  1.00  0.00     0.294 HD
ENDBRANCH  71  79
BRANCH  75  81
ATOM     81  C   UNL     1       5.833 -11.363   3.071  1.00  0.00     0.107 C 
BRANCH  81  82
ATOM     82  C   UNL     1       4.362 -10.977   3.258  1.00  0.00     0.027 C 
BRANCH  82  83
ATOM     83  C   UNL     1       3.537 -11.828   4.216  1.00  0.00     0.002 C 
BRANCH  83  84
ATOM     84  C   UNL     1       3.220 -13.263   3.797  1.00  0.00     0.000 C 
BRANCH  84  85
ATOM     85  C   UNL     1       3.074 -13.510   2.296  1.00  0.00     0.000 CG0
ATOM     86  G   UNL     1       4.254 -14.269   1.696  1.00  0.00     0.000 G0
ENDBRANCH  84  85
ENDBRANCH  83  84
ENDBRANCH  82  83
ENDBRANCH  81  82
BRANCH  81  87
ATOM     87  C   UNL     1       6.189 -12.840   2.783  1.00  0.00     0.027 C 
BRANCH  87  88
ATOM     88  C   UNL     1       5.596 -13.550   1.562  1.00  0.00     0.002 C 
BRANCH  88  89
ATOM     89  C   UNL     1       4.254 -14.269   1.696  1.00  0.00     0.000 CG0
ATOM     90  G   UNL     1       3.074 -13.510   2.296  1.00  0.00     0.000 G0
ENDBRANCH  88  89
ENDBRANCH  87  88
ENDBRANCH  81  87
ENDBRANCH  75  81
ENDBRANCH  67  68
ENDBRANCH   2  62
TORSDOF 13
