REMARK SMILES O=C(NCCCNC(=O)c1ccccc1NCCCO)c1ccc(-c2c3nc(c(-c4ccccc4)c4ccc([nH]4)c(-c4ccccc4)c4nc(c(-c5ccccc5)c5ccc2[nH]5)C=C4)C=C3)cc1
REMARK SMILES IDX 7 1 8 2 9 3 6 5 5 6 4 7 3 8 1 9 2 10 21 12 22 13 68 14 23 15
REMARK SMILES IDX 67 16 24 17 25 18 26 19 61 20 27 21 66 22 60 23 62 24 28 25
REMARK SMILES IDX 65 26 59 27 58 28 29 30 51 31 36 32 50 33 37 34 40 35 49 36
REMARK SMILES IDX 63 37 38 38 39 39 48 41 64 42 41 43 30 44 31 45 35 46 32 47
REMARK SMILES IDX 34 48 33 49 52 50 53 51 57 52 54 53 56 54 55 55 42 56 43 57
REMARK SMILES IDX 47 58 44 59 46 60 45 61 10 62 11 63 15 64 12 65 14 66 13 67
REMARK SMILES IDX 16 68 17 70 18 71 19 72 20 73
REMARK H PARENT 7 4 3 11 62 29 40 40 16 69 20 74
REMARK Flexibility Score: inf
ROOT
ATOM      1  N   UNL     1       5.126   0.998  -4.121  1.00  0.00    -0.352 N 
ATOM      2  C   UNL     1       5.744   1.256  -5.319  1.00  0.00     0.253 C 
ATOM      3  O   UNL     1       6.016   2.413  -5.627  1.00  0.00    -0.269 OA
ATOM      4  H   UNL     1       4.887   1.788  -3.584  1.00  0.00     0.163 HD
ENDROOT
BRANCH   1   5
ATOM      5  C   UNL     1       4.779  -0.287  -3.540  1.00  0.00     0.118 C 
BRANCH   5   6
ATOM      6  C   UNL     1       5.257  -0.454  -2.112  1.00  0.00     0.042 C 
BRANCH   6   7
ATOM      7  C   UNL     1       4.718   0.597  -1.156  1.00  0.00     0.118 C 
BRANCH   7   8
ATOM      8  N   UNL     1       3.270   0.538  -0.980  1.00  0.00    -0.352 N 
ATOM      9  O   UNL     1       1.289   0.013  -0.047  1.00  0.00    -0.269 OA
ATOM     10  C   UNL     1       2.506   0.115   0.083  1.00  0.00     0.251 C 
ATOM     11  H   UNL     1       2.752   0.856  -1.754  1.00  0.00     0.163 HD
BRANCH  10  12
ATOM     12  C   UNL     1       3.143  -0.253   1.366  1.00  0.00     0.039 A 
ATOM     13  C   UNL     1       4.206   0.491   1.871  1.00  0.00     0.014 A 
ATOM     14  C   UNL     1       2.669  -1.357   2.083  1.00  0.00     0.014 A 
ATOM     15  C   UNL     1       4.935   0.009   2.947  1.00  0.00     0.010 A 
ATOM     16  C   UNL     1       3.324  -1.764   3.252  1.00  0.00     0.010 A 
ATOM     17  C   UNL     1       4.494  -1.112   3.667  1.00  0.00    -0.014 A 
BRANCH  17  18
ATOM     18  C   UNL     1       5.259  -1.527   4.872  1.00  0.00     0.031 A 
ATOM     19  C   UNL     1       5.926  -2.872   4.955  1.00  0.00     0.074 A 
ATOM     20  C   UNL     1       5.418  -0.632   5.868  1.00  0.00     0.049 A 
ATOM     21  N   UNL     1       6.691  -3.350   5.906  1.00  0.00    -0.248 NA
ATOM     22  C   UNL     1       5.708  -3.806   3.840  1.00  0.00     0.031 C 
ATOM     23  C   UNL     1       4.816   0.705   5.905  1.00  0.00     0.029 A 
ATOM     24  N   UNL     1       6.165  -0.688   7.016  1.00  0.00    -0.354 N 
ATOM     25  C   UNL     1       7.028  -4.640   5.515  1.00  0.00     0.074 A 
ATOM     26  C   UNL     1       6.365  -4.882   4.252  1.00  0.00     0.031 C 
ATOM     27  C   UNL     1       5.281   1.369   6.971  1.00  0.00     0.029 A 
ATOM     28  C   UNL     1       6.149   0.482   7.736  1.00  0.00     0.049 A 
ATOM     29  H   UNL     1       6.665  -1.488   7.297  1.00  0.00     0.167 HD
ATOM     30  C   UNL     1       7.822  -5.537   6.147  1.00  0.00     0.031 A 
ATOM     31  C   UNL     1       6.753   0.809   8.892  1.00  0.00     0.031 A 
ATOM     32  C   UNL     1       8.484  -5.295   7.403  1.00  0.00     0.049 A 
ATOM     33  C   UNL     1       7.612  -0.211   9.575  1.00  0.00     0.074 A 
ATOM     34  C   UNL     1       9.307  -6.145   8.123  1.00  0.00     0.029 A 
ATOM     35  N   UNL     1       8.402  -4.114   8.123  1.00  0.00    -0.354 N 
ATOM     36  N   UNL     1       7.918  -1.423   9.185  1.00  0.00    -0.248 NA
ATOM     37  C   UNL     1       8.203   0.183  10.860  1.00  0.00     0.031 C 
ATOM     38  C   UNL     1       9.693  -5.490   9.298  1.00  0.00     0.029 A 
ATOM     39  C   UNL     1       9.149  -4.216   9.286  1.00  0.00     0.049 A 
ATOM     40  H   UNL     1       7.889  -3.320   7.850  1.00  0.00     0.167 HD
ATOM     41  C   UNL     1       8.742  -1.938  10.175  1.00  0.00     0.074 A 
ATOM     42  C   UNL     1       8.914  -0.894  11.165  1.00  0.00     0.031 C 
ATOM     43  C   UNL     1       9.300  -3.170  10.262  1.00  0.00     0.031 A 
BRANCH  30  44
ATOM     44  C   UNL     1       8.006  -6.882   5.498  1.00  0.00    -0.014 A 
ATOM     45  C   UNL     1       8.811  -7.035   4.359  1.00  0.00     0.009 A 
ATOM     46  C   UNL     1       7.408  -8.018   6.065  1.00  0.00     0.009 A 
ATOM     47  C   UNL     1       8.993  -8.297   3.786  1.00  0.00     0.001 A 
ATOM     48  C   UNL     1       7.611  -9.281   5.505  1.00  0.00     0.001 A 
ATOM     49  C   UNL     1       8.398  -9.418   4.362  1.00  0.00     0.000 A 
ENDBRANCH  30  44
BRANCH  31  50
ATOM     50  C   UNL     1       6.540   2.155   9.482  1.00  0.00    -0.014 A 
ATOM     51  C   UNL     1       7.583   3.091   9.534  1.00  0.00     0.009 A 
ATOM     52  C   UNL     1       5.280   2.513   9.989  1.00  0.00     0.009 A 
ATOM     53  C   UNL     1       7.374   4.350  10.101  1.00  0.00     0.001 A 
ATOM     54  C   UNL     1       5.065   3.783  10.525  1.00  0.00     0.001 A 
ATOM     55  C   UNL     1       6.115   4.697  10.590  1.00  0.00     0.000 A 
ENDBRANCH  31  50
BRANCH  43  56
ATOM     56  C   UNL     1      10.159  -3.436  11.463  1.00  0.00    -0.014 A 
ATOM     57  C   UNL     1       9.590  -3.624  12.733  1.00  0.00     0.009 A 
ATOM     58  C   UNL     1      11.553  -3.507  11.321  1.00  0.00     0.009 A 
ATOM     59  C   UNL     1      10.405  -3.838  13.845  1.00  0.00     0.001 A 
ATOM     60  C   UNL     1      12.363  -3.747  12.431  1.00  0.00     0.001 A 
ATOM     61  C   UNL     1      11.790  -3.902  13.693  1.00  0.00     0.000 A 
ENDBRANCH  43  56
ENDBRANCH  17  18
ENDBRANCH  10  12
ENDBRANCH   7   8
ENDBRANCH   6   7
ENDBRANCH   5   6
ENDBRANCH   1   5
BRANCH   2  62
ATOM     62  C   UNL     1       6.129   0.138  -6.207  1.00  0.00     0.062 A 
ATOM     63  C   UNL     1       7.503   0.050  -6.490  1.00  0.00     0.016 A 
ATOM     64  C   UNL     1       5.191  -0.787  -6.729  1.00  0.00     0.047 A 
ATOM     65  C   UNL     1       7.987  -0.999  -7.261  1.00  0.00     0.001 A 
ATOM     66  C   UNL     1       5.724  -1.848  -7.474  1.00  0.00     0.026 A 
ATOM     67  C   UNL     1       7.098  -1.953  -7.741  1.00  0.00     0.002 A 
BRANCH  64  68
ATOM     68  N   UNL     1       3.833  -0.664  -6.465  1.00  0.00    -0.384 N 
ATOM     69  H   UNL     1       3.547   0.172  -6.031  1.00  0.00     0.160 HD
BRANCH  68  70
ATOM     70  C   UNL     1       2.784  -1.630  -6.756  1.00  0.00     0.115 C 
BRANCH  70  71
ATOM     71  C   UNL     1       2.282  -2.300  -5.473  1.00  0.00     0.049 C 
BRANCH  71  72
ATOM     72  C   UNL     1       1.283  -1.448  -4.699  1.00  0.00     0.158 C 
BRANCH  72  73
ATOM     73  O   UNL     1       0.119  -1.231  -5.484  1.00  0.00    -0.396 OA
ATOM     74  H   UNL     1       0.361  -0.768  -6.301  1.00  0.00     0.210 HD
ENDBRANCH  72  73
ENDBRANCH  71  72
ENDBRANCH  70  71
ENDBRANCH  68  70
ENDBRANCH  64  68
ENDBRANCH   2  62
TORSDOF 15
