REMARK SMILES Cc1ccccc1OC1(C(=O)NCCCNC(=O)c2ccc(-c3c4nc(c(-c5ccccc5)c5ccc([nH]5)c(-c5ccccc5)c5nc(c(-c6ccccc6)c6ccc3[nH]6)C=C5)C=C4)cc2)CCN(C(=O)[C@H]2CCCCO2)CC1
REMARK SMILES IDX 14 1 13 2 12 3 10 4 11 5 9 7 67 8 79 9 68 10 78 11 69 12
REMARK SMILES IDX 70 13 71 14 8 15 7 16 1 17 2 18 3 19 4 20 6 21 5 22 72 23
REMARK SMILES IDX 73 24 77 25 74 26 76 27 75 28 15 29 16 30 17 31 18 33 19 34
REMARK SMILES IDX 20 35 66 36 21 37 65 38 22 39 23 40 24 41 59 42 25 43 64 44
REMARK SMILES IDX 58 45 60 46 26 47 63 48 57 49 56 50 27 52 49 53 34 54 48 55
REMARK SMILES IDX 35 56 38 57 47 58 61 59 36 60 37 61 46 63 62 64 39 65 28 66
REMARK SMILES IDX 29 67 33 68 30 69 32 70 31 71 50 72 51 73 55 74 52 75 54 76
REMARK SMILES IDX 53 77 40 78 41 79 45 80 42 81 44 82 43 83
REMARK H PARENT 12 6 16 32 60 51 38 62
REMARK Flexibility Score: inf
ROOT
ATOM      1  C   UNL     1       8.642  -3.861  -2.324  1.00  0.00     0.042 C 
ENDROOT
BRANCH   1   2
ATOM      2  C   UNL     1       7.428  -4.003  -3.232  1.00  0.00     0.118 C 
BRANCH   2   3
ATOM      3  N   UNL     1       7.014  -5.382  -3.446  1.00  0.00    -0.353 N 
ATOM      4  C   UNL     1       6.130  -6.228  -2.830  1.00  0.00     0.264 C 
ATOM      5  O   UNL     1       5.964  -7.301  -3.427  1.00  0.00    -0.270 OA
ATOM      6  H   UNL     1       7.475  -5.803  -4.207  1.00  0.00     0.163 HD
BRANCH   4   7
ATOM      7  C   UNL     1       5.395  -5.920  -1.460  1.00  0.00     0.190 C 
ATOM      8  C   UNL     1       6.455  -5.962  -0.369  1.00  0.00     0.080 C 
ATOM      9  C   UNL     1       4.518  -4.684  -1.633  1.00  0.00     0.080 C 
ATOM     10  C   UNL     1       6.794  -4.654   0.310  1.00  0.00     0.124 C 
ATOM     11  C   UNL     1       4.907  -3.430  -0.865  1.00  0.00     0.124 C 
ATOM     12  N   UNL     1       5.813  -3.582   0.267  1.00  0.00    -0.340 N 
ATOM     13  C   UNL     1       5.990  -2.580   1.234  1.00  0.00     0.251 C 
ATOM     14  O   UNL     1       6.976  -2.598   1.978  1.00  0.00    -0.272 OA
BRANCH   7  15
ATOM     15  O   UNL     1       4.530  -7.088  -1.313  1.00  0.00    -0.477 OA
BRANCH  15  16
ATOM     16  C   UNL     1       3.631  -7.459  -0.355  1.00  0.00     0.123 A 
ATOM     17  C   UNL     1       3.943  -5.794   1.615  1.00  0.00     0.048 C 
ATOM     18  C   UNL     1       3.312  -6.949   0.915  1.00  0.00    -0.009 A 
ATOM     19  C   UNL     1       2.324  -7.595   1.701  1.00  0.00     0.007 A 
ATOM     20  C   UNL     1       1.638  -8.712   1.250  1.00  0.00     0.001 A 
ATOM     21  C   UNL     1       2.923  -8.601  -0.781  1.00  0.00     0.047 A 
ATOM     22  C   UNL     1       1.940  -9.219  -0.000  1.00  0.00     0.004 A 
ENDBRANCH  15  16
ENDBRANCH   7  15
BRANCH  13  23
ATOM     23  C   UNL     1       4.889  -1.507   1.389  1.00  0.00     0.207 C 
ATOM     24  C   UNL     1       3.712  -2.141   2.147  1.00  0.00     0.042 C 
ATOM     25  O   UNL     1       5.434  -0.401   2.115  1.00  0.00    -0.368 OA
ATOM     26  C   UNL     1       2.691  -1.109   2.602  1.00  0.00     0.006 C 
ATOM     27  C   UNL     1       4.481   0.607   2.427  1.00  0.00     0.161 C 
ATOM     28  C   UNL     1       3.387   0.040   3.315  1.00  0.00     0.029 C 
ENDBRANCH  13  23
ENDBRANCH   4   7
ENDBRANCH   2   3
ENDBRANCH   1   2
BRANCH   1  29
ATOM     29  C   UNL     1       9.939  -3.511  -3.034  1.00  0.00     0.118 C 
BRANCH  29  30
ATOM     30  N   UNL     1      10.372  -2.124  -2.845  1.00  0.00    -0.352 N 
ATOM     31  C   UNL     1      11.521  -1.511  -3.336  1.00  0.00     0.251 C 
ATOM     32  H   UNL     1       9.777  -1.555  -2.305  1.00  0.00     0.163 HD
ATOM     33  O   UNL     1      11.735  -0.328  -3.170  1.00  0.00    -0.269 OA
BRANCH  31  34
ATOM     34  C   UNL     1      12.410  -2.331  -4.192  1.00  0.00     0.039 A 
ATOM     35  C   UNL     1      12.521  -1.951  -5.531  1.00  0.00     0.014 A 
ATOM     36  C   UNL     1      12.763  -3.609  -3.771  1.00  0.00     0.014 A 
ATOM     37  C   UNL     1      12.688  -2.942  -6.490  1.00  0.00     0.010 A 
ATOM     38  C   UNL     1      12.815  -4.606  -4.724  1.00  0.00     0.010 A 
ATOM     39  C   UNL     1      12.693  -4.276  -6.078  1.00  0.00    -0.014 A 
BRANCH  39  40
ATOM     40  C   UNL     1      12.473  -5.380  -7.005  1.00  0.00     0.031 A 
ATOM     41  C   UNL     1      13.626  -6.172  -7.466  1.00  0.00     0.074 A 
ATOM     42  C   UNL     1      11.236  -5.670  -7.468  1.00  0.00     0.049 A 
ATOM     43  N   UNL     1      13.727  -6.689  -8.644  1.00  0.00    -0.248 NA
ATOM     44  C   UNL     1      14.798  -6.389  -6.628  1.00  0.00     0.031 C 
ATOM     45  C   UNL     1      10.852  -6.825  -8.276  1.00  0.00     0.029 A 
ATOM     46  N   UNL     1      10.109  -4.848  -7.501  1.00  0.00    -0.354 N 
ATOM     47  C   UNL     1      14.802  -7.546  -8.613  1.00  0.00     0.074 A 
ATOM     48  C   UNL     1      15.492  -7.248  -7.379  1.00  0.00     0.031 C 
ATOM     49  C   UNL     1       9.754  -6.507  -8.980  1.00  0.00     0.029 A 
ATOM     50  C   UNL     1       9.460  -5.108  -8.720  1.00  0.00     0.049 A 
ATOM     51  H   UNL     1       9.825  -4.210  -6.807  1.00  0.00     0.167 HD
ATOM     52  C   UNL     1      14.910  -8.532  -9.548  1.00  0.00     0.031 A 
ATOM     53  C   UNL     1       9.208  -4.156  -9.664  1.00  0.00     0.031 A 
ATOM     54  C   UNL     1      13.836  -8.470 -10.536  1.00  0.00     0.049 A 
ATOM     55  C   UNL     1       9.856  -4.464 -10.998  1.00  0.00     0.074 A 
ATOM     56  C   UNL     1      12.648  -9.171 -10.675  1.00  0.00     0.029 A 
ATOM     57  N   UNL     1      13.750  -7.378 -11.390  1.00  0.00    -0.354 N 
ATOM     58  N   UNL     1      10.763  -5.386 -11.162  1.00  0.00    -0.248 NA
ATOM     59  C   UNL     1       9.591  -3.724 -12.230  1.00  0.00     0.031 C 
ATOM     60  C   UNL     1      11.813  -8.447 -11.563  1.00  0.00     0.029 A 
ATOM     61  C   UNL     1      12.504  -7.325 -11.984  1.00  0.00     0.049 A 
ATOM     62  H   UNL     1      14.476  -6.731 -11.550  1.00  0.00     0.167 HD
ATOM     63  C   UNL     1      11.200  -5.380 -12.460  1.00  0.00     0.074 A 
ATOM     64  C   UNL     1      10.430  -4.325 -13.094  1.00  0.00     0.031 C 
ATOM     65  C   UNL     1      12.165  -6.241 -12.896  1.00  0.00     0.031 A 
BRANCH  52  66
ATOM     66  C   UNL     1      15.804  -9.734  -9.354  1.00  0.00    -0.014 A 
ATOM     67  C   UNL     1      15.423 -10.979  -9.887  1.00  0.00     0.009 A 
ATOM     68  C   UNL     1      16.994  -9.724  -8.606  1.00  0.00     0.009 A 
ATOM     69  C   UNL     1      16.122 -12.158  -9.595  1.00  0.00     0.001 A 
ATOM     70  C   UNL     1      17.672 -10.904  -8.269  1.00  0.00     0.001 A 
ATOM     71  C   UNL     1      17.227 -12.125  -8.755  1.00  0.00     0.000 A 
ENDBRANCH  52  66
BRANCH  53  72
ATOM     72  C   UNL     1       9.006  -2.796  -9.099  1.00  0.00    -0.014 A 
ATOM     73  C   UNL     1       7.852  -2.588  -8.315  1.00  0.00     0.009 A 
ATOM     74  C   UNL     1      10.085  -1.914  -8.955  1.00  0.00     0.009 A 
ATOM     75  C   UNL     1       7.840  -1.622  -7.306  1.00  0.00     0.001 A 
ATOM     76  C   UNL     1      10.060  -0.939  -7.950  1.00  0.00     0.001 A 
ATOM     77  C   UNL     1       8.961  -0.826  -7.098  1.00  0.00     0.000 A 
ENDBRANCH  53  72
BRANCH  65  78
ATOM     78  C   UNL     1      12.836  -6.211 -14.246  1.00  0.00    -0.014 A 
ATOM     79  C   UNL     1      12.975  -5.062 -15.034  1.00  0.00     0.009 A 
ATOM     80  C   UNL     1      13.484  -7.380 -14.707  1.00  0.00     0.009 A 
ATOM     81  C   UNL     1      13.682  -5.092 -16.245  1.00  0.00     0.001 A 
ATOM     82  C   UNL     1      14.225  -7.404 -15.889  1.00  0.00     0.001 A 
ATOM     83  C   UNL     1      14.313  -6.259 -16.667  1.00  0.00     0.000 A 
ENDBRANCH  65  78
ENDBRANCH  39  40
ENDBRANCH  31  34
ENDBRANCH  29  30
ENDBRANCH   1  29
TORSDOF 13
