REMARK SMILES COc1cc2ccccc2cc1C(=O)Nc1cc(C(=O)NCCCNC(=O)c2ccc(-c3c4nc(c(-c5ccccc5)c5ccc([nH]5)c(-c5ccccc5)c5nc(c(-c6ccccc6)c6ccc3[nH]6)C=C5)C=C4)cc2)ccc1C
REMARK SMILES IDX 22 1 21 2 19 3 20 4 18 6 16 7 17 8 78 9 77 10 79 11 76 12
REMARK SMILES IDX 15 13 13 14 14 15 12 17 3 18 4 19 5 20 11 21 6 22 10 23 7 24
REMARK SMILES IDX 9 25 8 26 2 27 1 28 23 29 24 30 25 31 26 32 27 34 28 35
REMARK SMILES IDX 29 36 75 37 30 38 74 39 31 40 32 41 33 42 68 43 34 44 73 45
REMARK SMILES IDX 67 46 69 47 35 48 72 49 66 50 65 51 36 53 58 54 43 55 57 56
REMARK SMILES IDX 44 57 47 58 56 59 70 60 45 61 46 62 55 64 71 65 48 66 37 67
REMARK SMILES IDX 38 68 42 69 39 70 41 71 40 72 59 73 60 74 64 75 61 76 63 77
REMARK SMILES IDX 62 78 49 79 50 80 54 81 51 82 53 83 52 84
REMARK H PARENT 21 5 15 16 25 33 69 52 47 63
REMARK Flexibility Score: inf
ROOT
ATOM      1  C   UNL     1       0.266   0.084   4.720  1.00  0.00     0.118 C 
ENDROOT
BRANCH   1   2
ATOM      2  N   UNL     1      -0.757   1.083   4.450  1.00  0.00    -0.352 N 
ATOM      3  C   UNL     1      -1.084   1.818   3.332  1.00  0.00     0.251 C 
ATOM      4  O   UNL     1      -2.104   2.507   3.406  1.00  0.00    -0.269 OA
ATOM      5  H   UNL     1      -1.333   1.272   5.225  1.00  0.00     0.163 HD
BRANCH   3   6
ATOM      6  C   UNL     1      -0.306   1.835   2.051  1.00  0.00     0.041 A 
ATOM      7  C   UNL     1       1.592   1.241   0.626  1.00  0.00     0.045 A 
ATOM      8  C   UNL     1       0.948   1.262   1.869  1.00  0.00     0.040 A 
ATOM      9  C   UNL     1       1.058   1.962  -0.449  1.00  0.00    -0.027 A 
ATOM     10  C   UNL     1      -0.203   2.555  -0.279  1.00  0.00     0.006 A 
ATOM     11  C   UNL     1       1.679   1.994  -1.817  1.00  0.00     0.046 C 
ATOM     12  C   UNL     1      -0.882   2.475   0.945  1.00  0.00     0.014 A 
BRANCH   7  13
ATOM     13  N   UNL     1       2.748   0.457   0.457  1.00  0.00    -0.322 N 
ATOM     14  C   UNL     1       3.092  -0.760   1.016  1.00  0.00     0.259 C 
ATOM     15  O   UNL     1       4.264  -1.133   0.912  1.00  0.00    -0.269 OA
ATOM     16  H   UNL     1       3.419   0.836  -0.156  1.00  0.00     0.170 HD
BRANCH  14  17
ATOM     17  C   UNL     1       2.117  -1.688   1.674  1.00  0.00     0.082 A 
ATOM     18  C   UNL     1       0.766  -1.839   1.330  1.00  0.00     0.132 A 
ATOM     19  C   UNL     1      -0.079  -2.655   2.093  1.00  0.00     0.056 A 
ATOM     20  C   UNL     1       0.426  -3.438   3.137  1.00  0.00    -0.015 A 
ATOM     21  C   UNL     1       2.631  -2.512   2.695  1.00  0.00     0.026 A 
ATOM     22  C   UNL     1      -0.416  -4.270   3.891  1.00  0.00     0.009 A 
ATOM     23  C   UNL     1       1.808  -3.400   3.417  1.00  0.00    -0.017 A 
ATOM     24  C   UNL     1       0.110  -5.104   4.877  1.00  0.00     0.001 A 
ATOM     25  C   UNL     1       2.321  -4.250   4.411  1.00  0.00     0.009 A 
ATOM     26  C   UNL     1       1.478  -5.104   5.127  1.00  0.00     0.001 A 
BRANCH  18  27
ATOM     27  O   UNL     1       0.139  -1.171   0.315  1.00  0.00    -0.496 OA
ATOM     28  C   UNL     1       0.485  -1.704  -0.959  1.00  0.00     0.278 C 
ENDBRANCH  18  27
ENDBRANCH  14  17
ENDBRANCH   7  13
ENDBRANCH   3   6
ENDBRANCH   1   2
BRANCH   1  29
ATOM     29  C   UNL     1       1.620   0.705   5.069  1.00  0.00     0.042 C 
BRANCH  29  30
ATOM     30  C   UNL     1       1.877   0.791   6.560  1.00  0.00     0.118 C 
BRANCH  30  31
ATOM     31  N   UNL     1       2.812  -0.213   7.066  1.00  0.00    -0.352 N 
ATOM     32  C   UNL     1       3.168  -0.470   8.381  1.00  0.00     0.251 C 
ATOM     33  H   UNL     1       3.245  -0.778   6.386  1.00  0.00     0.163 HD
ATOM     34  O   UNL     1       3.970  -1.347   8.657  1.00  0.00    -0.269 OA
BRANCH  32  35
ATOM     35  C   UNL     1       2.435   0.245   9.454  1.00  0.00     0.039 A 
ATOM     36  C   UNL     1       1.764  -0.539  10.396  1.00  0.00     0.014 A 
ATOM     37  C   UNL     1       2.147   1.600   9.321  1.00  0.00     0.014 A 
ATOM     38  C   UNL     1       0.615  -0.034  10.992  1.00  0.00     0.010 A 
ATOM     39  C   UNL     1       0.938   2.055   9.805  1.00  0.00     0.010 A 
ATOM     40  C   UNL     1       0.135   1.209  10.577  1.00  0.00    -0.014 A 
BRANCH  40  41
ATOM     41  C   UNL     1      -1.245   1.627  10.798  1.00  0.00     0.031 A 
ATOM     42  C   UNL     1      -1.549   2.667  11.800  1.00  0.00     0.074 A 
ATOM     43  C   UNL     1      -2.254   1.067  10.091  1.00  0.00     0.049 A 
ATOM     44  N   UNL     1      -2.634   2.711  12.499  1.00  0.00    -0.248 NA
ATOM     45  C   UNL     1      -0.601   3.724  12.132  1.00  0.00     0.031 C 
ATOM     46  C   UNL     1      -3.650   1.499  10.062  1.00  0.00     0.029 A 
ATOM     47  N   UNL     1      -2.269  -0.161   9.425  1.00  0.00    -0.354 N 
ATOM     48  C   UNL     1      -2.664   3.938  13.121  1.00  0.00     0.074 A 
ATOM     49  C   UNL     1      -1.337   4.483  12.947  1.00  0.00     0.031 C 
ATOM     50  C   UNL     1      -4.414   0.450   9.716  1.00  0.00     0.029 A 
ATOM     51  C   UNL     1      -3.542  -0.712   9.639  1.00  0.00     0.049 A 
ATOM     52  H   UNL     1      -1.533  -0.560   8.908  1.00  0.00     0.167 HD
ATOM     53  C   UNL     1      -3.845   4.445  13.574  1.00  0.00     0.031 A 
ATOM     54  C   UNL     1      -3.759  -1.907  10.259  1.00  0.00     0.031 A 
ATOM     55  C   UNL     1      -4.953   3.512  13.383  1.00  0.00     0.049 A 
ATOM     56  C   UNL     1      -4.658  -1.792  11.471  1.00  0.00     0.074 A 
ATOM     57  C   UNL     1      -5.955   3.435  12.429  1.00  0.00     0.029 A 
ATOM     58  N   UNL     1      -4.967   2.304  14.070  1.00  0.00    -0.354 N 
ATOM     59  N   UNL     1      -4.918  -0.666  12.074  1.00  0.00    -0.248 NA
ATOM     60  C   UNL     1      -5.261  -2.939  12.147  1.00  0.00     0.031 C 
ATOM     61  C   UNL     1      -6.530   2.142  12.501  1.00  0.00     0.029 A 
ATOM     62  C   UNL     1      -5.893   1.444  13.511  1.00  0.00     0.049 A 
ATOM     63  H   UNL     1      -4.398   2.091  14.844  1.00  0.00     0.167 HD
ATOM     64  C   UNL     1      -5.677  -0.909  13.187  1.00  0.00     0.074 A 
ATOM     65  C   UNL     1      -5.874  -2.347  13.187  1.00  0.00     0.031 C 
ATOM     66  C   UNL     1      -6.060   0.094  14.028  1.00  0.00     0.031 A 
BRANCH  53  67
ATOM     67  C   UNL     1      -4.042   5.915  13.876  1.00  0.00    -0.014 A 
ATOM     68  C   UNL     1      -5.307   6.501  13.682  1.00  0.00     0.009 A 
ATOM     69  C   UNL     1      -3.020   6.789  14.284  1.00  0.00     0.009 A 
ATOM     70  C   UNL     1      -5.509   7.885  13.770  1.00  0.00     0.001 A 
ATOM     71  C   UNL     1      -3.201   8.178  14.331  1.00  0.00     0.001 A 
ATOM     72  C   UNL     1      -4.446   8.729  14.058  1.00  0.00     0.000 A 
ENDBRANCH  53  67
BRANCH  54  73
ATOM     73  C   UNL     1      -2.635  -2.875  10.161  1.00  0.00    -0.014 A 
ATOM     74  C   UNL     1      -2.330  -3.428   8.904  1.00  0.00     0.009 A 
ATOM     75  C   UNL     1      -1.683  -2.970  11.187  1.00  0.00     0.009 A 
ATOM     76  C   UNL     1      -1.066  -3.968   8.651  1.00  0.00     0.001 A 
ATOM     77  C   UNL     1      -0.422  -3.521  10.930  1.00  0.00     0.001 A 
ATOM     78  C   UNL     1      -0.104  -3.989   9.656  1.00  0.00     0.000 A 
ENDBRANCH  54  73
BRANCH  66  79
ATOM     79  C   UNL     1      -6.697  -0.089  15.379  1.00  0.00    -0.014 A 
ATOM     80  C   UNL     1      -6.507  -1.218  16.187  1.00  0.00     0.009 A 
ATOM     81  C   UNL     1      -7.418   0.986  15.944  1.00  0.00     0.009 A 
ATOM     82  C   UNL     1      -7.051  -1.288  17.477  1.00  0.00     0.001 A 
ATOM     83  C   UNL     1      -7.926   0.936  17.244  1.00  0.00     0.001 A 
ATOM     84  C   UNL     1      -7.753  -0.209  18.008  1.00  0.00     0.000 A 
ENDBRANCH  66  79
ENDBRANCH  40  41
ENDBRANCH  32  35
ENDBRANCH  30  31
ENDBRANCH  29  30
ENDBRANCH   1  29
TORSDOF 13
