REMARK SMILES Cc1c(NC(=O)c2ccc(-c3cccc(Cl)c3)o2)cccc1C(=O)NCCCNC(=O)c1ccc(-c2c3nc(c(-c4ccccc4)c4ccc([nH]4)c(-c4ccccc4)c4nc(c(-c5ccccc5)c5ccc2[nH]5)C=C4)C=C3)cc1
REMARK SMILES IDX 26 1 25 2 23 3 24 4 22 6 1 7 2 8 3 9 19 10 21 11 20 12 4 13
REMARK SMILES IDX 5 14 6 16 7 17 8 18 18 19 9 20 10 21 11 22 12 23 17 24 13 25
REMARK SMILES IDX 15 26 14 27 16 28 27 29 28 30 29 31 30 32 31 34 32 35 33 36
REMARK SMILES IDX 79 37 34 38 78 39 35 40 36 41 37 42 72 43 38 44 77 45 71 46
REMARK SMILES IDX 73 47 39 48 76 49 70 50 69 51 40 53 62 54 47 55 61 56 48 57
REMARK SMILES IDX 51 58 60 59 74 60 49 61 50 62 59 64 75 65 52 66 41 67 42 68
REMARK SMILES IDX 46 69 43 70 45 71 44 72 63 73 64 74 68 75 65 76 67 77 66 78
REMARK SMILES IDX 53 79 54 80 58 81 55 82 57 83 56 84
REMARK H PARENT 25 5 4 15 29 33 73 52 51 63
REMARK Flexibility Score: inf
ROOT
ATOM      1  C   UNL     1       3.449   1.357   0.356  1.00  0.00     0.118 C 
ENDROOT
BRANCH   1   2
ATOM      2  N   UNL     1       2.483   2.233  -0.288  1.00  0.00    -0.352 N 
ATOM      3  C   UNL     1       1.130   2.113  -0.512  1.00  0.00     0.251 C 
ATOM      4  O   UNL     1       0.548   3.057  -1.047  1.00  0.00    -0.269 OA
ATOM      5  H   UNL     1       2.870   3.072  -0.627  1.00  0.00     0.163 HD
BRANCH   3   6
ATOM      6  C   UNL     1       0.316   0.945  -0.062  1.00  0.00     0.044 A 
ATOM      7  C   UNL     1       1.671  -0.857  -1.253  1.00  0.00     0.047 C 
ATOM      8  C   UNL     1       0.624  -0.411  -0.276  1.00  0.00    -0.015 A 
ATOM      9  C   UNL     1      -0.182  -1.413   0.310  1.00  0.00     0.045 A 
ATOM     10  C   UNL     1      -1.390  -1.067   0.918  1.00  0.00     0.026 A 
ATOM     11  C   UNL     1      -0.918   1.266   0.531  1.00  0.00     0.014 A 
ATOM     12  C   UNL     1      -1.779   0.268   0.986  1.00  0.00     0.003 A 
BRANCH   9  13
ATOM     13  N   UNL     1       0.319  -2.732   0.311  1.00  0.00    -0.319 N 
ATOM     14  C   UNL     1      -0.327  -3.941   0.358  1.00  0.00     0.291 C 
ATOM     15  H   UNL     1       1.300  -2.795   0.270  1.00  0.00     0.170 HD
ATOM     16  O   UNL     1       0.330  -4.939   0.666  1.00  0.00    -0.265 OA
BRANCH  14  17
ATOM     17  C   UNL     1      -1.699  -3.995  -0.067  1.00  0.00     0.192 A 
ATOM     18  C   UNL     1      -2.337  -3.533  -1.204  1.00  0.00     0.057 A 
ATOM     19  O   UNL     1      -2.606  -4.569   0.769  1.00  0.00    -0.451 OA
ATOM     20  C   UNL     1      -3.710  -3.839  -1.044  1.00  0.00     0.052 A 
ATOM     21  C   UNL     1      -3.829  -4.449   0.187  1.00  0.00     0.135 A 
BRANCH  21  22
ATOM     22  C   UNL     1      -4.934  -4.966   0.971  1.00  0.00     0.019 A 
ATOM     23  C   UNL     1      -6.002  -5.625   0.352  1.00  0.00     0.012 A 
ATOM     24  C   UNL     1      -4.942  -4.803   2.364  1.00  0.00     0.032 A 
ATOM     25  C   UNL     1      -7.059  -6.124   1.116  1.00  0.00     0.002 A 
ATOM     26  C   UNL     1      -6.004  -5.291   3.119  1.00  0.00     0.041 A 
ATOM     27  C   UNL     1      -7.062  -5.954   2.501  1.00  0.00     0.020 A 
ATOM     28  Cl  UNL     1      -6.011  -5.067   4.824  1.00  0.00    -0.084 Cl
ENDBRANCH  21  22
ENDBRANCH  14  17
ENDBRANCH   9  13
ENDBRANCH   3   6
ENDBRANCH   1   2
BRANCH   1  29
ATOM     29  C   UNL     1       4.340   0.640  -0.663  1.00  0.00     0.042 C 
BRANCH  29  30
ATOM     30  C   UNL     1       5.633   1.349  -1.024  1.00  0.00     0.118 C 
BRANCH  30  31
ATOM     31  N   UNL     1       6.793   0.450  -0.960  1.00  0.00    -0.352 N 
ATOM     32  C   UNL     1       8.081   0.684  -1.409  1.00  0.00     0.251 C 
ATOM     33  H   UNL     1       6.635  -0.429  -0.545  1.00  0.00     0.163 HD
ATOM     34  O   UNL     1       9.001  -0.082  -1.158  1.00  0.00    -0.269 OA
BRANCH  32  35
ATOM     35  C   UNL     1       8.322   1.965  -2.096  1.00  0.00     0.039 A 
ATOM     36  C   UNL     1       9.015   2.938  -1.375  1.00  0.00     0.014 A 
ATOM     37  C   UNL     1       7.509   2.295  -3.178  1.00  0.00     0.014 A 
ATOM     38  C   UNL     1       8.663   4.268  -1.553  1.00  0.00     0.010 A 
ATOM     39  C   UNL     1       7.100   3.609  -3.296  1.00  0.00     0.010 A 
ATOM     40  C   UNL     1       7.613   4.575  -2.423  1.00  0.00    -0.014 A 
BRANCH  40  41
ATOM     41  C   UNL     1       6.958   5.876  -2.401  1.00  0.00     0.031 A 
ATOM     42  C   UNL     1       7.361   6.889  -3.387  1.00  0.00     0.074 A 
ATOM     43  C   UNL     1       6.078   6.229  -1.436  1.00  0.00     0.049 A 
ATOM     44  N   UNL     1       7.510   8.141  -3.113  1.00  0.00    -0.248 NA
ATOM     45  C   UNL     1       7.689   6.538  -4.761  1.00  0.00     0.031 C 
ATOM     46  C   UNL     1       5.323   7.478  -1.361  1.00  0.00     0.029 A 
ATOM     47  N   UNL     1       5.884   5.644  -0.186  1.00  0.00    -0.354 N 
ATOM     48  C   UNL     1       7.636   8.793  -4.315  1.00  0.00     0.074 A 
ATOM     49  C   UNL     1       7.855   7.751  -5.294  1.00  0.00     0.031 C 
ATOM     50  C   UNL     1       5.047   7.731  -0.072  1.00  0.00     0.029 A 
ATOM     51  C   UNL     1       5.683   6.697   0.724  1.00  0.00     0.049 A 
ATOM     52  H   UNL     1       5.887   4.681   0.020  1.00  0.00     0.167 HD
ATOM     53  C   UNL     1       7.376  10.128  -4.399  1.00  0.00     0.031 A 
ATOM     54  C   UNL     1       6.439   6.889   1.841  1.00  0.00     0.031 A 
ATOM     55  C   UNL     1       7.004  10.713  -3.111  1.00  0.00     0.049 A 
ATOM     56  C   UNL     1       7.130   8.238   1.886  1.00  0.00     0.074 A 
ATOM     57  C   UNL     1       5.796  11.108  -2.557  1.00  0.00     0.029 A 
ATOM     58  N   UNL     1       7.918  10.706  -2.066  1.00  0.00    -0.354 N 
ATOM     59  N   UNL     1       7.059   9.140   0.949  1.00  0.00    -0.248 NA
ATOM     60  C   UNL     1       8.068   8.614   2.941  1.00  0.00     0.031 C 
ATOM     61  C   UNL     1       5.995  11.352  -1.171  1.00  0.00     0.029 A 
ATOM     62  C   UNL     1       7.324  11.111  -0.883  1.00  0.00     0.049 A 
ATOM     63  H   UNL     1       8.864  10.448  -2.155  1.00  0.00     0.167 HD
ATOM     64  C   UNL     1       7.947  10.158   1.211  1.00  0.00     0.074 A 
ATOM     65  C   UNL     1       8.553   9.777   2.474  1.00  0.00     0.031 C 
ATOM     66  C   UNL     1       8.130  11.191   0.332  1.00  0.00     0.031 A 
BRANCH  53  67
ATOM     67  C   UNL     1       7.158  10.810  -5.728  1.00  0.00    -0.014 A 
ATOM     68  C   UNL     1       6.245  11.873  -5.829  1.00  0.00     0.009 A 
ATOM     69  C   UNL     1       7.780  10.414  -6.925  1.00  0.00     0.009 A 
ATOM     70  C   UNL     1       5.877  12.419  -7.066  1.00  0.00     0.001 A 
ATOM     71  C   UNL     1       7.380  10.917  -8.171  1.00  0.00     0.001 A 
ATOM     72  C   UNL     1       6.415  11.912  -8.241  1.00  0.00     0.000 A 
ENDBRANCH  53  67
BRANCH  54  73
ATOM     73  C   UNL     1       7.000   5.631   2.400  1.00  0.00    -0.014 A 
ATOM     74  C   UNL     1       6.098   4.705   2.961  1.00  0.00     0.009 A 
ATOM     75  C   UNL     1       8.273   5.187   2.018  1.00  0.00     0.009 A 
ATOM     76  C   UNL     1       6.410   3.344   3.002  1.00  0.00     0.001 A 
ATOM     77  C   UNL     1       8.583   3.824   2.074  1.00  0.00     0.001 A 
ATOM     78  C   UNL     1       7.638   2.901   2.522  1.00  0.00     0.000 A 
ENDBRANCH  54  73
BRANCH  66  79
ATOM     79  C   UNL     1       9.078  12.372   0.473  1.00  0.00    -0.014 A 
ATOM     80  C   UNL     1       9.745  12.746   1.645  1.00  0.00     0.009 A 
ATOM     81  C   UNL     1       9.286  13.220  -0.643  1.00  0.00     0.009 A 
ATOM     82  C   UNL     1      10.624  13.842   1.680  1.00  0.00     0.001 A 
ATOM     83  C   UNL     1      10.149  14.320  -0.615  1.00  0.00     0.001 A 
ATOM     84  C   UNL     1      10.834  14.623   0.549  1.00  0.00     0.000 A 
ENDBRANCH  66  79
ENDBRANCH  40  41
ENDBRANCH  32  35
ENDBRANCH  30  31
ENDBRANCH  29  30
ENDBRANCH   1  29
TORSDOF 13
