REMARK SMILES C#CC[C@@H](C(=O)NCCCNC(=O)c1ccc(-c2c3nc(c(-c4ccccc4)c4ccc([nH]4)c(-c4ccccc4)c4nc(c(-c5ccccc5)c5ccc2[nH]5)C=C4)C=C3)cc1)c1cccc(Br)c1
REMARK SMILES IDX 9 1 8 2 7 3 5 4 6 5 4 7 3 8 2 9 1 10 62 11 63 12 68 13 64 14
REMARK SMILES IDX 66 15 65 16 67 17 10 18 11 19 12 20 13 22 14 23 15 24 61 25
REMARK SMILES IDX 16 26 60 27 17 28 18 29 19 30 54 31 20 32 59 33 53 34 55 35
REMARK SMILES IDX 21 36 58 37 52 38 51 39 22 41 44 42 29 43 43 44 30 45 33 46
REMARK SMILES IDX 42 47 56 48 31 49 32 50 41 52 57 53 34 54 23 55 24 56 28 57
REMARK SMILES IDX 25 58 27 59 26 60 45 61 46 62 50 63 47 64 49 65 48 66 35 67
REMARK SMILES IDX 36 68 40 69 37 70 39 71 38 72
REMARK H PARENT 7 6 11 21 55 40 33 51
REMARK Flexibility Score: inf
ROOT
ATOM      1  C   UNL     1       1.523   2.721  -1.279  1.00  0.00     0.042 C 
ENDROOT
BRANCH   1   2
ATOM      2  C   UNL     1       0.289   3.280  -0.545  1.00  0.00     0.117 C 
BRANCH   2   3
ATOM      3  N   UNL     1      -0.923   3.117  -1.343  1.00  0.00    -0.355 N 
ATOM      4  C   UNL     1      -2.004   2.286  -1.220  1.00  0.00     0.228 C 
ATOM      5  O   UNL     1      -2.760   2.238  -2.197  1.00  0.00    -0.274 OA
ATOM      6  H   UNL     1      -0.972   3.722  -2.119  1.00  0.00     0.163 HD
BRANCH   4   7
ATOM      7  C   UNL     1      -2.302   1.480   0.069  1.00  0.00     0.120 C 
BRANCH   7   8
ATOM      8  C   UNL     1      -1.754   0.042  -0.058  1.00  0.00     0.107 C 
BRANCH   8   9
ATOM      9  C   UNL     1      -0.234   0.042  -0.058  1.00  0.00    -0.106 C 
ATOM     10  C   UNL     1       1.070   0.042  -0.058  1.00  0.00     0.004 C 
ENDBRANCH   8   9
ENDBRANCH   7   8
BRANCH   7  11
ATOM     11  C   UNL     1      -3.814   1.503   0.376  1.00  0.00    -0.034 A 
ATOM     12  C   UNL     1      -4.436   2.732   0.659  1.00  0.00     0.004 A 
ATOM     13  C   UNL     1      -4.621   0.349   0.364  1.00  0.00     0.020 A 
ATOM     14  C   UNL     1      -5.812   2.807   0.902  1.00  0.00     0.001 A 
ATOM     15  C   UNL     1      -5.992   0.428   0.622  1.00  0.00     0.018 A 
ATOM     16  C   UNL     1      -6.593   1.653   0.885  1.00  0.00     0.016 A 
ATOM     17  Br  UNL     1      -7.039  -1.148   0.604  1.00  0.00    -0.051 Br
ENDBRANCH   7  11
ENDBRANCH   4   7
ENDBRANCH   2   3
ENDBRANCH   1   2
BRANCH   1  18
ATOM     18  C   UNL     1       2.227   3.679  -2.238  1.00  0.00     0.118 C 
BRANCH  18  19
ATOM     19  N   UNL     1       3.499   4.144  -1.700  1.00  0.00    -0.352 N 
ATOM     20  C   UNL     1       4.774   3.631  -1.706  1.00  0.00     0.251 C 
ATOM     21  H   UNL     1       3.431   5.009  -1.234  1.00  0.00     0.163 HD
ATOM     22  O   UNL     1       5.591   4.153  -0.941  1.00  0.00    -0.269 OA
BRANCH  20  23
ATOM     23  C   UNL     1       5.235   2.494  -2.555  1.00  0.00     0.039 A 
ATOM     24  C   UNL     1       6.307   1.718  -2.079  1.00  0.00     0.014 A 
ATOM     25  C   UNL     1       4.768   2.245  -3.845  1.00  0.00     0.014 A 
ATOM     26  C   UNL     1       6.879   0.703  -2.863  1.00  0.00     0.010 A 
ATOM     27  C   UNL     1       5.301   1.191  -4.609  1.00  0.00     0.010 A 
ATOM     28  C   UNL     1       6.369   0.412  -4.135  1.00  0.00    -0.014 A 
BRANCH  28  29
ATOM     29  C   UNL     1       6.937  -0.682  -4.979  1.00  0.00     0.031 A 
ATOM     30  C   UNL     1       7.589  -0.378  -6.306  1.00  0.00     0.074 A 
ATOM     31  C   UNL     1       6.817  -1.971  -4.597  1.00  0.00     0.049 A 
ATOM     32  N   UNL     1       7.996  -1.206  -7.238  1.00  0.00    -0.248 NA
ATOM     33  C   UNL     1       7.798   1.040  -6.635  1.00  0.00     0.031 C 
ATOM     34  C   UNL     1       6.217  -2.434  -3.345  1.00  0.00     0.029 A 
ATOM     35  N   UNL     1       7.178  -3.132  -5.241  1.00  0.00    -0.354 N 
ATOM     36  C   UNL     1       8.469  -0.412  -8.277  1.00  0.00     0.074 A 
ATOM     37  C   UNL     1       8.294   0.964  -7.864  1.00  0.00     0.031 C 
ATOM     38  C   UNL     1       6.246  -3.777  -3.314  1.00  0.00     0.029 A 
ATOM     39  C   UNL     1       6.821  -4.273  -4.561  1.00  0.00     0.049 A 
ATOM     40  H   UNL     1       7.646  -3.145  -6.107  1.00  0.00     0.167 HD
ATOM     41  C   UNL     1       9.004  -0.790  -9.463  1.00  0.00     0.031 A 
ATOM     42  C   UNL     1       6.909  -5.572  -4.908  1.00  0.00     0.031 A 
ATOM     43  C   UNL     1       9.232  -2.151  -9.872  1.00  0.00     0.049 A 
ATOM     44  C   UNL     1       7.473  -5.961  -6.245  1.00  0.00     0.074 A 
ATOM     45  C   UNL     1       9.857  -2.610 -11.021  1.00  0.00     0.029 A 
ATOM     46  N   UNL     1       8.843  -3.268  -9.155  1.00  0.00    -0.354 N 
ATOM     47  N   UNL     1       7.955  -5.196  -7.191  1.00  0.00    -0.248 NA
ATOM     48  C   UNL     1       7.494  -7.398  -6.564  1.00  0.00     0.031 C 
ATOM     49  C   UNL     1       9.805  -4.008 -11.021  1.00  0.00     0.029 A 
ATOM     50  C   UNL     1       9.180  -4.416  -9.855  1.00  0.00     0.049 A 
ATOM     51  H   UNL     1       8.395  -3.250  -8.279  1.00  0.00     0.167 HD
ATOM     52  C   UNL     1       8.346  -6.056  -8.210  1.00  0.00     0.074 A 
ATOM     53  C   UNL     1       8.062  -7.402  -7.762  1.00  0.00     0.031 C 
ATOM     54  C   UNL     1       8.890  -5.752  -9.412  1.00  0.00     0.031 A 
BRANCH  41  55
ATOM     55  C   UNL     1       9.375   0.290 -10.440  1.00  0.00    -0.014 A 
ATOM     56  C   UNL     1      10.547   1.043 -10.283  1.00  0.00     0.009 A 
ATOM     57  C   UNL     1       8.582   0.489 -11.582  1.00  0.00     0.009 A 
ATOM     58  C   UNL     1      10.907   1.992 -11.243  1.00  0.00     0.001 A 
ATOM     59  C   UNL     1       8.955   1.424 -12.548  1.00  0.00     0.001 A 
ATOM     60  C   UNL     1      10.115   2.178 -12.376  1.00  0.00     0.000 A 
ENDBRANCH  41  55
BRANCH  42  61
ATOM     61  C   UNL     1       6.400  -6.621  -3.988  1.00  0.00    -0.014 A 
ATOM     62  C   UNL     1       7.290  -7.460  -3.301  1.00  0.00     0.009 A 
ATOM     63  C   UNL     1       5.019  -6.808  -3.819  1.00  0.00     0.009 A 
ATOM     64  C   UNL     1       6.806  -8.481  -2.480  1.00  0.00     0.001 A 
ATOM     65  C   UNL     1       4.539  -7.814  -2.979  1.00  0.00     0.001 A 
ATOM     66  C   UNL     1       5.433  -8.655  -2.317  1.00  0.00     0.000 A 
ENDBRANCH  42  61
BRANCH  54  67
ATOM     67  C   UNL     1       9.225  -6.893 -10.326  1.00  0.00    -0.014 A 
ATOM     68  C   UNL     1       8.221  -7.553 -11.051  1.00  0.00     0.009 A 
ATOM     69  C   UNL     1      10.561  -7.287 -10.497  1.00  0.00     0.009 A 
ATOM     70  C   UNL     1       8.547  -8.601 -11.913  1.00  0.00     0.001 A 
ATOM     71  C   UNL     1      10.886  -8.322 -11.375  1.00  0.00     0.001 A 
ATOM     72  C   UNL     1       9.879  -8.982 -12.078  1.00  0.00     0.000 A 
ENDBRANCH  54  67
ENDBRANCH  28  29
ENDBRANCH  20  23
ENDBRANCH  18  19
ENDBRANCH   1  18
TORSDOF 13
