REMARK SMILES COCCN1C(=O)CC[C@@H](C(=O)NCCCNC(=O)c2ccc(-c3c4nc(c(-c5ccccc5)c5ccc([nH]5)c(-c5ccccc5)c5nc(c(-c6ccccc6)c6ccc3[nH]6)C=C5)C=C4)cc2)[C@H]1c1ccccc1C
REMARK SMILES IDX 14 1 13 2 11 3 12 4 10 6 5 7 6 8 68 9 7 10 8 11 9 12 4 13
REMARK SMILES IDX 3 14 2 15 1 16 69 17 70 18 74 19 71 20 73 21 75 22 72 23
REMARK SMILES IDX 15 24 16 25 17 26 18 27 19 29 20 30 21 31 67 32 22 33 66 34
REMARK SMILES IDX 23 35 24 36 25 37 60 38 26 39 65 40 59 41 61 42 27 43 64 44
REMARK SMILES IDX 58 45 57 46 28 48 50 49 35 50 49 51 36 52 39 53 48 54 62 55
REMARK SMILES IDX 37 56 38 57 47 59 63 60 40 61 29 62 30 63 34 64 31 65 33 66
REMARK SMILES IDX 32 67 51 68 52 69 56 70 53 71 55 72 54 73 41 74 42 75 46 76
REMARK SMILES IDX 43 77 45 78 44 79
REMARK H PARENT 13 5 17 28 61 47 39 58
REMARK Flexibility Score: inf
ROOT
ATOM      1  C   UNL     1      -1.445  -2.650   1.209  1.00  0.00     0.117 C 
ENDROOT
BRANCH   1   2
ATOM      2  N   UNL     1      -1.119  -2.197  -0.130  1.00  0.00    -0.356 N 
ATOM      3  C   UNL     1       0.003  -2.145  -0.881  1.00  0.00     0.225 C 
ATOM      4  O   UNL     1      -0.225  -1.995  -2.093  1.00  0.00    -0.275 OA
ATOM      5  H   UNL     1      -1.904  -1.842  -0.606  1.00  0.00     0.163 HD
BRANCH   3   6
ATOM      6  C   UNL     1       1.470  -2.255  -0.435  1.00  0.00     0.106 C 
ATOM      7  N   UNL     1       1.627  -1.189   1.805  1.00  0.00    -0.333 N 
ATOM      8  C   UNL     1       1.735  -2.425   2.469  1.00  0.00     0.223 C 
ATOM      9  C   UNL     1       2.138  -1.147   0.419  1.00  0.00     0.128 C 
ATOM     10  O   UNL     1       1.713  -2.525   3.698  1.00  0.00    -0.275 OA
ATOM     11  C   UNL     1       1.819  -3.708   1.649  1.00  0.00     0.101 C 
ATOM     12  C   UNL     1       1.833  -3.621   0.134  1.00  0.00     0.026 C 
BRANCH   7  13
ATOM     13  C   UNL     1       1.538  -0.031   2.727  1.00  0.00     0.148 C 
BRANCH  13  14
ATOM     14  C   UNL     1       0.967   1.339   2.334  1.00  0.00     0.181 C 
BRANCH  14  15
ATOM     15  O   UNL     1      -0.453   1.347   2.200  1.00  0.00    -0.383 OA
ATOM     16  C   UNL     1      -0.861   1.241   0.848  1.00  0.00     0.194 C 
ENDBRANCH  14  15
ENDBRANCH  13  14
ENDBRANCH   7  13
BRANCH   9  17
ATOM     17  C   UNL     1       2.402   0.209  -0.250  1.00  0.00    -0.022 A 
ATOM     18  C   UNL     1       1.599   0.664  -1.316  1.00  0.00     0.006 A 
ATOM     19  C   UNL     1       3.484   1.046   0.136  1.00  0.00    -0.046 A 
ATOM     20  C   UNL     1       1.787   1.911  -1.920  1.00  0.00     0.000 A 
ATOM     21  C   UNL     1       3.647   2.312  -0.472  1.00  0.00     0.004 A 
ATOM     22  C   UNL     1       4.529   0.679   1.159  1.00  0.00     0.045 C 
ATOM     23  C   UNL     1       2.796   2.748  -1.480  1.00  0.00     0.000 A 
ENDBRANCH   9  17
ENDBRANCH   3   6
ENDBRANCH   1   2
BRANCH   1  24
ATOM     24  C   UNL     1      -2.390  -1.748   2.014  1.00  0.00     0.042 C 
BRANCH  24  25
ATOM     25  C   UNL     1      -3.633  -1.255   1.269  1.00  0.00     0.118 C 
BRANCH  25  26
ATOM     26  N   UNL     1      -4.820  -1.322   2.107  1.00  0.00    -0.352 N 
ATOM     27  C   UNL     1      -5.410  -0.453   2.980  1.00  0.00     0.251 C 
ATOM     28  H   UNL     1      -5.301  -2.177   2.029  1.00  0.00     0.163 HD
ATOM     29  O   UNL     1      -6.252  -0.925   3.756  1.00  0.00    -0.269 OA
BRANCH  27  30
ATOM     30  C   UNL     1      -5.146   1.008   3.044  1.00  0.00     0.039 A 
ATOM     31  C   UNL     1      -5.328   1.636   4.287  1.00  0.00     0.014 A 
ATOM     32  C   UNL     1      -4.946   1.807   1.916  1.00  0.00     0.014 A 
ATOM     33  C   UNL     1      -5.346   3.032   4.398  1.00  0.00     0.010 A 
ATOM     34  C   UNL     1      -4.918   3.210   2.035  1.00  0.00     0.010 A 
ATOM     35  C   UNL     1      -5.156   3.840   3.269  1.00  0.00    -0.014 A 
BRANCH  35  36
ATOM     36  C   UNL     1      -5.291   5.325   3.373  1.00  0.00     0.031 A 
ATOM     37  C   UNL     1      -6.448   6.040   2.716  1.00  0.00     0.074 A 
ATOM     38  C   UNL     1      -4.395   6.050   4.072  1.00  0.00     0.049 A 
ATOM     39  N   UNL     1      -6.719   7.324   2.681  1.00  0.00    -0.248 NA
ATOM     40  C   UNL     1      -7.423   5.205   1.998  1.00  0.00     0.031 C 
ATOM     41  C   UNL     1      -3.229   5.510   4.771  1.00  0.00     0.029 A 
ATOM     42  N   UNL     1      -4.332   7.403   4.313  1.00  0.00    -0.354 N 
ATOM     43  C   UNL     1      -7.874   7.451   1.917  1.00  0.00     0.074 A 
ATOM     44  C   UNL     1      -8.240   6.117   1.488  1.00  0.00     0.031 C 
ATOM     45  C   UNL     1      -2.577   6.517   5.377  1.00  0.00     0.029 A 
ATOM     46  C   UNL     1      -3.257   7.777   5.084  1.00  0.00     0.049 A 
ATOM     47  H   UNL     1      -4.994   8.043   3.966  1.00  0.00     0.167 HD
ATOM     48  C   UNL     1      -8.576   8.568   1.605  1.00  0.00     0.031 A 
ATOM     49  C   UNL     1      -2.855   8.992   5.504  1.00  0.00     0.031 A 
ATOM     50  C   UNL     1      -8.250   9.898   2.047  1.00  0.00     0.049 A 
ATOM     51  C   UNL     1      -3.646  10.218   5.139  1.00  0.00     0.074 A 
ATOM     52  C   UNL     1      -8.938  11.078   1.811  1.00  0.00     0.029 A 
ATOM     53  N   UNL     1      -7.151  10.227   2.821  1.00  0.00    -0.354 N 
ATOM     54  N   UNL     1      -4.749  10.311   4.439  1.00  0.00    -0.248 NA
ATOM     55  C   UNL     1      -3.137  11.508   5.633  1.00  0.00     0.031 C 
ATOM     56  C   UNL     1      -8.234  12.127   2.412  1.00  0.00     0.029 A 
ATOM     57  C   UNL     1      -7.132  11.592   3.057  1.00  0.00     0.049 A 
ATOM     58  H   UNL     1      -6.481   9.586   3.153  1.00  0.00     0.167 HD
ATOM     59  C   UNL     1      -5.078  11.661   4.429  1.00  0.00     0.074 A 
ATOM     60  C   UNL     1      -4.067  12.350   5.202  1.00  0.00     0.031 C 
ATOM     61  C   UNL     1      -6.128  12.273   3.831  1.00  0.00     0.031 A 
BRANCH  48  62
ATOM     62  C   UNL     1      -9.780   8.404   0.718  1.00  0.00    -0.014 A 
ATOM     63  C   UNL     1     -10.973   7.849   1.205  1.00  0.00     0.009 A 
ATOM     64  C   UNL     1      -9.734   8.863  -0.608  1.00  0.00     0.009 A 
ATOM     65  C   UNL     1     -12.087   7.727   0.370  1.00  0.00     0.001 A 
ATOM     66  C   UNL     1     -10.856   8.762  -1.432  1.00  0.00     0.001 A 
ATOM     67  C   UNL     1     -12.029   8.186  -0.945  1.00  0.00     0.000 A 
ENDBRANCH  48  62
BRANCH  49  68
ATOM     68  C   UNL     1      -1.626   9.121   6.329  1.00  0.00    -0.014 A 
ATOM     69  C   UNL     1      -1.713   9.431   7.694  1.00  0.00     0.009 A 
ATOM     70  C   UNL     1      -0.359   8.952   5.749  1.00  0.00     0.009 A 
ATOM     71  C   UNL     1      -0.555   9.592   8.458  1.00  0.00     0.001 A 
ATOM     72  C   UNL     1       0.796   9.089   6.520  1.00  0.00     0.001 A 
ATOM     73  C   UNL     1       0.698   9.417   7.872  1.00  0.00     0.000 A 
ENDBRANCH  49  68
BRANCH  61  74
ATOM     74  C   UNL     1      -6.261  13.758   4.014  1.00  0.00    -0.014 A 
ATOM     75  C   UNL     1      -5.430  14.653   3.324  1.00  0.00     0.009 A 
ATOM     76  C   UNL     1      -7.258  14.269   4.860  1.00  0.00     0.009 A 
ATOM     77  C   UNL     1      -5.577  16.031   3.498  1.00  0.00     0.001 A 
ATOM     78  C   UNL     1      -7.417  15.647   5.016  1.00  0.00     0.001 A 
ATOM     79  C   UNL     1      -6.572  16.526   4.341  1.00  0.00     0.000 A 
ENDBRANCH  61  74
ENDBRANCH  35  36
ENDBRANCH  27  30
ENDBRANCH  25  26
ENDBRANCH  24  25
ENDBRANCH   1  24
TORSDOF 14
