REMARK SMILES Cn1cc(S(=O)(=O)N[C@@H]2C=C[C@@H](C(=O)NCCCNC(=O)c3ccc(-c4c5nc(c(-c6ccccc6)c6ccc([nH]6)c(-c6ccccc6)c6nc(c(-c7ccccc7)c7ccc4[nH]7)C=C6)C=C5)cc3)C2)cc1C(N)=O
REMARK SMILES IDX 16 1 15 2 13 3 14 4 12 6 9 7 10 8 70 9 11 10 8 11 5 13 6 14
REMARK SMILES IDX 7 15 4 16 1 17 2 18 3 19 72 20 71 21 73 22 74 23 75 24 17 27
REMARK SMILES IDX 18 28 19 29 20 30 21 32 22 33 23 34 69 35 24 36 68 37 25 38
REMARK SMILES IDX 26 39 27 40 62 41 28 42 67 43 61 44 63 45 29 46 66 47 60 48
REMARK SMILES IDX 59 49 30 51 52 52 37 53 51 54 38 55 41 56 50 57 64 58 39 59
REMARK SMILES IDX 40 60 49 62 65 63 42 64 31 65 32 66 36 67 33 68 35 69 34 70
REMARK SMILES IDX 53 71 54 72 58 73 55 74 57 75 56 76 43 77 44 78 48 79 45 80
REMARK SMILES IDX 47 81 46 82
REMARK H PARENT 15 5 8 12 74 25 74 26 19 31 63 50 41 61
REMARK Flexibility Score: inf
ROOT
ATOM      1  C   UNL     1      -4.047  -2.882  -1.573  1.00  0.00     0.117 C 
ENDROOT
BRANCH   1   2
ATOM      2  N   UNL     1      -3.258  -3.654  -0.626  1.00  0.00    -0.356 N 
ATOM      3  C   UNL     1      -3.125  -3.558   0.727  1.00  0.00     0.226 C 
ATOM      4  O   UNL     1      -2.385  -4.378   1.279  1.00  0.00    -0.274 OA
ATOM      5  H   UNL     1      -2.725  -4.374  -1.035  1.00  0.00     0.163 HD
BRANCH   3   6
ATOM      6  C   UNL     1      -3.827  -2.478   1.552  1.00  0.00     0.103 C 
ATOM      7  C   UNL     1      -4.523  -0.138   1.209  1.00  0.00     0.093 C 
ATOM      8  C   UNL     1      -5.638  -1.108   1.001  1.00  0.00    -0.011 C 
ATOM      9  C   UNL     1      -3.294  -1.064   1.282  1.00  0.00     0.042 C 
ATOM     10  C   UNL     1      -5.287  -2.374   1.249  1.00  0.00    -0.016 C 
BRANCH   7  11
ATOM     11  N   UNL     1      -4.692   0.555   2.496  1.00  0.00    -0.204 NA
ATOM     12  H   UNL     1      -4.829  -0.160   3.211  1.00  0.00     0.142 HD
BRANCH  11  13
ATOM     13  S   UNL     1      -5.966   1.660   2.637  1.00  0.00     0.242 S 
ATOM     14  O   UNL     1      -6.096   2.353   1.375  1.00  0.00    -0.207 OA
ATOM     15  O   UNL     1      -5.779   2.356   3.889  1.00  0.00    -0.207 OA
BRANCH  13  16
ATOM     16  C   UNL     1      -7.445   0.794   2.838  1.00  0.00     0.100 A 
ATOM     17  C   UNL     1     -10.982   0.221   2.379  1.00  0.00     0.150 C 
ATOM     18  N   UNL     1      -9.564   0.145   2.666  1.00  0.00    -0.345 N 
ATOM     19  C   UNL     1      -8.702   1.195   2.446  1.00  0.00     0.107 A 
ATOM     20  C   UNL     1      -8.863  -0.960   3.124  1.00  0.00     0.107 A 
ATOM     21  C   UNL     1      -7.569  -0.510   3.370  1.00  0.00     0.055 A 
BRANCH  20  22
ATOM     22  C   UNL     1      -9.398  -2.298   3.284  1.00  0.00     0.265 C 
ATOM     23  N   UNL     1      -8.466  -3.296   3.334  1.00  0.00    -0.364 N 
ATOM     24  O   UNL     1     -10.589  -2.585   3.323  1.00  0.00    -0.268 OA
ATOM     25  H   UNL     1      -7.507  -3.076   3.302  1.00  0.00     0.160 HD
ATOM     26  H   UNL     1      -8.754  -4.235   3.401  1.00  0.00     0.160 HD
ENDBRANCH  20  22
ENDBRANCH  13  16
ENDBRANCH  11  13
ENDBRANCH   7  11
ENDBRANCH   3   6
ENDBRANCH   1   2
BRANCH   1  27
ATOM     27  C   UNL     1      -3.179  -2.122  -2.561  1.00  0.00     0.042 C 
BRANCH  27  28
ATOM     28  C   UNL     1      -2.519  -3.028  -3.586  1.00  0.00     0.118 C 
BRANCH  28  29
ATOM     29  N   UNL     1      -3.483  -3.596  -4.520  1.00  0.00    -0.352 N 
ATOM     30  C   UNL     1      -3.619  -3.399  -5.872  1.00  0.00     0.251 C 
ATOM     31  H   UNL     1      -4.136  -4.216  -4.120  1.00  0.00     0.163 HD
ATOM     32  O   UNL     1      -4.620  -3.802  -6.454  1.00  0.00    -0.269 OA
BRANCH  30  33
ATOM     33  C   UNL     1      -2.565  -2.685  -6.622  1.00  0.00     0.039 A 
ATOM     34  C   UNL     1      -2.933  -1.742  -7.585  1.00  0.00     0.014 A 
ATOM     35  C   UNL     1      -1.216  -2.955  -6.383  1.00  0.00     0.014 A 
ATOM     36  C   UNL     1      -1.945  -1.019  -8.258  1.00  0.00     0.010 A 
ATOM     37  C   UNL     1      -0.238  -2.176  -6.987  1.00  0.00     0.010 A 
ATOM     38  C   UNL     1      -0.592  -1.207  -7.938  1.00  0.00    -0.014 A 
BRANCH  38  39
ATOM     39  C   UNL     1       0.487  -0.439  -8.604  1.00  0.00     0.031 A 
ATOM     40  C   UNL     1       1.513  -1.168  -9.428  1.00  0.00     0.074 A 
ATOM     41  C   UNL     1       0.599   0.887  -8.400  1.00  0.00     0.049 A 
ATOM     42  N   UNL     1       2.623  -0.718  -9.953  1.00  0.00    -0.248 NA
ATOM     43  C   UNL     1       1.274  -2.602  -9.662  1.00  0.00     0.031 C 
ATOM     44  C   UNL     1      -0.314   1.709  -7.603  1.00  0.00     0.029 A 
ATOM     45  N   UNL     1       1.546   1.776  -8.842  1.00  0.00    -0.354 N 
ATOM     46  C   UNL     1       3.228  -1.818 -10.548  1.00  0.00     0.074 A 
ATOM     47  C   UNL     1       2.384  -2.963 -10.286  1.00  0.00     0.031 C 
ATOM     48  C   UNL     1       0.105   2.985  -7.632  1.00  0.00     0.029 A 
ATOM     49  C   UNL     1       1.336   3.063  -8.410  1.00  0.00     0.049 A 
ATOM     50  H   UNL     1       2.305   1.516  -9.413  1.00  0.00     0.167 HD
ATOM     51  C   UNL     1       4.376  -1.870 -11.263  1.00  0.00     0.031 A 
ATOM     52  C   UNL     1       2.063   4.178  -8.612  1.00  0.00     0.031 A 
ATOM     53  C   UNL     1       5.199  -0.729 -11.555  1.00  0.00     0.049 A 
ATOM     54  C   UNL     1       3.326   4.097  -9.421  1.00  0.00     0.074 A 
ATOM     55  C   UNL     1       6.364  -0.672 -12.300  1.00  0.00     0.029 A 
ATOM     56  N   UNL     1       4.929   0.561 -11.129  1.00  0.00    -0.354 N 
ATOM     57  N   UNL     1       3.878   3.051  -9.987  1.00  0.00    -0.248 NA
ATOM     58  C   UNL     1       4.063   5.352  -9.623  1.00  0.00     0.031 C 
ATOM     59  C   UNL     1       6.809   0.655 -12.309  1.00  0.00     0.029 A 
ATOM     60  C   UNL     1       5.903   1.424 -11.597  1.00  0.00     0.049 A 
ATOM     61  H   UNL     1       4.159   0.825 -10.575  1.00  0.00     0.167 HD
ATOM     62  C   UNL     1       5.009   3.527 -10.636  1.00  0.00     0.074 A 
ATOM     63  C   UNL     1       5.062   4.955 -10.399  1.00  0.00     0.031 C 
ATOM     64  C   UNL     1       5.925   2.843 -11.363  1.00  0.00     0.031 A 
BRANCH  51  65
ATOM     65  C   UNL     1       4.800  -3.213 -11.783  1.00  0.00    -0.014 A 
ATOM     66  C   UNL     1       4.122  -3.820 -12.852  1.00  0.00     0.009 A 
ATOM     67  C   UNL     1       5.898  -3.872 -11.210  1.00  0.00     0.009 A 
ATOM     68  C   UNL     1       4.515  -5.078 -13.314  1.00  0.00     0.001 A 
ATOM     69  C   UNL     1       6.304  -5.118 -11.690  1.00  0.00     0.001 A 
ATOM     70  C   UNL     1       5.607  -5.723 -12.735  1.00  0.00     0.000 A 
ENDBRANCH  51  65
BRANCH  52  71
ATOM     71  C   UNL     1       1.608   5.476  -8.054  1.00  0.00    -0.014 A 
ATOM     72  C   UNL     1       1.072   6.458  -8.902  1.00  0.00     0.009 A 
ATOM     73  C   UNL     1       1.719   5.747  -6.683  1.00  0.00     0.009 A 
ATOM     74  C   UNL     1       0.681   7.697  -8.390  1.00  0.00     0.001 A 
ATOM     75  C   UNL     1       1.305   6.979  -6.170  1.00  0.00     0.001 A 
ATOM     76  C   UNL     1       0.796   7.955  -7.025  1.00  0.00     0.000 A 
ENDBRANCH  52  71
BRANCH  64  77
ATOM     77  C   UNL     1       7.029   3.638 -11.994  1.00  0.00    -0.014 A 
ATOM     78  C   UNL     1       8.115   4.099 -11.236  1.00  0.00     0.009 A 
ATOM     79  C   UNL     1       6.998   3.889 -13.374  1.00  0.00     0.009 A 
ATOM     80  C   UNL     1       9.141   4.821 -11.848  1.00  0.00     0.001 A 
ATOM     81  C   UNL     1       8.035   4.594 -13.985  1.00  0.00     0.001 A 
ATOM     82  C   UNL     1       9.102   5.064 -13.221  1.00  0.00     0.000 A 
ENDBRANCH  64  77
ENDBRANCH  38  39
ENDBRANCH  30  33
ENDBRANCH  28  29
ENDBRANCH  27  28
ENDBRANCH   1  27
TORSDOF 14
