REMARK SMILES Cc1ccc(-n2c(C)cc(/C=C3/SC(=S)N(CC(=O)NCCCNC(=O)c4ccc(-c5c6nc(c(-c7ccccc7)c7ccc([nH]7)c(-c7ccccc7)c7nc(c(-c8ccccc8)c8ccc5[nH]8)C=C7)C=C6)cc4)C3=O)c2C)cc1
REMARK SMILES IDX 21 1 20 2 18 3 19 4 17 6 16 7 11 8 12 9 13 10 75 11 14 12
REMARK SMILES IDX 76 13 15 14 10 15 6 16 7 17 77 18 8 19 9 20 78 21 5 22 1 23
REMARK SMILES IDX 2 24 3 25 80 26 4 27 79 28 22 29 23 30 24 31 25 32 26 34
REMARK SMILES IDX 27 35 28 36 74 37 29 38 73 39 30 40 31 41 32 42 67 43 33 44
REMARK SMILES IDX 72 45 66 46 68 47 34 48 71 49 65 50 64 51 35 53 57 54 42 55
REMARK SMILES IDX 56 56 43 57 46 58 55 59 69 60 44 61 45 62 54 64 70 65 47 66
REMARK SMILES IDX 36 67 37 68 41 69 38 70 40 71 39 72 58 73 59 74 63 75 60 76
REMARK SMILES IDX 62 77 61 78 48 79 49 80 53 81 50 82 52 83 51 84
REMARK H PARENT 20 5 24 33 68 52 46 63
REMARK Flexibility Score: inf
ROOT
ATOM      1  C   UNL     1     -10.840  -2.277  -2.691  1.00  0.00     0.117 C 
ENDROOT
BRANCH   1   2
ATOM      2  N   UNL     1      -9.602  -2.189  -3.444  1.00  0.00    -0.354 N 
ATOM      3  C   UNL     1      -8.482  -2.970  -3.369  1.00  0.00     0.240 C 
ATOM      4  O   UNL     1      -7.700  -2.924  -4.321  1.00  0.00    -0.273 OA
ATOM      5  H   UNL     1      -9.563  -1.462  -4.106  1.00  0.00     0.163 HD
BRANCH   3   6
ATOM      6  C   UNL     1      -8.262  -3.954  -2.209  1.00  0.00     0.227 C 
BRANCH   6   7
ATOM      7  N   UNL     1      -8.199  -3.301  -0.899  1.00  0.00    -0.283 N 
ATOM      8  C   UNL     1      -6.432  -0.895   1.210  1.00  0.00     0.031 C 
ATOM      9  C   UNL     1      -7.236  -1.827   0.679  1.00  0.00     0.081 C 
ATOM     10  S   UNL     1      -8.562  -2.527   1.531  1.00  0.00    -0.054 SA
ATOM     11  C   UNL     1      -7.132  -2.441  -0.677  1.00  0.00     0.266 C 
ATOM     12  C   UNL     1      -8.995  -3.580   0.187  1.00  0.00     0.148 C 
ATOM     13  O   UNL     1      -6.233  -2.241  -1.470  1.00  0.00    -0.268 OA
ATOM     14  S   UNL     1     -10.208  -4.717   0.322  1.00  0.00    -0.052 S 
BRANCH   8  15
ATOM     15  C   UNL     1      -5.300  -0.309   0.575  1.00  0.00    -0.003 A 
ATOM     16  N   UNL     1      -3.169   0.133   0.047  1.00  0.00    -0.318 N 
ATOM     17  C   UNL     1      -3.977   0.778  -0.886  1.00  0.00     0.020 A 
ATOM     18  C   UNL     1      -3.991  -0.504   0.976  1.00  0.00     0.027 A 
ATOM     19  C   UNL     1      -3.465   1.452  -2.114  1.00  0.00     0.065 C 
ATOM     20  C   UNL     1      -5.295   0.536  -0.551  1.00  0.00     0.031 A 
ATOM     21  C   UNL     1      -3.492  -1.235   2.179  1.00  0.00     0.065 C 
BRANCH  16  22
ATOM     22  C   UNL     1      -1.750   0.094   0.023  1.00  0.00     0.045 A 
ATOM     23  C   UNL     1       2.549  -0.043  -0.034  1.00  0.00     0.044 C 
ATOM     24  C   UNL     1       1.050   0.014  -0.012  1.00  0.00    -0.051 A 
ATOM     25  C   UNL     1       0.308  -1.172   0.076  1.00  0.00     0.005 A 
ATOM     26  C   UNL     1       0.375   1.238  -0.095  1.00  0.00     0.005 A 
ATOM     27  C   UNL     1      -1.087  -1.135   0.101  1.00  0.00     0.027 A 
ATOM     28  C   UNL     1      -1.020   1.282  -0.084  1.00  0.00     0.027 A 
ENDBRANCH  16  22
ENDBRANCH   8  15
ENDBRANCH   6   7
ENDBRANCH   3   6
ENDBRANCH   1   2
BRANCH   1  29
ATOM     29  C   UNL     1     -10.888  -1.300  -1.525  1.00  0.00     0.042 C 
BRANCH  29  30
ATOM     30  C   UNL     1     -11.329   0.102  -1.917  1.00  0.00     0.118 C 
BRANCH  30  31
ATOM     31  N   UNL     1     -12.770   0.320  -1.852  1.00  0.00    -0.352 N 
ATOM     32  C   UNL     1     -13.501   1.435  -2.225  1.00  0.00     0.251 C 
ATOM     33  H   UNL     1     -13.296  -0.431  -1.494  1.00  0.00     0.163 HD
ATOM     34  O   UNL     1     -14.718   1.444  -2.099  1.00  0.00    -0.269 OA
BRANCH  32  35
ATOM     35  C   UNL     1     -12.814   2.566  -2.895  1.00  0.00     0.039 A 
ATOM     36  C   UNL     1     -13.372   3.071  -4.074  1.00  0.00     0.014 A 
ATOM     37  C   UNL     1     -11.546   2.972  -2.490  1.00  0.00     0.014 A 
ATOM     38  C   UNL     1     -12.563   3.772  -4.965  1.00  0.00     0.010 A 
ATOM     39  C   UNL     1     -10.713   3.568  -3.415  1.00  0.00     0.010 A 
ATOM     40  C   UNL     1     -11.206   3.909  -4.678  1.00  0.00    -0.014 A 
BRANCH  40  41
ATOM     41  C   UNL     1     -10.208   4.248  -5.684  1.00  0.00     0.031 A 
ATOM     42  C   UNL     1      -9.506   5.545  -5.660  1.00  0.00     0.074 A 
ATOM     43  C   UNL     1      -9.866   3.332  -6.617  1.00  0.00     0.049 A 
ATOM     44  N   UNL     1      -8.978   6.094  -6.703  1.00  0.00    -0.248 NA
ATOM     45  C   UNL     1      -9.385   6.359  -4.457  1.00  0.00     0.031 C 
ATOM     46  C   UNL     1      -8.701   3.349  -7.497  1.00  0.00     0.029 A 
ATOM     47  N   UNL     1     -10.640   2.283  -7.097  1.00  0.00    -0.354 N 
ATOM     48  C   UNL     1      -8.200   7.139  -6.266  1.00  0.00     0.074 A 
ATOM     49  C   UNL     1      -8.563   7.324  -4.879  1.00  0.00     0.031 C 
ATOM     50  C   UNL     1      -8.928   2.531  -8.537  1.00  0.00     0.029 A 
ATOM     51  C   UNL     1     -10.305   2.076  -8.442  1.00  0.00     0.049 A 
ATOM     52  H   UNL     1     -11.307   1.774  -6.583  1.00  0.00     0.167 HD
ATOM     53  C   UNL     1      -7.221   7.634  -7.074  1.00  0.00     0.031 A 
ATOM     54  C   UNL     1     -11.237   2.210  -9.431  1.00  0.00     0.031 A 
ATOM     55  C   UNL     1      -7.193   6.970  -8.376  1.00  0.00     0.049 A 
ATOM     56  C   UNL     1     -10.914   3.295 -10.435  1.00  0.00     0.074 A 
ATOM     57  C   UNL     1      -6.378   5.986  -8.913  1.00  0.00     0.029 A 
ATOM     58  N   UNL     1      -8.275   7.097  -9.236  1.00  0.00    -0.354 N 
ATOM     59  N   UNL     1     -10.041   4.241 -10.229  1.00  0.00    -0.248 NA
ATOM     60  C   UNL     1     -11.576   3.428 -11.730  1.00  0.00     0.031 C 
ATOM     61  C   UNL     1      -6.994   5.498 -10.093  1.00  0.00     0.029 A 
ATOM     62  C   UNL     1      -8.171   6.199 -10.280  1.00  0.00     0.049 A 
ATOM     63  H   UNL     1      -9.014   7.738  -9.119  1.00  0.00     0.167 HD
ATOM     64  C   UNL     1     -10.008   5.087 -11.308  1.00  0.00     0.074 A 
ATOM     65  C   UNL     1     -10.983   4.529 -12.227  1.00  0.00     0.031 C 
ATOM     66  C   UNL     1      -9.181   6.173 -11.332  1.00  0.00     0.031 A 
BRANCH  53  67
ATOM     67  C   UNL     1      -6.098   8.511  -6.574  1.00  0.00    -0.014 A 
ATOM     68  C   UNL     1      -4.848   8.477  -7.223  1.00  0.00     0.009 A 
ATOM     69  C   UNL     1      -6.184   9.351  -5.453  1.00  0.00     0.009 A 
ATOM     70  C   UNL     1      -3.729   9.152  -6.719  1.00  0.00     0.001 A 
ATOM     71  C   UNL     1      -5.060   9.997  -4.918  1.00  0.00     0.001 A 
ATOM     72  C   UNL     1      -3.827   9.886  -5.546  1.00  0.00     0.000 A 
ENDBRANCH  53  67
BRANCH  54  73
ATOM     73  C   UNL     1     -12.613   1.831  -9.005  1.00  0.00    -0.014 A 
ATOM     74  C   UNL     1     -12.869   0.477  -8.712  1.00  0.00     0.009 A 
ATOM     75  C   UNL     1     -13.511   2.800  -8.535  1.00  0.00     0.009 A 
ATOM     76  C   UNL     1     -13.928   0.113  -7.876  1.00  0.00     0.001 A 
ATOM     77  C   UNL     1     -14.577   2.429  -7.705  1.00  0.00     0.001 A 
ATOM     78  C   UNL     1     -14.764   1.093  -7.349  1.00  0.00     0.000 A 
ENDBRANCH  54  73
BRANCH  66  79
ATOM     79  C   UNL     1      -9.159   7.296 -12.347  1.00  0.00    -0.014 A 
ATOM     80  C   UNL     1     -10.176   7.569 -13.268  1.00  0.00     0.009 A 
ATOM     81  C   UNL     1      -8.088   8.223 -12.307  1.00  0.00     0.009 A 
ATOM     82  C   UNL     1     -10.113   8.685 -14.118  1.00  0.00     0.001 A 
ATOM     83  C   UNL     1      -8.041   9.357 -13.120  1.00  0.00     0.001 A 
ATOM     84  C   UNL     1      -9.054   9.584 -14.036  1.00  0.00     0.000 A 
ENDBRANCH  66  79
ENDBRANCH  40  41
ENDBRANCH  32  35
ENDBRANCH  30  31
ENDBRANCH  29  30
ENDBRANCH   1  29
TORSDOF 13
