REMARK SMILES CC[C@H]1CC[C@@](C(=O)NCCCNC(=O)c2ccc(-c3c4nc(c(-c5ccccc5)c5ccc([nH]5)c(-c5ccccc5)c5nc(c(-c6ccccc6)c6ccc3[nH]6)C=C5)C=C4)cc2)(C2CCCC2)C1
REMARK SMILES IDX 11 1 10 2 9 3 7 4 8 5 6 7 3 8 4 9 69 10 5 11 2 12 1 13 64 14
REMARK SMILES IDX 65 15 68 16 66 17 67 18 12 19 13 20 14 21 15 23 16 24 17 25
REMARK SMILES IDX 63 26 18 27 62 28 19 29 20 30 21 31 56 32 22 33 61 34 55 35
REMARK SMILES IDX 57 36 23 37 60 38 54 39 53 40 24 42 46 43 31 44 45 45 32 46
REMARK SMILES IDX 35 47 44 48 58 49 33 50 34 51 43 53 59 54 36 55 25 56 26 57
REMARK SMILES IDX 30 58 27 59 29 60 28 61 47 62 48 63 52 64 49 65 51 66 50 67
REMARK SMILES IDX 37 68 38 69 42 70 39 71 41 72 40 73
REMARK H PARENT 9 6 13 22 57 41 35 52
REMARK Flexibility Score: inf
ROOT
ATOM      1  C   UNL     1      -3.312  -2.898  -3.057  1.00  0.00     0.042 C 
ENDROOT
BRANCH   1   2
ATOM      2  C   UNL     1      -2.181  -2.971  -2.039  1.00  0.00     0.117 C 
BRANCH   2   3
ATOM      3  N   UNL     1      -1.361  -4.153  -2.219  1.00  0.00    -0.356 N 
ATOM      4  C   UNL     1      -0.065  -4.336  -2.583  1.00  0.00     0.226 C 
ATOM      5  O   UNL     1       0.315  -5.511  -2.543  1.00  0.00    -0.274 OA
ATOM      6  H   UNL     1      -1.841  -4.994  -2.042  1.00  0.00     0.163 HD
BRANCH   4   7
ATOM      7  C   UNL     1       0.899  -3.173  -2.956  1.00  0.00     0.052 C 
ATOM      8  C   UNL     1       0.998  -0.813  -2.131  1.00  0.00    -0.010 C 
ATOM      9  C   UNL     1       0.281  -0.817  -3.484  1.00  0.00     0.005 C 
ATOM     10  C   UNL     1       1.085  -2.282  -1.704  1.00  0.00     0.020 C 
ATOM     11  C   UNL     1       0.325  -2.241  -4.042  1.00  0.00     0.017 C 
BRANCH   8  12
ATOM     12  C   UNL     1       2.315  -0.020  -2.188  1.00  0.00     0.000 C 
ATOM     13  C   UNL     1       3.212  -0.166  -0.967  1.00  0.00     0.004 C 
ENDBRANCH   8  12
BRANCH   7  14
ATOM     14  C   UNL     1       2.280  -3.799  -3.381  1.00  0.00     0.004 C 
ATOM     15  C   UNL     1       2.267  -4.687  -4.636  1.00  0.00     0.005 C 
ATOM     16  C   UNL     1       3.398  -2.810  -3.730  1.00  0.00     0.005 C 
ATOM     17  C   UNL     1       3.742  -4.871  -4.978  1.00  0.00     0.000 C 
ATOM     18  C   UNL     1       4.449  -3.618  -4.480  1.00  0.00     0.000 C 
ENDBRANCH   7  14
ENDBRANCH   4   7
ENDBRANCH   2   3
ENDBRANCH   1   2
BRANCH   1  19
ATOM     19  C   UNL     1      -4.340  -4.012  -2.905  1.00  0.00     0.118 C 
BRANCH  19  20
ATOM     20  N   UNL     1      -5.073  -3.930  -1.649  1.00  0.00    -0.352 N 
ATOM     21  C   UNL     1      -6.410  -3.719  -1.414  1.00  0.00     0.251 C 
ATOM     22  H   UNL     1      -4.524  -4.044  -0.840  1.00  0.00     0.163 HD
ATOM     23  O   UNL     1      -6.798  -3.481  -0.275  1.00  0.00    -0.269 OA
BRANCH  21  24
ATOM     24  C   UNL     1      -7.379  -3.756  -2.530  1.00  0.00     0.039 A 
ATOM     25  C   UNL     1      -8.404  -2.806  -2.567  1.00  0.00     0.014 A 
ATOM     26  C   UNL     1      -7.293  -4.731  -3.526  1.00  0.00     0.014 A 
ATOM     27  C   UNL     1      -9.297  -2.793  -3.640  1.00  0.00     0.010 A 
ATOM     28  C   UNL     1      -8.124  -4.659  -4.639  1.00  0.00     0.010 A 
ATOM     29  C   UNL     1      -9.139  -3.694  -4.705  1.00  0.00    -0.014 A 
BRANCH  29  30
ATOM     30  C   UNL     1     -10.025  -3.645  -5.896  1.00  0.00     0.031 A 
ATOM     31  C   UNL     1     -10.895  -4.823  -6.242  1.00  0.00     0.074 A 
ATOM     32  C   UNL     1      -9.992  -2.570  -6.707  1.00  0.00     0.049 A 
ATOM     33  N   UNL     1     -11.684  -4.992  -7.273  1.00  0.00    -0.248 NA
ATOM     34  C   UNL     1     -10.851  -5.974  -5.325  1.00  0.00     0.031 C 
ATOM     35  C   UNL     1      -9.156  -1.384  -6.510  1.00  0.00     0.029 A 
ATOM     36  N   UNL     1     -10.675  -2.306  -7.868  1.00  0.00    -0.354 N 
ATOM     37  C   UNL     1     -12.209  -6.272  -7.140  1.00  0.00     0.074 A 
ATOM     38  C   UNL     1     -11.610  -6.854  -5.960  1.00  0.00     0.031 C 
ATOM     39  C   UNL     1      -9.395  -0.509  -7.501  1.00  0.00     0.029 A 
ATOM     40  C   UNL     1     -10.364  -1.089  -8.424  1.00  0.00     0.049 A 
ATOM     41  H   UNL     1     -11.326  -2.929  -8.264  1.00  0.00     0.167 HD
ATOM     42  C   UNL     1     -13.121  -6.900  -7.920  1.00  0.00     0.031 A 
ATOM     43  C   UNL     1     -10.801  -0.507  -9.557  1.00  0.00     0.031 A 
ATOM     44  C   UNL     1     -13.724  -6.315  -9.087  1.00  0.00     0.049 A 
ATOM     45  C   UNL     1     -11.809  -1.226 -10.409  1.00  0.00     0.074 A 
ATOM     46  C   UNL     1     -14.709  -6.843  -9.904  1.00  0.00     0.029 A 
ATOM     47  N   UNL     1     -13.393  -5.074  -9.608  1.00  0.00    -0.354 N 
ATOM     48  N   UNL     1     -12.357  -2.403 -10.225  1.00  0.00    -0.248 NA
ATOM     49  C   UNL     1     -12.269  -0.530 -11.619  1.00  0.00     0.031 C 
ATOM     50  C   UNL     1     -14.931  -5.946 -10.954  1.00  0.00     0.029 A 
ATOM     51  C   UNL     1     -14.132  -4.831 -10.754  1.00  0.00     0.049 A 
ATOM     52  H   UNL     1     -12.732  -4.456  -9.221  1.00  0.00     0.167 HD
ATOM     53  C   UNL     1     -13.245  -2.577 -11.279  1.00  0.00     0.074 A 
ATOM     54  C   UNL     1     -13.174  -1.377 -12.088  1.00  0.00     0.031 C 
ATOM     55  C   UNL     1     -14.047  -3.635 -11.552  1.00  0.00     0.031 A 
BRANCH  42  56
ATOM     56  C   UNL     1     -13.510  -8.302  -7.538  1.00  0.00    -0.014 A 
ATOM     57  C   UNL     1     -14.250  -8.566  -6.373  1.00  0.00     0.009 A 
ATOM     58  C   UNL     1     -13.155  -9.375  -8.370  1.00  0.00     0.009 A 
ATOM     59  C   UNL     1     -14.586  -9.877  -6.028  1.00  0.00     0.001 A 
ATOM     60  C   UNL     1     -13.521 -10.681  -8.041  1.00  0.00     0.001 A 
ATOM     61  C   UNL     1     -14.225 -10.932  -6.864  1.00  0.00     0.000 A 
ENDBRANCH  42  56
BRANCH  43  62
ATOM     62  C   UNL     1     -10.292   0.834  -9.947  1.00  0.00    -0.014 A 
ATOM     63  C   UNL     1     -11.130   1.959  -9.895  1.00  0.00     0.009 A 
ATOM     64  C   UNL     1      -8.964   0.997 -10.371  1.00  0.00     0.009 A 
ATOM     65  C   UNL     1     -10.655   3.214 -10.285  1.00  0.00     0.001 A 
ATOM     66  C   UNL     1      -8.483   2.258 -10.731  1.00  0.00     0.001 A 
ATOM     67  C   UNL     1      -9.332   3.363 -10.697  1.00  0.00     0.000 A 
ENDBRANCH  43  62
BRANCH  55  68
ATOM     68  C   UNL     1     -14.939  -3.529 -12.758  1.00  0.00    -0.014 A 
ATOM     69  C   UNL     1     -14.418  -3.586 -14.060  1.00  0.00     0.009 A 
ATOM     70  C   UNL     1     -16.327  -3.413 -12.585  1.00  0.00     0.009 A 
ATOM     71  C   UNL     1     -15.268  -3.494 -15.164  1.00  0.00     0.001 A 
ATOM     72  C   UNL     1     -17.177  -3.353 -13.690  1.00  0.00     0.001 A 
ATOM     73  C   UNL     1     -16.646  -3.383 -14.978  1.00  0.00     0.000 A 
ENDBRANCH  55  68
ENDBRANCH  29  30
ENDBRANCH  21  24
ENDBRANCH  19  20
ENDBRANCH   1  19
TORSDOF 12
