REMARK SMILES CCCC1(C(=O)NCCCNC(=O)c2ccc(-c3c4nc(c(-c5ccccc5)c5ccc([nH]5)c(-c5ccccc5)c5nc(c(-c6ccccc6)c6ccc3[nH]6)C=C5)C=C4)cc2)CC[NH+]([C@H](C)[C@H](C)O)CC1
REMARK SMILES IDX 8 1 7 2 5 3 6 4 4 6 62 7 71 8 63 9 70 10 64 11 3 13 2 14
REMARK SMILES IDX 1 15 65 16 66 17 67 18 68 19 69 20 9 22 10 23 11 24 12 25
REMARK SMILES IDX 13 27 14 28 15 29 61 30 16 31 60 32 17 33 18 34 19 35 54 36
REMARK SMILES IDX 20 37 59 38 53 39 55 40 21 41 58 42 52 43 51 44 22 46 44 47
REMARK SMILES IDX 29 48 43 49 30 50 33 51 42 52 56 53 31 54 32 55 41 57 57 58
REMARK SMILES IDX 34 59 23 60 24 61 28 62 25 63 27 64 26 65 45 66 46 67 50 68
REMARK SMILES IDX 47 69 49 70 48 71 35 72 36 73 40 74 37 75 39 76 38 77
REMARK H PARENT 7 5 64 12 69 21 11 26 55 45 33 56
REMARK Flexibility Score: inf
ROOT
ATOM      1  C   UNL     1      -0.738   4.177   3.186  1.00  0.00     0.117 C 
ENDROOT
BRANCH   1   2
ATOM      2  N   UNL     1      -0.768   5.617   3.018  1.00  0.00    -0.356 N 
ATOM      3  C   UNL     1      -1.723   6.466   2.547  1.00  0.00     0.226 C 
ATOM      4  O   UNL     1      -1.435   7.664   2.667  1.00  0.00    -0.274 OA
ATOM      5  H   UNL     1       0.061   6.067   3.299  1.00  0.00     0.163 HD
BRANCH   3   6
ATOM      6  C   UNL     1      -3.064   6.011   1.865  1.00  0.00     0.060 C 
ATOM      7  C   UNL     1      -2.687   5.303   0.536  1.00  0.00     0.078 C 
ATOM      8  C   UNL     1      -3.893   5.140   2.860  1.00  0.00     0.078 C 
ATOM      9  C   UNL     1      -3.644   4.190   0.122  1.00  0.00     0.263 C 
ATOM     10  C   UNL     1      -4.487   3.834   2.307  1.00  0.00     0.263 C 
ATOM     11  N   UNL     1      -3.627   3.287   1.255  1.00  0.00    -0.331 N 
ATOM     12  H   UNL     1      -2.648   3.277   1.541  1.00  0.00     0.348 HD
BRANCH   6  13
ATOM     13  C   UNL     1      -3.834   7.343   1.544  1.00  0.00     0.017 C 
BRANCH  13  14
ATOM     14  C   UNL     1      -5.075   7.353   0.644  1.00  0.00    -0.002 C 
ATOM     15  C   UNL     1      -6.346   6.797   1.256  1.00  0.00     0.004 C 
ENDBRANCH  13  14
ENDBRANCH   6  13
BRANCH  11  16
ATOM     16  C   UNL     1      -3.717   1.831   1.066  1.00  0.00     0.209 C 
ATOM     17  C   UNL     1      -2.872   1.239   2.212  1.00  0.00     0.078 C 
BRANCH  16  18
ATOM     18  C   UNL     1      -3.205   1.188  -0.270  1.00  0.00     0.169 C 
ATOM     19  C   UNL     1      -1.735   1.440  -0.618  1.00  0.00     0.045 C 
BRANCH  18  20
ATOM     20  O   UNL     1      -4.062   1.538  -1.362  1.00  0.00    -0.387 OA
ATOM     21  H   UNL     1      -4.015   2.494  -1.516  1.00  0.00     0.211 HD
ENDBRANCH  18  20
ENDBRANCH  16  18
ENDBRANCH  11  16
ENDBRANCH   3   6
ENDBRANCH   1   2
BRANCH   1  22
ATOM     22  C   UNL     1       0.318   3.500   2.322  1.00  0.00     0.042 C 
BRANCH  22  23
ATOM     23  C   UNL     1       1.718   3.515   2.918  1.00  0.00     0.118 C 
BRANCH  23  24
ATOM     24  N   UNL     1       1.827   2.676   4.108  1.00  0.00    -0.352 N 
ATOM     25  C   UNL     1       2.539   1.523   4.344  1.00  0.00     0.251 C 
ATOM     26  H   UNL     1       1.299   2.991   4.877  1.00  0.00     0.163 HD
ATOM     27  O   UNL     1       2.306   0.872   5.357  1.00  0.00    -0.269 OA
BRANCH  25  28
ATOM     28  C   UNL     1       3.573   1.049   3.393  1.00  0.00     0.039 A 
ATOM     29  C   UNL     1       3.770  -0.328   3.235  1.00  0.00     0.014 A 
ATOM     30  C   UNL     1       4.381   1.944   2.692  1.00  0.00     0.014 A 
ATOM     31  C   UNL     1       4.728  -0.798   2.332  1.00  0.00     0.010 A 
ATOM     32  C   UNL     1       5.251   1.479   1.712  1.00  0.00     0.010 A 
ATOM     33  C   UNL     1       5.451   0.103   1.535  1.00  0.00    -0.014 A 
BRANCH  33  34
ATOM     34  C   UNL     1       6.443  -0.359   0.533  1.00  0.00     0.031 A 
ATOM     35  C   UNL     1       7.887   0.048   0.658  1.00  0.00     0.074 A 
ATOM     36  C   UNL     1       6.036  -1.082  -0.528  1.00  0.00     0.049 A 
ATOM     37  N   UNL     1       8.889  -0.192  -0.151  1.00  0.00    -0.248 NA
ATOM     38  C   UNL     1       8.248   0.861   1.831  1.00  0.00     0.031 C 
ATOM     39  C   UNL     1       4.660  -1.510  -0.786  1.00  0.00     0.029 A 
ATOM     40  N   UNL     1       6.744  -1.582  -1.591  1.00  0.00    -0.354 N 
ATOM     41  C   UNL     1       9.984   0.459   0.403  1.00  0.00     0.074 A 
ATOM     42  C   UNL     1       9.512   1.157   1.578  1.00  0.00     0.031 C 
ATOM     43  C   UNL     1       4.631  -2.244  -1.910  1.00  0.00     0.029 A 
ATOM     44  C   UNL     1       5.975  -2.296  -2.477  1.00  0.00     0.049 A 
ATOM     45  H   UNL     1       7.712  -1.442  -1.709  1.00  0.00     0.167 HD
ATOM     46  C   UNL     1      11.274   0.457  -0.010  1.00  0.00     0.031 A 
ATOM     47  C   UNL     1       6.313  -2.923  -3.619  1.00  0.00     0.031 A 
ATOM     48  C   UNL     1      11.743  -0.242  -1.177  1.00  0.00     0.049 A 
ATOM     49  C   UNL     1       7.745  -2.890  -4.075  1.00  0.00     0.074 A 
ATOM     50  C   UNL     1      13.036  -0.352  -1.657  1.00  0.00     0.029 A 
ATOM     51  N   UNL     1      10.929  -0.948  -2.050  1.00  0.00    -0.354 N 
ATOM     52  N   UNL     1       8.781  -2.324  -3.507  1.00  0.00    -0.248 NA
ATOM     53  C   UNL     1       8.052  -3.594  -5.328  1.00  0.00     0.031 C 
ATOM     54  C   UNL     1      12.996  -1.076  -2.854  1.00  0.00     0.029 A 
ATOM     55  C   UNL     1      11.688  -1.474  -3.083  1.00  0.00     0.049 A 
ATOM     56  H   UNL     1       9.956  -1.059  -1.951  1.00  0.00     0.167 HD
ATOM     57  C   UNL     1       9.870  -2.630  -4.314  1.00  0.00     0.074 A 
ATOM     58  C   UNL     1       9.367  -3.442  -5.403  1.00  0.00     0.031 C 
ATOM     59  C   UNL     1      11.170  -2.275  -4.163  1.00  0.00     0.031 A 
BRANCH  46  60
ATOM     60  C   UNL     1      12.259   1.253   0.805  1.00  0.00    -0.014 A 
ATOM     61  C   UNL     1      12.588   0.883   2.120  1.00  0.00     0.009 A 
ATOM     62  C   UNL     1      12.864   2.393   0.254  1.00  0.00     0.009 A 
ATOM     63  C   UNL     1      13.456   1.668   2.883  1.00  0.00     0.001 A 
ATOM     64  C   UNL     1      13.760   3.156   1.006  1.00  0.00     0.001 A 
ATOM     65  C   UNL     1      14.043   2.802   2.324  1.00  0.00     0.000 A 
ENDBRANCH  46  60
BRANCH  47  66
ATOM     66  C   UNL     1       5.282  -3.667  -4.389  1.00  0.00    -0.014 A 
ATOM     67  C   UNL     1       5.303  -5.070  -4.426  1.00  0.00     0.009 A 
ATOM     68  C   UNL     1       4.264  -2.986  -5.075  1.00  0.00     0.009 A 
ATOM     69  C   UNL     1       4.339  -5.774  -5.151  1.00  0.00     0.001 A 
ATOM     70  C   UNL     1       3.284  -3.694  -5.774  1.00  0.00     0.001 A 
ATOM     71  C   UNL     1       3.327  -5.086  -5.818  1.00  0.00     0.000 A 
ENDBRANCH  47  66
BRANCH  59  72
ATOM     72  C   UNL     1      12.146  -2.796  -5.181  1.00  0.00    -0.014 A 
ATOM     73  C   UNL     1      12.158  -2.316  -6.500  1.00  0.00     0.009 A 
ATOM     74  C   UNL     1      13.094  -3.759  -4.800  1.00  0.00     0.009 A 
ATOM     75  C   UNL     1      13.076  -2.817  -7.425  1.00  0.00     0.001 A 
ATOM     76  C   UNL     1      14.032  -4.234  -5.718  1.00  0.00     0.001 A 
ATOM     77  C   UNL     1      14.015  -3.770  -7.032  1.00  0.00     0.000 A 
ENDBRANCH  59  72
ENDBRANCH  33  34
ENDBRANCH  25  28
ENDBRANCH  23  24
ENDBRANCH  22  23
ENDBRANCH   1  22
TORSDOF 15
