REMARK SMILES COc1ccc([C@@H](CC(=O)NCCCNC(=O)c2ccc(-c3c4nc(c(-c5ccccc5)c5ccc([nH]5)c(-c5ccccc5)c5nc(c(-c6ccccc6)c6ccc3[nH]6)C=C5)C=C4)cc2)N2C(=O)[C@H]3CC=CC[C@H]3C2=O)cc1OC
REMARK SMILES IDX 12 1 11 2 9 3 10 4 8 6 7 7 6 8 3 9 4 10 78 11 5 12 77 13
REMARK SMILES IDX 2 14 1 15 79 16 80 17 66 18 67 19 75 20 68 21 69 22 74 23
REMARK SMILES IDX 76 24 70 25 73 26 71 27 72 28 13 29 14 30 15 31 16 32 17 34
REMARK SMILES IDX 18 35 19 36 65 37 20 38 64 39 21 40 22 41 23 42 58 43 24 44
REMARK SMILES IDX 63 45 57 46 59 47 25 48 62 49 56 50 55 51 26 53 48 54 33 55
REMARK SMILES IDX 47 56 34 57 37 58 46 59 60 60 35 61 36 62 45 64 61 65 38 66
REMARK SMILES IDX 27 67 28 68 32 69 29 70 31 71 30 72 49 73 50 74 54 75 51 76
REMARK SMILES IDX 53 77 52 78 39 79 40 80 44 81 41 82 43 83 42 84
REMARK H PARENT 11 5 15 33 59 52 37 63
REMARK Flexibility Score: inf
ROOT
ATOM      1  C   UNL     1       0.375   4.992  -3.019  1.00  0.00     0.117 C 
ENDROOT
BRANCH   1   2
ATOM      2  N   UNL     1       0.027   6.344  -2.619  1.00  0.00    -0.356 N 
ATOM      3  C   UNL     1       0.493   7.088  -1.578  1.00  0.00     0.222 C 
ATOM      4  O   UNL     1      -0.257   7.979  -1.176  1.00  0.00    -0.275 OA
ATOM      5  H   UNL     1      -0.646   6.788  -3.184  1.00  0.00     0.163 HD
BRANCH   3   6
ATOM      6  C   UNL     1       1.897   6.890  -1.019  1.00  0.00     0.130 C 
BRANCH   6   7
ATOM      7  C   UNL     1       2.028   6.344   0.430  1.00  0.00     0.133 C 
BRANCH   7   8
ATOM      8  C   UNL     1       1.880   4.811   0.413  1.00  0.00    -0.020 A 
ATOM      9  C   UNL     1       1.606   1.985   0.204  1.00  0.00     0.160 A 
ATOM     10  C   UNL     1       0.581   2.765   0.741  1.00  0.00     0.051 A 
ATOM     11  C   UNL     1       2.801   2.615  -0.179  1.00  0.00     0.161 A 
ATOM     12  C   UNL     1       0.722   4.154   0.847  1.00  0.00     0.010 A 
ATOM     13  C   UNL     1       2.923   4.013  -0.082  1.00  0.00     0.056 A 
BRANCH   9  14
ATOM     14  O   UNL     1       1.474   0.646  -0.042  1.00  0.00    -0.493 OA
ATOM     15  C   UNL     1       0.427  -0.055   0.612  1.00  0.00     0.278 C 
ENDBRANCH   9  14
BRANCH  11  16
ATOM     16  O   UNL     1       3.917   2.011  -0.705  1.00  0.00    -0.493 OA
ATOM     17  C   UNL     1       4.135   0.651  -0.345  1.00  0.00     0.278 C 
ENDBRANCH  11  16
ENDBRANCH   7   8
BRANCH   7  18
ATOM     18  N   UNL     1       1.186   6.997   1.442  1.00  0.00    -0.274 N 
ATOM     19  C   UNL     1       0.854   8.316   1.459  1.00  0.00     0.234 C 
ATOM     20  C   UNL     1       1.112   6.570   2.738  1.00  0.00     0.234 C 
ATOM     21  O   UNL     1       1.371   9.215   0.809  1.00  0.00    -0.274 OA
ATOM     22  C   UNL     1      -0.176   8.546   2.543  1.00  0.00     0.095 C 
ATOM     23  C   UNL     1      -0.002   7.312   3.432  1.00  0.00     0.095 C 
ATOM     24  O   UNL     1       1.819   5.747   3.291  1.00  0.00    -0.274 OA
ATOM     25  C   UNL     1      -1.558   8.738   1.914  1.00  0.00     0.041 C 
ATOM     26  C   UNL     1      -1.201   6.362   3.555  1.00  0.00     0.041 C 
ATOM     27  C   UNL     1      -2.272   7.456   1.607  1.00  0.00    -0.030 C 
ATOM     28  C   UNL     1      -2.113   6.365   2.365  1.00  0.00    -0.030 C 
ENDBRANCH   7  18
ENDBRANCH   6   7
ENDBRANCH   3   6
ENDBRANCH   1   2
BRANCH   1  29
ATOM     29  C   UNL     1      -0.459   3.991  -2.225  1.00  0.00     0.042 C 
BRANCH  29  30
ATOM     30  C   UNL     1      -1.920   3.876  -2.635  1.00  0.00     0.118 C 
BRANCH  30  31
ATOM     31  N   UNL     1      -2.140   2.773  -3.547  1.00  0.00    -0.352 N 
ATOM     32  C   UNL     1      -2.476   1.456  -3.371  1.00  0.00     0.251 C 
ATOM     33  H   UNL     1      -2.024   3.022  -4.493  1.00  0.00     0.163 HD
ATOM     34  O   UNL     1      -2.360   0.723  -4.357  1.00  0.00    -0.269 OA
BRANCH  32  35
ATOM     35  C   UNL     1      -2.975   0.851  -2.098  1.00  0.00     0.039 A 
ATOM     36  C   UNL     1      -2.845  -0.543  -1.969  1.00  0.00     0.014 A 
ATOM     37  C   UNL     1      -3.690   1.532  -1.111  1.00  0.00     0.014 A 
ATOM     38  C   UNL     1      -3.441  -1.237  -0.907  1.00  0.00     0.010 A 
ATOM     39  C   UNL     1      -4.218   0.849  -0.001  1.00  0.00     0.010 A 
ATOM     40  C   UNL     1      -4.146  -0.549   0.089  1.00  0.00    -0.014 A 
BRANCH  40  41
ATOM     41  C   UNL     1      -4.888  -1.293   1.150  1.00  0.00     0.031 A 
ATOM     42  C   UNL     1      -6.398  -1.235   1.208  1.00  0.00     0.074 A 
ATOM     43  C   UNL     1      -4.229  -2.039   2.058  1.00  0.00     0.049 A 
ATOM     44  N   UNL     1      -7.219  -1.823   2.045  1.00  0.00    -0.248 NA
ATOM     45  C   UNL     1      -7.072  -0.396   0.205  1.00  0.00     0.031 C 
ATOM     46  C   UNL     1      -2.777  -2.189   2.140  1.00  0.00     0.029 A 
ATOM     47  N   UNL     1      -4.702  -2.822   3.086  1.00  0.00    -0.354 N 
ATOM     48  C   UNL     1      -8.496  -1.409   1.681  1.00  0.00     0.074 A 
ATOM     49  C   UNL     1      -8.340  -0.484   0.580  1.00  0.00     0.031 C 
ATOM     50  C   UNL     1      -2.478  -3.035   3.141  1.00  0.00     0.029 A 
ATOM     51  C   UNL     1      -3.713  -3.467   3.789  1.00  0.00     0.049 A 
ATOM     52  H   UNL     1      -5.659  -2.912   3.297  1.00  0.00     0.167 HD
ATOM     53  C   UNL     1      -9.697  -1.777   2.193  1.00  0.00     0.031 A 
ATOM     54  C   UNL     1      -3.787  -4.317   4.832  1.00  0.00     0.031 A 
ATOM     55  C   UNL     1      -9.876  -2.716   3.268  1.00  0.00     0.049 A 
ATOM     56  C   UNL     1      -5.130  -4.712   5.383  1.00  0.00     0.074 A 
ATOM     57  C   UNL     1     -11.058  -3.175   3.825  1.00  0.00     0.029 A 
ATOM     58  N   UNL     1      -8.845  -3.345   3.946  1.00  0.00    -0.354 N 
ATOM     59  N   UNL     1      -6.325  -4.342   4.994  1.00  0.00    -0.248 NA
ATOM     60  C   UNL     1      -5.129  -5.660   6.508  1.00  0.00     0.031 C 
ATOM     61  C   UNL     1     -10.741  -4.058   4.864  1.00  0.00     0.029 A 
ATOM     62  C   UNL     1      -9.363  -4.182   4.920  1.00  0.00     0.049 A 
ATOM     63  H   UNL     1      -7.887  -3.217   3.761  1.00  0.00     0.167 HD
ATOM     64  C   UNL     1      -7.217  -5.040   5.800  1.00  0.00     0.074 A 
ATOM     65  C   UNL     1      -6.427  -5.861   6.692  1.00  0.00     0.031 C 
ATOM     66  C   UNL     1      -8.572  -5.004   5.796  1.00  0.00     0.031 A 
BRANCH  53  67
ATOM     67  C   UNL     1     -10.925  -1.153   1.588  1.00  0.00    -0.014 A 
ATOM     68  C   UNL     1     -11.363  -1.510   0.303  1.00  0.00     0.009 A 
ATOM     69  C   UNL     1     -11.674  -0.223   2.326  1.00  0.00     0.009 A 
ATOM     70  C   UNL     1     -12.503  -0.918  -0.246  1.00  0.00     0.001 A 
ATOM     71  C   UNL     1     -12.829   0.346   1.786  1.00  0.00     0.001 A 
ATOM     72  C   UNL     1     -13.236   0.006   0.497  1.00  0.00     0.000 A 
ENDBRANCH  53  67
BRANCH  54  73
ATOM     73  C   UNL     1      -2.545  -4.889   5.415  1.00  0.00    -0.014 A 
ATOM     74  C   UNL     1      -2.226  -6.242   5.220  1.00  0.00     0.009 A 
ATOM     75  C   UNL     1      -1.687  -4.092   6.187  1.00  0.00     0.009 A 
ATOM     76  C   UNL     1      -1.086  -6.792   5.811  1.00  0.00     0.001 A 
ATOM     77  C   UNL     1      -0.534  -4.639   6.754  1.00  0.00     0.001 A 
ATOM     78  C   UNL     1      -0.240  -5.990   6.574  1.00  0.00     0.000 A 
ENDBRANCH  54  73
BRANCH  66  79
ATOM     79  C   UNL     1      -9.289  -5.918   6.750  1.00  0.00    -0.014 A 
ATOM     80  C   UNL     1      -9.312  -5.664   8.130  1.00  0.00     0.009 A 
ATOM     81  C   UNL     1      -9.976  -7.036   6.253  1.00  0.00     0.009 A 
ATOM     82  C   UNL     1      -9.979  -6.533   8.997  1.00  0.00     0.001 A 
ATOM     83  C   UNL     1     -10.664  -7.889   7.118  1.00  0.00     0.001 A 
ATOM     84  C   UNL     1     -10.656  -7.642   8.490  1.00  0.00     0.000 A 
ENDBRANCH  66  79
ENDBRANCH  40  41
ENDBRANCH  32  35
ENDBRANCH  30  31
ENDBRANCH  29  30
ENDBRANCH   1  29
TORSDOF 15
