REMARK SMILES Cc1cc(NC[C@H](C)[NH+](C)C)cc(C(=O)NCCCNC(=O)c2ccc(-c3c4nc(c(-c5ccccc5)c5ccc([nH]5)c(-c5ccccc5)c5nc(c(-c6ccccc6)c6ccc3[nH]6)C=C5)C=C4)cc2)c1N
REMARK SMILES IDX 17 1 16 2 14 3 15 4 13 6 1 7 2 8 3 9 71 10 4 11 12 12 72 13
REMARK SMILES IDX 5 16 6 18 7 19 8 20 9 21 10 22 11 23 18 25 19 26 20 27 21 28
REMARK SMILES IDX 22 30 23 31 24 32 70 33 25 34 69 35 26 36 27 37 28 38 63 39
REMARK SMILES IDX 29 40 68 41 62 42 64 43 30 44 67 45 61 46 60 47 31 49 53 50
REMARK SMILES IDX 38 51 52 52 39 53 42 54 51 55 65 56 40 57 41 58 50 60 66 61
REMARK SMILES IDX 43 62 32 63 33 64 37 65 34 66 36 67 35 68 54 69 55 70 59 71
REMARK SMILES IDX 56 72 58 73 57 74 44 75 45 76 49 77 46 78 48 79 47 80
REMARK H PARENT 16 5 72 14 72 15 5 17 9 24 20 29 64 48 42 59
REMARK Flexibility Score: inf
ROOT
ATOM      1  C   UNL     1      -4.633   6.101  -0.692  1.00  0.00     0.118 C 
ENDROOT
BRANCH   1   2
ATOM      2  N   UNL     1      -5.183   7.338  -0.161  1.00  0.00    -0.352 N 
ATOM      3  C   UNL     1      -5.724   7.688   1.056  1.00  0.00     0.253 C 
ATOM      4  O   UNL     1      -6.084   8.863   1.173  1.00  0.00    -0.269 OA
ATOM      5  H   UNL     1      -5.164   8.081  -0.806  1.00  0.00     0.163 HD
BRANCH   3   6
ATOM      6  C   UNL     1      -5.858   6.746   2.216  1.00  0.00     0.065 A 
ATOM      7  C   UNL     1      -6.056   6.800   6.038  1.00  0.00     0.046 C 
ATOM      8  C   UNL     1      -5.985   6.328   4.610  1.00  0.00    -0.025 A 
ATOM      9  C   UNL     1      -5.996   4.942   4.351  1.00  0.00     0.031 A 
ATOM     10  C   UNL     1      -5.909   7.246   3.539  1.00  0.00     0.047 A 
ATOM     11  C   UNL     1      -5.963   4.442   3.051  1.00  0.00     0.035 A 
ATOM     12  C   UNL     1      -5.990   5.370   2.011  1.00  0.00     0.041 A 
BRANCH  10  13
ATOM     13  N   UNL     1      -5.737   8.609   3.806  1.00  0.00    -0.398 N 
ATOM     14  H   UNL     1      -5.775   8.937   4.733  1.00  0.00     0.156 HD
ATOM     15  H   UNL     1      -5.577   9.239   3.067  1.00  0.00     0.156 HD
ENDBRANCH  10  13
BRANCH  11  16
ATOM     16  N   UNL     1      -5.922   3.073   2.821  1.00  0.00    -0.379 N 
ATOM     17  H   UNL     1      -6.165   2.453   3.546  1.00  0.00     0.160 HD
BRANCH  16  18
ATOM     18  C   UNL     1      -5.523   2.537   1.518  1.00  0.00     0.177 C 
BRANCH  18  19
ATOM     19  C   UNL     1      -5.364   0.989   1.503  1.00  0.00     0.199 C 
ATOM     20  C   UNL     1      -4.461   0.603   0.316  1.00  0.00     0.077 C 
BRANCH  19  21
ATOM     21  N   UNL     1      -6.604   0.173   1.489  1.00  0.00    -0.336 N 
ATOM     22  C   UNL     1      -7.403   0.343   2.702  1.00  0.00     0.332 C 
ATOM     23  C   UNL     1      -7.448   0.360   0.309  1.00  0.00     0.332 C 
ATOM     24  H   UNL     1      -6.256  -0.785   1.451  1.00  0.00     0.347 HD
ENDBRANCH  19  21
ENDBRANCH  18  19
ENDBRANCH  16  18
ENDBRANCH  11  16
ENDBRANCH   3   6
ENDBRANCH   1   2
BRANCH   1  25
ATOM     25  C   UNL     1      -5.670   5.358  -1.541  1.00  0.00     0.042 C 
BRANCH  25  26
ATOM     26  C   UNL     1      -5.877   5.980  -2.918  1.00  0.00     0.118 C 
BRANCH  26  27
ATOM     27  N   UNL     1      -4.734   5.755  -3.790  1.00  0.00    -0.352 N 
ATOM     28  C   UNL     1      -4.670   5.150  -5.020  1.00  0.00     0.251 C 
ATOM     29  H   UNL     1      -3.874   6.087  -3.444  1.00  0.00     0.163 HD
ATOM     30  O   UNL     1      -3.577   4.853  -5.492  1.00  0.00    -0.269 OA
BRANCH  28  31
ATOM     31  C   UNL     1      -5.904   4.845  -5.777  1.00  0.00     0.039 A 
ATOM     32  C   UNL     1      -5.980   3.636  -6.476  1.00  0.00     0.014 A 
ATOM     33  C   UNL     1      -6.959   5.758  -5.845  1.00  0.00     0.014 A 
ATOM     34  C   UNL     1      -7.133   3.321  -7.199  1.00  0.00     0.010 A 
ATOM     35  C   UNL     1      -8.134   5.415  -6.510  1.00  0.00     0.010 A 
ATOM     36  C   UNL     1      -8.231   4.196  -7.199  1.00  0.00    -0.014 A 
BRANCH  36  37
ATOM     37  C   UNL     1      -9.489   3.857  -7.910  1.00  0.00     0.031 A 
ATOM     38  C   UNL     1      -9.949   4.690  -9.074  1.00  0.00     0.074 A 
ATOM     39  C   UNL     1     -10.254   2.844  -7.460  1.00  0.00     0.049 A 
ATOM     40  N   UNL     1     -11.060   4.605  -9.761  1.00  0.00    -0.248 NA
ATOM     41  C   UNL     1      -9.056   5.777  -9.507  1.00  0.00     0.031 C 
ATOM     42  C   UNL     1      -9.934   1.981  -6.321  1.00  0.00     0.029 A 
ATOM     43  N   UNL     1     -11.466   2.376  -7.902  1.00  0.00    -0.354 N 
ATOM     44  C   UNL     1     -11.009   5.638 -10.690  1.00  0.00     0.074 A 
ATOM     45  C   UNL     1      -9.779   6.361 -10.451  1.00  0.00     0.031 C 
ATOM     46  C   UNL     1     -10.916   1.079  -6.164  1.00  0.00     0.029 A 
ATOM     47  C   UNL     1     -11.952   1.325  -7.162  1.00  0.00     0.049 A 
ATOM     48  H   UNL     1     -11.942   2.757  -8.675  1.00  0.00     0.167 HD
ATOM     49  C   UNL     1     -11.900   5.948 -11.662  1.00  0.00     0.031 A 
ATOM     50  C   UNL     1     -13.108   0.644  -7.267  1.00  0.00     0.031 A 
ATOM     51  C   UNL     1     -13.117   5.221 -11.906  1.00  0.00     0.049 A 
ATOM     52  C   UNL     1     -14.085   1.014  -8.347  1.00  0.00     0.074 A 
ATOM     53  C   UNL     1     -14.055   5.422 -12.904  1.00  0.00     0.029 A 
ATOM     54  N   UNL     1     -13.565   4.154 -11.143  1.00  0.00    -0.354 N 
ATOM     55  N   UNL     1     -13.993   1.954  -9.256  1.00  0.00    -0.248 NA
ATOM     56  C   UNL     1     -15.321   0.223  -8.421  1.00  0.00     0.031 C 
ATOM     57  C   UNL     1     -15.096   4.507 -12.715  1.00  0.00     0.029 A 
ATOM     58  C   UNL     1     -14.778   3.701 -11.633  1.00  0.00     0.049 A 
ATOM     59  H   UNL     1     -13.091   3.775 -10.368  1.00  0.00     0.167 HD
ATOM     60  C   UNL     1     -15.144   1.851 -10.025  1.00  0.00     0.074 A 
ATOM     61  C   UNL     1     -15.912   0.747  -9.486  1.00  0.00     0.031 C 
ATOM     62  C   UNL     1     -15.529   2.602 -11.085  1.00  0.00     0.031 A 
BRANCH  49  63
ATOM     63  C   UNL     1     -11.593   7.137 -12.530  1.00  0.00    -0.014 A 
ATOM     64  C   UNL     1     -10.551   7.103 -13.471  1.00  0.00     0.009 A 
ATOM     65  C   UNL     1     -12.382   8.294 -12.434  1.00  0.00     0.009 A 
ATOM     66  C   UNL     1     -10.283   8.216 -14.271  1.00  0.00     0.001 A 
ATOM     67  C   UNL     1     -12.129   9.395 -13.255  1.00  0.00     0.001 A 
ATOM     68  C   UNL     1     -11.074   9.358 -14.166  1.00  0.00     0.000 A 
ENDBRANCH  49  63
BRANCH  50  69
ATOM     69  C   UNL     1     -13.403  -0.467  -6.324  1.00  0.00    -0.014 A 
ATOM     70  C   UNL     1     -13.387  -1.798  -6.767  1.00  0.00     0.009 A 
ATOM     71  C   UNL     1     -13.699  -0.203  -4.978  1.00  0.00     0.009 A 
ATOM     72  C   UNL     1     -13.687  -2.840  -5.887  1.00  0.00     0.001 A 
ATOM     73  C   UNL     1     -13.970  -1.249  -4.093  1.00  0.00     0.001 A 
ATOM     74  C   UNL     1     -13.972  -2.565  -4.550  1.00  0.00     0.000 A 
ENDBRANCH  50  69
BRANCH  62  75
ATOM     75  C   UNL     1     -16.823   2.234 -11.755  1.00  0.00    -0.014 A 
ATOM     76  C   UNL     1     -18.059   2.507 -11.151  1.00  0.00     0.009 A 
ATOM     77  C   UNL     1     -16.801   1.650 -13.031  1.00  0.00     0.009 A 
ATOM     78  C   UNL     1     -19.249   2.174 -11.801  1.00  0.00     0.001 A 
ATOM     79  C   UNL     1     -17.992   1.345 -13.691  1.00  0.00     0.001 A 
ATOM     80  C   UNL     1     -19.215   1.599 -13.072  1.00  0.00     0.000 A 
ENDBRANCH  62  75
ENDBRANCH  36  37
ENDBRANCH  28  31
ENDBRANCH  26  27
ENDBRANCH  25  26
ENDBRANCH   1  25
TORSDOF 15
