REMARK SMILES Cc1[nH]c2c(C(=O)N3CC[C@H](O)C[C@@H]3C(=O)NCCCNC(=O)c3ccc(-c4c5nc(c(-c6ccccc6)c6ccc([nH]6)c(-c6ccccc6)c6nc(c(-c7ccccc7)c7ccc4[nH]7)C=C6)C=C5)cc3)cccc2c1C
REMARK SMILES IDX 19 1 18 2 17 3 15 4 16 5 14 7 8 8 9 9 10 10 13 11 11 12 6 13
REMARK SMILES IDX 7 14 5 15 1 16 2 17 3 18 76 19 4 20 75 22 77 23 74 24 72 25
REMARK SMILES IDX 73 26 12 27 20 29 21 30 22 31 23 33 24 34 25 35 71 36 26 37
REMARK SMILES IDX 70 38 27 39 28 40 29 41 64 42 30 43 69 44 63 45 65 46 31 47
REMARK SMILES IDX 68 48 62 49 61 50 32 52 54 53 39 54 53 55 40 56 43 57 52 58
REMARK SMILES IDX 66 59 41 60 42 61 51 63 67 64 44 65 33 66 34 67 38 68 35 69
REMARK SMILES IDX 37 70 36 71 55 72 56 73 60 74 57 75 59 76 58 77 45 78 46 79
REMARK SMILES IDX 50 80 47 81 49 82 48 83
REMARK H PARENT 17 6 3 21 12 28 21 32 65 51 43 62
REMARK Flexibility Score: inf
ROOT
ATOM      1  C   UNL     1      -3.263  -4.516  -1.323  1.00  0.00     0.042 C 
ENDROOT
BRANCH   1   2
ATOM      2  C   UNL     1      -2.130  -3.770  -0.638  1.00  0.00     0.117 C 
BRANCH   2   3
ATOM      3  N   UNL     1      -2.011  -4.089   0.773  1.00  0.00    -0.354 N 
ATOM      4  C   UNL     1      -0.978  -4.593   1.500  1.00  0.00     0.242 C 
ATOM      5  O   UNL     1      -1.294  -5.083   2.593  1.00  0.00    -0.273 OA
ATOM      6  H   UNL     1      -2.824  -3.907   1.298  1.00  0.00     0.163 HD
BRANCH   4   7
ATOM      7  C   UNL     1       0.499  -4.673   1.022  1.00  0.00     0.177 C 
ATOM      8  N   UNL     1       0.987  -3.646   0.096  1.00  0.00    -0.326 N 
ATOM      9  C   UNL     1       1.169  -3.963  -1.322  1.00  0.00     0.123 C 
ATOM     10  C   UNL     1       0.822  -5.383  -1.813  1.00  0.00     0.053 C 
ATOM     11  C   UNL     1       0.928  -6.079   0.626  1.00  0.00     0.067 C 
ATOM     12  C   UNL     1       0.455  -6.432  -0.765  1.00  0.00     0.118 C 
BRANCH   8  13
ATOM     13  C   UNL     1       1.872  -2.701   0.635  1.00  0.00     0.256 C 
ATOM     14  O   UNL     1       2.749  -3.002   1.440  1.00  0.00    -0.269 OA
BRANCH  13  15
ATOM     15  C   UNL     1       1.726  -1.285   0.232  1.00  0.00     0.064 A 
ATOM     16  C   UNL     1      -3.129  -0.266   0.805  1.00  0.00     0.064 C 
ATOM     17  C   UNL     1      -1.687  -0.047   0.526  1.00  0.00     0.016 A 
ATOM     18  N   UNL     1      -0.759  -1.051   0.646  1.00  0.00    -0.358 N 
ATOM     19  C   UNL     1      -1.012   1.101   0.150  1.00  0.00    -0.023 A 
ATOM     20  C   UNL     1       0.491  -0.615   0.281  1.00  0.00     0.059 A 
ATOM     21  H   UNL     1      -0.964  -1.964   0.953  1.00  0.00     0.166 HD
ATOM     22  C   UNL     1       0.372   0.752   0.022  1.00  0.00     0.003 A 
ATOM     23  C   UNL     1      -1.601   2.453  -0.052  1.00  0.00     0.047 C 
ATOM     24  C   UNL     1       1.539   1.488  -0.270  1.00  0.00     0.010 A 
ATOM     25  C   UNL     1       2.873  -0.522  -0.033  1.00  0.00     0.016 A 
ATOM     26  C   UNL     1       2.781   0.845  -0.284  1.00  0.00     0.002 A 
ENDBRANCH  13  15
ENDBRANCH   8  13
BRANCH  12  27
ATOM     27  O   UNL     1      -0.956  -6.629  -0.765  1.00  0.00    -0.393 OA
ATOM     28  H   UNL     1      -1.398  -5.802  -0.518  1.00  0.00     0.210 HD
ENDBRANCH  12  27
ENDBRANCH   4   7
ENDBRANCH   2   3
ENDBRANCH   1   2
BRANCH   1  29
ATOM     29  C   UNL     1      -4.632  -3.986  -0.940  1.00  0.00     0.118 C 
BRANCH  29  30
ATOM     30  N   UNL     1      -4.890  -2.648  -1.464  1.00  0.00    -0.352 N 
ATOM     31  C   UNL     1      -5.648  -2.215  -2.523  1.00  0.00     0.251 C 
ATOM     32  H   UNL     1      -4.440  -1.927  -0.968  1.00  0.00     0.163 HD
ATOM     33  O   UNL     1      -5.590  -1.038  -2.872  1.00  0.00    -0.269 OA
BRANCH  31  34
ATOM     34  C   UNL     1      -6.500  -3.161  -3.270  1.00  0.00     0.039 A 
ATOM     35  C   UNL     1      -6.573  -3.066  -4.662  1.00  0.00     0.014 A 
ATOM     36  C   UNL     1      -7.218  -4.149  -2.602  1.00  0.00     0.014 A 
ATOM     37  C   UNL     1      -7.293  -4.021  -5.384  1.00  0.00     0.010 A 
ATOM     38  C   UNL     1      -7.809  -5.174  -3.322  1.00  0.00     0.010 A 
ATOM     39  C   UNL     1      -7.873  -5.112  -4.721  1.00  0.00    -0.014 A 
BRANCH  39  40
ATOM     40  C   UNL     1      -8.604  -6.184  -5.441  1.00  0.00     0.031 A 
ATOM     41  C   UNL     1     -10.039  -6.465  -5.080  1.00  0.00     0.074 A 
ATOM     42  C   UNL     1      -7.961  -6.964  -6.331  1.00  0.00     0.049 A 
ATOM     43  N   UNL     1     -10.807  -7.459  -5.447  1.00  0.00    -0.248 NA
ATOM     44  C   UNL     1     -10.679  -5.533  -4.135  1.00  0.00     0.031 C 
ATOM     45  C   UNL     1      -6.558  -6.828  -6.730  1.00  0.00     0.029 A 
ATOM     46  N   UNL     1      -8.407  -8.041  -7.054  1.00  0.00    -0.354 N 
ATOM     47  C   UNL     1     -11.989  -7.300  -4.734  1.00  0.00     0.074 A 
ATOM     48  C   UNL     1     -11.819  -6.152  -3.874  1.00  0.00     0.031 C 
ATOM     49  C   UNL     1      -6.270  -7.761  -7.652  1.00  0.00     0.029 A 
ATOM     50  C   UNL     1      -7.450  -8.588  -7.874  1.00  0.00     0.049 A 
ATOM     51  H   UNL     1      -9.326  -8.388  -6.991  1.00  0.00     0.167 HD
ATOM     52  C   UNL     1     -13.128  -8.027  -4.808  1.00  0.00     0.031 A 
ATOM     53  C   UNL     1      -7.519  -9.643  -8.707  1.00  0.00     0.031 A 
ATOM     54  C   UNL     1     -13.316  -9.126  -5.713  1.00  0.00     0.049 A 
ATOM     55  C   UNL     1      -8.812 -10.403  -8.814  1.00  0.00     0.074 A 
ATOM     56  C   UNL     1     -14.453  -9.883  -5.929  1.00  0.00     0.029 A 
ATOM     57  N   UNL     1     -12.338  -9.611  -6.568  1.00  0.00    -0.354 N 
ATOM     58  N   UNL     1      -9.938 -10.212  -8.169  1.00  0.00    -0.248 NA
ATOM     59  C   UNL     1      -8.846 -11.517  -9.771  1.00  0.00     0.031 C 
ATOM     60  C   UNL     1     -14.154 -10.846  -6.898  1.00  0.00     0.029 A 
ATOM     61  C   UNL     1     -12.845 -10.660  -7.314  1.00  0.00     0.049 A 
ATOM     62  H   UNL     1     -11.421  -9.260  -6.636  1.00  0.00     0.167 HD
ATOM     63  C   UNL     1     -10.823 -11.160  -8.664  1.00  0.00     0.074 A 
ATOM     64  C   UNL     1     -10.106 -11.917  -9.670  1.00  0.00     0.031 C 
ATOM     65  C   UNL     1     -12.113 -11.386  -8.318  1.00  0.00     0.031 A 
BRANCH  52  66
ATOM     66  C   UNL     1     -14.255  -7.640  -3.891  1.00  0.00    -0.014 A 
ATOM     67  C   UNL     1     -14.954  -6.434  -4.062  1.00  0.00     0.009 A 
ATOM     68  C   UNL     1     -14.624  -8.494  -2.840  1.00  0.00     0.009 A 
ATOM     69  C   UNL     1     -15.965  -6.069  -3.172  1.00  0.00     0.001 A 
ATOM     70  C   UNL     1     -15.658  -8.141  -1.971  1.00  0.00     0.001 A 
ATOM     71  C   UNL     1     -16.319  -6.924  -2.129  1.00  0.00     0.000 A 
ENDBRANCH  52  66
BRANCH  53  72
ATOM     72  C   UNL     1      -6.343 -10.022  -9.531  1.00  0.00    -0.014 A 
ATOM     73  C   UNL     1      -6.342  -9.783 -10.914  1.00  0.00     0.009 A 
ATOM     74  C   UNL     1      -5.216 -10.622  -8.947  1.00  0.00     0.009 A 
ATOM     75  C   UNL     1      -5.251 -10.160 -11.699  1.00  0.00     0.001 A 
ATOM     76  C   UNL     1      -4.115 -10.974  -9.731  1.00  0.00     0.001 A 
ATOM     77  C   UNL     1      -4.137 -10.752 -11.107  1.00  0.00     0.000 A 
ENDBRANCH  53  72
BRANCH  65  78
ATOM     78  C   UNL     1     -12.845 -12.462  -9.065  1.00  0.00    -0.014 A 
ATOM     79  C   UNL     1     -12.599 -13.819  -8.812  1.00  0.00     0.009 A 
ATOM     80  C   UNL     1     -13.835 -12.106  -9.995  1.00  0.00     0.009 A 
ATOM     81  C   UNL     1     -13.314 -14.802  -9.497  1.00  0.00     0.001 A 
ATOM     82  C   UNL     1     -14.565 -13.091 -10.659  1.00  0.00     0.001 A 
ATOM     83  C   UNL     1     -14.299 -14.438 -10.415  1.00  0.00     0.000 A 
ENDBRANCH  65  78
ENDBRANCH  39  40
ENDBRANCH  31  34
ENDBRANCH  29  30
ENDBRANCH   1  29
TORSDOF 13
