REMARK SMILES CC[C@@H]1CCC[N@H+]([C@@H]2CC[C@]([NH2+]C3CC3)(C(=O)NCCCNC(=O)c3ccc(-c4c5nc(c(-c6ccccc6)c6ccc([nH]6)c(-c6ccccc6)c6nc(c(-c7ccccc7)c7ccc4[nH]7)C=C6)C=C5)cc3)C2)CC1
REMARK SMILES IDX 16 1 17 2 18 3 11 5 8 6 9 7 73 8 10 9 7 10 74 12 75 13 3 14
REMARK SMILES IDX 2 16 1 17 6 18 5 19 4 20 12 22 13 25 14 26 15 27 19 28 20 29
REMARK SMILES IDX 21 30 22 31 23 32 24 34 25 35 26 36 72 37 27 38 71 39 28 40
REMARK SMILES IDX 29 41 30 42 65 43 31 44 70 45 64 46 66 47 32 48 69 49 63 50
REMARK SMILES IDX 62 51 33 53 55 54 40 55 54 56 41 57 44 58 53 59 67 60 42 61
REMARK SMILES IDX 43 62 52 64 68 65 45 66 34 67 35 68 39 69 36 70 38 71 37 72
REMARK SMILES IDX 56 73 57 74 61 75 58 76 60 77 59 78 46 79 47 80 51 81 48 82
REMARK SMILES IDX 50 83 49 84
REMARK H PARENT 18 4 7 11 12 23 12 24 22 33 66 52 44 63
REMARK Flexibility Score: 80.00
ROOT
ATOM      1  C   UNL     1       2.057   3.737   7.362  1.00  0.00     0.281 C 
ATOM      2  O   UNL     1       1.280   4.518   7.925  1.00  0.00    -0.268 OA
ATOM      3  N   UNL     1       3.056   4.323   6.637  1.00  0.00    -0.351 N 
ATOM      4  H   UNL     1       3.009   5.306   6.603  1.00  0.00     0.163 HD
ENDROOT
BRANCH   1   5
ATOM      5  C   UNL     1       1.958   2.182   7.586  1.00  0.00     0.181 C 
ATOM      6  C   UNL     1       1.257   0.194   6.320  1.00  0.00     0.191 C 
ATOM      7  C   UNL     1      -0.004   0.767   6.964  1.00  0.00     0.072 C 
ATOM      8  C   UNL     1       2.205   1.389   6.295  1.00  0.00     0.144 C 
ATOM      9  C   UNL     1       0.491   1.812   7.973  1.00  0.00     0.085 C 
BRANCH   6  10
ATOM     10  N   UNL     1       1.113  -0.468   5.012  1.00  0.00    -0.332 N 
ATOM     11  H   UNL     1       2.058  -0.728   4.730  1.00  0.00     0.348 HD
BRANCH  10  12
ATOM     12  C   UNL     1       0.728   0.419   3.912  1.00  0.00     0.262 C 
BRANCH  12  13
ATOM     13  C   UNL     1       0.034  -0.168   2.682  1.00  0.00     0.065 C 
BRANCH  13  14
ATOM     14  C   UNL     1       0.830  -1.282   1.988  1.00  0.00    -0.006 CG0
ATOM     15  G   UNL     1       0.550  -2.636   2.660  1.00  0.00     0.000 G0
BRANCH  14  16
ATOM     16  C   UNL     1       0.451  -1.377   0.492  1.00  0.00     0.000 C 
ATOM     17  C   UNL     1       0.978  -0.215  -0.343  1.00  0.00     0.004 C 
ENDBRANCH  14  16
ENDBRANCH  13  14
ENDBRANCH  12  13
ENDBRANCH  10  12
BRANCH  10  18
ATOM     18  C   UNL     1       0.419  -1.748   5.092  1.00  0.00     0.262 C 
BRANCH  18  19
ATOM     19  C   UNL     1       1.018  -2.758   4.108  1.00  0.00     0.062 C 
BRANCH  19  20
ATOM     20  C   UNL     1       0.550  -2.636   2.660  1.00  0.00     0.009 CG0
ATOM     21  G   UNL     1       0.830  -1.282   1.988  1.00  0.00     0.000 G0
ENDBRANCH  19  20
ENDBRANCH  18  19
ENDBRANCH  10  18
ENDBRANCH   6  10
BRANCH   5  22
ATOM     22  N   UNL     1       2.905   1.889   8.693  1.00  0.00    -0.331 N 
ATOM     23  H   UNL     1       2.599   2.419   9.509  1.00  0.00     0.347 HD
ATOM     24  H   UNL     1       3.824   2.148   8.332  1.00  0.00     0.347 HD
BRANCH  22  25
ATOM     25  C   UNL     1       3.037   0.487   9.100  1.00  0.00     0.183 C 
ATOM     26  C   UNL     1       4.235  -0.293   8.642  1.00  0.00     0.071 C 
ATOM     27  C   UNL     1       4.120   0.123  10.078  1.00  0.00     0.071 C 
ENDBRANCH  22  25
ENDBRANCH   5  22
ENDBRANCH   1   5
BRANCH   3  28
ATOM     28  C   UNL     1       4.175   3.752   5.910  1.00  0.00     0.118 C 
BRANCH  28  29
ATOM     29  C   UNL     1       3.902   3.688   4.404  1.00  0.00     0.042 C 
BRANCH  29  30
ATOM     30  C   UNL     1       4.112   5.016   3.684  1.00  0.00     0.118 C 
BRANCH  30  31
ATOM     31  N   UNL     1       5.520   5.349   3.562  1.00  0.00    -0.352 N 
ATOM     32  C   UNL     1       6.269   5.642   2.450  1.00  0.00     0.251 C 
ATOM     33  H   UNL     1       6.016   5.367   4.412  1.00  0.00     0.163 HD
ATOM     34  O   UNL     1       7.493   5.683   2.549  1.00  0.00    -0.269 OA
BRANCH  32  35
ATOM     35  C   UNL     1       5.636   5.913   1.137  1.00  0.00     0.039 A 
ATOM     36  C   UNL     1       6.304   5.495  -0.019  1.00  0.00     0.014 A 
ATOM     37  C   UNL     1       4.454   6.650   1.024  1.00  0.00     0.014 A 
ATOM     38  C   UNL     1       5.786   5.802  -1.280  1.00  0.00     0.010 A 
ATOM     39  C   UNL     1       3.901   6.899  -0.232  1.00  0.00     0.010 A 
ATOM     40  C   UNL     1       4.576   6.503  -1.396  1.00  0.00    -0.014 A 
BRANCH  40  41
ATOM     41  C   UNL     1       4.042   6.887  -2.727  1.00  0.00     0.031 A 
ATOM     42  C   UNL     1       3.976   8.339  -3.121  1.00  0.00     0.074 A 
ATOM     43  C   UNL     1       3.586   5.940  -3.569  1.00  0.00     0.049 A 
ATOM     44  N   UNL     1       3.509   8.879  -4.218  1.00  0.00    -0.248 NA
ATOM     45  C   UNL     1       4.481   9.314  -2.140  1.00  0.00     0.031 C 
ATOM     46  C   UNL     1       3.567   4.502  -3.298  1.00  0.00     0.029 A 
ATOM     47  N   UNL     1       3.051   6.051  -4.827  1.00  0.00    -0.354 N 
ATOM     48  C   UNL     1       3.637  10.252  -4.047  1.00  0.00     0.074 A 
ATOM     49  C   UNL     1       4.187  10.465  -2.726  1.00  0.00     0.031 C 
ATOM     50  C   UNL     1       3.072   3.861  -4.370  1.00  0.00     0.029 A 
ATOM     51  C   UNL     1       2.714   4.844  -5.389  1.00  0.00     0.049 A 
ATOM     52  H   UNL     1       2.921   6.913  -5.284  1.00  0.00     0.167 HD
ATOM     53  C   UNL     1       3.342  11.249  -4.916  1.00  0.00     0.031 A 
ATOM     54  C   UNL     1       2.181   4.560  -6.592  1.00  0.00     0.031 A 
ATOM     55  C   UNL     1       2.820  11.040  -6.240  1.00  0.00     0.049 A 
ATOM     56  C   UNL     1       1.888   5.680  -7.550  1.00  0.00     0.074 A 
ATOM     57  C   UNL     1       2.529  11.981  -7.213  1.00  0.00     0.029 A 
ATOM     58  N   UNL     1       2.519   9.800  -6.779  1.00  0.00    -0.354 N 
ATOM     59  N   UNL     1       2.057   6.970  -7.390  1.00  0.00    -0.248 NA
ATOM     60  C   UNL     1       1.348   5.300  -8.863  1.00  0.00     0.031 C 
ATOM     61  C   UNL     1       2.025  11.309  -8.332  1.00  0.00     0.029 A 
ATOM     62  C   UNL     1       2.042   9.949  -8.069  1.00  0.00     0.049 A 
ATOM     63  H   UNL     1       2.629   8.939  -6.313  1.00  0.00     0.167 HD
ATOM     64  C   UNL     1       1.673   7.553  -8.590  1.00  0.00     0.074 A 
ATOM     65  C   UNL     1       1.274   6.476  -9.472  1.00  0.00     0.031 C 
ATOM     66  C   UNL     1       1.657   8.864  -8.933  1.00  0.00     0.031 A 
BRANCH  53  67
ATOM     67  C   UNL     1       3.576  12.659  -4.449  1.00  0.00    -0.014 A 
ATOM     68  C   UNL     1       4.875  13.166  -4.290  1.00  0.00     0.009 A 
ATOM     69  C   UNL     1       2.482  13.495  -4.176  1.00  0.00     0.009 A 
ATOM     70  C   UNL     1       5.075  14.468  -3.825  1.00  0.00     0.001 A 
ATOM     71  C   UNL     1       2.685  14.806  -3.739  1.00  0.00     0.001 A 
ATOM     72  C   UNL     1       3.980  15.287  -3.553  1.00  0.00     0.000 A 
ENDBRANCH  53  67
BRANCH  54  73
ATOM     73  C   UNL     1       1.929   3.148  -6.976  1.00  0.00    -0.014 A 
ATOM     74  C   UNL     1       2.754   2.513  -7.917  1.00  0.00     0.009 A 
ATOM     75  C   UNL     1       0.868   2.429  -6.406  1.00  0.00     0.009 A 
ATOM     76  C   UNL     1       2.508   1.192  -8.296  1.00  0.00     0.001 A 
ATOM     77  C   UNL     1       0.639   1.100  -6.769  1.00  0.00     0.001 A 
ATOM     78  C   UNL     1       1.454   0.485  -7.719  1.00  0.00     0.000 A 
ENDBRANCH  54  73
BRANCH  66  79
ATOM     79  C   UNL     1       1.234   9.198 -10.335  1.00  0.00    -0.014 A 
ATOM     80  C   UNL     1      -0.110   9.122 -10.729  1.00  0.00     0.009 A 
ATOM     81  C   UNL     1       2.196   9.622 -11.265  1.00  0.00     0.009 A 
ATOM     82  C   UNL     1      -0.477   9.431 -12.040  1.00  0.00     0.001 A 
ATOM     83  C   UNL     1       1.822   9.955 -12.567  1.00  0.00     0.001 A 
ATOM     84  C   UNL     1       0.488   9.850 -12.956  1.00  0.00     0.000 A 
ENDBRANCH  66  79
ENDBRANCH  40  41
ENDBRANCH  32  35
ENDBRANCH  30  31
ENDBRANCH  29  30
ENDBRANCH  28  29
ENDBRANCH   3  28
TORSDOF 14
