REMARK SMILES O=C(CCn1ccnc1)N[C@H]1C=C[C@@H](C(=O)NCCCNC(=O)c2ccc(-c3c4nc(c(-c5ccccc5)c5ccc([nH]5)c(-c5ccccc5)c5nc(c(-c6ccccc6)c6ccc3[nH]6)C=C5)C=C4)cc2)C1
REMARK SMILES IDX 18 1 17 2 15 3 16 4 14 6 11 7 12 8 72 9 13 10 10 11 1 12
REMARK SMILES IDX 2 13 3 15 4 16 5 17 6 18 9 19 7 20 8 21 19 22 20 23 21 24
REMARK SMILES IDX 22 25 23 27 24 28 25 29 71 30 26 31 70 32 27 33 28 34 29 35
REMARK SMILES IDX 64 36 30 37 69 38 63 39 65 40 31 41 68 42 62 43 61 44 32 46
REMARK SMILES IDX 54 47 39 48 53 49 40 50 43 51 52 52 66 53 41 54 42 55 51 57
REMARK SMILES IDX 67 58 44 59 33 60 34 61 38 62 35 63 37 64 36 65 55 66 56 67
REMARK SMILES IDX 60 68 57 69 59 70 58 71 45 72 46 73 50 74 47 75 49 76 48 77
REMARK H PARENT 17 5 10 14 21 26 65 45 43 56
REMARK Flexibility Score: inf
ROOT
ATOM      1  C   UNL     1       5.186  -4.643   1.050  1.00  0.00     0.117 C 
ENDROOT
BRANCH   1   2
ATOM      2  N   UNL     1       4.516  -5.264   2.186  1.00  0.00    -0.356 N 
ATOM      3  C   UNL     1       3.217  -5.245   2.596  1.00  0.00     0.227 C 
ATOM      4  O   UNL     1       2.948  -5.869   3.629  1.00  0.00    -0.274 OA
ATOM      5  H   UNL     1       5.112  -5.795   2.762  1.00  0.00     0.163 HD
BRANCH   3   6
ATOM      6  C   UNL     1       2.113  -4.480   1.859  1.00  0.00     0.103 C 
ATOM      7  C   UNL     1       1.789  -2.411   0.595  1.00  0.00     0.106 C 
ATOM      8  C   UNL     1       1.916  -3.594  -0.307  1.00  0.00    -0.006 C 
ATOM      9  C   UNL     1       2.234  -2.956   1.958  1.00  0.00     0.047 C 
ATOM     10  C   UNL     1       2.055  -4.732   0.383  1.00  0.00    -0.016 C 
BRANCH   7  11
ATOM     11  N   UNL     1       2.635  -1.344   0.113  1.00  0.00    -0.350 N 
ATOM     12  O   UNL     1       1.186   0.323   0.730  1.00  0.00    -0.275 OA
ATOM     13  C   UNL     1       2.240  -0.030   0.209  1.00  0.00     0.222 C 
ATOM     14  H   UNL     1       3.506  -1.560  -0.291  1.00  0.00     0.164 HD
BRANCH  13  15
ATOM     15  C   UNL     1       3.218   0.982  -0.340  1.00  0.00     0.122 C 
BRANCH  15  16
ATOM     16  C   UNL     1       3.848   1.775   0.799  1.00  0.00     0.133 C 
BRANCH  16  17
ATOM     17  N   UNL     1       4.967   1.080   1.405  1.00  0.00    -0.337 N 
ATOM     18  C   UNL     1       6.292   1.344   1.204  1.00  0.00     0.107 A 
ATOM     19  C   UNL     1       4.883   0.043   2.288  1.00  0.00     0.199 A 
ATOM     20  C   UNL     1       6.960   0.390   1.937  1.00  0.00     0.130 A 
ATOM     21  N   UNL     1       6.073  -0.417   2.600  1.00  0.00    -0.245 NA
ENDBRANCH  16  17
ENDBRANCH  15  16
ENDBRANCH  13  15
ENDBRANCH   7  11
ENDBRANCH   3   6
ENDBRANCH   1   2
BRANCH   1  22
ATOM     22  C   UNL     1       5.943  -3.371   1.428  1.00  0.00     0.042 C 
BRANCH  22  23
ATOM     23  C   UNL     1       7.271  -3.652   2.100  1.00  0.00     0.118 C 
BRANCH  23  24
ATOM     24  N   UNL     1       8.307  -4.159   1.187  1.00  0.00    -0.352 N 
ATOM     25  C   UNL     1       9.635  -4.471   1.472  1.00  0.00     0.251 C 
ATOM     26  H   UNL     1       8.026  -4.296   0.253  1.00  0.00     0.163 HD
ATOM     27  O   UNL     1      10.466  -4.549   0.588  1.00  0.00    -0.269 OA
BRANCH  25  28
ATOM     28  C   UNL     1      10.011  -4.706   2.882  1.00  0.00     0.039 A 
ATOM     29  C   UNL     1      11.253  -4.359   3.422  1.00  0.00     0.014 A 
ATOM     30  C   UNL     1       9.035  -5.260   3.691  1.00  0.00     0.014 A 
ATOM     31  C   UNL     1      11.450  -4.535   4.794  1.00  0.00     0.010 A 
ATOM     32  C   UNL     1       9.106  -5.090   5.036  1.00  0.00     0.010 A 
ATOM     33  C   UNL     1      10.354  -4.901   5.591  1.00  0.00    -0.014 A 
BRANCH  33  34
ATOM     34  C   UNL     1      10.418  -5.072   7.031  1.00  0.00     0.031 A 
ATOM     35  C   UNL     1      10.829  -3.860   7.764  1.00  0.00     0.074 A 
ATOM     36  C   UNL     1       9.872  -6.137   7.664  1.00  0.00     0.049 A 
ATOM     37  N   UNL     1      11.973  -3.634   8.315  1.00  0.00    -0.248 NA
ATOM     38  C   UNL     1       9.927  -2.698   7.740  1.00  0.00     0.031 C 
ATOM     39  C   UNL     1       9.091  -7.246   7.091  1.00  0.00     0.029 A 
ATOM     40  N   UNL     1       9.792  -6.384   8.997  1.00  0.00    -0.354 N 
ATOM     41  C   UNL     1      11.850  -2.393   8.923  1.00  0.00     0.074 A 
ATOM     42  C   UNL     1      10.686  -1.777   8.338  1.00  0.00     0.031 C 
ATOM     43  C   UNL     1       8.435  -7.900   8.076  1.00  0.00     0.029 A 
ATOM     44  C   UNL     1       8.888  -7.380   9.351  1.00  0.00     0.049 A 
ATOM     45  H   UNL     1      10.332  -5.897   9.660  1.00  0.00     0.167 HD
ATOM     46  C   UNL     1      12.525  -2.114  10.074  1.00  0.00     0.031 A 
ATOM     47  C   UNL     1       8.528  -7.735  10.609  1.00  0.00     0.031 A 
ATOM     48  C   UNL     1      13.528  -3.120  10.347  1.00  0.00     0.049 A 
ATOM     49  C   UNL     1       9.579  -7.230  11.520  1.00  0.00     0.074 A 
ATOM     50  C   UNL     1      14.622  -3.625   9.671  1.00  0.00     0.029 A 
ATOM     51  N   UNL     1      13.212  -4.058  11.303  1.00  0.00    -0.354 N 
ATOM     52  N   UNL     1      10.797  -7.690  11.533  1.00  0.00    -0.248 NA
ATOM     53  C   UNL     1       9.405  -5.911  12.105  1.00  0.00     0.031 C 
ATOM     54  C   UNL     1      14.608  -5.027   9.941  1.00  0.00     0.029 A 
ATOM     55  C   UNL     1      13.559  -5.292  10.824  1.00  0.00     0.049 A 
ATOM     56  H   UNL     1      12.805  -3.873  12.181  1.00  0.00     0.167 HD
ATOM     57  C   UNL     1      11.594  -6.565  11.688  1.00  0.00     0.074 A 
ATOM     58  C   UNL     1      10.683  -5.522  12.158  1.00  0.00     0.031 C 
ATOM     59  C   UNL     1      12.846  -6.511  11.141  1.00  0.00     0.031 A 
BRANCH  46  60
ATOM     60  C   UNL     1      11.973  -1.238  11.178  1.00  0.00    -0.014 A 
ATOM     61  C   UNL     1      12.745  -1.084  12.345  1.00  0.00     0.009 A 
ATOM     62  C   UNL     1      10.637  -0.803  11.249  1.00  0.00     0.009 A 
ATOM     63  C   UNL     1      12.176  -0.638  13.543  1.00  0.00     0.001 A 
ATOM     64  C   UNL     1      10.076  -0.316  12.432  1.00  0.00     0.001 A 
ATOM     65  C   UNL     1      10.837  -0.268  13.589  1.00  0.00     0.000 A 
ENDBRANCH  46  60
BRANCH  47  66
ATOM     66  C   UNL     1       7.244  -8.268  11.111  1.00  0.00    -0.014 A 
ATOM     67  C   UNL     1       7.169  -8.894  12.366  1.00  0.00     0.009 A 
ATOM     68  C   UNL     1       6.037  -7.908  10.486  1.00  0.00     0.009 A 
ATOM     69  C   UNL     1       5.934  -9.103  12.996  1.00  0.00     0.001 A 
ATOM     70  C   UNL     1       4.803  -8.119  11.114  1.00  0.00     0.001 A 
ATOM     71  C   UNL     1       4.754  -8.700  12.377  1.00  0.00     0.000 A 
ENDBRANCH  47  66
BRANCH  59  72
ATOM     72  C   UNL     1      13.432  -7.793  10.597  1.00  0.00    -0.014 A 
ATOM     73  C   UNL     1      12.857  -8.518   9.538  1.00  0.00     0.009 A 
ATOM     74  C   UNL     1      14.685  -8.202  11.076  1.00  0.00     0.009 A 
ATOM     75  C   UNL     1      13.504  -9.636   8.998  1.00  0.00     0.001 A 
ATOM     76  C   UNL     1      15.340  -9.304  10.524  1.00  0.00     0.001 A 
ATOM     77  C   UNL     1      14.748 -10.024   9.489  1.00  0.00     0.000 A 
ENDBRANCH  59  72
ENDBRANCH  33  34
ENDBRANCH  25  28
ENDBRANCH  23  24
ENDBRANCH  22  23
ENDBRANCH   1  22
TORSDOF 14
