REMARK SMILES C[NH+](C)CCc1nc(Nc2ccc(O)c(C(=O)NCCCNC(=O)c3ccc(-c4c5nc(c(-c6ccccc6)c6ccc([nH]6)c(-c6ccccc6)c6nc(c(-c7ccccc7)c7ccc4[nH]7)C=C6)C=C5)cc3)c2)c2ccccc2n1
REMARK SMILES IDX 16 1 17 2 18 3 15 5 10 6 11 7 73 8 12 9 13 10 9 11 8 13 6 14
REMARK SMILES IDX 7 15 80 16 79 17 74 18 78 19 75 20 77 21 76 22 5 23 4 24
REMARK SMILES IDX 2 25 1 26 3 27 14 29 19 31 20 32 21 33 22 34 23 35 24 37
REMARK SMILES IDX 25 38 26 39 72 40 27 41 71 42 28 43 29 44 30 45 65 46 31 47
REMARK SMILES IDX 70 48 64 49 66 50 32 51 69 52 63 53 62 54 33 56 55 57 40 58
REMARK SMILES IDX 54 59 41 60 44 61 53 62 67 63 42 64 43 65 52 67 68 68 45 69
REMARK SMILES IDX 34 70 35 71 39 72 36 73 38 74 37 75 56 76 57 77 61 78 58 79
REMARK SMILES IDX 60 80 59 81 46 82 47 83 51 84 48 85 50 86 49 87
REMARK H PARENT 18 4 9 12 2 28 14 30 22 36 66 55 44 66
REMARK Flexibility Score: inf
ROOT
ATOM      1  C   UNL     1       1.276   3.690  -2.957  1.00  0.00     0.255 C 
ATOM      2  O   UNL     1       0.838   3.322  -4.053  1.00  0.00    -0.269 OA
ATOM      3  N   UNL     1       0.799   4.896  -2.515  1.00  0.00    -0.352 N 
ATOM      4  H   UNL     1       0.146   5.306  -3.128  1.00  0.00     0.163 HD
ENDROOT
BRANCH   1   5
ATOM      5  C   UNL     1       2.193   2.763  -2.219  1.00  0.00     0.083 A 
ATOM      6  C   UNL     1       2.782   0.374  -1.983  1.00  0.00     0.041 A 
ATOM      7  C   UNL     1       3.715   0.708  -1.006  1.00  0.00     0.030 A 
ATOM      8  C   UNL     1       2.036   1.403  -2.577  1.00  0.00     0.043 A 
ATOM      9  C   UNL     1       3.919   2.040  -0.657  1.00  0.00     0.049 A 
ATOM     10  C   UNL     1       3.168   3.060  -1.260  1.00  0.00     0.128 A 
BRANCH   6  11
ATOM     11  N   UNL     1       2.478  -0.968  -2.278  1.00  0.00    -0.340 N 
ATOM     12  H   UNL     1       2.577  -1.255  -3.215  1.00  0.00     0.168 HD
BRANCH  11  13
ATOM     13  C   UNL     1       2.044  -1.943  -1.346  1.00  0.00     0.142 A 
ATOM     14  C   UNL     1       1.142  -2.402   0.722  1.00  0.00     0.137 A 
ATOM     15  N   UNL     1       1.733  -1.533  -0.101  1.00  0.00    -0.215 NA
ATOM     16  N   UNL     1       0.945  -3.697   0.423  1.00  0.00    -0.233 NA
ATOM     17  C   UNL     1       1.324  -4.124  -0.787  1.00  0.00     0.076 A 
ATOM     18  C   UNL     1       1.887  -3.277  -1.749  1.00  0.00     0.043 A 
ATOM     19  C   UNL     1       1.117  -5.457  -1.119  1.00  0.00     0.029 A 
ATOM     20  C   UNL     1       2.230  -3.796  -3.026  1.00  0.00     0.014 A 
ATOM     21  C   UNL     1       1.442  -5.968  -2.379  1.00  0.00     0.002 A 
ATOM     22  C   UNL     1       2.001  -5.133  -3.337  1.00  0.00     0.001 A 
BRANCH  14  23
ATOM     23  C   UNL     1       0.582  -1.923   2.037  1.00  0.00     0.138 C 
BRANCH  23  24
ATOM     24  C   UNL     1       0.751  -0.437   2.417  1.00  0.00     0.269 C 
BRANCH  24  25
ATOM     25  N   UNL     1      -0.128   0.609   1.855  1.00  0.00    -0.339 N 
ATOM     26  C   UNL     1       0.174   0.922   0.466  1.00  0.00     0.332 C 
ATOM     27  C   UNL     1      -1.551   0.352   2.024  1.00  0.00     0.332 C 
ATOM     28  H   UNL     1       0.086   1.431   2.419  1.00  0.00     0.347 HD
ENDBRANCH  24  25
ENDBRANCH  23  24
ENDBRANCH  14  23
ENDBRANCH  11  13
ENDBRANCH   6  11
BRANCH  10  29
ATOM     29  O   UNL     1       3.474   4.332  -0.884  1.00  0.00    -0.507 OA
ATOM     30  H   UNL     1       4.135   4.483  -0.237  1.00  0.00     0.293 HD
ENDBRANCH  10  29
ENDBRANCH   1   5
BRANCH   3  31
ATOM     31  C   UNL     1       1.057   5.693  -1.334  1.00  0.00     0.118 C 
BRANCH  31  32
ATOM     32  C   UNL     1       2.162   6.717  -1.598  1.00  0.00     0.042 C 
BRANCH  32  33
ATOM     33  C   UNL     1       1.682   7.962  -2.334  1.00  0.00     0.118 C 
BRANCH  33  34
ATOM     34  N   UNL     1       0.916   8.848  -1.468  1.00  0.00    -0.352 N 
ATOM     35  C   UNL     1       1.151  10.156  -1.120  1.00  0.00     0.251 C 
ATOM     36  H   UNL     1       0.108   8.450  -1.073  1.00  0.00     0.163 HD
ATOM     37  O   UNL     1       0.510  10.666  -0.206  1.00  0.00    -0.269 OA
BRANCH  35  38
ATOM     38  C   UNL     1       2.177  10.954  -1.829  1.00  0.00     0.039 A 
ATOM     39  C   UNL     1       2.987  11.823  -1.091  1.00  0.00     0.014 A 
ATOM     40  C   UNL     1       2.319  10.882  -3.217  1.00  0.00     0.014 A 
ATOM     41  C   UNL     1       3.972  12.576  -1.736  1.00  0.00     0.010 A 
ATOM     42  C   UNL     1       3.349  11.573  -3.848  1.00  0.00     0.010 A 
ATOM     43  C   UNL     1       4.181  12.434  -3.116  1.00  0.00    -0.014 A 
BRANCH  43  44
ATOM     44  C   UNL     1       5.246  13.188  -3.826  1.00  0.00     0.031 A 
ATOM     45  C   UNL     1       4.876  14.186  -4.890  1.00  0.00     0.074 A 
ATOM     46  C   UNL     1       6.542  12.926  -3.568  1.00  0.00     0.049 A 
ATOM     47  N   UNL     1       5.653  14.858  -5.701  1.00  0.00    -0.248 NA
ATOM     48  C   UNL     1       3.439  14.445  -5.084  1.00  0.00     0.031 C 
ATOM     49  C   UNL     1       7.035  11.971  -2.573  1.00  0.00     0.029 A 
ATOM     50  N   UNL     1       7.686  13.434  -4.133  1.00  0.00    -0.354 N 
ATOM     51  C   UNL     1       4.802  15.601  -6.510  1.00  0.00     0.074 A 
ATOM     52  C   UNL     1       3.449  15.261  -6.127  1.00  0.00     0.031 C 
ATOM     53  C   UNL     1       8.378  11.977  -2.585  1.00  0.00     0.029 A 
ATOM     54  C   UNL     1       8.841  12.896  -3.619  1.00  0.00     0.049 A 
ATOM     55  H   UNL     1       7.678  14.119  -4.841  1.00  0.00     0.167 HD
ATOM     56  C   UNL     1       5.117  16.500  -7.473  1.00  0.00     0.031 A 
ATOM     57  C   UNL     1      10.128  13.108  -3.954  1.00  0.00     0.031 A 
ATOM     58  C   UNL     1       6.462  16.843  -7.849  1.00  0.00     0.049 A 
ATOM     59  C   UNL     1      10.449  14.079  -5.059  1.00  0.00     0.074 A 
ATOM     60  C   UNL     1       6.885  17.766  -8.788  1.00  0.00     0.029 A 
ATOM     61  N   UNL     1       7.602  16.276  -7.301  1.00  0.00    -0.354 N 
ATOM     62  N   UNL     1       9.633  14.807  -5.782  1.00  0.00    -0.248 NA
ATOM     63  C   UNL     1      11.870  14.262  -5.386  1.00  0.00     0.031 C 
ATOM     64  C   UNL     1       8.281  17.722  -8.844  1.00  0.00     0.029 A 
ATOM     65  C   UNL     1       8.728  16.817  -7.895  1.00  0.00     0.049 A 
ATOM     66  H   UNL     1       7.609  15.590  -6.594  1.00  0.00     0.167 HD
ATOM     67  C   UNL     1      10.444  15.563  -6.620  1.00  0.00     0.074 A 
ATOM     68  C   UNL     1      11.813  15.211  -6.309  1.00  0.00     0.031 C 
ATOM     69  C   UNL     1      10.085  16.470  -7.561  1.00  0.00     0.031 A 
BRANCH  56  70
ATOM     70  C   UNL     1       3.981  17.174  -8.192  1.00  0.00    -0.014 A 
ATOM     71  C   UNL     1       3.162  18.110  -7.540  1.00  0.00     0.009 A 
ATOM     72  C   UNL     1       3.751  16.903  -9.550  1.00  0.00     0.009 A 
ATOM     73  C   UNL     1       2.115  18.733  -8.222  1.00  0.00     0.001 A 
ATOM     74  C   UNL     1       2.723  17.551 -10.238  1.00  0.00     0.001 A 
ATOM     75  C   UNL     1       1.900  18.457  -9.572  1.00  0.00     0.000 A 
ENDBRANCH  56  70
BRANCH  57  76
ATOM     76  C   UNL     1      11.219  12.394  -3.238  1.00  0.00    -0.014 A 
ATOM     77  C   UNL     1      12.102  13.099  -2.405  1.00  0.00     0.009 A 
ATOM     78  C   UNL     1      11.402  11.012  -3.402  1.00  0.00     0.009 A 
ATOM     79  C   UNL     1      13.165  12.442  -1.781  1.00  0.00     0.001 A 
ATOM     80  C   UNL     1      12.446  10.352  -2.751  1.00  0.00     0.001 A 
ATOM     81  C   UNL     1      13.334  11.069  -1.952  1.00  0.00     0.000 A 
ENDBRANCH  57  76
BRANCH  69  82
ATOM     82  C   UNL     1      11.187  17.195  -8.280  1.00  0.00    -0.014 A 
ATOM     83  C   UNL     1      11.981  16.554  -9.243  1.00  0.00     0.009 A 
ATOM     84  C   UNL     1      11.390  18.561  -8.029  1.00  0.00     0.009 A 
ATOM     85  C   UNL     1      12.976  17.262  -9.920  1.00  0.00     0.001 A 
ATOM     86  C   UNL     1      12.365  19.273  -8.729  1.00  0.00     0.001 A 
ATOM     87  C   UNL     1      13.162  18.621  -9.667  1.00  0.00     0.000 A 
ENDBRANCH  69  82
ENDBRANCH  43  44
ENDBRANCH  35  38
ENDBRANCH  33  34
ENDBRANCH  32  33
ENDBRANCH  31  32
ENDBRANCH   3  31
TORSDOF 16
