REMARK SMILES COc1ccc(OC)c(NC(=O)[C@@H]2[C@@H](C(=O)NCCCNC(=O)c3ccc(-c4c5nc(c(-c6ccccc6)c6ccc([nH]6)c(-c6ccccc6)c6nc(c(-c7ccccc7)c7ccc4[nH]7)C=C6)C=C5)cc3)[C@H]3C=C[C@@H]2C3)c1
REMARK SMILES IDX 18 1 17 2 15 3 16 4 14 6 13 7 75 8 72 9 74 10 76 11 73 12
REMARK SMILES IDX 11 13 10 14 12 16 9 17 3 18 4 19 77 20 5 21 6 22 2 23 1 24
REMARK SMILES IDX 7 25 8 26 19 27 20 28 21 29 22 30 23 32 24 33 25 34 71 35
REMARK SMILES IDX 26 36 70 37 27 38 28 39 29 40 64 41 30 42 69 43 63 44 65 45
REMARK SMILES IDX 31 46 68 47 62 48 61 49 32 51 54 52 39 53 53 54 40 55 43 56
REMARK SMILES IDX 52 57 66 58 41 59 42 60 51 62 67 63 44 64 33 65 34 66 38 67
REMARK SMILES IDX 35 68 37 69 36 70 55 71 56 72 60 73 57 74 59 75 58 76 45 77
REMARK SMILES IDX 46 78 50 79 47 80 49 81 48 82
REMARK H PARENT 17 5 10 15 21 31 65 50 43 61
REMARK Flexibility Score: inf
ROOT
ATOM      1  C   UNL     1      -1.044  -2.772  -7.661  1.00  0.00     0.117 C 
ENDROOT
BRANCH   1   2
ATOM      2  N   UNL     1       0.291  -2.633  -8.194  1.00  0.00    -0.356 N 
ATOM      3  C   UNL     1       1.478  -2.996  -7.637  1.00  0.00     0.224 C 
ATOM      4  O   UNL     1       2.486  -2.792  -8.318  1.00  0.00    -0.275 OA
ATOM      5  H   UNL     1       0.350  -2.217  -9.084  1.00  0.00     0.163 HD
BRANCH   3   6
ATOM      6  C   UNL     1       1.545  -3.502  -6.198  1.00  0.00     0.098 C 
ATOM      7  C   UNL     1       2.971  -4.035  -5.857  1.00  0.00     0.099 C 
ATOM      8  C   UNL     1       2.647  -5.439  -5.264  1.00  0.00     0.025 C 
ATOM      9  C   UNL     1       0.624  -4.677  -5.789  1.00  0.00     0.025 C 
ATOM     10  C   UNL     1       2.095  -6.311  -6.380  1.00  0.00    -0.027 C 
ATOM     11  C   UNL     1       1.339  -5.168  -4.526  1.00  0.00     0.017 C 
ATOM     12  C   UNL     1       0.875  -5.851  -6.688  1.00  0.00    -0.027 C 
BRANCH   7  13
ATOM     13  C   UNL     1       3.986  -3.336  -4.945  1.00  0.00     0.229 C 
ATOM     14  N   UNL     1       3.733  -2.585  -3.843  1.00  0.00    -0.323 N 
ATOM     15  H   UNL     1       4.473  -2.605  -3.193  1.00  0.00     0.170 HD
ATOM     16  O   UNL     1       5.182  -3.652  -5.075  1.00  0.00    -0.274 OA
BRANCH  14  17
ATOM     17  C   UNL     1       2.664  -1.789  -3.416  1.00  0.00     0.087 A 
ATOM     18  C   UNL     1       1.222  -1.248  -1.552  1.00  0.00     0.121 A 
ATOM     19  C   UNL     1       0.297  -0.685  -2.422  1.00  0.00     0.050 A 
ATOM     20  C   UNL     1       2.391  -1.824  -2.042  1.00  0.00     0.076 A 
ATOM     21  C   UNL     1       0.643  -0.512  -3.758  1.00  0.00     0.052 A 
ATOM     22  C   UNL     1       1.874  -0.976  -4.237  1.00  0.00     0.142 A 
BRANCH  18  23
ATOM     23  O   UNL     1       0.965  -1.317  -0.210  1.00  0.00    -0.497 OA
ATOM     24  C   UNL     1       1.046  -0.010   0.368  1.00  0.00     0.278 C 
ENDBRANCH  18  23
BRANCH  22  25
ATOM     25  O   UNL     1       2.127  -0.664  -5.545  1.00  0.00    -0.495 OA
ATOM     26  C   UNL     1       3.429  -0.162  -5.835  1.00  0.00     0.278 C 
ENDBRANCH  22  25
ENDBRANCH  14  17
ENDBRANCH   7  13
ENDBRANCH   3   6
ENDBRANCH   1   2
BRANCH   1  27
ATOM     27  C   UNL     1      -1.990  -1.662  -8.087  1.00  0.00     0.042 C 
BRANCH  27  28
ATOM     28  C   UNL     1      -2.164  -1.503  -9.589  1.00  0.00     0.118 C 
BRANCH  28  29
ATOM     29  N   UNL     1      -2.686  -2.695 -10.243  1.00  0.00    -0.352 N 
ATOM     30  C   UNL     1      -3.946  -3.010 -10.692  1.00  0.00     0.251 C 
ATOM     31  H   UNL     1      -2.016  -3.402 -10.390  1.00  0.00     0.163 HD
ATOM     32  O   UNL     1      -4.189  -4.156 -11.058  1.00  0.00    -0.269 OA
BRANCH  30  33
ATOM     33  C   UNL     1      -5.024  -1.996 -10.710  1.00  0.00     0.039 A 
ATOM     34  C   UNL     1      -6.323  -2.381 -10.361  1.00  0.00     0.014 A 
ATOM     35  C   UNL     1      -4.776  -0.679 -11.091  1.00  0.00     0.014 A 
ATOM     36  C   UNL     1      -7.344  -1.427 -10.314  1.00  0.00     0.010 A 
ATOM     37  C   UNL     1      -5.760   0.290 -10.930  1.00  0.00     0.010 A 
ATOM     38  C   UNL     1      -7.060  -0.073 -10.552  1.00  0.00    -0.014 A 
BRANCH  38  39
ATOM     39  C   UNL     1      -8.100   0.980 -10.434  1.00  0.00     0.031 A 
ATOM     40  C   UNL     1      -8.440   1.839 -11.624  1.00  0.00     0.074 A 
ATOM     41  C   UNL     1      -8.677   1.223  -9.241  1.00  0.00     0.049 A 
ATOM     42  N   UNL     1      -9.236   2.876 -11.696  1.00  0.00    -0.248 NA
ATOM     43  C   UNL     1      -7.766   1.514 -12.892  1.00  0.00     0.031 C 
ATOM     44  C   UNL     1      -8.399   0.499  -7.998  1.00  0.00     0.029 A 
ATOM     45  N   UNL     1      -9.612   2.160  -8.875  1.00  0.00    -0.354 N 
ATOM     46  C   UNL     1      -9.135   3.339 -13.002  1.00  0.00     0.074 A 
ATOM     47  C   UNL     1      -8.155   2.512 -13.670  1.00  0.00     0.031 C 
ATOM     48  C   UNL     1      -9.168   0.998  -7.017  1.00  0.00     0.029 A 
ATOM     49  C   UNL     1      -9.957   2.104  -7.547  1.00  0.00     0.049 A 
ATOM     50  H   UNL     1      -9.998   2.810  -9.506  1.00  0.00     0.167 HD
ATOM     51  C   UNL     1      -9.814   4.344 -13.604  1.00  0.00     0.031 A 
ATOM     52  C   UNL     1     -10.809   2.863  -6.832  1.00  0.00     0.031 A 
ATOM     53  C   UNL     1     -10.805   5.152 -12.946  1.00  0.00     0.049 A 
ATOM     54  C   UNL     1     -11.557   3.970  -7.521  1.00  0.00     0.074 A 
ATOM     55  C   UNL     1     -11.593   6.157 -13.479  1.00  0.00     0.029 A 
ATOM     56  N   UNL     1     -11.145   5.043 -11.606  1.00  0.00    -0.354 N 
ATOM     57  N   UNL     1     -11.496   4.352  -8.774  1.00  0.00    -0.248 NA
ATOM     58  C   UNL     1     -12.501   4.740  -6.700  1.00  0.00     0.031 C 
ATOM     59  C   UNL     1     -12.377   6.687 -12.450  1.00  0.00     0.029 A 
ATOM     60  C   UNL     1     -12.119   5.974 -11.290  1.00  0.00     0.049 A 
ATOM     61  H   UNL     1     -10.753   4.398 -10.974  1.00  0.00     0.167 HD
ATOM     62  C   UNL     1     -12.411   5.390  -8.897  1.00  0.00     0.074 A 
ATOM     63  C   UNL     1     -13.026   5.563  -7.597  1.00  0.00     0.031 C 
ATOM     64  C   UNL     1     -12.716   6.133  -9.989  1.00  0.00     0.031 A 
BRANCH  51  65
ATOM     65  C   UNL     1      -9.502   4.620 -15.050  1.00  0.00    -0.014 A 
ATOM     66  C   UNL     1      -9.847   3.704 -16.057  1.00  0.00     0.009 A 
ATOM     67  C   UNL     1      -8.868   5.818 -15.414  1.00  0.00     0.009 A 
ATOM     68  C   UNL     1      -9.522   3.959 -17.391  1.00  0.00     0.001 A 
ATOM     69  C   UNL     1      -8.574   6.086 -16.753  1.00  0.00     0.001 A 
ATOM     70  C   UNL     1      -8.890   5.152 -17.738  1.00  0.00     0.000 A 
ENDBRANCH  51  65
BRANCH  52  71
ATOM     71  C   UNL     1     -11.015   2.589  -5.385  1.00  0.00    -0.014 A 
ATOM     72  C   UNL     1     -12.224   2.042  -4.929  1.00  0.00     0.009 A 
ATOM     73  C   UNL     1     -10.004   2.869  -4.453  1.00  0.00     0.009 A 
ATOM     74  C   UNL     1     -12.426   1.805  -3.567  1.00  0.00     0.001 A 
ATOM     75  C   UNL     1     -10.197   2.604  -3.095  1.00  0.00     0.001 A 
ATOM     76  C   UNL     1     -11.411   2.082  -2.652  1.00  0.00     0.000 A 
ENDBRANCH  52  71
BRANCH  64  77
ATOM     77  C   UNL     1     -13.785   7.177  -9.832  1.00  0.00    -0.014 A 
ATOM     78  C   UNL     1     -13.551   8.357  -9.110  1.00  0.00     0.009 A 
ATOM     79  C   UNL     1     -15.030   6.994 -10.454  1.00  0.00     0.009 A 
ATOM     80  C   UNL     1     -14.556   9.319  -8.986  1.00  0.00     0.001 A 
ATOM     81  C   UNL     1     -16.022   7.970 -10.354  1.00  0.00     0.001 A 
ATOM     82  C   UNL     1     -15.787   9.127  -9.613  1.00  0.00     0.000 A 
ENDBRANCH  64  77
ENDBRANCH  38  39
ENDBRANCH  30  33
ENDBRANCH  28  29
ENDBRANCH  27  28
ENDBRANCH   1  27
TORSDOF 14
