REMARK SMILES COc1cc(OC)cc(C(=O)C[C@H](C)CC(=O)NCCCNC(=O)c2ccc(-c3c4nc(c(-c5ccccc5)c5ccc([nH]5)c(-c5ccccc5)c5nc(c(-c6ccccc6)c6ccc3[nH]6)C=C5)C=C4)cc2)c1
REMARK SMILES IDX 16 1 17 2 18 3 15 5 13 6 14 7 12 8 10 9 11 10 9 11 3 12 4 13
REMARK SMILES IDX 73 14 5 15 8 16 2 17 1 18 6 19 7 20 19 21 20 22 21 23 22 24
REMARK SMILES IDX 23 25 24 27 25 28 26 29 72 30 27 31 71 32 28 33 29 34 30 35
REMARK SMILES IDX 65 36 31 37 70 38 64 39 66 40 32 41 69 42 63 43 62 44 33 46
REMARK SMILES IDX 55 47 40 48 54 49 41 50 44 51 53 52 67 53 42 54 43 55 52 57
REMARK SMILES IDX 68 58 45 59 34 60 35 61 39 62 36 63 38 64 37 65 56 66 57 67
REMARK SMILES IDX 61 68 58 69 60 70 59 71 46 72 47 73 51 74 48 75 50 76 49 77
REMARK H PARENT 18 4 22 26 66 45 44 56
REMARK Flexibility Score: inf
ROOT
ATOM      1  C   UNL     1       6.639  -2.435   0.293  1.00  0.00     0.220 C 
ATOM      2  O   UNL     1       6.807  -3.408  -0.446  1.00  0.00    -0.275 OA
ATOM      3  N   UNL     1       7.637  -2.088   1.150  1.00  0.00    -0.356 N 
ATOM      4  H   UNL     1       8.473  -2.598   1.047  1.00  0.00     0.163 HD
ENDROOT
BRANCH   1   5
ATOM      5  C   UNL     1       5.335  -1.658   0.256  1.00  0.00     0.103 C 
BRANCH   5   6
ATOM      6  C   UNL     1       4.218  -2.406   1.005  1.00  0.00     0.003 C 
ATOM      7  C   UNL     1       3.989  -1.843   2.412  1.00  0.00     0.008 C 
BRANCH   6   8
ATOM      8  C   UNL     1       2.898  -2.340   0.218  1.00  0.00     0.085 C 
BRANCH   8   9
ATOM      9  C   UNL     1       1.907  -3.373   0.719  1.00  0.00     0.163 C 
ATOM     10  O   UNL     1       0.979  -3.046   1.457  1.00  0.00    -0.294 OA
BRANCH   9  11
ATOM     11  C   UNL     1       2.091  -4.810   0.351  1.00  0.00     0.025 A 
ATOM     12  C   UNL     1       3.183  -6.571  -0.901  1.00  0.00     0.123 A 
ATOM     13  C   UNL     1       2.367  -7.509  -0.268  1.00  0.00     0.092 A 
ATOM     14  C   UNL     1       3.033  -5.219  -0.603  1.00  0.00     0.058 A 
ATOM     15  C   UNL     1       1.422  -7.116   0.682  1.00  0.00     0.123 A 
ATOM     16  C   UNL     1       1.293  -5.765   0.998  1.00  0.00     0.058 A 
BRANCH  12  17
ATOM     17  O   UNL     1       4.063  -7.077  -1.819  1.00  0.00    -0.497 OA
ATOM     18  C   UNL     1       5.228  -6.292  -2.064  1.00  0.00     0.278 C 
ENDBRANCH  12  17
BRANCH  15  19
ATOM     19  O   UNL     1       0.700  -8.138   1.235  1.00  0.00    -0.497 OA
ATOM     20  C   UNL     1      -0.394  -7.772   2.067  1.00  0.00     0.278 C 
ENDBRANCH  15  19
ENDBRANCH   9  11
ENDBRANCH   8   9
ENDBRANCH   6   8
ENDBRANCH   5   6
ENDBRANCH   1   5
BRANCH   3  21
ATOM     21  C   UNL     1       7.655  -1.079   2.195  1.00  0.00     0.117 C 
BRANCH  21  22
ATOM     22  C   UNL     1       7.456  -1.705   3.573  1.00  0.00     0.042 C 
BRANCH  22  23
ATOM     23  C   UNL     1       8.720  -2.316   4.160  1.00  0.00     0.118 C 
BRANCH  23  24
ATOM     24  N   UNL     1       9.654  -1.300   4.617  1.00  0.00    -0.352 N 
ATOM     25  C   UNL     1      10.026  -0.924   5.881  1.00  0.00     0.251 C 
ATOM     26  H   UNL     1      10.094  -0.795   3.895  1.00  0.00     0.163 HD
ATOM     27  O   UNL     1      10.651   0.131   6.020  1.00  0.00    -0.269 OA
BRANCH  25  28
ATOM     28  C   UNL     1       9.706  -1.737   7.079  1.00  0.00     0.039 A 
ATOM     29  C   UNL     1       9.508  -1.076   8.298  1.00  0.00     0.014 A 
ATOM     30  C   UNL     1       9.698  -3.134   7.053  1.00  0.00     0.014 A 
ATOM     31  C   UNL     1       9.291  -1.807   9.470  1.00  0.00     0.010 A 
ATOM     32  C   UNL     1       9.388  -3.860   8.204  1.00  0.00     0.010 A 
ATOM     33  C   UNL     1       9.219  -3.207   9.432  1.00  0.00    -0.014 A 
BRANCH  33  34
ATOM     34  C   UNL     1       9.046  -3.998  10.678  1.00  0.00     0.031 A 
ATOM     35  C   UNL     1      10.142  -4.923  11.146  1.00  0.00     0.074 A 
ATOM     36  C   UNL     1       7.901  -3.909  11.382  1.00  0.00     0.049 A 
ATOM     37  N   UNL     1      10.173  -5.702  12.198  1.00  0.00    -0.248 NA
ATOM     38  C   UNL     1      11.350  -5.001  10.309  1.00  0.00     0.031 C 
ATOM     39  C   UNL     1       6.746  -3.084  11.022  1.00  0.00     0.029 A 
ATOM     40  N   UNL     1       7.525  -4.518  12.553  1.00  0.00    -0.354 N 
ATOM     41  C   UNL     1      11.386  -6.378  12.132  1.00  0.00     0.074 A 
ATOM     42  C   UNL     1      12.041  -5.955  10.915  1.00  0.00     0.031 C 
ATOM     43  C   UNL     1       5.805  -3.211  11.973  1.00  0.00     0.029 A 
ATOM     44  C   UNL     1       6.277  -4.145  12.990  1.00  0.00     0.049 A 
ATOM     45  H   UNL     1       8.095  -5.160  13.034  1.00  0.00     0.167 HD
ATOM     46  C   UNL     1      11.922  -7.255  13.014  1.00  0.00     0.031 A 
ATOM     47  C   UNL     1       5.593  -4.509  14.090  1.00  0.00     0.031 A 
ATOM     48  C   UNL     1      11.294  -7.654  14.244  1.00  0.00     0.049 A 
ATOM     49  C   UNL     1       6.217  -5.465  15.066  1.00  0.00     0.074 A 
ATOM     50  C   UNL     1      11.786  -8.486  15.235  1.00  0.00     0.029 A 
ATOM     51  N   UNL     1      10.036  -7.243  14.653  1.00  0.00    -0.354 N 
ATOM     52  N   UNL     1       7.392  -6.045  15.018  1.00  0.00    -0.248 NA
ATOM     53  C   UNL     1       5.424  -5.806  16.256  1.00  0.00     0.031 C 
ATOM     54  C   UNL     1      10.809  -8.606  16.229  1.00  0.00     0.029 A 
ATOM     55  C   UNL     1       9.727  -7.816  15.874  1.00  0.00     0.049 A 
ATOM     56  H   UNL     1       9.449  -6.633  14.150  1.00  0.00     0.167 HD
ATOM     57  C   UNL     1       7.487  -6.802  16.179  1.00  0.00     0.074 A 
ATOM     58  C   UNL     1       6.260  -6.593  16.919  1.00  0.00     0.031 C 
ATOM     59  C   UNL     1       8.500  -7.601  16.594  1.00  0.00     0.031 A 
BRANCH  46  60
ATOM     60  C   UNL     1      13.264  -7.840  12.675  1.00  0.00    -0.014 A 
ATOM     61  C   UNL     1      14.432  -7.063  12.732  1.00  0.00     0.009 A 
ATOM     62  C   UNL     1      13.366  -9.192  12.313  1.00  0.00     0.009 A 
ATOM     63  C   UNL     1      15.669  -7.618  12.396  1.00  0.00     0.001 A 
ATOM     64  C   UNL     1      14.607  -9.751  12.004  1.00  0.00     0.001 A 
ATOM     65  C   UNL     1      15.756  -8.962  12.036  1.00  0.00     0.000 A 
ENDBRANCH  46  60
BRANCH  47  66
ATOM     66  C   UNL     1       4.245  -3.940  14.347  1.00  0.00    -0.014 A 
ATOM     67  C   UNL     1       4.062  -2.979  15.353  1.00  0.00     0.009 A 
ATOM     68  C   UNL     1       3.138  -4.354  13.592  1.00  0.00     0.009 A 
ATOM     69  C   UNL     1       2.792  -2.461  15.613  1.00  0.00     0.001 A 
ATOM     70  C   UNL     1       1.873  -3.816  13.838  1.00  0.00     0.001 A 
ATOM     71  C   UNL     1       1.700  -2.876  14.852  1.00  0.00     0.000 A 
ENDBRANCH  47  66
BRANCH  59  72
ATOM     72  C   UNL     1       8.329  -8.288  17.918  1.00  0.00    -0.014 A 
ATOM     73  C   UNL     1       7.464  -9.383  18.058  1.00  0.00     0.009 A 
ATOM     74  C   UNL     1       9.068  -7.853  19.029  1.00  0.00     0.009 A 
ATOM     75  C   UNL     1       7.317 -10.010  19.297  1.00  0.00     0.001 A 
ATOM     76  C   UNL     1       8.937  -8.497  20.260  1.00  0.00     0.001 A 
ATOM     77  C   UNL     1       8.055  -9.569  20.395  1.00  0.00     0.000 A 
ENDBRANCH  59  72
ENDBRANCH  33  34
ENDBRANCH  25  28
ENDBRANCH  23  24
ENDBRANCH  22  23
ENDBRANCH  21  22
ENDBRANCH   3  21
TORSDOF 16
