REMARK SMILES Cc1cccc(-c2ncc(C[NH+]3CCC4(CC3)NC(=O)C[C@H]4C(=O)NCCCNC(=O)c3ccc(-c4c5nc(c(-c6ccccc6)c6ccc([nH]6)c(-c6ccccc6)c6nc(c(-c7ccccc7)c7ccc4[nH]7)C=C6)C=C5)cc3)cn2)c1
REMARK SMILES IDX 26 1 25 2 23 3 24 4 22 6 12 7 13 8 17 9 14 11 16 12 15 13
REMARK SMILES IDX 18 14 19 15 21 17 20 18 11 19 10 20 7 21 8 22 81 23 9 24
REMARK SMILES IDX 80 25 6 26 1 27 2 28 3 29 82 30 4 31 5 32 27 33 28 34 29 35
REMARK SMILES IDX 30 36 31 38 32 39 33 40 79 41 34 42 78 43 35 44 36 45 37 46
REMARK SMILES IDX 72 47 38 48 77 49 71 50 73 51 39 52 76 53 70 54 69 55 40 57
REMARK SMILES IDX 62 58 47 59 61 60 48 61 51 62 60 63 74 64 49 65 50 66 59 68
REMARK SMILES IDX 75 69 52 70 41 71 42 72 46 73 43 74 45 75 44 76 63 77 64 78
REMARK SMILES IDX 68 79 65 80 67 81 66 82 53 83 54 84 58 85 55 86 57 87 56 88
REMARK H PARENT 25 5 12 10 18 16 29 37 73 56 51 67
REMARK Flexibility Score: inf
ROOT
ATOM      1  C   UNL     1       1.255   3.957  -2.827  1.00  0.00     0.117 C 
ENDROOT
BRANCH   1   2
ATOM      2  N   UNL     1       1.038   5.372  -3.136  1.00  0.00    -0.356 N 
ATOM      3  C   UNL     1       0.955   6.517  -2.396  1.00  0.00     0.226 C 
ATOM      4  O   UNL     1       0.838   7.567  -3.041  1.00  0.00    -0.275 OA
ATOM      5  H   UNL     1       0.925   5.535  -4.100  1.00  0.00     0.163 HD
BRANCH   3   6
ATOM      6  C   UNL     1       0.906   6.600  -0.857  1.00  0.00     0.114 C 
ATOM      7  N   UNL     1      -3.122   6.932   0.157  1.00  0.00    -0.331 N 
ATOM      8  C   UNL     1      -2.108   7.368   1.108  1.00  0.00     0.264 C 
ATOM      9  C   UNL     1      -2.542   6.758  -1.157  1.00  0.00     0.264 C 
ATOM     10  H   UNL     1      -3.773   7.717   0.127  1.00  0.00     0.348 HD
ATOM     11  C   UNL     1      -0.808   6.551   1.157  1.00  0.00     0.091 C 
ATOM     12  C   UNL     1      -1.461   5.698  -1.157  1.00  0.00     0.091 C 
ATOM     13  C   UNL     1      -0.304   5.917  -0.177  1.00  0.00     0.063 C 
ATOM     14  N   UNL     1       0.307   4.661   0.243  1.00  0.00    -0.349 N 
ATOM     15  C   UNL     1       1.680   4.707   0.364  1.00  0.00     0.221 C 
ATOM     16  H   UNL     1      -0.217   3.848   0.424  1.00  0.00     0.164 HD
ATOM     17  C   UNL     1       2.164   6.003  -0.225  1.00  0.00     0.116 C 
ATOM     18  O   UNL     1       2.370   3.836   0.842  1.00  0.00    -0.275 OA
BRANCH   7  19
ATOM     19  C   UNL     1      -4.144   5.947   0.563  1.00  0.00     0.302 C 
BRANCH  19  20
ATOM     20  C   UNL     1      -3.754   4.493   0.571  1.00  0.00     0.043 A 
ATOM     21  C   UNL     1      -2.538   2.059   0.397  1.00  0.00     0.159 A 
ATOM     22  N   UNL     1      -2.409   2.752   1.544  1.00  0.00    -0.236 NA
ATOM     23  N   UNL     1      -3.307   2.444  -0.642  1.00  0.00    -0.236 NA
ATOM     24  C   UNL     1      -3.063   3.930   1.620  1.00  0.00     0.124 A 
ATOM     25  C   UNL     1      -3.908   3.654  -0.523  1.00  0.00     0.124 A 
BRANCH  21  26
ATOM     26  C   UNL     1      -1.674   0.881   0.229  1.00  0.00     0.019 A 
ATOM     27  C   UNL     1       2.072   0.050   0.061  1.00  0.00     0.044 C 
ATOM     28  C   UNL     1       0.579  -0.112   0.082  1.00  0.00    -0.050 A 
ATOM     29  C   UNL     1       0.005  -1.375  -0.057  1.00  0.00     0.003 A 
ATOM     30  C   UNL     1      -0.267   0.994   0.252  1.00  0.00     0.015 A 
ATOM     31  C   UNL     1      -1.383  -1.518  -0.069  1.00  0.00     0.001 A 
ATOM     32  C   UNL     1      -2.214  -0.398   0.054  1.00  0.00     0.012 A 
ENDBRANCH  21  26
ENDBRANCH  19  20
ENDBRANCH   7  19
ENDBRANCH   3   6
ENDBRANCH   1   2
BRANCH   1  33
ATOM     33  C   UNL     1       0.001   3.087  -2.787  1.00  0.00     0.042 C 
BRANCH  33  34
ATOM     34  C   UNL     1      -0.449   2.527  -4.126  1.00  0.00     0.118 C 
BRANCH  34  35
ATOM     35  N   UNL     1       0.102   1.186  -4.356  1.00  0.00    -0.352 N 
ATOM     36  C   UNL     1      -0.333   0.127  -5.131  1.00  0.00     0.251 C 
ATOM     37  H   UNL     1       0.938   1.008  -3.866  1.00  0.00     0.163 HD
ATOM     38  O   UNL     1       0.317  -0.913  -5.176  1.00  0.00    -0.269 OA
BRANCH  36  39
ATOM     39  C   UNL     1      -1.465   0.322  -6.060  1.00  0.00     0.039 A 
ATOM     40  C   UNL     1      -1.128   0.196  -7.414  1.00  0.00     0.014 A 
ATOM     41  C   UNL     1      -2.535   1.101  -5.653  1.00  0.00     0.014 A 
ATOM     42  C   UNL     1      -1.579   1.162  -8.293  1.00  0.00     0.010 A 
ATOM     43  C   UNL     1      -2.876   2.142  -6.479  1.00  0.00     0.010 A 
ATOM     44  C   UNL     1      -2.320   2.209  -7.761  1.00  0.00    -0.014 A 
BRANCH  44  45
ATOM     45  C   UNL     1      -2.627   3.416  -8.492  1.00  0.00     0.031 A 
ATOM     46  C   UNL     1      -3.918   3.431  -9.183  1.00  0.00     0.074 A 
ATOM     47  C   UNL     1      -1.785   4.469  -8.426  1.00  0.00     0.049 A 
ATOM     48  N   UNL     1      -4.186   4.164 -10.198  1.00  0.00    -0.248 NA
ATOM     49  C   UNL     1      -5.012   2.529  -8.816  1.00  0.00     0.031 C 
ATOM     50  C   UNL     1      -2.011   5.846  -8.851  1.00  0.00     0.029 A 
ATOM     51  N   UNL     1      -0.424   4.429  -8.123  1.00  0.00    -0.354 N 
ATOM     52  C   UNL     1      -5.546   4.089 -10.391  1.00  0.00     0.074 A 
ATOM     53  C   UNL     1      -5.994   2.972  -9.602  1.00  0.00     0.031 C 
ATOM     54  C   UNL     1      -0.821   6.445  -9.044  1.00  0.00     0.029 A 
ATOM     55  C   UNL     1       0.204   5.423  -8.894  1.00  0.00     0.049 A 
ATOM     56  H   UNL     1       0.014   3.818  -7.487  1.00  0.00     0.167 HD
ATOM     57  C   UNL     1      -6.156   5.107 -11.053  1.00  0.00     0.031 A 
ATOM     58  C   UNL     1       1.093   5.067  -9.871  1.00  0.00     0.031 A 
ATOM     59  C   UNL     1      -5.161   6.057 -11.542  1.00  0.00     0.049 A 
ATOM     60  C   UNL     1       0.576   5.401 -11.255  1.00  0.00     0.074 A 
ATOM     61  C   UNL     1      -4.675   7.245 -11.021  1.00  0.00     0.029 A 
ATOM     62  N   UNL     1      -4.228   5.622 -12.475  1.00  0.00    -0.354 N 
ATOM     63  N   UNL     1      -0.691   5.524 -11.553  1.00  0.00    -0.248 NA
ATOM     64  C   UNL     1       1.444   5.668 -12.398  1.00  0.00     0.031 C 
ATOM     65  C   UNL     1      -3.399   7.483 -11.602  1.00  0.00     0.029 A 
ATOM     66  C   UNL     1      -3.130   6.460 -12.495  1.00  0.00     0.049 A 
ATOM     67  H   UNL     1      -4.335   4.826 -13.044  1.00  0.00     0.167 HD
ATOM     68  C   UNL     1      -0.821   5.931 -12.857  1.00  0.00     0.074 A 
ATOM     69  C   UNL     1       0.546   5.990 -13.346  1.00  0.00     0.031 C 
ATOM     70  C   UNL     1      -2.034   6.208 -13.423  1.00  0.00     0.031 A 
BRANCH  57  71
ATOM     71  C   UNL     1      -7.630   5.397 -10.968  1.00  0.00    -0.014 A 
ATOM     72  C   UNL     1      -8.069   6.721 -11.150  1.00  0.00     0.009 A 
ATOM     73  C   UNL     1      -8.624   4.451 -10.668  1.00  0.00     0.009 A 
ATOM     74  C   UNL     1      -9.409   7.090 -10.983  1.00  0.00     0.001 A 
ATOM     75  C   UNL     1      -9.964   4.817 -10.473  1.00  0.00     0.001 A 
ATOM     76  C   UNL     1     -10.355   6.139 -10.627  1.00  0.00     0.000 A 
ENDBRANCH  57  71
BRANCH  58  77
ATOM     77  C   UNL     1       1.889   3.857  -9.492  1.00  0.00    -0.014 A 
ATOM     78  C   UNL     1       2.741   3.972  -8.369  1.00  0.00     0.009 A 
ATOM     79  C   UNL     1       1.476   2.577  -9.882  1.00  0.00     0.009 A 
ATOM     80  C   UNL     1       3.000   2.869  -7.548  1.00  0.00     0.001 A 
ATOM     81  C   UNL     1       1.768   1.469  -9.072  1.00  0.00     0.001 A 
ATOM     82  C   UNL     1       2.473   1.625  -7.878  1.00  0.00     0.000 A 
ENDBRANCH  58  77
BRANCH  70  83
ATOM     83  C   UNL     1      -2.330   6.350 -14.902  1.00  0.00    -0.014 A 
ATOM     84  C   UNL     1      -1.447   6.005 -15.929  1.00  0.00     0.009 A 
ATOM     85  C   UNL     1      -3.634   6.731 -15.307  1.00  0.00     0.009 A 
ATOM     86  C   UNL     1      -1.826   6.078 -17.278  1.00  0.00     0.001 A 
ATOM     87  C   UNL     1      -4.038   6.741 -16.643  1.00  0.00     0.001 A 
ATOM     88  C   UNL     1      -3.124   6.430 -17.633  1.00  0.00     0.000 A 
ENDBRANCH  70  83
ENDBRANCH  44  45
ENDBRANCH  36  39
ENDBRANCH  34  35
ENDBRANCH  33  34
ENDBRANCH   1  33
TORSDOF 13
