REMARK SMILES CC1(C)[C@H](C(=O)NCCCNC(=O)c2ccc(-c3c4nc(c(-c5ccccc5)c5ccc([nH]5)c(-c5ccccc5)c5nc(c(-c6ccccc6)c6ccc3[nH]6)C=C5)C=C4)cc2)[C@@H]1C(=O)Nc1ccc(Cl)c(Br)c1
REMARK SMILES IDX 9 1 8 2 7 3 5 4 6 5 4 7 1 8 2 9 3 10 62 11 63 12 64 13 65 14
REMARK SMILES IDX 66 16 67 17 73 18 68 19 71 20 69 21 72 22 70 23 10 24 11 25
REMARK SMILES IDX 12 26 13 28 14 29 15 30 61 31 16 32 60 33 17 34 18 35 19 36
REMARK SMILES IDX 54 37 20 38 59 39 53 40 55 41 21 42 58 43 52 44 51 45 22 47
REMARK SMILES IDX 44 48 29 49 43 50 30 51 33 52 42 53 56 54 31 55 32 56 41 58
REMARK SMILES IDX 57 59 34 60 23 61 24 62 28 63 25 64 27 65 26 66 45 67 46 68
REMARK SMILES IDX 50 69 47 70 49 71 48 72 35 73 36 74 40 75 37 76 39 77 38 78
REMARK H PARENT 7 6 65 15 11 27 55 46 33 57
REMARK Flexibility Score: inf
ROOT
ATOM      1  C   UNL     1       0.052   4.170  -0.730  1.00  0.00     0.042 C 
ENDROOT
BRANCH   1   2
ATOM      2  C   UNL     1      -0.968   3.098  -0.397  1.00  0.00     0.117 C 
BRANCH   2   3
ATOM      3  N   UNL     1      -1.214   2.224  -1.524  1.00  0.00    -0.356 N 
ATOM      4  C   UNL     1      -1.174   0.879  -1.729  1.00  0.00     0.224 C 
ATOM      5  O   UNL     1      -1.433   0.518  -2.879  1.00  0.00    -0.275 OA
ATOM      6  H   UNL     1      -1.472   2.720  -2.334  1.00  0.00     0.163 HD
BRANCH   4   7
ATOM      7  C   UNL     1      -0.899  -0.195  -0.742  1.00  0.00     0.098 C 
ATOM      8  C   UNL     1       1.000  -1.629   0.191  1.00  0.00     0.013 C 
ATOM      9  C   UNL     1       0.281  -0.295   0.205  1.00  0.00    -0.011 C 
ATOM     10  C   UNL     1       1.241   0.857   0.359  1.00  0.00     0.013 C 
ATOM     11  C   UNL     1      -1.175  -0.277   0.731  1.00  0.00     0.098 C 
BRANCH  11  12
ATOM     12  C   UNL     1      -1.779   0.781   1.571  1.00  0.00     0.228 C 
ATOM     13  O   UNL     1      -1.185   1.165   2.575  1.00  0.00    -0.274 OA
ATOM     14  N   UNL     1      -2.986   1.362   1.239  1.00  0.00    -0.326 N 
ATOM     15  H   UNL     1      -3.287   2.074   1.849  1.00  0.00     0.169 HD
BRANCH  14  16
ATOM     16  C   UNL     1      -3.853   1.095   0.167  1.00  0.00     0.042 A 
ATOM     17  C   UNL     1      -4.497   2.186  -0.427  1.00  0.00     0.028 A 
ATOM     18  C   UNL     1      -4.048  -0.181  -0.358  1.00  0.00     0.043 A 
ATOM     19  C   UNL     1      -5.202   2.020  -1.622  1.00  0.00     0.024 A 
ATOM     20  C   UNL     1      -4.779  -0.356  -1.540  1.00  0.00     0.038 A 
ATOM     21  C   UNL     1      -5.329   0.751  -2.193  1.00  0.00     0.055 A 
ATOM     22  Br  UNL     1      -4.952  -2.128  -2.199  1.00  0.00    -0.049 Br
ATOM     23  Cl  UNL     1      -6.167   0.632  -3.697  1.00  0.00    -0.083 Cl
ENDBRANCH  14  16
ENDBRANCH  11  12
ENDBRANCH   4   7
ENDBRANCH   2   3
ENDBRANCH   1   2
BRANCH   1  24
ATOM     24  C   UNL     1      -0.508   5.225  -1.668  1.00  0.00     0.118 C 
BRANCH  24  25
ATOM     25  N   UNL     1      -1.497   6.079  -1.017  1.00  0.00    -0.352 N 
ATOM     26  C   UNL     1      -1.420   7.413  -0.698  1.00  0.00     0.251 C 
ATOM     27  H   UNL     1      -2.340   5.635  -0.771  1.00  0.00     0.163 HD
ATOM     28  O   UNL     1      -2.260   7.924   0.036  1.00  0.00    -0.269 OA
BRANCH  26  29
ATOM     29  C   UNL     1      -0.304   8.217  -1.232  1.00  0.00     0.039 A 
ATOM     30  C   UNL     1       0.392   9.080  -0.384  1.00  0.00     0.014 A 
ATOM     31  C   UNL     1       0.075   8.082  -2.569  1.00  0.00     0.014 A 
ATOM     32  C   UNL     1       1.522   9.747  -0.861  1.00  0.00     0.010 A 
ATOM     33  C   UNL     1       1.259   8.655  -3.008  1.00  0.00     0.010 A 
ATOM     34  C   UNL     1       1.989   9.505  -2.164  1.00  0.00    -0.014 A 
BRANCH  34  35
ATOM     35  C   UNL     1       3.216  10.149  -2.693  1.00  0.00     0.031 A 
ATOM     36  C   UNL     1       3.120  11.039  -3.903  1.00  0.00     0.074 A 
ATOM     37  C   UNL     1       4.415   9.870  -2.146  1.00  0.00     0.049 A 
ATOM     38  N   UNL     1       4.079  11.592  -4.600  1.00  0.00    -0.248 NA
ATOM     39  C   UNL     1       1.767  11.314  -4.420  1.00  0.00     0.031 C 
ATOM     40  C   UNL     1       4.647   8.993  -0.996  1.00  0.00     0.029 A 
ATOM     41  N   UNL     1       5.673  10.294  -2.497  1.00  0.00    -0.354 N 
ATOM     42  C   UNL     1       3.447  12.252  -5.647  1.00  0.00     0.074 A 
ATOM     43  C   UNL     1       2.032  11.984  -5.530  1.00  0.00     0.031 C 
ATOM     44  C   UNL     1       5.962   8.970  -0.718  1.00  0.00     0.029 A 
ATOM     45  C   UNL     1       6.669   9.790  -1.696  1.00  0.00     0.049 A 
ATOM     46  H   UNL     1       5.845  10.902  -3.252  1.00  0.00     0.167 HD
ATOM     47  C   UNL     1       3.991  13.037  -6.606  1.00  0.00     0.031 A 
ATOM     48  C   UNL     1       8.002   9.964  -1.750  1.00  0.00     0.031 A 
ATOM     49  C   UNL     1       5.394  13.331  -6.704  1.00  0.00     0.049 A 
ATOM     50  C   UNL     1       8.582  10.837  -2.830  1.00  0.00     0.074 A 
ATOM     51  C   UNL     1       6.041  14.152  -7.609  1.00  0.00     0.029 A 
ATOM     52  N   UNL     1       6.364  12.819  -5.857  1.00  0.00    -0.354 N 
ATOM     53  N   UNL     1       7.966  11.494  -3.782  1.00  0.00    -0.248 NA
ATOM     54  C   UNL     1      10.043  10.999  -2.835  1.00  0.00     0.031 C 
ATOM     55  C   UNL     1       7.411  14.109  -7.332  1.00  0.00     0.029 A 
ATOM     56  C   UNL     1       7.607  13.300  -6.223  1.00  0.00     0.049 A 
ATOM     57  H   UNL     1       6.193  12.205  -5.106  1.00  0.00     0.167 HD
ATOM     58  C   UNL     1       8.958  12.175  -4.475  1.00  0.00     0.074 A 
ATOM     59  C   UNL     1      10.214  11.860  -3.828  1.00  0.00     0.031 C 
ATOM     60  C   UNL     1       8.841  12.988  -5.552  1.00  0.00     0.031 A 
BRANCH  47  61
ATOM     61  C   UNL     1       3.058  13.644  -7.616  1.00  0.00    -0.014 A 
ATOM     62  C   UNL     1       2.161  14.662  -7.253  1.00  0.00     0.009 A 
ATOM     63  C   UNL     1       3.099  13.218  -8.952  1.00  0.00     0.009 A 
ATOM     64  C   UNL     1       1.300  15.216  -8.201  1.00  0.00     0.001 A 
ATOM     65  C   UNL     1       2.256  13.796  -9.904  1.00  0.00     0.001 A 
ATOM     66  C   UNL     1       1.352  14.787  -9.526  1.00  0.00     0.000 A 
ENDBRANCH  47  61
BRANCH  48  67
ATOM     67  C   UNL     1       8.889   9.319  -0.746  1.00  0.00    -0.014 A 
ATOM     68  C   UNL     1       9.557  10.096   0.213  1.00  0.00     0.009 A 
ATOM     69  C   UNL     1       9.097   7.931  -0.758  1.00  0.00     0.009 A 
ATOM     70  C   UNL     1      10.442   9.502   1.116  1.00  0.00     0.001 A 
ATOM     71  C   UNL     1       9.959   7.336   0.166  1.00  0.00     0.001 A 
ATOM     72  C   UNL     1      10.641   8.123   1.093  1.00  0.00     0.000 A 
ENDBRANCH  48  67
BRANCH  60  73
ATOM     73  C   UNL     1      10.094  13.639  -6.062  1.00  0.00    -0.014 A 
ATOM     74  C   UNL     1      11.061  12.908  -6.769  1.00  0.00     0.009 A 
ATOM     75  C   UNL     1      10.281  15.018  -5.876  1.00  0.00     0.009 A 
ATOM     76  C   UNL     1      12.207  13.543  -7.253  1.00  0.00     0.001 A 
ATOM     77  C   UNL     1      11.412  15.654  -6.385  1.00  0.00     0.001 A 
ATOM     78  C   UNL     1      12.378  14.914  -7.066  1.00  0.00     0.000 A 
ENDBRANCH  60  73
ENDBRANCH  34  35
ENDBRANCH  26  29
ENDBRANCH  24  25
ENDBRANCH   1  24
TORSDOF 12
