REMARK SMILES C[C@@H](C(=O)NCCCNC(=O)c1ccc(-c2c3nc(c(-c4ccccc4)c4ccc([nH]4)c(-c4ccccc4)c4nc(c(-c5ccccc5)c5ccc2[nH]5)C=C4)C=C3)cc1)c1ccc(C[C@H]2CCCC2=O)c(-c2ccccc2)c1
REMARK SMILES IDX 6 1 5 2 3 3 4 4 2 6 1 7 60 8 61 9 78 10 62 11 71 12 63 13
REMARK SMILES IDX 72 14 73 15 77 16 74 17 76 18 75 19 64 20 65 21 66 22 69 23
REMARK SMILES IDX 67 24 68 25 70 26 7 27 8 28 9 29 10 30 11 32 12 33 13 34
REMARK SMILES IDX 59 35 14 36 58 37 15 38 16 39 17 40 52 41 18 42 57 43 51 44
REMARK SMILES IDX 53 45 19 46 56 47 50 48 49 49 20 51 42 52 27 53 41 54 28 55
REMARK SMILES IDX 31 56 40 57 54 58 29 59 30 60 39 62 55 63 32 64 21 65 22 66
REMARK SMILES IDX 26 67 23 68 25 69 24 70 43 71 44 72 48 73 45 74 47 75 46 76
REMARK SMILES IDX 33 77 34 78 38 79 35 80 37 81 36 82
REMARK H PARENT 5 5 9 31 53 50 31 61
REMARK Flexibility Score: inf
ROOT
ATOM      1  C   UNL     1       3.519  -0.218   1.955  1.00  0.00     0.117 C 
ENDROOT
BRANCH   1   2
ATOM      2  N   UNL     1       2.463   0.553   2.579  1.00  0.00    -0.356 N 
ATOM      3  C   UNL     1       1.137   0.653   2.278  1.00  0.00     0.227 C 
ATOM      4  O   UNL     1       0.495   1.469   2.943  1.00  0.00    -0.274 OA
ATOM      5  H   UNL     1       2.751   1.095   3.348  1.00  0.00     0.163 HD
BRANCH   3   6
ATOM      6  C   UNL     1       0.515  -0.241   1.188  1.00  0.00     0.105 C 
ATOM      7  C   UNL     1       0.957   0.158  -0.222  1.00  0.00     0.023 C 
BRANCH   6   8
ATOM      8  C   UNL     1      -1.010  -0.255   1.243  1.00  0.00    -0.035 A 
ATOM      9  C   UNL     1      -1.746   0.919   1.068  1.00  0.00     0.005 A 
ATOM     10  C   UNL     1      -1.709  -1.457   1.438  1.00  0.00     0.013 A 
ATOM     11  C   UNL     1      -3.135   0.901   1.135  1.00  0.00     0.004 A 
ATOM     12  C   UNL     1      -3.120  -1.503   1.510  1.00  0.00    -0.015 A 
ATOM     13  C   UNL     1      -3.840  -0.288   1.396  1.00  0.00    -0.039 A 
BRANCH  12  14
ATOM     14  C   UNL     1      -3.769  -2.817   1.693  1.00  0.00    -0.018 A 
ATOM     15  C   UNL     1      -4.662  -3.325   0.734  1.00  0.00     0.009 A 
ATOM     16  C   UNL     1      -3.497  -3.607   2.822  1.00  0.00     0.009 A 
ATOM     17  C   UNL     1      -5.306  -4.550   0.924  1.00  0.00     0.001 A 
ATOM     18  C   UNL     1      -4.127  -4.841   3.005  1.00  0.00     0.001 A 
ATOM     19  C   UNL     1      -5.040  -5.306   2.062  1.00  0.00     0.000 A 
ENDBRANCH  12  14
BRANCH  13  20
ATOM     20  C   UNL     1      -5.343  -0.175   1.579  1.00  0.00     0.047 C 
BRANCH  20  21
ATOM     21  C   UNL     1      -5.836   0.398   2.914  1.00  0.00     0.060 C 
ATOM     22  C   UNL     1      -5.336  -0.288   4.188  1.00  0.00     0.012 C 
ATOM     23  C   UNL     1      -5.407   1.829   3.138  1.00  0.00     0.136 C 
ATOM     24  C   UNL     1      -4.165   0.547   4.690  1.00  0.00     0.009 C 
ATOM     25  C   UNL     1      -4.515   1.987   4.341  1.00  0.00     0.076 C 
ATOM     26  O   UNL     1      -5.764   2.765   2.432  1.00  0.00    -0.299 OA
ENDBRANCH  20  21
ENDBRANCH  13  20
ENDBRANCH   6   8
ENDBRANCH   3   6
ENDBRANCH   1   2
BRANCH   1  27
ATOM     27  C   UNL     1       4.396   0.656   1.062  1.00  0.00     0.042 C 
BRANCH  27  28
ATOM     28  C   UNL     1       5.126   1.769   1.806  1.00  0.00     0.118 C 
BRANCH  28  29
ATOM     29  N   UNL     1       6.133   1.264   2.730  1.00  0.00    -0.352 N 
ATOM     30  C   UNL     1       7.485   1.502   2.757  1.00  0.00     0.251 C 
ATOM     31  H   UNL     1       5.795   0.667   3.436  1.00  0.00     0.163 HD
ATOM     32  O   UNL     1       8.213   0.854   3.503  1.00  0.00    -0.269 OA
BRANCH  30  33
ATOM     33  C   UNL     1       8.066   2.527   1.867  1.00  0.00     0.039 A 
ATOM     34  C   UNL     1       9.207   2.217   1.121  1.00  0.00     0.014 A 
ATOM     35  C   UNL     1       7.475   3.788   1.761  1.00  0.00     0.014 A 
ATOM     36  C   UNL     1       9.712   3.148   0.210  1.00  0.00     0.010 A 
ATOM     37  C   UNL     1       7.932   4.682   0.801  1.00  0.00     0.010 A 
ATOM     38  C   UNL     1       9.054   4.371   0.016  1.00  0.00    -0.014 A 
BRANCH  38  39
ATOM     39  C   UNL     1       9.508   5.363  -0.990  1.00  0.00     0.031 A 
ATOM     40  C   UNL     1       9.951   6.726  -0.540  1.00  0.00     0.074 A 
ATOM     41  C   UNL     1       9.403   5.087  -2.304  1.00  0.00     0.049 A 
ATOM     42  N   UNL     1      10.198   7.794  -1.253  1.00  0.00    -0.248 NA
ATOM     43  C   UNL     1      10.098   6.919   0.912  1.00  0.00     0.031 C 
ATOM     44  C   UNL     1       8.961   3.813  -2.872  1.00  0.00     0.029 A 
ATOM     45  N   UNL     1       9.630   5.881  -3.401  1.00  0.00    -0.354 N 
ATOM     46  C   UNL     1      10.492   8.795  -0.336  1.00  0.00     0.074 A 
ATOM     47  C   UNL     1      10.351   8.217   0.983  1.00  0.00     0.031 C 
ATOM     48  C   UNL     1       8.947   3.912  -4.211  1.00  0.00     0.029 A 
ATOM     49  C   UNL     1       9.329   5.268  -4.592  1.00  0.00     0.049 A 
ATOM     50  H   UNL     1       9.976   6.801  -3.339  1.00  0.00     0.167 HD
ATOM     51  C   UNL     1      10.856  10.079  -0.570  1.00  0.00     0.031 A 
ATOM     52  C   UNL     1       9.331   5.750  -5.850  1.00  0.00     0.031 A 
ATOM     53  C   UNL     1      11.001  10.648  -1.882  1.00  0.00     0.049 A 
ATOM     54  C   UNL     1       9.724   7.180  -6.091  1.00  0.00     0.074 A 
ATOM     55  C   UNL     1      11.422  11.919  -2.229  1.00  0.00     0.029 A 
ATOM     56  N   UNL     1      10.724   9.979  -3.065  1.00  0.00    -0.354 N 
ATOM     57  N   UNL     1      10.054   8.102  -5.220  1.00  0.00    -0.248 NA
ATOM     58  C   UNL     1       9.754   7.634  -7.489  1.00  0.00     0.031 C 
ATOM     59  C   UNL     1      11.348  12.037  -3.621  1.00  0.00     0.029 A 
ATOM     60  C   UNL     1      10.941  10.819  -4.144  1.00  0.00     0.049 A 
ATOM     61  H   UNL     1      10.418   9.046  -3.129  1.00  0.00     0.167 HD
ATOM     62  C   UNL     1      10.360   9.235  -5.962  1.00  0.00     0.074 A 
ATOM     63  C   UNL     1      10.179   8.884  -7.356  1.00  0.00     0.031 C 
ATOM     64  C   UNL     1      10.762  10.454  -5.526  1.00  0.00     0.031 A 
BRANCH  51  65
ATOM     65  C   UNL     1      11.091  10.954   0.631  1.00  0.00    -0.014 A 
ATOM     66  C   UNL     1      12.173  10.734   1.498  1.00  0.00     0.009 A 
ATOM     67  C   UNL     1      10.210  12.013   0.902  1.00  0.00     0.009 A 
ATOM     68  C   UNL     1      12.335  11.519   2.642  1.00  0.00     0.001 A 
ATOM     69  C   UNL     1      10.395  12.818   2.028  1.00  0.00     0.001 A 
ATOM     70  C   UNL     1      11.447  12.561   2.905  1.00  0.00     0.000 A 
ENDBRANCH  51  65
BRANCH  52  71
ATOM     71  C   UNL     1       8.945   4.859  -6.974  1.00  0.00    -0.014 A 
ATOM     72  C   UNL     1       9.916   4.365  -7.857  1.00  0.00     0.009 A 
ATOM     73  C   UNL     1       7.608   4.464  -7.146  1.00  0.00     0.009 A 
ATOM     74  C   UNL     1       9.556   3.504  -8.896  1.00  0.00     0.001 A 
ATOM     75  C   UNL     1       7.255   3.582  -8.169  1.00  0.00     0.001 A 
ATOM     76  C   UNL     1       8.227   3.107  -9.046  1.00  0.00     0.000 A 
ENDBRANCH  52  71
BRANCH  64  77
ATOM     77  C   UNL     1      11.085  11.493  -6.562  1.00  0.00    -0.014 A 
ATOM     78  C   UNL     1      10.075  12.154  -7.276  1.00  0.00     0.009 A 
ATOM     79  C   UNL     1      12.423  11.871  -6.764  1.00  0.00     0.009 A 
ATOM     80  C   UNL     1      10.402  13.165  -8.184  1.00  0.00     0.001 A 
ATOM     81  C   UNL     1      12.743  12.898  -7.652  1.00  0.00     0.001 A 
ATOM     82  C   UNL     1      11.733  13.541  -8.364  1.00  0.00     0.000 A 
ENDBRANCH  64  77
ENDBRANCH  38  39
ENDBRANCH  30  33
ENDBRANCH  28  29
ENDBRANCH  27  28
ENDBRANCH   1  27
TORSDOF 14
