REMARK SMILES C[C@@H](Oc1ccc(-c2ccccc2)cc1)C(=O)N1CCC[C@H](C(=O)NCCCNC(=O)c2ccc(-c3c4nc(c(-c5ccccc5)c5ccc([nH]5)c(-c5ccccc5)c5nc(c(-c6ccccc6)c6ccc3[nH]6)C=C5)C=C4)cc2)C1
REMARK SMILES IDX 23 1 24 2 25 3 22 5 18 6 19 7 80 8 20 9 21 10 16 11 17 12
REMARK SMILES IDX 2 13 1 14 3 15 4 16 5 17 15 18 6 19 14 20 7 21 8 22 9 23
REMARK SMILES IDX 13 24 10 25 12 26 11 27 26 28 27 29 28 30 29 31 30 32 31 34
REMARK SMILES IDX 32 35 33 36 79 37 34 38 78 39 35 40 36 41 37 42 72 43 38 44
REMARK SMILES IDX 77 45 71 46 73 47 39 48 76 49 70 50 69 51 40 53 62 54 47 55
REMARK SMILES IDX 61 56 48 57 51 58 60 59 74 60 49 61 50 62 59 64 75 65 52 66
REMARK SMILES IDX 41 67 42 68 46 69 43 70 45 71 44 72 63 73 64 74 68 75 65 76
REMARK SMILES IDX 67 77 66 78 53 79 54 80 58 81 55 82 57 83 56 84
REMARK H PARENT 25 4 29 33 73 52 51 63
REMARK Flexibility Score: inf
ROOT
ATOM      1  C   UNL     1      -3.314  -1.668   0.769  1.00  0.00     0.224 C 
ATOM      2  O   UNL     1      -3.500  -2.466   1.697  1.00  0.00    -0.275 OA
ATOM      3  N   UNL     1      -3.583  -0.368   1.050  1.00  0.00    -0.356 N 
ATOM      4  H   UNL     1      -4.043  -0.224   1.909  1.00  0.00     0.163 HD
ENDROOT
BRANCH   1   5
ATOM      5  C   UNL     1      -2.861  -2.203  -0.598  1.00  0.00     0.098 C 
ATOM      6  N   UNL     1      -1.577  -0.596  -2.049  1.00  0.00    -0.339 N 
ATOM      7  C   UNL     1      -2.559  -0.721  -3.121  1.00  0.00     0.119 C 
ATOM      8  C   UNL     1      -1.499  -1.721  -1.119  1.00  0.00     0.133 C 
ATOM      9  C   UNL     1      -3.956  -1.040  -2.609  1.00  0.00     0.022 C 
ATOM     10  C   UNL     1      -3.975  -2.219  -1.647  1.00  0.00     0.017 C 
BRANCH   6  11
ATOM     11  C   UNL     1      -0.784   0.551  -2.012  1.00  0.00     0.263 C 
ATOM     12  O   UNL     1      -1.203   1.615  -2.487  1.00  0.00    -0.271 OA
BRANCH  11  13
ATOM     13  C   UNL     1       0.646   0.503  -1.445  1.00  0.00     0.259 C 
ATOM     14  C   UNL     1       0.786   0.250   0.051  1.00  0.00     0.064 C 
BRANCH  13  15
ATOM     15  O   UNL     1       1.299  -0.522  -2.206  1.00  0.00    -0.481 OA
BRANCH  15  16
ATOM     16  C   UNL     1       2.606  -0.225  -2.461  1.00  0.00     0.120 A 
ATOM     17  C   UNL     1       2.967   0.449  -3.625  1.00  0.00     0.047 A 
ATOM     18  C   UNL     1       3.570  -0.749  -1.613  1.00  0.00     0.047 A 
ATOM     19  C   UNL     1       4.322   0.568  -3.959  1.00  0.00     0.012 A 
ATOM     20  C   UNL     1       4.915  -0.621  -1.943  1.00  0.00     0.012 A 
ATOM     21  C   UNL     1       5.314   0.001  -3.140  1.00  0.00    -0.018 A 
BRANCH  21  22
ATOM     22  C   UNL     1       6.728  -0.041  -3.541  1.00  0.00    -0.018 A 
ATOM     23  C   UNL     1       7.443   1.113  -3.892  1.00  0.00     0.009 A 
ATOM     24  C   UNL     1       7.407  -1.274  -3.568  1.00  0.00     0.009 A 
ATOM     25  C   UNL     1       8.797   1.034  -4.236  1.00  0.00     0.001 A 
ATOM     26  C   UNL     1       8.756  -1.354  -3.910  1.00  0.00     0.001 A 
ATOM     27  C   UNL     1       9.453  -0.197  -4.240  1.00  0.00     0.000 A 
ENDBRANCH  21  22
ENDBRANCH  15  16
ENDBRANCH  13  15
ENDBRANCH  11  13
ENDBRANCH   6  11
ENDBRANCH   1   5
BRANCH   3  28
ATOM     28  C   UNL     1      -3.313   0.841   0.309  1.00  0.00     0.117 C 
BRANCH  28  29
ATOM     29  C   UNL     1      -4.556   1.574  -0.161  1.00  0.00     0.042 C 
BRANCH  29  30
ATOM     30  C   UNL     1      -4.908   2.766   0.708  1.00  0.00     0.118 C 
BRANCH  30  31
ATOM     31  N   UNL     1      -3.913   3.833   0.643  1.00  0.00    -0.352 N 
ATOM     32  C   UNL     1      -4.029   5.157   0.286  1.00  0.00     0.251 C 
ATOM     33  H   UNL     1      -3.002   3.558   0.898  1.00  0.00     0.163 HD
ATOM     34  O   UNL     1      -3.028   5.854   0.199  1.00  0.00    -0.269 OA
BRANCH  32  35
ATOM     35  C   UNL     1      -5.356   5.734  -0.022  1.00  0.00     0.039 A 
ATOM     36  C   UNL     1      -5.469   6.644  -1.077  1.00  0.00     0.014 A 
ATOM     37  C   UNL     1      -6.484   5.380   0.716  1.00  0.00     0.014 A 
ATOM     38  C   UNL     1      -6.727   7.133  -1.438  1.00  0.00     0.010 A 
ATOM     39  C   UNL     1      -7.744   5.765   0.278  1.00  0.00     0.010 A 
ATOM     40  C   UNL     1      -7.879   6.661  -0.791  1.00  0.00    -0.014 A 
BRANCH  40  41
ATOM     41  C   UNL     1      -9.238   7.106  -1.186  1.00  0.00     0.031 A 
ATOM     42  C   UNL     1     -10.117   7.802  -0.182  1.00  0.00     0.074 A 
ATOM     43  C   UNL     1      -9.712   6.810  -2.412  1.00  0.00     0.049 A 
ATOM     44  N   UNL     1     -11.364   8.183  -0.297  1.00  0.00    -0.248 NA
ATOM     45  C   UNL     1      -9.531   8.066   1.143  1.00  0.00     0.031 C 
ATOM     46  C   UNL     1      -8.979   6.095  -3.459  1.00  0.00     0.029 A 
ATOM     47  N   UNL     1     -10.931   7.074  -2.982  1.00  0.00    -0.354 N 
ATOM     48  C   UNL     1     -11.717   8.692   0.946  1.00  0.00     0.074 A 
ATOM     49  C   UNL     1     -10.576   8.518   1.817  1.00  0.00     0.031 C 
ATOM     50  C   UNL     1      -9.746   6.017  -4.558  1.00  0.00     0.029 A 
ATOM     51  C   UNL     1     -11.038   6.634  -4.279  1.00  0.00     0.049 A 
ATOM     52  H   UNL     1     -11.661   7.534  -2.507  1.00  0.00     0.167 HD
ATOM     53  C   UNL     1     -12.877   9.277   1.326  1.00  0.00     0.031 A 
ATOM     54  C   UNL     1     -12.064   6.720  -5.147  1.00  0.00     0.031 A 
ATOM     55  C   UNL     1     -13.996   9.482   0.449  1.00  0.00     0.049 A 
ATOM     56  C   UNL     1     -13.337   7.386  -4.709  1.00  0.00     0.074 A 
ATOM     57  C   UNL     1     -15.187  10.137   0.707  1.00  0.00     0.029 A 
ATOM     58  N   UNL     1     -14.058   9.036  -0.863  1.00  0.00    -0.354 N 
ATOM     59  N   UNL     1     -13.631   7.928  -3.552  1.00  0.00    -0.248 NA
ATOM     60  C   UNL     1     -14.417   7.460  -5.703  1.00  0.00     0.031 C 
ATOM     61  C   UNL     1     -15.990  10.045  -0.435  1.00  0.00     0.029 A 
ATOM     62  C   UNL     1     -15.277   9.379  -1.420  1.00  0.00     0.049 A 
ATOM     63  H   UNL     1     -13.341   8.547  -1.328  1.00  0.00     0.167 HD
ATOM     64  C   UNL     1     -14.918   8.430  -3.685  1.00  0.00     0.074 A 
ATOM     65  C   UNL     1     -15.343   8.140  -5.040  1.00  0.00     0.031 C 
ATOM     66  C   UNL     1     -15.681   9.076  -2.769  1.00  0.00     0.031 A 
BRANCH  53  67
ATOM     67  C   UNL     1     -12.985   9.725   2.758  1.00  0.00    -0.014 A 
ATOM     68  C   UNL     1     -12.216  10.792   3.252  1.00  0.00     0.009 A 
ATOM     69  C   UNL     1     -13.869   9.069   3.628  1.00  0.00     0.009 A 
ATOM     70  C   UNL     1     -12.291  11.157   4.598  1.00  0.00     0.001 A 
ATOM     71  C   UNL     1     -13.966   9.457   4.966  1.00  0.00     0.001 A 
ATOM     72  C   UNL     1     -13.168  10.491   5.453  1.00  0.00     0.000 A 
ENDBRANCH  53  67
BRANCH  54  73
ATOM     73  C   UNL     1     -11.911   6.197  -6.529  1.00  0.00    -0.014 A 
ATOM     74  C   UNL     1     -11.790   7.086  -7.609  1.00  0.00     0.009 A 
ATOM     75  C   UNL     1     -11.868   4.817  -6.778  1.00  0.00     0.009 A 
ATOM     76  C   UNL     1     -11.648   6.603  -8.912  1.00  0.00     0.001 A 
ATOM     77  C   UNL     1     -11.700   4.337  -8.079  1.00  0.00     0.001 A 
ATOM     78  C   UNL     1     -11.598   5.229  -9.145  1.00  0.00     0.000 A 
ENDBRANCH  54  73
BRANCH  66  79
ATOM     79  C   UNL     1     -17.039   9.539  -3.212  1.00  0.00    -0.014 A 
ATOM     80  C   UNL     1     -18.090   8.629  -3.408  1.00  0.00     0.009 A 
ATOM     81  C   UNL     1     -17.280  10.909  -3.393  1.00  0.00     0.009 A 
ATOM     82  C   UNL     1     -19.348   9.083  -3.806  1.00  0.00     0.001 A 
ATOM     83  C   UNL     1     -18.546  11.362  -3.764  1.00  0.00     0.001 A 
ATOM     84  C   UNL     1     -19.577  10.448  -3.978  1.00  0.00     0.000 A 
ENDBRANCH  66  79
ENDBRANCH  40  41
ENDBRANCH  32  35
ENDBRANCH  30  31
ENDBRANCH  29  30
ENDBRANCH  28  29
ENDBRANCH   3  28
TORSDOF 15
