REMARK SMILES O=C(NCCCNC(=O)c1c(/C=C2/SC(=S)N=C2O)cnc2ccccc12)c1ccc(-c2c3nc(c(-c4ccccc4)c4ccc([nH]4)c(-c4ccccc4)c4nc(c(-c5ccccc5)c5ccc2[nH]5)C=C4)C=C3)cc1
REMARK SMILES IDX 5 1 4 2 3 3 1 4 2 5 28 7 29 8 75 9 30 10 74 11 31 12 32 13
REMARK SMILES IDX 33 14 68 15 34 16 73 17 67 18 69 19 35 20 72 21 66 22 65 23
REMARK SMILES IDX 36 25 58 26 43 27 57 28 44 29 47 30 56 31 70 32 45 33 46 34
REMARK SMILES IDX 55 36 71 37 48 38 37 39 38 40 42 41 39 42 41 43 40 44 59 45
REMARK SMILES IDX 60 46 64 47 61 48 63 49 62 50 49 51 50 52 54 53 51 54 53 55
REMARK SMILES IDX 52 56 6 57 7 58 8 59 9 61 10 62 11 63 27 64 20 65 22 66
REMARK SMILES IDX 26 67 21 68 23 69 25 70 24 71 12 72 13 73 14 74 18 75 15 76
REMARK SMILES IDX 17 77 16 78 19 79
REMARK H PARENT 3 6 69 24 47 35 7 60 19 80
REMARK Flexibility Score: inf
ROOT
ATOM      1  C   UNL     1       5.038  -2.007   1.111  1.00  0.00     0.042 C 
ENDROOT
BRANCH   1   2
ATOM      2  C   UNL     1       4.540  -1.383  -0.183  1.00  0.00     0.118 C 
BRANCH   2   3
ATOM      3  N   UNL     1       3.105  -1.130  -0.181  1.00  0.00    -0.352 N 
ATOM      4  O   UNL     1       1.168  -0.034   0.126  1.00  0.00    -0.269 OA
ATOM      5  C   UNL     1       2.386   0.029  -0.014  1.00  0.00     0.251 C 
ATOM      6  H   UNL     1       2.552  -1.932  -0.326  1.00  0.00     0.163 HD
BRANCH   5   7
ATOM      7  C   UNL     1       3.062   1.344   0.030  1.00  0.00     0.039 A 
ATOM      8  C   UNL     1       4.132   1.633  -0.813  1.00  0.00     0.014 A 
ATOM      9  C   UNL     1       2.589   2.326   0.908  1.00  0.00     0.014 A 
ATOM     10  C   UNL     1       4.847   2.811  -0.649  1.00  0.00     0.010 A 
ATOM     11  C   UNL     1       3.234   3.564   0.986  1.00  0.00     0.010 A 
ATOM     12  C   UNL     1       4.393   3.803   0.234  1.00  0.00    -0.014 A 
BRANCH  12  13
ATOM     13  C   UNL     1       5.114   5.100   0.287  1.00  0.00     0.031 A 
ATOM     14  C   UNL     1       5.788   5.570   1.545  1.00  0.00     0.074 A 
ATOM     15  C   UNL     1       5.194   5.836  -0.839  1.00  0.00     0.049 A 
ATOM     16  N   UNL     1       6.497   6.655   1.740  1.00  0.00    -0.248 NA
ATOM     17  C   UNL     1       5.647   4.725   2.741  1.00  0.00     0.031 C 
ATOM     18  C   UNL     1       4.577   5.486  -2.122  1.00  0.00     0.029 A 
ATOM     19  N   UNL     1       5.852   7.010  -1.099  1.00  0.00    -0.354 N 
ATOM     20  C   UNL     1       6.866   6.634   3.079  1.00  0.00     0.074 A 
ATOM     21  C   UNL     1       6.284   5.442   3.657  1.00  0.00     0.031 C 
ATOM     22  C   UNL     1       4.941   6.385  -3.046  1.00  0.00     0.029 A 
ATOM     23  C   UNL     1       5.751   7.415  -2.407  1.00  0.00     0.049 A 
ATOM     24  H   UNL     1       6.348   7.515  -0.414  1.00  0.00     0.167 HD
ATOM     25  C   UNL     1       7.623   7.527   3.762  1.00  0.00     0.031 A 
ATOM     26  C   UNL     1       6.241   8.502  -3.029  1.00  0.00     0.031 A 
ATOM     27  C   UNL     1       8.201   8.712   3.183  1.00  0.00     0.049 A 
ATOM     28  C   UNL     1       7.046   9.488  -2.240  1.00  0.00     0.074 A 
ATOM     29  C   UNL     1       9.009   9.661   3.787  1.00  0.00     0.029 A 
ATOM     30  N   UNL     1       8.030   9.113   1.867  1.00  0.00    -0.354 N 
ATOM     31  N   UNL     1       7.408   9.438  -0.981  1.00  0.00    -0.248 NA
ATOM     32  C   UNL     1       7.507  10.684  -2.956  1.00  0.00     0.031 C 
ATOM     33  C   UNL     1       9.282  10.664   2.851  1.00  0.00     0.029 A 
ATOM     34  C   UNL     1       8.691  10.311   1.648  1.00  0.00     0.049 A 
ATOM     35  H   UNL     1       7.514   8.620   1.189  1.00  0.00     0.167 HD
ATOM     36  C   UNL     1       8.147  10.589  -0.755  1.00  0.00     0.074 A 
ATOM     37  C   UNL     1       8.204  11.305  -2.014  1.00  0.00     0.031 C 
ATOM     38  C   UNL     1       8.725  11.017   0.393  1.00  0.00     0.031 A 
BRANCH  25  39
ATOM     39  C   UNL     1       7.842   7.272   5.229  1.00  0.00    -0.014 A 
ATOM     40  C   UNL     1       8.683   6.241   5.675  1.00  0.00     0.009 A 
ATOM     41  C   UNL     1       7.230   8.106   6.178  1.00  0.00     0.009 A 
ATOM     42  C   UNL     1       8.879   6.030   7.043  1.00  0.00     0.001 A 
ATOM     43  C   UNL     1       7.448   7.909   7.543  1.00  0.00     0.001 A 
ATOM     44  C   UNL     1       8.265   6.866   7.974  1.00  0.00     0.000 A 
ENDBRANCH  25  39
BRANCH  26  45
ATOM     45  C   UNL     1       5.960   8.713  -4.472  1.00  0.00    -0.014 A 
ATOM     46  C   UNL     1       6.983   8.599  -5.424  1.00  0.00     0.009 A 
ATOM     47  C   UNL     1       4.657   9.007  -4.905  1.00  0.00     0.009 A 
ATOM     48  C   UNL     1       6.709   8.789  -6.780  1.00  0.00     0.001 A 
ATOM     49  C   UNL     1       4.380   9.166  -6.264  1.00  0.00     0.001 A 
ATOM     50  C   UNL     1       5.408   9.065  -7.199  1.00  0.00     0.000 A 
ENDBRANCH  26  45
BRANCH  38  51
ATOM     51  C   UNL     1       9.482  12.312   0.329  1.00  0.00    -0.014 A 
ATOM     52  C   UNL     1       8.811  13.540   0.225  1.00  0.00     0.009 A 
ATOM     53  C   UNL     1      10.883  12.303   0.392  1.00  0.00     0.009 A 
ATOM     54  C   UNL     1       9.532  14.733   0.150  1.00  0.00     0.001 A 
ATOM     55  C   UNL     1      11.601  13.499   0.346  1.00  0.00     0.001 A 
ATOM     56  C   UNL     1      10.925  14.711   0.215  1.00  0.00     0.000 A 
ENDBRANCH  38  51
ENDBRANCH  12  13
ENDBRANCH   5   7
ENDBRANCH   2   3
ENDBRANCH   1   2
BRANCH   1  57
ATOM     57  C   UNL     1       4.403  -3.345   1.439  1.00  0.00     0.118 C 
BRANCH  57  58
ATOM     58  N   UNL     1       4.512  -4.325   0.367  1.00  0.00    -0.352 N 
ATOM     59  C   UNL     1       4.920  -5.627   0.469  1.00  0.00     0.252 C 
ATOM     60  H   UNL     1       4.265  -4.016  -0.534  1.00  0.00     0.163 HD
ATOM     61  O   UNL     1       4.729  -6.456  -0.410  1.00  0.00    -0.269 OA
BRANCH  59  62
ATOM     62  C   UNL     1       5.613  -6.077   1.662  1.00  0.00     0.058 A 
ATOM     63  C   UNL     1       7.005  -6.196   1.654  1.00  0.00     0.007 A 
ATOM     64  C   UNL     1       4.801  -6.346   2.806  1.00  0.00     0.014 A 
ATOM     65  C   UNL     1       7.520  -6.587   2.893  1.00  0.00     0.120 A 
ATOM     66  C   UNL     1       5.478  -6.660   3.990  1.00  0.00     0.071 A 
ATOM     67  C   UNL     1       3.382  -6.264   2.833  1.00  0.00     0.011 A 
ATOM     68  N   UNL     1       6.809  -6.795   4.029  1.00  0.00    -0.256 NA
ATOM     69  C   UNL     1       4.747  -6.806   5.163  1.00  0.00     0.029 A 
ATOM     70  C   UNL     1       2.668  -6.414   4.017  1.00  0.00     0.001 A 
ATOM     71  C   UNL     1       3.357  -6.671   5.192  1.00  0.00     0.002 A 
BRANCH  63  72
ATOM     72  C   UNL     1       8.018  -5.808   0.628  1.00  0.00     0.031 C 
ATOM     73  C   UNL     1       8.179  -5.499  -0.676  1.00  0.00     0.077 C 
ATOM     74  S   UNL     1       9.786  -4.864  -1.114  1.00  0.00    -0.053 SA
ATOM     75  C   UNL     1       7.439  -5.396  -1.960  1.00  0.00     0.227 C 
ATOM     76  C   UNL     1       9.180  -4.255  -2.658  1.00  0.00     0.168 C 
ATOM     77  N   UNL     1       7.934  -4.736  -2.957  1.00  0.00    -0.194 NA
ATOM     78  S   UNL     1      10.070  -3.202  -3.601  1.00  0.00    -0.050 S 
BRANCH  75  79
ATOM     79  O   UNL     1       6.301  -6.036  -2.181  1.00  0.00    -0.492 OA
ATOM     80  H   UNL     1       5.900  -6.530  -1.493  1.00  0.00     0.295 HD
ENDBRANCH  75  79
ENDBRANCH  63  72
ENDBRANCH  59  62
ENDBRANCH  57  58
ENDBRANCH   1  57
TORSDOF 12
