REMARK SMILES Cc1cccc(-n2ncc(C(=O)Nc3cccc(C(=O)NCCCNC(=O)c4ccc(-c5c6nc(c(-c7ccccc7)c7ccc([nH]7)c(-c7ccccc7)c7nc(c(-c8ccccc8)c8ccc5[nH]8)C=C7)C=C6)cc4)c3C)c2C)c1
REMARK SMILES IDX 22 1 21 2 19 3 20 4 18 6 14 7 15 8 76 9 16 10 77 11 17 12
REMARK SMILES IDX 13 13 11 14 12 15 10 17 7 18 8 19 78 20 9 21 79 22 6 23 1 24
REMARK SMILES IDX 2 25 3 26 80 27 4 28 5 29 23 30 24 31 25 32 26 33 27 35
REMARK SMILES IDX 28 36 29 37 75 38 30 39 74 40 31 41 32 42 33 43 68 44 34 45
REMARK SMILES IDX 73 46 67 47 69 48 35 49 72 50 66 51 65 52 36 54 58 55 43 56
REMARK SMILES IDX 57 57 44 58 47 59 56 60 70 61 45 62 46 63 55 65 71 66 48 67
REMARK SMILES IDX 37 68 38 69 42 70 39 71 41 72 40 73 59 74 60 75 64 76 61 77
REMARK SMILES IDX 63 78 62 79 49 80 50 81 54 82 51 83 53 84 52 85
REMARK H PARENT 21 5 13 16 25 34 69 53 47 64
REMARK Flexibility Score: inf
ROOT
ATOM      1  C   UNL     1      -1.005   9.117  -3.773  1.00  0.00     0.118 C 
ENDROOT
BRANCH   1   2
ATOM      2  N   UNL     1      -1.486   9.876  -2.629  1.00  0.00    -0.352 N 
ATOM      3  C   UNL     1      -2.400   9.631  -1.627  1.00  0.00     0.251 C 
ATOM      4  O   UNL     1      -2.529  10.549  -0.819  1.00  0.00    -0.269 OA
ATOM      5  H   UNL     1      -1.066  10.763  -2.554  1.00  0.00     0.163 HD
BRANCH   3   6
ATOM      6  C   UNL     1      -3.184   8.346  -1.470  1.00  0.00     0.044 A 
ATOM      7  C   UNL     1      -4.198   6.601  -0.100  1.00  0.00     0.045 A 
ATOM      8  C   UNL     1      -4.417   5.812  -1.233  1.00  0.00     0.026 A 
ATOM      9  C   UNL     1      -3.684   7.920  -0.206  1.00  0.00    -0.015 A 
ATOM     10  C   UNL     1      -4.061   6.285  -2.478  1.00  0.00     0.003 A 
ATOM     11  C   UNL     1      -3.572   8.751   1.051  1.00  0.00     0.047 C 
ATOM     12  C   UNL     1      -3.438   7.526  -2.582  1.00  0.00     0.014 A 
BRANCH   7  13
ATOM     13  N   UNL     1      -4.464   6.044   1.161  1.00  0.00    -0.322 N 
ATOM     14  C   UNL     1      -4.167   4.778   1.623  1.00  0.00     0.259 C 
ATOM     15  O   UNL     1      -4.776   4.369   2.612  1.00  0.00    -0.269 OA
ATOM     16  H   UNL     1      -4.925   6.635   1.800  1.00  0.00     0.170 HD
BRANCH  14  17
ATOM     17  C   UNL     1      -3.071   4.015   1.018  1.00  0.00     0.081 A 
ATOM     18  N   UNL     1      -1.656   2.370   0.479  1.00  0.00    -0.237 N 
ATOM     19  N   UNL     1      -1.126   3.488  -0.076  1.00  0.00    -0.175 NA
ATOM     20  C   UNL     1      -2.770   2.674   1.253  1.00  0.00     0.054 A 
ATOM     21  C   UNL     1      -1.987   4.453   0.227  1.00  0.00     0.149 A 
ATOM     22  C   UNL     1      -3.388   1.753   2.248  1.00  0.00     0.068 C 
BRANCH  18  23
ATOM     23  C   UNL     1      -1.016   1.121   0.257  1.00  0.00     0.065 A 
ATOM     24  C   UNL     1       2.548  -0.139  -0.218  1.00  0.00     0.044 C 
ATOM     25  C   UNL     1       1.054  -0.111  -0.095  1.00  0.00    -0.049 A 
ATOM     26  C   UNL     1       0.327  -1.307  -0.069  1.00  0.00     0.003 A 
ATOM     27  C   UNL     1       0.371   1.104   0.039  1.00  0.00     0.031 A 
ATOM     28  C   UNL     1      -1.060  -1.290   0.088  1.00  0.00     0.002 A 
ATOM     29  C   UNL     1      -1.734  -0.079   0.256  1.00  0.00     0.028 A 
ENDBRANCH  18  23
ENDBRANCH  14  17
ENDBRANCH   7  13
ENDBRANCH   3   6
ENDBRANCH   1   2
BRANCH   1  30
ATOM     30  C   UNL     1      -1.910   9.316  -4.989  1.00  0.00     0.042 C 
BRANCH  30  31
ATOM     31  C   UNL     1      -1.506  10.464  -5.897  1.00  0.00     0.118 C 
BRANCH  31  32
ATOM     32  N   UNL     1      -0.758  10.035  -7.076  1.00  0.00    -0.352 N 
ATOM     33  C   UNL     1      -0.323  10.790  -8.153  1.00  0.00     0.251 C 
ATOM     34  H   UNL     1      -0.533   9.078  -7.110  1.00  0.00     0.163 HD
ATOM     35  O   UNL     1       0.323  10.280  -9.052  1.00  0.00    -0.269 OA
BRANCH  33  36
ATOM     36  C   UNL     1      -0.530  12.256  -8.114  1.00  0.00     0.039 A 
ATOM     37  C   UNL     1       0.612  13.059  -8.191  1.00  0.00     0.014 A 
ATOM     38  C   UNL     1      -1.749  12.785  -7.704  1.00  0.00     0.014 A 
ATOM     39  C   UNL     1       0.595  14.306  -7.581  1.00  0.00     0.010 A 
ATOM     40  C   UNL     1      -1.738  13.973  -7.002  1.00  0.00     0.010 A 
ATOM     41  C   UNL     1      -0.541  14.688  -6.870  1.00  0.00    -0.014 A 
BRANCH  41  42
ATOM     42  C   UNL     1      -0.508  15.711  -5.832  1.00  0.00     0.031 A 
ATOM     43  C   UNL     1      -1.195  17.000  -6.023  1.00  0.00     0.074 A 
ATOM     44  C   UNL     1       0.106  15.441  -4.658  1.00  0.00     0.049 A 
ATOM     45  N   UNL     1      -0.928  18.070  -5.353  1.00  0.00    -0.248 NA
ATOM     46  C   UNL     1      -2.196  17.206  -7.062  1.00  0.00     0.031 C 
ATOM     47  C   UNL     1      -0.005  16.175  -3.401  1.00  0.00     0.029 A 
ATOM     48  N   UNL     1       1.158  14.548  -4.447  1.00  0.00    -0.354 N 
ATOM     49  C   UNL     1      -1.907  18.990  -5.642  1.00  0.00     0.074 A 
ATOM     50  C   UNL     1      -2.591  18.453  -6.793  1.00  0.00     0.031 C 
ATOM     51  C   UNL     1       1.066  15.897  -2.640  1.00  0.00     0.029 A 
ATOM     52  C   UNL     1       1.978  15.107  -3.451  1.00  0.00     0.049 A 
ATOM     53  H   UNL     1       1.299  13.689  -4.907  1.00  0.00     0.167 HD
ATOM     54  C   UNL     1      -2.123  20.021  -4.777  1.00  0.00     0.031 A 
ATOM     55  C   UNL     1       3.274  15.448  -3.712  1.00  0.00     0.031 A 
ATOM     56  C   UNL     1      -1.081  20.094  -3.750  1.00  0.00     0.049 A 
ATOM     57  C   UNL     1       3.576  16.918  -3.514  1.00  0.00     0.074 A 
ATOM     58  C   UNL     1      -1.035  19.743  -2.411  1.00  0.00     0.029 A 
ATOM     59  N   UNL     1       0.234  20.329  -4.138  1.00  0.00    -0.354 N 
ATOM     60  N   UNL     1       2.666  17.851  -3.453  1.00  0.00    -0.248 NA
ATOM     61  C   UNL     1       4.930  17.457  -3.418  1.00  0.00     0.031 C 
ATOM     62  C   UNL     1       0.329  19.704  -2.013  1.00  0.00     0.029 A 
ATOM     63  C   UNL     1       1.105  20.061  -3.101  1.00  0.00     0.049 A 
ATOM     64  H   UNL     1       0.506  20.644  -5.030  1.00  0.00     0.167 HD
ATOM     65  C   UNL     1       3.269  19.076  -3.329  1.00  0.00     0.074 A 
ATOM     66  C   UNL     1       4.688  18.774  -3.293  1.00  0.00     0.031 C 
ATOM     67  C   UNL     1       2.541  20.231  -3.289  1.00  0.00     0.031 A 
BRANCH  54  68
ATOM     68  C   UNL     1      -3.429  20.783  -4.693  1.00  0.00    -0.014 A 
ATOM     69  C   UNL     1      -3.756  21.468  -3.507  1.00  0.00     0.009 A 
ATOM     70  C   UNL     1      -4.419  20.799  -5.691  1.00  0.00     0.009 A 
ATOM     71  C   UNL     1      -5.016  22.051  -3.303  1.00  0.00     0.001 A 
ATOM     72  C   UNL     1      -5.688  21.359  -5.489  1.00  0.00     0.001 A 
ATOM     73  C   UNL     1      -5.992  21.976  -4.287  1.00  0.00     0.000 A 
ENDBRANCH  54  68
BRANCH  55  74
ATOM     74  C   UNL     1       3.932  14.585  -4.731  1.00  0.00    -0.014 A 
ATOM     75  C   UNL     1       4.149  13.227  -4.422  1.00  0.00     0.009 A 
ATOM     76  C   UNL     1       4.015  14.987  -6.071  1.00  0.00     0.009 A 
ATOM     77  C   UNL     1       4.333  12.281  -5.435  1.00  0.00     0.001 A 
ATOM     78  C   UNL     1       4.212  14.037  -7.083  1.00  0.00     0.001 A 
ATOM     79  C   UNL     1       4.336  12.684  -6.767  1.00  0.00     0.000 A 
ENDBRANCH  55  74
BRANCH  67  80
ATOM     80  C   UNL     1       3.083  21.642  -3.374  1.00  0.00    -0.014 A 
ATOM     81  C   UNL     1       4.347  21.985  -3.868  1.00  0.00     0.009 A 
ATOM     82  C   UNL     1       2.221  22.718  -3.057  1.00  0.00     0.009 A 
ATOM     83  C   UNL     1       4.743  23.326  -3.999  1.00  0.00     0.001 A 
ATOM     84  C   UNL     1       2.592  24.054  -3.230  1.00  0.00     0.001 A 
ATOM     85  C   UNL     1       3.863  24.358  -3.692  1.00  0.00     0.000 A 
ENDBRANCH  67  80
ENDBRANCH  41  42
ENDBRANCH  33  36
ENDBRANCH  31  32
ENDBRANCH  30  31
ENDBRANCH   1  30
TORSDOF 13
