REMARK SMILES Cc1cc(C(=O)NCCCNC(=O)c2ccc(-c3c4nc(c(-c5ccccc5)c5ccc([nH]5)c(-c5ccccc5)c5nc(c(-c6ccccc6)c6ccc3[nH]6)C=C5)C=C4)cc2)nc(N2CCN(c3ccccc3Cl)CC2)n1
REMARK SMILES IDX 9 1 8 2 7 3 5 4 6 5 4 7 1 8 2 9 3 10 77 11 63 12 62 13 64 14
REMARK SMILES IDX 65 15 76 16 66 17 75 18 67 19 68 20 69 21 73 22 70 23 72 24
REMARK SMILES IDX 74 25 71 26 10 27 11 28 12 29 13 31 14 32 15 33 61 34 16 35
REMARK SMILES IDX 60 36 17 37 18 38 19 39 54 40 20 41 59 42 53 43 55 44 21 45
REMARK SMILES IDX 58 46 52 47 51 48 22 50 44 51 29 52 43 53 30 54 33 55 42 56
REMARK SMILES IDX 56 57 31 58 32 59 41 61 57 62 34 63 23 64 24 65 28 66 25 67
REMARK SMILES IDX 27 68 26 69 45 70 46 71 50 72 47 73 49 74 48 75 35 76 36 77
REMARK SMILES IDX 40 78 37 79 39 80 38 81
REMARK H PARENT 7 6 11 30 55 49 33 60
REMARK Flexibility Score: inf
ROOT
ATOM      1  C   UNL     1      -0.596  -4.616  -0.706  1.00  0.00     0.042 C 
ENDROOT
BRANCH   1   2
ATOM      2  C   UNL     1       0.053  -4.009   0.535  1.00  0.00     0.118 C 
BRANCH   2   3
ATOM      3  N   UNL     1       1.360  -3.490   0.201  1.00  0.00    -0.351 N 
ATOM      4  C   UNL     1       1.800  -2.245  -0.168  1.00  0.00     0.270 C 
ATOM      5  O   UNL     1       2.993  -2.168  -0.476  1.00  0.00    -0.268 OA
ATOM      6  H   UNL     1       2.076  -4.164   0.248  1.00  0.00     0.163 HD
BRANCH   4   7
ATOM      7  C   UNL     1       0.945  -1.011  -0.154  1.00  0.00     0.133 A 
ATOM      8  C   UNL     1      -2.502   0.407  -0.044  1.00  0.00     0.067 C 
ATOM      9  C   UNL     1      -1.008   0.263  -0.044  1.00  0.00     0.044 A 
ATOM     10  C   UNL     1      -0.424  -0.972  -0.242  1.00  0.00     0.058 A 
ATOM     11  N   UNL     1      -0.285   1.389   0.123  1.00  0.00    -0.218 NA
ATOM     12  C   UNL     1       1.047   1.278   0.054  1.00  0.00     0.226 A 
ATOM     13  N   UNL     1       1.674   0.110  -0.046  1.00  0.00    -0.208 NA
BRANCH  12  14
ATOM     14  N   UNL     1       1.852   2.383   0.033  1.00  0.00    -0.337 N 
ATOM     15  C   UNL     1       1.428   3.643   0.631  1.00  0.00     0.141 C 
ATOM     16  C   UNL     1       2.684   2.485  -1.176  1.00  0.00     0.141 C 
ATOM     17  C   UNL     1       2.680   4.512   0.928  1.00  0.00     0.138 C 
ATOM     18  C   UNL     1       3.913   3.372  -0.916  1.00  0.00     0.138 C 
ATOM     19  N   UNL     1       3.501   4.633  -0.284  1.00  0.00    -0.367 N 
BRANCH  19  20
ATOM     20  C   UNL     1       4.023   5.838  -0.699  1.00  0.00     0.056 A 
ATOM     21  C   UNL     1       4.834   6.581   0.171  1.00  0.00     0.027 A 
ATOM     22  C   UNL     1       3.769   6.383  -1.976  1.00  0.00     0.064 A 
ATOM     23  C   UNL     1       5.375   7.813  -0.210  1.00  0.00     0.002 A 
ATOM     24  C   UNL     1       4.303   7.619  -2.356  1.00  0.00     0.023 A 
ATOM     25  Cl  UNL     1       2.722   5.602  -3.116  1.00  0.00    -0.082 Cl
ATOM     26  C   UNL     1       5.106   8.333  -1.472  1.00  0.00     0.002 A 
ENDBRANCH  19  20
ENDBRANCH  12  14
ENDBRANCH   4   7
ENDBRANCH   2   3
ENDBRANCH   1   2
BRANCH   1  27
ATOM     27  C   UNL     1       0.007  -5.971  -1.063  1.00  0.00     0.118 C 
BRANCH  27  28
ATOM     28  N   UNL     1      -0.327  -6.982  -0.067  1.00  0.00    -0.352 N 
ATOM     29  C   UNL     1      -1.058  -8.136  -0.202  1.00  0.00     0.251 C 
ATOM     30  H   UNL     1       0.024  -6.812   0.837  1.00  0.00     0.163 HD
ATOM     31  O   UNL     1      -1.466  -8.725   0.791  1.00  0.00    -0.269 OA
BRANCH  29  32
ATOM     32  C   UNL     1      -1.355  -8.657  -1.550  1.00  0.00     0.039 A 
ATOM     33  C   UNL     1      -2.637  -9.138  -1.827  1.00  0.00     0.014 A 
ATOM     34  C   UNL     1      -0.362  -8.681  -2.532  1.00  0.00     0.014 A 
ATOM     35  C   UNL     1      -2.942  -9.581  -3.115  1.00  0.00     0.010 A 
ATOM     36  C   UNL     1      -0.689  -9.047  -3.832  1.00  0.00     0.010 A 
ATOM     37  C   UNL     1      -1.981  -9.501  -4.136  1.00  0.00    -0.014 A 
BRANCH  37  38
ATOM     38  C   UNL     1      -2.296  -9.877  -5.535  1.00  0.00     0.031 A 
ATOM     39  C   UNL     1      -1.558 -11.011  -6.190  1.00  0.00     0.074 A 
ATOM     40  C   UNL     1      -3.173  -9.138  -6.242  1.00  0.00     0.049 A 
ATOM     41  N   UNL     1      -1.594 -11.409  -7.436  1.00  0.00    -0.248 NA
ATOM     42  C   UNL     1      -0.634 -11.780  -5.339  1.00  0.00     0.031 C 
ATOM     43  C   UNL     1      -3.931  -7.996  -5.726  1.00  0.00     0.029 A 
ATOM     44  N   UNL     1      -3.561  -9.227  -7.555  1.00  0.00    -0.354 N 
ATOM     45  C   UNL     1      -0.685 -12.455  -7.523  1.00  0.00     0.074 A 
ATOM     46  C   UNL     1      -0.078 -12.600  -6.218  1.00  0.00     0.031 C 
ATOM     47  C   UNL     1      -4.705  -7.503  -6.705  1.00  0.00     0.029 A 
ATOM     48  C   UNL     1      -4.459  -8.258  -7.930  1.00  0.00     0.049 A 
ATOM     49  H   UNL     1      -3.227  -9.920  -8.169  1.00  0.00     0.167 HD
ATOM     50  C   UNL     1      -0.393 -13.236  -8.590  1.00  0.00     0.031 A 
ATOM     51  C   UNL     1      -5.008  -7.993  -9.130  1.00  0.00     0.031 A 
ATOM     52  C   UNL     1      -1.004 -13.091  -9.884  1.00  0.00     0.049 A 
ATOM     53  C   UNL     1      -4.641  -8.852 -10.308  1.00  0.00     0.074 A 
ATOM     54  C   UNL     1      -0.817 -13.865 -11.016  1.00  0.00     0.029 A 
ATOM     55  N   UNL     1      -1.915 -12.101 -10.220  1.00  0.00    -0.354 N 
ATOM     56  N   UNL     1      -3.828  -9.879 -10.360  1.00  0.00    -0.248 NA
ATOM     57  C   UNL     1      -5.273  -8.520 -11.593  1.00  0.00     0.031 C 
ATOM     58  C   UNL     1      -1.568 -13.306 -12.054  1.00  0.00     0.029 A 
ATOM     59  C   UNL     1      -2.277 -12.227 -11.550  1.00  0.00     0.049 A 
ATOM     60  H   UNL     1      -2.254 -11.412  -9.604  1.00  0.00     0.167 HD
ATOM     61  C   UNL     1      -3.876 -10.336 -11.671  1.00  0.00     0.074 A 
ATOM     62  C   UNL     1      -4.807  -9.481 -12.378  1.00  0.00     0.031 C 
ATOM     63  C   UNL     1      -3.211 -11.372 -12.236  1.00  0.00     0.031 A 
BRANCH  50  64
ATOM     64  C   UNL     1       0.645 -14.308  -8.404  1.00  0.00    -0.014 A 
ATOM     65  C   UNL     1       0.402 -15.428  -7.592  1.00  0.00     0.009 A 
ATOM     66  C   UNL     1       1.872 -14.216  -9.080  1.00  0.00     0.009 A 
ATOM     67  C   UNL     1       1.381 -16.411  -7.430  1.00  0.00     0.001 A 
ATOM     68  C   UNL     1       2.836 -15.216  -8.942  1.00  0.00     0.001 A 
ATOM     69  C   UNL     1       2.594 -16.307  -8.109  1.00  0.00     0.000 A 
ENDBRANCH  50  64
BRANCH  51  70
ATOM     70  C   UNL     1      -5.965  -6.865  -9.280  1.00  0.00    -0.014 A 
ATOM     71  C   UNL     1      -7.322  -7.112  -9.537  1.00  0.00     0.009 A 
ATOM     72  C   UNL     1      -5.528  -5.535  -9.174  1.00  0.00     0.009 A 
ATOM     73  C   UNL     1      -8.215  -6.052  -9.714  1.00  0.00     0.001 A 
ATOM     74  C   UNL     1      -6.428  -4.478  -9.318  1.00  0.00     0.001 A 
ATOM     75  C   UNL     1      -7.768  -4.736  -9.600  1.00  0.00     0.000 A 
ENDBRANCH  51  70
BRANCH  63  76
ATOM     76  C   UNL     1      -3.499 -11.675 -13.680  1.00  0.00    -0.014 A 
ATOM     77  C   UNL     1      -3.035 -10.843 -14.710  1.00  0.00     0.009 A 
ATOM     78  C   UNL     1      -4.190 -12.851 -14.013  1.00  0.00     0.009 A 
ATOM     79  C   UNL     1      -3.281 -11.172 -16.045  1.00  0.00     0.001 A 
ATOM     80  C   UNL     1      -4.407 -13.193 -15.348  1.00  0.00     0.001 A 
ATOM     81  C   UNL     1      -3.959 -12.349 -16.363  1.00  0.00     0.000 A 
ENDBRANCH  63  76
ENDBRANCH  37  38
ENDBRANCH  29  32
ENDBRANCH  27  28
ENDBRANCH   1  27
TORSDOF 12
