REMARK SMILES CCC[C@]1(C(=O)NCCCNC(=O)c2ccc(-c3c4nc(c(-c5ccccc5)c5ccc([nH]5)c(-c5ccccc5)c5nc(c(-c6ccccc6)c6ccc3[nH]6)C=C5)C=C4)cc2)CCN(C(=O)Nc2cccnc2C)C1
REMARK SMILES IDX 9 1 8 2 7 3 5 4 6 5 4 7 62 8 75 9 63 10 64 11 3 12 2 13 1 14
REMARK SMILES IDX 65 15 66 16 67 17 68 19 69 20 73 21 70 22 72 23 74 24 71 25
REMARK SMILES IDX 10 26 11 27 12 28 13 30 14 31 15 32 61 33 16 34 60 35 17 36
REMARK SMILES IDX 18 37 19 38 54 39 20 40 59 41 53 42 55 43 21 44 58 45 52 46
REMARK SMILES IDX 51 47 22 49 44 50 29 51 43 52 30 53 33 54 42 55 56 56 31 57
REMARK SMILES IDX 32 58 41 60 57 61 34 62 23 63 24 64 28 65 25 66 27 67 26 68
REMARK SMILES IDX 45 69 46 70 50 71 47 72 49 73 48 74 35 75 36 76 40 77 37 78
REMARK SMILES IDX 39 79 38 80
REMARK H PARENT 7 6 67 18 11 29 55 48 33 59
REMARK Flexibility Score: inf
ROOT
ATOM      1  C   UNL     1      -0.089  -5.426   0.217  1.00  0.00     0.042 C 
ENDROOT
BRANCH   1   2
ATOM      2  C   UNL     1      -0.954  -4.234  -0.192  1.00  0.00     0.117 C 
BRANCH   2   3
ATOM      3  N   UNL     1      -0.319  -2.977   0.159  1.00  0.00    -0.355 N 
ATOM      4  C   UNL     1       0.677  -2.295  -0.452  1.00  0.00     0.228 C 
ATOM      5  O   UNL     1       1.535  -1.835   0.314  1.00  0.00    -0.274 OA
ATOM      6  H   UNL     1      -0.671  -2.551   0.974  1.00  0.00     0.163 HD
BRANCH   4   7
ATOM      7  C   UNL     1       0.819  -2.099  -1.966  1.00  0.00     0.068 C 
ATOM      8  C   UNL     1       1.906  -3.088  -2.458  1.00  0.00     0.040 C 
ATOM      9  C   UNL     1      -0.390  -2.398  -2.881  1.00  0.00     0.138 C 
ATOM     10  C   UNL     1       1.508  -3.419  -3.879  1.00  0.00     0.122 C 
ATOM     11  N   UNL     1       0.059  -3.425  -3.825  1.00  0.00    -0.323 N 
BRANCH   7  12
ATOM     12  C   UNL     1       1.319  -0.638  -2.221  1.00  0.00     0.018 C 
BRANCH  12  13
ATOM     13  C   UNL     1       0.389   0.496  -1.752  1.00  0.00    -0.002 C 
ATOM     14  C   UNL     1       0.565   0.899  -0.293  1.00  0.00     0.004 C 
ENDBRANCH  12  13
ENDBRANCH   7  12
BRANCH  11  15
ATOM     15  C   UNL     1      -0.799  -3.958  -4.756  1.00  0.00     0.321 C 
ATOM     16  O   UNL     1      -1.946  -3.531  -4.895  1.00  0.00    -0.248 OA
ATOM     17  N   UNL     1      -0.338  -4.904  -5.626  1.00  0.00    -0.306 N 
ATOM     18  H   UNL     1      -0.678  -4.824  -6.546  1.00  0.00     0.171 HD
BRANCH  17  19
ATOM     19  C   UNL     1       0.549  -5.979  -5.411  1.00  0.00     0.064 A 
ATOM     20  C   UNL     1       1.367  -6.357  -6.477  1.00  0.00     0.030 A 
ATOM     21  C   UNL     1       0.666  -6.702  -4.216  1.00  0.00     0.061 A 
ATOM     22  C   UNL     1       2.350  -7.326  -6.287  1.00  0.00     0.022 A 
ATOM     23  N   UNL     1       1.632  -7.638  -4.015  1.00  0.00    -0.259 NA
ATOM     24  C   UNL     1      -0.296  -6.549  -3.083  1.00  0.00     0.069 C 
ATOM     25  C   UNL     1       2.459  -7.916  -5.042  1.00  0.00     0.111 A 
ENDBRANCH  17  19
ENDBRANCH  11  15
ENDBRANCH   4   7
ENDBRANCH   2   3
ENDBRANCH   1   2
BRANCH   1  26
ATOM     26  C   UNL     1       0.143  -5.548   1.717  1.00  0.00     0.118 C 
BRANCH  26  27
ATOM     27  N   UNL     1      -1.050  -5.995   2.417  1.00  0.00    -0.352 N 
ATOM     28  C   UNL     1      -1.338  -7.205   2.998  1.00  0.00     0.251 C 
ATOM     29  H   UNL     1      -1.766  -5.322   2.486  1.00  0.00     0.163 HD
ATOM     30  O   UNL     1      -2.497  -7.454   3.320  1.00  0.00    -0.269 OA
BRANCH  28  31
ATOM     31  C   UNL     1      -0.282  -8.217   3.238  1.00  0.00     0.039 A 
ATOM     32  C   UNL     1      -0.601  -9.569   3.071  1.00  0.00     0.014 A 
ATOM     33  C   UNL     1       0.988  -7.861   3.702  1.00  0.00     0.014 A 
ATOM     34  C   UNL     1       0.358 -10.554   3.327  1.00  0.00     0.010 A 
ATOM     35  C   UNL     1       1.966  -8.837   3.886  1.00  0.00     0.010 A 
ATOM     36  C   UNL     1       1.658 -10.195   3.717  1.00  0.00    -0.014 A 
BRANCH  36  37
ATOM     37  C   UNL     1       2.696 -11.224   3.980  1.00  0.00     0.031 A 
ATOM     38  C   UNL     1       3.255 -11.402   5.367  1.00  0.00     0.074 A 
ATOM     39  C   UNL     1       3.177 -11.967   2.966  1.00  0.00     0.049 A 
ATOM     40  N   UNL     1       4.212 -12.196   5.776  1.00  0.00    -0.248 NA
ATOM     41  C   UNL     1       2.679 -10.560   6.427  1.00  0.00     0.031 C 
ATOM     42  C   UNL     1       2.749 -11.877   1.569  1.00  0.00     0.029 A 
ATOM     43  N   UNL     1       4.143 -12.943   2.956  1.00  0.00    -0.354 N 
ATOM     44  C   UNL     1       4.370 -11.931   7.131  1.00  0.00     0.074 A 
ATOM     45  C   UNL     1       3.435 -10.880   7.468  1.00  0.00     0.031 C 
ATOM     46  C   UNL     1       3.433 -12.775   0.842  1.00  0.00     0.029 A 
ATOM     47  C   UNL     1       4.371 -13.478   1.712  1.00  0.00     0.049 A 
ATOM     48  H   UNL     1       4.627 -13.231   3.764  1.00  0.00     0.167 HD
ATOM     49  C   UNL     1       5.207 -12.518   8.020  1.00  0.00     0.031 A 
ATOM     50  C   UNL     1       5.241 -14.424   1.313  1.00  0.00     0.031 A 
ATOM     51  C   UNL     1       6.121 -13.581   7.700  1.00  0.00     0.049 A 
ATOM     52  C   UNL     1       6.152 -15.066   2.320  1.00  0.00     0.074 A 
ATOM     53  C   UNL     1       6.965 -14.277   8.548  1.00  0.00     0.029 A 
ATOM     54  N   UNL     1       6.308 -14.104   6.431  1.00  0.00    -0.354 N 
ATOM     55  N   UNL     1       6.253 -14.837   3.606  1.00  0.00    -0.248 NA
ATOM     56  C   UNL     1       7.064 -16.105   1.817  1.00  0.00     0.031 C 
ATOM     57  C   UNL     1       7.688 -15.200   7.785  1.00  0.00     0.029 A 
ATOM     58  C   UNL     1       7.265 -15.103   6.469  1.00  0.00     0.049 A 
ATOM     59  H   UNL     1       5.830 -13.809   5.622  1.00  0.00     0.167 HD
ATOM     60  C   UNL     1       7.224 -15.714   4.070  1.00  0.00     0.074 A 
ATOM     61  C   UNL     1       7.672 -16.489   2.931  1.00  0.00     0.031 C 
ATOM     62  C   UNL     1       7.702 -15.863   5.329  1.00  0.00     0.031 A 
BRANCH  49  63
ATOM     63  C   UNL     1       5.173 -12.012   9.434  1.00  0.00    -0.014 A 
ATOM     64  C   UNL     1       4.098 -12.311  10.286  1.00  0.00     0.009 A 
ATOM     65  C   UNL     1       6.244 -11.253   9.929  1.00  0.00     0.009 A 
ATOM     66  C   UNL     1       4.082 -11.831  11.597  1.00  0.00     0.001 A 
ATOM     67  C   UNL     1       6.236 -10.794  11.248  1.00  0.00     0.001 A 
ATOM     68  C   UNL     1       5.152 -11.077  12.078  1.00  0.00     0.000 A 
ENDBRANCH  49  63
BRANCH  50  69
ATOM     69  C   UNL     1       5.283 -14.834  -0.113  1.00  0.00    -0.014 A 
ATOM     70  C   UNL     1       4.744 -16.066  -0.511  1.00  0.00     0.009 A 
ATOM     71  C   UNL     1       5.858 -13.996  -1.080  1.00  0.00     0.009 A 
ATOM     72  C   UNL     1       4.797 -16.460  -1.850  1.00  0.00     0.001 A 
ATOM     73  C   UNL     1       5.889 -14.383  -2.421  1.00  0.00     0.001 A 
ATOM     74  C   UNL     1       5.366 -15.617  -2.804  1.00  0.00     0.000 A 
ENDBRANCH  50  69
BRANCH  62  75
ATOM     75  C   UNL     1       8.746 -16.919   5.543  1.00  0.00    -0.014 A 
ATOM     76  C   UNL     1      10.074 -16.718   5.135  1.00  0.00     0.009 A 
ATOM     77  C   UNL     1       8.403 -18.116   6.190  1.00  0.00     0.009 A 
ATOM     78  C   UNL     1      11.033 -17.711   5.346  1.00  0.00     0.001 A 
ATOM     79  C   UNL     1       9.369 -19.097   6.419  1.00  0.00     0.001 A 
ATOM     80  C   UNL     1      10.681 -18.897   5.991  1.00  0.00     0.000 A 
ENDBRANCH  62  75
ENDBRANCH  36  37
ENDBRANCH  28  31
ENDBRANCH  26  27
ENDBRANCH   1  26
TORSDOF 14
