REMARK SMILES COc1cc(/C=N/NC(=O)c2cccnc2)ccc1OCC(=O)NCCCNC(=O)c1ccc(-c2c3nc(c(-c4ccccc4)c4ccc([nH]4)c(-c4ccccc4)c4nc(c(-c5ccccc5)c5ccc2[nH]5)C=C4)C=C3)cc1
REMARK SMILES IDX 22 1 23 2 24 3 21 5 20 6 19 7 3 8 4 9 5 10 18 11 17 12 2 13
REMARK SMILES IDX 1 14 6 15 7 16 8 17 9 18 10 20 11 21 12 22 16 23 13 24 15 25
REMARK SMILES IDX 14 26 25 27 26 28 27 29 28 30 29 31 30 33 31 34 32 35 78 36
REMARK SMILES IDX 33 37 77 38 34 39 35 40 36 41 71 42 37 43 76 44 70 45 72 46
REMARK SMILES IDX 38 47 75 48 69 49 68 50 39 52 61 53 46 54 60 55 47 56 50 57
REMARK SMILES IDX 59 58 73 59 48 60 49 61 58 63 74 64 51 65 40 66 41 67 45 68
REMARK SMILES IDX 42 69 44 70 43 71 62 72 63 73 67 74 64 75 66 76 65 77 52 78
REMARK SMILES IDX 53 79 57 80 54 81 56 82 55 83
REMARK H PARENT 24 4 8 19 28 32 72 51 50 62
REMARK Flexibility Score: inf
ROOT
ATOM      1  C   UNL     1       2.213  -1.189   0.305  1.00  0.00     0.257 C 
ATOM      2  O   UNL     1       1.331  -1.473  -0.508  1.00  0.00    -0.271 OA
ATOM      3  N   UNL     1       2.441  -2.071   1.322  1.00  0.00    -0.353 N 
ATOM      4  H   UNL     1       1.763  -2.775   1.436  1.00  0.00     0.163 HD
ENDROOT
BRANCH   1   5
ATOM      5  C   UNL     1       3.088   0.063   0.165  1.00  0.00     0.329 C 
BRANCH   5   6
ATOM      6  O   UNL     1       3.266   0.861   1.323  1.00  0.00    -0.480 OA
BRANCH   6   7
ATOM      7  C   UNL     1       2.203   1.527   1.868  1.00  0.00     0.161 A 
ATOM      8  C   UNL     1       0.991   1.887   1.263  1.00  0.00     0.161 A 
ATOM      9  C   UNL     1       0.036   2.619   1.987  1.00  0.00     0.060 A 
ATOM     10  C   UNL     1       0.274   2.951   3.323  1.00  0.00    -0.002 A 
ATOM     11  C   UNL     1       2.431   1.896   3.204  1.00  0.00     0.051 A 
ATOM     12  C   UNL     1       1.467   2.583   3.940  1.00  0.00     0.014 A 
BRANCH   8  13
ATOM     13  O   UNL     1       0.789   1.646  -0.068  1.00  0.00    -0.493 OA
ATOM     14  C   UNL     1      -0.421   0.934  -0.336  1.00  0.00     0.278 C 
ENDBRANCH   8  13
BRANCH  10  15
ATOM     15  C   UNL     1      -0.677   3.775   4.090  1.00  0.00     0.141 C 
ATOM     16  N   UNL     1      -1.473   4.609   3.500  1.00  0.00    -0.180 NA
BRANCH  16  17
ATOM     17  N   UNL     1      -2.214   5.452   4.280  1.00  0.00    -0.243 N 
ATOM     18  C   UNL     1      -1.841   6.202   5.384  1.00  0.00     0.272 C 
ATOM     19  H   UNL     1      -3.159   5.541   4.016  1.00  0.00     0.194 HD
ATOM     20  O   UNL     1      -2.673   6.868   5.997  1.00  0.00    -0.267 OA
BRANCH  18  21
ATOM     21  C   UNL     1      -0.444   6.222   5.855  1.00  0.00     0.059 A 
ATOM     22  C   UNL     1       0.652   6.367   5.003  1.00  0.00     0.017 A 
ATOM     23  C   UNL     1      -0.206   6.069   7.214  1.00  0.00     0.124 A 
ATOM     24  C   UNL     1       1.938   6.280   5.532  1.00  0.00     0.021 A 
ATOM     25  N   UNL     1       1.035   5.973   7.751  1.00  0.00    -0.264 NA
ATOM     26  C   UNL     1       2.077   6.076   6.897  1.00  0.00     0.111 A 
ENDBRANCH  18  21
ENDBRANCH  16  17
ENDBRANCH  10  15
ENDBRANCH   6   7
ENDBRANCH   5   6
ENDBRANCH   1   5
BRANCH   3  27
ATOM     27  C   UNL     1       3.548  -2.108   2.257  1.00  0.00     0.117 C 
BRANCH  27  28
ATOM     28  C   UNL     1       3.121  -1.887   3.702  1.00  0.00     0.042 C 
BRANCH  28  29
ATOM     29  C   UNL     1       2.033  -2.831   4.206  1.00  0.00     0.118 C 
BRANCH  29  30
ATOM     30  N   UNL     1       2.391  -4.236   4.080  1.00  0.00    -0.352 N 
ATOM     31  C   UNL     1       2.616  -5.197   5.030  1.00  0.00     0.251 C 
ATOM     32  H   UNL     1       2.487  -4.551   3.152  1.00  0.00     0.163 HD
ATOM     33  O   UNL     1       3.080  -6.286   4.683  1.00  0.00    -0.269 OA
BRANCH  31  34
ATOM     34  C   UNL     1       2.338  -4.949   6.460  1.00  0.00     0.039 A 
ATOM     35  C   UNL     1       3.227  -5.458   7.412  1.00  0.00     0.014 A 
ATOM     36  C   UNL     1       1.194  -4.266   6.878  1.00  0.00     0.014 A 
ATOM     37  C   UNL     1       3.002  -5.226   8.771  1.00  0.00     0.010 A 
ATOM     38  C   UNL     1       1.017  -3.959   8.225  1.00  0.00     0.010 A 
ATOM     39  C   UNL     1       1.914  -4.443   9.188  1.00  0.00    -0.014 A 
BRANCH  39  40
ATOM     40  C   UNL     1       1.705  -4.128  10.626  1.00  0.00     0.031 A 
ATOM     41  C   UNL     1       0.470  -4.606  11.342  1.00  0.00     0.074 A 
ATOM     42  C   UNL     1       2.609  -3.372  11.279  1.00  0.00     0.049 A 
ATOM     43  N   UNL     1       0.112  -4.415  12.587  1.00  0.00    -0.248 NA
ATOM     44  C   UNL     1      -0.502  -5.378  10.551  1.00  0.00     0.031 C 
ATOM     45  C   UNL     1       3.827  -2.808  10.691  1.00  0.00     0.029 A 
ATOM     46  N   UNL     1       2.646  -2.949  12.584  1.00  0.00    -0.354 N 
ATOM     47  C   UNL     1      -1.128  -5.028  12.723  1.00  0.00     0.074 A 
ATOM     48  C   UNL     1      -1.487  -5.547  11.421  1.00  0.00     0.031 C 
ATOM     49  C   UNL     1       4.508  -2.147  11.640  1.00  0.00     0.029 A 
ATOM     50  C   UNL     1       3.759  -2.205  12.891  1.00  0.00     0.049 A 
ATOM     51  H   UNL     1       1.941  -3.159  13.239  1.00  0.00     0.167 HD
ATOM     52  C   UNL     1      -1.891  -5.167  13.834  1.00  0.00     0.031 A 
ATOM     53  C   UNL     1       4.137  -1.633  14.050  1.00  0.00     0.031 A 
ATOM     54  C   UNL     1      -1.532  -4.659  15.131  1.00  0.00     0.049 A 
ATOM     55  C   UNL     1       3.269  -1.795  15.266  1.00  0.00     0.074 A 
ATOM     56  C   UNL     1      -2.212  -4.795  16.329  1.00  0.00     0.029 A 
ATOM     57  N   UNL     1      -0.395  -3.912  15.399  1.00  0.00    -0.354 N 
ATOM     58  N   UNL     1       2.136  -2.442  15.393  1.00  0.00    -0.248 NA
ATOM     59  C   UNL     1       3.744  -1.161  16.504  1.00  0.00     0.031 C 
ATOM     60  C   UNL     1      -1.513  -4.086  17.311  1.00  0.00     0.029 A 
ATOM     61  C   UNL     1      -0.366  -3.561  16.738  1.00  0.00     0.049 A 
ATOM     62  H   UNL     1       0.290  -3.668  14.736  1.00  0.00     0.167 HD
ATOM     63  C   UNL     1       1.777  -2.317  16.729  1.00  0.00     0.074 A 
ATOM     64  C   UNL     1       2.823  -1.550  17.374  1.00  0.00     0.031 C 
ATOM     65  C   UNL     1       0.680  -2.795  17.366  1.00  0.00     0.031 A 
BRANCH  52  66
ATOM     66  C   UNL     1      -3.198  -5.898  13.688  1.00  0.00    -0.014 A 
ATOM     67  C   UNL     1      -3.237  -7.279  13.434  1.00  0.00     0.009 A 
ATOM     68  C   UNL     1      -4.409  -5.204  13.840  1.00  0.00     0.009 A 
ATOM     69  C   UNL     1      -4.459  -7.940  13.294  1.00  0.00     0.001 A 
ATOM     70  C   UNL     1      -5.629  -5.874  13.731  1.00  0.00     0.001 A 
ATOM     71  C   UNL     1      -5.654  -7.238  13.448  1.00  0.00     0.000 A 
ENDBRANCH  52  66
BRANCH  53  72
ATOM     72  C   UNL     1       5.413  -0.873  14.125  1.00  0.00    -0.014 A 
ATOM     73  C   UNL     1       6.502  -1.378  14.853  1.00  0.00     0.009 A 
ATOM     74  C   UNL     1       5.547   0.365  13.478  1.00  0.00     0.009 A 
ATOM     75  C   UNL     1       7.686  -0.645  14.956  1.00  0.00     0.001 A 
ATOM     76  C   UNL     1       6.743   1.081  13.556  1.00  0.00     0.001 A 
ATOM     77  C   UNL     1       7.808   0.580  14.304  1.00  0.00     0.000 A 
ENDBRANCH  53  72
BRANCH  65  78
ATOM     78  C   UNL     1       0.577  -2.535  18.843  1.00  0.00    -0.014 A 
ATOM     79  C   UNL     1       0.324  -1.249  19.345  1.00  0.00     0.009 A 
ATOM     80  C   UNL     1       0.709  -3.603  19.745  1.00  0.00     0.009 A 
ATOM     81  C   UNL     1       0.248  -1.031  20.723  1.00  0.00     0.001 A 
ATOM     82  C   UNL     1       0.600  -3.388  21.119  1.00  0.00     0.001 A 
ATOM     83  C   UNL     1       0.382  -2.101  21.607  1.00  0.00     0.000 A 
ENDBRANCH  65  78
ENDBRANCH  39  40
ENDBRANCH  31  34
ENDBRANCH  29  30
ENDBRANCH  28  29
ENDBRANCH  27  28
ENDBRANCH   3  27
TORSDOF 16
