REMARK SMILES O=C(NCCCNC(=O)[C@H]1C[C@](O)(c2ccc(Cl)cc2)[C@@H](c2ccc(Cl)cc2)O1)c1ccc(-c2c3nc(c(-c4ccccc4)c4ccc([nH]4)c(-c4ccccc4)c4nc(c(-c5ccccc5)c5ccc2[nH]5)C=C4)C=C3)cc1
REMARK SMILES IDX 4 1 3 2 1 3 2 4 30 6 31 7 77 8 32 9 76 10 33 11 34 12 35 13
REMARK SMILES IDX 70 14 36 15 75 16 69 17 71 18 37 19 74 20 68 21 67 22 38 24
REMARK SMILES IDX 60 25 45 26 59 27 46 28 49 29 58 30 72 31 47 32 48 33 57 35
REMARK SMILES IDX 73 36 50 37 39 38 40 39 44 40 41 41 43 42 42 43 61 44 62 45
REMARK SMILES IDX 66 46 63 47 65 48 64 49 51 50 52 51 56 52 53 53 55 54 54 55
REMARK SMILES IDX 5 56 6 57 7 58 8 59 9 61 10 62 11 63 29 64 12 65 21 66 14 67
REMARK SMILES IDX 15 68 20 69 16 70 19 71 17 72 18 73 13 74 22 76 23 77 28 78
REMARK SMILES IDX 24 79 27 80 25 81 26 82
REMARK H PARENT 3 5 71 23 49 34 7 60 13 75
REMARK Flexibility Score: inf
ROOT
ATOM      1  C   UNL     1       9.036  -2.964   6.127  1.00  0.00     0.118 C 
ENDROOT
BRANCH   1   2
ATOM      2  N   UNL     1       9.522  -1.683   6.616  1.00  0.00    -0.352 N 
ATOM      3  O   UNL     1       9.952  -0.066   8.108  1.00  0.00    -0.269 OA
ATOM      4  C   UNL     1       9.809  -1.268   7.894  1.00  0.00     0.251 C 
ATOM      5  H   UNL     1       9.670  -1.004   5.918  1.00  0.00     0.163 HD
BRANCH   4   6
ATOM      6  C   UNL     1       9.963  -2.221   9.024  1.00  0.00     0.039 A 
ATOM      7  C   UNL     1      10.683  -3.409   8.896  1.00  0.00     0.014 A 
ATOM      8  C   UNL     1       9.499  -1.841  10.291  1.00  0.00     0.014 A 
ATOM      9  C   UNL     1      10.886  -4.231  10.013  1.00  0.00     0.010 A 
ATOM     10  C   UNL     1       9.733  -2.652  11.413  1.00  0.00     0.010 A 
ATOM     11  C   UNL     1      10.419  -3.868  11.288  1.00  0.00    -0.014 A 
BRANCH  11  12
ATOM     12  C   UNL     1      10.701  -4.725  12.482  1.00  0.00     0.031 A 
ATOM     13  C   UNL     1       9.586  -5.330  13.302  1.00  0.00     0.074 A 
ATOM     14  C   UNL     1      11.975  -4.961  12.859  1.00  0.00     0.049 A 
ATOM     15  N   UNL     1       9.661  -6.041  14.403  1.00  0.00    -0.248 NA
ATOM     16  C   UNL     1       8.212  -5.099  12.834  1.00  0.00     0.031 C 
ATOM     17  C   UNL     1      13.168  -4.449  12.183  1.00  0.00     0.029 A 
ATOM     18  N   UNL     1      12.479  -5.700  13.904  1.00  0.00    -0.354 N 
ATOM     19  C   UNL     1       8.350  -6.314  14.776  1.00  0.00     0.074 A 
ATOM     20  C   UNL     1       7.498  -5.680  13.790  1.00  0.00     0.031 C 
ATOM     21  C   UNL     1      14.261  -4.924  12.800  1.00  0.00     0.029 A 
ATOM     22  C   UNL     1      13.852  -5.721  13.952  1.00  0.00     0.049 A 
ATOM     23  H   UNL     1      11.910  -6.170  14.556  1.00  0.00     0.167 HD
ATOM     24  C   UNL     1       7.891  -7.025  15.836  1.00  0.00     0.031 A 
ATOM     25  C   UNL     1      14.700  -6.295  14.828  1.00  0.00     0.031 A 
ATOM     26  C   UNL     1       8.718  -7.685  16.814  1.00  0.00     0.049 A 
ATOM     27  C   UNL     1      14.166  -7.061  16.004  1.00  0.00     0.074 A 
ATOM     28  C   UNL     1       8.322  -8.460  17.893  1.00  0.00     0.029 A 
ATOM     29  N   UNL     1      10.102  -7.654  16.836  1.00  0.00    -0.354 N 
ATOM     30  N   UNL     1      12.924  -7.311  16.331  1.00  0.00    -0.248 NA
ATOM     31  C   UNL     1      15.159  -7.615  16.938  1.00  0.00     0.031 C 
ATOM     32  C   UNL     1       9.465  -8.864  18.592  1.00  0.00     0.029 A 
ATOM     33  C   UNL     1      10.574  -8.377  17.921  1.00  0.00     0.049 A 
ATOM     34  H   UNL     1      10.667  -7.187  16.179  1.00  0.00     0.167 HD
ATOM     35  C   UNL     1      12.985  -8.060  17.499  1.00  0.00     0.074 A 
ATOM     36  C   UNL     1      14.386  -8.242  17.814  1.00  0.00     0.031 C 
ATOM     37  C   UNL     1      11.965  -8.550  18.243  1.00  0.00     0.031 A 
BRANCH  24  38
ATOM     38  C   UNL     1       6.401  -7.118  16.018  1.00  0.00    -0.014 A 
ATOM     39  C   UNL     1       5.620  -7.956  15.209  1.00  0.00     0.009 A 
ATOM     40  C   UNL     1       5.784  -6.411  17.063  1.00  0.00     0.009 A 
ATOM     41  C   UNL     1       4.244  -8.064  15.427  1.00  0.00     0.001 A 
ATOM     42  C   UNL     1       4.413  -6.539  17.293  1.00  0.00     0.001 A 
ATOM     43  C   UNL     1       3.643  -7.359  16.471  1.00  0.00     0.000 A 
ENDBRANCH  24  38
BRANCH  25  44
ATOM     44  C   UNL     1      16.165  -6.152  14.635  1.00  0.00    -0.014 A 
ATOM     45  C   UNL     1      16.937  -7.245  14.214  1.00  0.00     0.009 A 
ATOM     46  C   UNL     1      16.797  -4.921  14.872  1.00  0.00     0.009 A 
ATOM     47  C   UNL     1      18.317  -7.112  14.049  1.00  0.00     0.001 A 
ATOM     48  C   UNL     1      18.173  -4.785  14.679  1.00  0.00     0.001 A 
ATOM     49  C   UNL     1      18.932  -5.882  14.275  1.00  0.00     0.000 A 
ENDBRANCH  25  44
BRANCH  37  50
ATOM     50  C   UNL     1      12.325  -9.348  19.463  1.00  0.00    -0.014 A 
ATOM     51  C   UNL     1      12.804  -8.721  20.624  1.00  0.00     0.009 A 
ATOM     52  C   UNL     1      12.163 -10.742  19.460  1.00  0.00     0.009 A 
ATOM     53  C   UNL     1      13.142  -9.479  21.748  1.00  0.00     0.001 A 
ATOM     54  C   UNL     1      12.481 -11.495  20.592  1.00  0.00     0.001 A 
ATOM     55  C   UNL     1      12.978 -10.864  21.732  1.00  0.00     0.000 A 
ENDBRANCH  37  50
ENDBRANCH  11  12
ENDBRANCH   4   6
ENDBRANCH   1   2
BRANCH   1  56
ATOM     56  C   UNL     1       7.610  -2.855   5.580  1.00  0.00     0.042 C 
BRANCH  56  57
ATOM     57  C   UNL     1       7.504  -2.722   4.059  1.00  0.00     0.117 C 
BRANCH  57  58
ATOM     58  N   UNL     1       8.117  -3.817   3.326  1.00  0.00    -0.354 N 
ATOM     59  C   UNL     1       7.572  -4.976   2.845  1.00  0.00     0.249 C 
ATOM     60  H   UNL     1       9.079  -3.708   3.146  1.00  0.00     0.163 HD
ATOM     61  O   UNL     1       8.318  -5.723   2.208  1.00  0.00    -0.272 OA
BRANCH  59  62
ATOM     62  C   UNL     1       6.066  -5.279   3.046  1.00  0.00     0.211 C 
ATOM     63  C   UNL     1       5.683  -6.716   2.675  1.00  0.00     0.085 C 
ATOM     64  O   UNL     1       5.614  -5.043   4.378  1.00  0.00    -0.357 OA
ATOM     65  C   UNL     1       5.297  -7.406   3.983  1.00  0.00     0.123 C 
ATOM     66  C   UNL     1       5.505  -6.300   5.063  1.00  0.00     0.186 C 
BRANCH  65  67
ATOM     67  C   UNL     1       3.875  -7.984   3.906  1.00  0.00    -0.013 A 
ATOM     68  C   UNL     1       3.680  -9.319   3.493  1.00  0.00     0.008 A 
ATOM     69  C   UNL     1       2.731  -7.234   4.233  1.00  0.00     0.008 A 
ATOM     70  C   UNL     1       2.412  -9.906   3.487  1.00  0.00     0.021 A 
ATOM     71  C   UNL     1       1.459  -7.822   4.234  1.00  0.00     0.021 A 
ATOM     72  C   UNL     1       1.307  -9.158   3.874  1.00  0.00     0.041 A 
ATOM     73  Cl  UNL     1      -0.251  -9.885   3.907  1.00  0.00    -0.084 Cl
ENDBRANCH  65  67
BRANCH  65  74
ATOM     74  O   UNL     1       6.175  -8.523   4.188  1.00  0.00    -0.382 OA
ATOM     75  H   UNL     1       7.091  -8.208   4.243  1.00  0.00     0.212 HD
ENDBRANCH  65  74
BRANCH  66  76
ATOM     76  C   UNL     1       6.667  -6.447   6.037  1.00  0.00    -0.016 A 
ATOM     77  C   UNL     1       7.953  -6.840   5.632  1.00  0.00     0.008 A 
ATOM     78  C   UNL     1       6.448  -6.198   7.405  1.00  0.00     0.008 A 
ATOM     79  C   UNL     1       8.957  -7.081   6.570  1.00  0.00     0.021 A 
ATOM     80  C   UNL     1       7.454  -6.432   8.344  1.00  0.00     0.021 A 
ATOM     81  C   UNL     1       8.690  -6.912   7.924  1.00  0.00     0.041 A 
ATOM     82  Cl  UNL     1       9.871  -7.369   9.084  1.00  0.00    -0.084 Cl
ENDBRANCH  66  76
ENDBRANCH  59  62
ENDBRANCH  57  58
ENDBRANCH  56  57
ENDBRANCH   1  56
TORSDOF 13
