REMARK SMILES C[C@@H](C(=O)NCCCNC(=O)c1ccc(-c2c3nc(c(-c4ccccc4)c4ccc([nH]4)c(-c4ccccc4)c4nc(c(-c5ccccc5)c5ccc2[nH]5)C=C4)C=C3)cc1)N1C(=O)/C(=C/c2ccc(F)cc2)SC1=S
REMARK SMILES IDX 7 1 6 2 5 3 3 4 4 5 2 7 1 8 60 9 61 10 73 11 62 12 63 13
REMARK SMILES IDX 72 14 74 15 64 16 65 17 66 18 71 19 67 20 70 21 68 22 69 23
REMARK SMILES IDX 8 24 9 25 10 26 11 28 12 29 13 30 59 31 14 32 58 33 15 34
REMARK SMILES IDX 16 35 17 36 52 37 18 38 57 39 51 40 53 41 19 42 56 43 50 44
REMARK SMILES IDX 49 45 20 47 42 48 27 49 41 50 28 51 31 52 40 53 54 54 29 55
REMARK SMILES IDX 30 56 39 58 55 59 32 60 21 61 22 62 26 63 23 64 25 65 24 66
REMARK SMILES IDX 43 67 44 68 48 69 45 70 47 71 46 72 33 73 34 74 38 75 35 76
REMARK SMILES IDX 37 77 36 78
REMARK H PARENT 5 6 9 27 53 46 31 57
REMARK Flexibility Score: inf
ROOT
ATOM      1  C   UNL     1       4.258   0.897  -1.014  1.00  0.00     0.042 C 
ENDROOT
BRANCH   1   2
ATOM      2  C   UNL     1       3.322   2.048  -0.648  1.00  0.00     0.117 C 
BRANCH   2   3
ATOM      3  N   UNL     1       2.190   2.112  -1.556  1.00  0.00    -0.354 N 
ATOM      4  C   UNL     1       0.895   1.716  -1.373  1.00  0.00     0.242 C 
ATOM      5  O   UNL     1       0.136   1.781  -2.343  1.00  0.00    -0.273 OA
ATOM      6  H   UNL     1       2.386   2.500  -2.439  1.00  0.00     0.163 HD
BRANCH   4   7
ATOM      7  C   UNL     1       0.423   1.236   0.016  1.00  0.00     0.178 C 
ATOM      8  C   UNL     1       0.994  -0.145   0.347  1.00  0.00     0.042 C 
BRANCH   7   9
ATOM      9  N   UNL     1      -1.056   1.332   0.048  1.00  0.00    -0.281 N 
ATOM     10  C   UNL     1      -1.857   0.237  -0.233  1.00  0.00     0.266 C 
ATOM     11  C   UNL     1      -1.721   2.536   0.219  1.00  0.00     0.149 C 
ATOM     12  O   UNL     1      -1.493  -0.900  -0.483  1.00  0.00    -0.268 OA
ATOM     13  C   UNL     1      -3.295   0.612  -0.165  1.00  0.00     0.081 C 
ATOM     14  S   UNL     1      -3.460   2.296   0.089  1.00  0.00    -0.054 SA
ATOM     15  S   UNL     1      -1.071   4.046   0.522  1.00  0.00    -0.052 S 
ATOM     16  C   UNL     1      -4.256  -0.316  -0.263  1.00  0.00     0.029 C 
BRANCH  16  17
ATOM     17  C   UNL     1      -5.701  -0.080  -0.253  1.00  0.00    -0.024 A 
ATOM     18  C   UNL     1      -6.489  -0.615   0.775  1.00  0.00     0.011 A 
ATOM     19  C   UNL     1      -6.314   0.615  -1.304  1.00  0.00     0.011 A 
ATOM     20  C   UNL     1      -7.876  -0.447   0.753  1.00  0.00     0.040 A 
ATOM     21  C   UNL     1      -7.699   0.780  -1.324  1.00  0.00     0.040 A 
ATOM     22  C   UNL     1      -8.467   0.246  -0.296  1.00  0.00     0.123 A 
ATOM     23  F   UNL     1      -9.798   0.395  -0.323  1.00  0.00    -0.207 F 
ENDBRANCH  16  17
ENDBRANCH   7   9
ENDBRANCH   4   7
ENDBRANCH   2   3
ENDBRANCH   1   2
BRANCH   1  24
ATOM     24  C   UNL     1       5.011   1.110  -2.326  1.00  0.00     0.118 C 
BRANCH  24  25
ATOM     25  N   UNL     1       5.972   2.200  -2.243  1.00  0.00    -0.352 N 
ATOM     26  C   UNL     1       7.335   2.196  -2.409  1.00  0.00     0.251 C 
ATOM     27  H   UNL     1       5.583   3.080  -2.035  1.00  0.00     0.163 HD
ATOM     28  O   UNL     1       7.983   3.191  -2.095  1.00  0.00    -0.269 OA
BRANCH  26  29
ATOM     29  C   UNL     1       8.033   1.004  -2.938  1.00  0.00     0.039 A 
ATOM     30  C   UNL     1       9.241   0.620  -2.347  1.00  0.00     0.014 A 
ATOM     31  C   UNL     1       7.530   0.284  -4.025  1.00  0.00     0.014 A 
ATOM     32  C   UNL     1       9.899  -0.528  -2.792  1.00  0.00     0.010 A 
ATOM     33  C   UNL     1       8.153  -0.898  -4.425  1.00  0.00     0.010 A 
ATOM     34  C   UNL     1       9.337  -1.323  -3.804  1.00  0.00    -0.014 A 
BRANCH  34  35
ATOM     35  C   UNL     1       9.945  -2.626  -4.179  1.00  0.00     0.031 A 
ATOM     36  C   UNL     1      10.507  -2.849  -5.556  1.00  0.00     0.074 A 
ATOM     37  C   UNL     1       9.930  -3.636  -3.286  1.00  0.00     0.049 A 
ATOM     38  N   UNL     1      11.024  -3.939  -6.066  1.00  0.00    -0.248 NA
ATOM     39  C   UNL     1      10.469  -1.710  -6.486  1.00  0.00     0.031 C 
ATOM     40  C   UNL     1       9.381  -3.561  -1.930  1.00  0.00     0.029 A 
ATOM     41  N   UNL     1      10.381  -4.929  -3.388  1.00  0.00    -0.354 N 
ATOM     42  C   UNL     1      11.360  -3.622  -7.376  1.00  0.00     0.074 A 
ATOM     43  C   UNL     1      10.956  -2.250  -7.595  1.00  0.00     0.031 C 
ATOM     44  C   UNL     1       9.547  -4.746  -1.321  1.00  0.00     0.029 A 
ATOM     45  C   UNL     1      10.169  -5.678  -2.255  1.00  0.00     0.049 A 
ATOM     46  H   UNL     1      10.815  -5.286  -4.197  1.00  0.00     0.167 HD
ATOM     47  C   UNL     1      11.961  -4.400  -8.308  1.00  0.00     0.031 A 
ATOM     48  C   UNL     1      10.431  -6.973  -1.998  1.00  0.00     0.031 A 
ATOM     49  C   UNL     1      12.371  -5.763  -8.088  1.00  0.00     0.049 A 
ATOM     50  C   UNL     1      11.071  -7.818  -3.064  1.00  0.00     0.074 A 
ATOM     51  C   UNL     1      13.048  -6.606  -8.953  1.00  0.00     0.029 A 
ATOM     52  N   UNL     1      12.136  -6.484  -6.929  1.00  0.00    -0.354 N 
ATOM     53  N   UNL     1      11.457  -7.476  -4.269  1.00  0.00    -0.248 NA
ATOM     54  C   UNL     1      11.316  -9.229  -2.730  1.00  0.00     0.031 C 
ATOM     55  C   UNL     1      13.168  -7.857  -8.340  1.00  0.00     0.029 A 
ATOM     56  C   UNL     1      12.620  -7.774  -7.071  1.00  0.00     0.049 A 
ATOM     57  H   UNL     1      11.690  -6.132  -6.125  1.00  0.00     0.167 HD
ATOM     58  C   UNL     1      12.012  -8.621  -4.826  1.00  0.00     0.074 A 
ATOM     59  C   UNL     1      11.935  -9.659  -3.820  1.00  0.00     0.031 C 
ATOM     60  C   UNL     1      12.535  -8.798  -6.063  1.00  0.00     0.031 A 
BRANCH  47  61
ATOM     61  C   UNL     1      12.213  -3.805  -9.665  1.00  0.00    -0.014 A 
ATOM     62  C   UNL     1      13.209  -2.836  -9.862  1.00  0.00     0.009 A 
ATOM     63  C   UNL     1      11.501  -4.282 -10.778  1.00  0.00     0.009 A 
ATOM     64  C   UNL     1      13.472  -2.342 -11.141  1.00  0.00     0.001 A 
ATOM     65  C   UNL     1      11.784  -3.806 -12.059  1.00  0.00     0.001 A 
ATOM     66  C   UNL     1      12.765  -2.833 -12.239  1.00  0.00     0.000 A 
ENDBRANCH  47  61
BRANCH  48  67
ATOM     67  C   UNL     1      10.077  -7.566  -0.681  1.00  0.00    -0.014 A 
ATOM     68  C   UNL     1      11.080  -7.982   0.208  1.00  0.00     0.009 A 
ATOM     69  C   UNL     1       8.733  -7.753  -0.322  1.00  0.00     0.009 A 
ATOM     70  C   UNL     1      10.744  -8.608   1.411  1.00  0.00     0.001 A 
ATOM     71  C   UNL     1       8.400  -8.348   0.896  1.00  0.00     0.001 A 
ATOM     72  C   UNL     1       9.406  -8.787   1.756  1.00  0.00     0.000 A 
ENDBRANCH  48  67
BRANCH  60  73
ATOM     73  C   UNL     1      13.090 -10.157  -6.386  1.00  0.00    -0.014 A 
ATOM     74  C   UNL     1      12.244 -11.260  -6.583  1.00  0.00     0.009 A 
ATOM     75  C   UNL     1      14.476 -10.328  -6.527  1.00  0.00     0.009 A 
ATOM     76  C   UNL     1      12.779 -12.515  -6.878  1.00  0.00     0.001 A 
ATOM     77  C   UNL     1      15.005 -11.577  -6.853  1.00  0.00     0.001 A 
ATOM     78  C   UNL     1      14.158 -12.671  -7.018  1.00  0.00     0.000 A 
ENDBRANCH  60  73
ENDBRANCH  34  35
ENDBRANCH  26  29
ENDBRANCH  24  25
ENDBRANCH   1  24
TORSDOF 12
