REMARK SMILES O=C(NCCCNC(=O)[C@@H]1C[C@@H]1C(=O)Nc1cc(F)ccc1F)c1ccc(-c2c3nc(c(-c4ccccc4)c4ccc([nH]4)c(-c4ccccc4)c4nc(c(-c5ccccc5)c5ccc2[nH]5)C=C4)C=C3)cc1
REMARK SMILES IDX 5 1 4 2 3 3 1 4 2 5 24 7 25 8 71 9 26 10 70 11 27 12 28 13
REMARK SMILES IDX 29 14 64 15 30 16 69 17 63 18 65 19 31 20 68 21 62 22 61 23
REMARK SMILES IDX 32 25 54 26 39 27 53 28 40 29 43 30 52 31 66 32 41 33 42 34
REMARK SMILES IDX 51 36 67 37 44 38 33 39 34 40 38 41 35 42 37 43 36 44 55 45
REMARK SMILES IDX 56 46 60 47 57 48 59 49 58 50 45 51 46 52 50 53 47 54 49 55
REMARK SMILES IDX 48 56 6 57 7 58 8 59 9 61 10 62 11 63 12 64 13 65 14 66
REMARK SMILES IDX 15 67 16 69 17 70 22 71 18 72 21 73 23 74 19 75 20 76
REMARK H PARENT 3 6 65 24 43 35 7 60 15 68
REMARK Flexibility Score: inf
ROOT
ATOM      1  C   UNL     1       4.844   2.467   0.541  1.00  0.00     0.042 C 
ENDROOT
BRANCH   1   2
ATOM      2  C   UNL     1       4.468   1.030   0.869  1.00  0.00     0.118 C 
BRANCH   2   3
ATOM      3  N   UNL     1       3.034   0.792   0.783  1.00  0.00    -0.352 N 
ATOM      4  O   UNL     1       1.115  -0.013  -0.086  1.00  0.00    -0.269 OA
ATOM      5  C   UNL     1       2.339  -0.072  -0.027  1.00  0.00     0.251 C 
ATOM      6  H   UNL     1       2.481   1.329   1.395  1.00  0.00     0.163 HD
BRANCH   5   7
ATOM      7  C   UNL     1       3.070  -1.067  -0.839  1.00  0.00     0.039 A 
ATOM      8  C   UNL     1       4.130  -1.792  -0.290  1.00  0.00     0.014 A 
ATOM      9  C   UNL     1       2.664  -1.306  -2.155  1.00  0.00     0.014 A 
ATOM     10  C   UNL     1       4.863  -2.661  -1.088  1.00  0.00     0.010 A 
ATOM     11  C   UNL     1       3.340  -2.253  -2.928  1.00  0.00     0.010 A 
ATOM     12  C   UNL     1       4.449  -2.932  -2.401  1.00  0.00    -0.014 A 
BRANCH  12  13
ATOM     13  C   UNL     1       5.101  -4.036  -3.146  1.00  0.00     0.031 A 
ATOM     14  C   UNL     1       5.881  -3.788  -4.404  1.00  0.00     0.074 A 
ATOM     15  C   UNL     1       4.967  -5.287  -2.660  1.00  0.00     0.049 A 
ATOM     16  N   UNL     1       6.493  -4.655  -5.170  1.00  0.00    -0.248 NA
ATOM     17  C   UNL     1       5.988  -2.396  -4.869  1.00  0.00     0.031 C 
ATOM     18  C   UNL     1       4.220  -5.646  -1.450  1.00  0.00     0.029 A 
ATOM     19  N   UNL     1       5.455  -6.485  -3.113  1.00  0.00    -0.354 N 
ATOM     20  C   UNL     1       7.038  -3.923  -6.216  1.00  0.00     0.074 A 
ATOM     21  C   UNL     1       6.677  -2.539  -5.995  1.00  0.00     0.031 C 
ATOM     22  C   UNL     1       4.326  -6.965  -1.240  1.00  0.00     0.029 A 
ATOM     23  C   UNL     1       5.078  -7.556  -2.338  1.00  0.00     0.049 A 
ATOM     24  H   UNL     1       6.019  -6.571  -3.916  1.00  0.00     0.167 HD
ATOM     25  C   UNL     1       7.770  -4.373  -7.263  1.00  0.00     0.031 A 
ATOM     26  C   UNL     1       5.279  -8.875  -2.510  1.00  0.00     0.031 A 
ATOM     27  C   UNL     1       8.125  -5.753  -7.472  1.00  0.00     0.049 A 
ATOM     28  C   UNL     1       6.048  -9.338  -3.712  1.00  0.00     0.074 A 
ATOM     29  C   UNL     1       8.917  -6.295  -8.470  1.00  0.00     0.029 A 
ATOM     30  N   UNL     1       7.698  -6.811  -6.684  1.00  0.00    -0.354 N 
ATOM     31  N   UNL     1       6.626  -8.623  -4.646  1.00  0.00    -0.248 NA
ATOM     32  C   UNL     1       6.188 -10.789  -3.887  1.00  0.00     0.031 C 
ATOM     33  C   UNL     1       8.906  -7.685  -8.332  1.00  0.00     0.029 A 
ATOM     34  C   UNL     1       8.165  -8.005  -7.207  1.00  0.00     0.049 A 
ATOM     35  H   UNL     1       7.145  -6.725  -5.874  1.00  0.00     0.167 HD
ATOM     36  C   UNL     1       7.208  -9.538  -5.513  1.00  0.00     0.074 A 
ATOM     37  C   UNL     1       6.944 -10.855  -4.972  1.00  0.00     0.031 C 
ATOM     38  C   UNL     1       7.889  -9.308  -6.660  1.00  0.00     0.031 A 
BRANCH  25  39
ATOM     39  C   UNL     1       8.220  -3.380  -8.299  1.00  0.00    -0.014 A 
ATOM     40  C   UNL     1       9.258  -2.471  -8.042  1.00  0.00     0.009 A 
ATOM     41  C   UNL     1       7.672  -3.436  -9.591  1.00  0.00     0.009 A 
ATOM     42  C   UNL     1       9.729  -1.633  -9.057  1.00  0.00     0.001 A 
ATOM     43  C   UNL     1       8.161  -2.615 -10.608  1.00  0.00     0.001 A 
ATOM     44  C   UNL     1       9.187  -1.712 -10.340  1.00  0.00     0.000 A 
ENDBRANCH  25  39
BRANCH  26  45
ATOM     45  C   UNL     1       4.687  -9.853  -1.559  1.00  0.00    -0.014 A 
ATOM     46  C   UNL     1       5.503 -10.674  -0.768  1.00  0.00     0.009 A 
ATOM     47  C   UNL     1       3.292  -9.992  -1.466  1.00  0.00     0.009 A 
ATOM     48  C   UNL     1       4.935 -11.642   0.065  1.00  0.00     0.001 A 
ATOM     49  C   UNL     1       2.727 -10.931  -0.603  1.00  0.00     0.001 A 
ATOM     50  C   UNL     1       3.549 -11.767   0.148  1.00  0.00     0.000 A 
ENDBRANCH  26  45
BRANCH  38  51
ATOM     51  C   UNL     1       8.407 -10.509  -7.398  1.00  0.00    -0.014 A 
ATOM     52  C   UNL     1       7.534 -11.377  -8.073  1.00  0.00     0.009 A 
ATOM     53  C   UNL     1       9.787 -10.757  -7.448  1.00  0.00     0.009 A 
ATOM     54  C   UNL     1       8.032 -12.488  -8.756  1.00  0.00     0.001 A 
ATOM     55  C   UNL     1      10.284 -11.849  -8.160  1.00  0.00     0.001 A 
ATOM     56  C   UNL     1       9.406 -12.718  -8.805  1.00  0.00     0.000 A 
ENDBRANCH  38  51
ENDBRANCH  12  13
ENDBRANCH   5   7
ENDBRANCH   2   3
ENDBRANCH   1   2
BRANCH   1  57
ATOM     57  C   UNL     1       4.310   3.475   1.546  1.00  0.00     0.117 C 
BRANCH  57  58
ATOM     58  N   UNL     1       4.825   3.229   2.878  1.00  0.00    -0.356 N 
ATOM     59  C   UNL     1       5.693   3.990   3.605  1.00  0.00     0.223 C 
ATOM     60  H   UNL     1       4.507   2.406   3.314  1.00  0.00     0.163 HD
ATOM     61  O   UNL     1       6.070   3.631   4.716  1.00  0.00    -0.275 OA
BRANCH  59  62
ATOM     62  C   UNL     1       6.238   5.216   2.988  1.00  0.00     0.091 C 
ATOM     63  C   UNL     1       6.421   6.452   3.838  1.00  0.00     0.028 C 
ATOM     64  C   UNL     1       5.410   6.457   2.720  1.00  0.00     0.092 C 
BRANCH  64  65
ATOM     65  C   UNL     1       3.963   6.580   3.071  1.00  0.00     0.228 C 
ATOM     66  O   UNL     1       3.404   5.727   3.755  1.00  0.00    -0.274 OA
ATOM     67  N   UNL     1       3.285   7.735   2.768  1.00  0.00    -0.323 N 
ATOM     68  H   UNL     1       2.428   7.843   3.240  1.00  0.00     0.170 HD
BRANCH  67  69
ATOM     69  C   UNL     1       3.609   8.788   1.899  1.00  0.00     0.080 A 
ATOM     70  C   UNL     1       4.274   8.607   0.687  1.00  0.00     0.068 A 
ATOM     71  C   UNL     1       3.201  10.079   2.257  1.00  0.00     0.146 A 
ATOM     72  C   UNL     1       4.618   9.716  -0.082  1.00  0.00     0.125 A 
ATOM     73  C   UNL     1       3.551  11.187   1.490  1.00  0.00     0.044 A 
ATOM     74  F   UNL     1       2.505  10.265   3.388  1.00  0.00    -0.205 F 
ATOM     75  F   UNL     1       5.285   9.534  -1.228  1.00  0.00    -0.207 F 
ATOM     76  C   UNL     1       4.284  11.005   0.319  1.00  0.00     0.042 A 
ENDBRANCH  67  69
ENDBRANCH  64  65
ENDBRANCH  59  62
ENDBRANCH  57  58
ENDBRANCH   1  57
TORSDOF 12
