REMARK SMILES COc1cc2c(cc1OC)[C@H](C(=O)NCCCNC(=O)c1ccc(-c3c4nc(c(-c5ccccc5)c5ccc([nH]5)c(-c5ccccc5)c5nc(c(-c6ccccc6)c6ccc3[nH]6)C=C5)C=C4)cc1)[C@H](c1cccc(Cl)c1)N(C)C2=O
REMARK SMILES IDX 16 1 15 2 14 3 12 4 13 5 11 7 3 8 4 9 8 10 5 11 7 12 6 13
REMARK SMILES IDX 79 14 77 15 80 16 69 17 78 18 2 19 1 20 9 21 10 22 70 23
REMARK SMILES IDX 71 24 76 25 72 26 74 27 73 28 75 29 17 30 18 31 19 32 20 34
REMARK SMILES IDX 21 35 22 36 68 37 23 38 67 39 24 40 25 41 26 42 61 43 27 44
REMARK SMILES IDX 66 45 60 46 62 47 28 48 65 49 59 50 58 51 29 53 51 54 36 55
REMARK SMILES IDX 50 56 37 57 40 58 49 59 63 60 38 61 39 62 48 64 64 65 41 66
REMARK SMILES IDX 30 67 31 68 35 69 32 70 34 71 33 72 52 73 53 74 57 75 54 76
REMARK SMILES IDX 56 77 55 78 42 79 43 80 47 81 44 82 46 83 45 84
REMARK H PARENT 14 6 18 33 62 52 40 63
REMARK Flexibility Score: inf
ROOT
ATOM      1  C   UNL     1      -1.276  -7.917   0.292  1.00  0.00     0.042 C 
ENDROOT
BRANCH   1   2
ATOM      2  C   UNL     1      -0.787  -6.691   1.050  1.00  0.00     0.117 C 
BRANCH   2   3
ATOM      3  N   UNL     1      -0.260  -7.059   2.353  1.00  0.00    -0.355 N 
ATOM      4  C   UNL     1       0.993  -6.897   2.865  1.00  0.00     0.230 C 
ATOM      5  O   UNL     1       1.267  -7.605   3.832  1.00  0.00    -0.274 OA
ATOM      6  H   UNL     1      -0.906  -7.492   2.957  1.00  0.00     0.163 HD
BRANCH   4   7
ATOM      7  C   UNL     1       1.992  -5.986   2.170  1.00  0.00     0.136 C 
ATOM      8  C   UNL     1       1.068  -1.823   1.330  1.00  0.00     0.161 A 
ATOM      9  C   UNL     1       2.300  -2.395   0.981  1.00  0.00     0.064 A 
ATOM     10  C   UNL     1       0.113  -2.604   1.999  1.00  0.00     0.161 A 
ATOM     11  C   UNL     1       2.568  -3.738   1.272  1.00  0.00     0.048 A 
ATOM     12  C   UNL     1       0.407  -3.940   2.314  1.00  0.00     0.056 A 
ATOM     13  C   UNL     1       1.611  -4.534   1.925  1.00  0.00    -0.016 A 
ATOM     14  C   UNL     1       3.920  -4.306   0.963  1.00  0.00     0.254 C 
ATOM     15  N   UNL     1       4.302  -5.438   1.692  1.00  0.00    -0.333 N 
ATOM     16  O   UNL     1       4.634  -3.756   0.132  1.00  0.00    -0.269 OA
ATOM     17  C   UNL     1       3.430  -5.984   2.768  1.00  0.00     0.132 C 
ATOM     18  C   UNL     1       5.629  -5.995   1.506  1.00  0.00     0.147 C 
BRANCH   8  19
ATOM     19  O   UNL     1       0.820  -0.490   1.137  1.00  0.00    -0.493 OA
ATOM     20  C   UNL     1       1.282   0.042  -0.100  1.00  0.00     0.278 C 
ENDBRANCH   8  19
BRANCH  10  21
ATOM     21  O   UNL     1      -1.137  -2.236   2.423  1.00  0.00    -0.493 OA
ATOM     22  C   UNL     1      -1.720  -1.069   1.859  1.00  0.00     0.278 C 
ENDBRANCH  10  21
BRANCH  17  23
ATOM     23  C   UNL     1       3.609  -5.234   4.105  1.00  0.00    -0.023 A 
ATOM     24  C   UNL     1       3.061  -5.748   5.293  1.00  0.00     0.006 A 
ATOM     25  C   UNL     1       4.304  -4.013   4.207  1.00  0.00     0.026 A 
ATOM     26  C   UNL     1       3.112  -5.041   6.499  1.00  0.00     0.002 A 
ATOM     27  C   UNL     1       4.371  -3.314   5.416  1.00  0.00     0.041 A 
ATOM     28  C   UNL     1       3.759  -3.814   6.559  1.00  0.00     0.020 A 
ATOM     29  Cl  UNL     1       5.217  -1.817   5.489  1.00  0.00    -0.084 Cl
ENDBRANCH  17  23
ENDBRANCH   4   7
ENDBRANCH   2   3
ENDBRANCH   1   2
BRANCH   1  30
ATOM     30  C   UNL     1      -2.377  -8.691   1.007  1.00  0.00     0.118 C 
BRANCH  30  31
ATOM     31  N   UNL     1      -3.581  -7.901   1.225  1.00  0.00    -0.352 N 
ATOM     32  C   UNL     1      -4.878  -8.184   0.876  1.00  0.00     0.251 C 
ATOM     33  H   UNL     1      -3.445  -7.043   1.688  1.00  0.00     0.163 HD
ATOM     34  O   UNL     1      -5.753  -7.333   0.999  1.00  0.00    -0.269 OA
BRANCH  32  35
ATOM     35  C   UNL     1      -5.209  -9.512   0.321  1.00  0.00     0.039 A 
ATOM     36  C   UNL     1      -5.989  -9.586  -0.834  1.00  0.00     0.014 A 
ATOM     37  C   UNL     1      -4.727 -10.677   0.925  1.00  0.00     0.014 A 
ATOM     38  C   UNL     1      -6.226 -10.827  -1.427  1.00  0.00     0.010 A 
ATOM     39  C   UNL     1      -4.896 -11.902   0.290  1.00  0.00     0.010 A 
ATOM     40  C   UNL     1      -5.647 -11.990  -0.892  1.00  0.00    -0.014 A 
BRANCH  40  41
ATOM     41  C   UNL     1      -5.811 -13.308  -1.556  1.00  0.00     0.031 A 
ATOM     42  C   UNL     1      -6.522 -14.426  -0.843  1.00  0.00     0.074 A 
ATOM     43  C   UNL     1      -5.257 -13.520  -2.766  1.00  0.00     0.049 A 
ATOM     44  N   UNL     1      -6.699 -15.666  -1.226  1.00  0.00    -0.248 NA
ATOM     45  C   UNL     1      -7.084 -14.123   0.484  1.00  0.00     0.031 C 
ATOM     46  C   UNL     1      -4.500 -12.533  -3.541  1.00  0.00     0.029 A 
ATOM     47  N   UNL     1      -5.235 -14.644  -3.553  1.00  0.00    -0.354 N 
ATOM     48  C   UNL     1      -7.364 -16.292  -0.179  1.00  0.00     0.074 A 
ATOM     49  C   UNL     1      -7.527 -15.311   0.870  1.00  0.00     0.031 C 
ATOM     50  C   UNL     1      -4.110 -13.088  -4.700  1.00  0.00     0.029 A 
ATOM     51  C   UNL     1      -4.551 -14.478  -4.734  1.00  0.00     0.049 A 
ATOM     52  H   UNL     1      -5.668 -15.490  -3.296  1.00  0.00     0.167 HD
ATOM     53  C   UNL     1      -7.815 -17.566  -0.106  1.00  0.00     0.031 A 
ATOM     54  C   UNL     1      -4.298 -15.351  -5.728  1.00  0.00     0.031 A 
ATOM     55  C   UNL     1      -7.686 -18.532  -1.162  1.00  0.00     0.049 A 
ATOM     56  C   UNL     1      -4.821 -16.757  -5.619  1.00  0.00     0.074 A 
ATOM     57  C   UNL     1      -8.184 -19.823  -1.212  1.00  0.00     0.029 A 
ATOM     58  N   UNL     1      -7.012 -18.315  -2.352  1.00  0.00    -0.354 N 
ATOM     59  N   UNL     1      -5.525 -17.306  -4.660  1.00  0.00    -0.248 NA
ATOM     60  C   UNL     1      -4.523 -17.661  -6.740  1.00  0.00     0.031 C 
ATOM     61  C   UNL     1      -7.769 -20.404  -2.413  1.00  0.00     0.029 A 
ATOM     62  C   UNL     1      -7.059 -19.457  -3.133  1.00  0.00     0.049 A 
ATOM     63  H   UNL     1      -6.567 -17.474  -2.605  1.00  0.00     0.167 HD
ATOM     64  C   UNL     1      -5.782 -18.605  -5.076  1.00  0.00     0.074 A 
ATOM     65  C   UNL     1      -5.173 -18.759  -6.380  1.00  0.00     0.031 C 
ATOM     66  C   UNL     1      -6.461 -19.587  -4.434  1.00  0.00     0.031 A 
BRANCH  53  67
ATOM     67  C   UNL     1      -8.496 -17.998   1.162  1.00  0.00    -0.014 A 
ATOM     68  C   UNL     1      -9.784 -17.546   1.487  1.00  0.00     0.009 A 
ATOM     69  C   UNL     1      -7.868 -18.927   2.006  1.00  0.00     0.009 A 
ATOM     70  C   UNL     1     -10.421 -18.001   2.643  1.00  0.00     0.001 A 
ATOM     71  C   UNL     1      -8.518 -19.400   3.147  1.00  0.00     0.001 A 
ATOM     72  C   UNL     1      -9.791 -18.933   3.467  1.00  0.00     0.000 A 
ENDBRANCH  53  67
BRANCH  54  73
ATOM     73  C   UNL     1      -3.513 -14.933  -6.920  1.00  0.00    -0.014 A 
ATOM     74  C   UNL     1      -4.128 -14.831  -8.178  1.00  0.00     0.009 A 
ATOM     75  C   UNL     1      -2.138 -14.678  -6.815  1.00  0.00     0.009 A 
ATOM     76  C   UNL     1      -3.373 -14.524  -9.312  1.00  0.00     0.001 A 
ATOM     77  C   UNL     1      -1.391 -14.340  -7.946  1.00  0.00     0.001 A 
ATOM     78  C   UNL     1      -2.006 -14.277  -9.195  1.00  0.00     0.000 A 
ENDBRANCH  54  73
BRANCH  66  79
ATOM     79  C   UNL     1      -6.622 -20.896  -5.153  1.00  0.00    -0.014 A 
ATOM     80  C   UNL     1      -5.542 -21.777  -5.315  1.00  0.00     0.009 A 
ATOM     81  C   UNL     1      -7.886 -21.268  -5.637  1.00  0.00     0.009 A 
ATOM     82  C   UNL     1      -5.719 -22.993  -5.978  1.00  0.00     0.001 A 
ATOM     83  C   UNL     1      -8.066 -22.497  -6.272  1.00  0.00     0.001 A 
ATOM     84  C   UNL     1      -6.981 -23.354  -6.451  1.00  0.00     0.000 A 
ENDBRANCH  66  79
ENDBRANCH  40  41
ENDBRANCH  32  35
ENDBRANCH  30  31
ENDBRANCH   1  30
TORSDOF 13
