REMARK SMILES Cc1cc(C(=O)NC[C@@H]2CC[C@H](C(=O)NCCCNC(=O)c3ccc(-c4c5nc(c(-c6ccccc6)c6ccc([nH]6)c(-c6ccccc6)c6nc(c(-c7ccccc7)c7ccc4[nH]7)C=C6)C=C5)cc3)O2)on1
REMARK SMILES IDX 16 1 15 2 13 3 14 4 12 6 9 7 10 8 70 9 11 10 8 11 7 12 5 13
REMARK SMILES IDX 6 14 4 16 1 17 2 18 3 19 72 20 71 21 17 22 18 23 19 24 20 25
REMARK SMILES IDX 21 27 22 28 23 29 69 30 24 31 68 32 25 33 26 34 27 35 62 36
REMARK SMILES IDX 28 37 67 38 61 39 63 40 29 41 66 42 60 43 59 44 30 46 52 47
REMARK SMILES IDX 37 48 51 49 38 50 41 51 50 52 64 53 39 54 40 55 49 57 65 58
REMARK SMILES IDX 42 59 31 60 32 61 36 62 33 63 35 64 34 65 53 66 54 67 58 68
REMARK SMILES IDX 55 69 57 70 56 71 43 72 44 73 48 74 45 75 47 76 46 77
REMARK H PARENT 15 5 7 15 19 26 63 45 41 56
REMARK Flexibility Score: inf
ROOT
ATOM      1  C   UNL     1      -0.615  -6.654  -1.390  1.00  0.00     0.117 C 
ENDROOT
BRANCH   1   2
ATOM      2  N   UNL     1      -1.051  -7.862  -0.729  1.00  0.00    -0.354 N 
ATOM      3  C   UNL     1      -1.490  -8.048   0.551  1.00  0.00     0.249 C 
ATOM      4  O   UNL     1      -1.827  -9.192   0.871  1.00  0.00    -0.272 OA
ATOM      5  H   UNL     1      -1.029  -8.675  -1.285  1.00  0.00     0.163 HD
BRANCH   3   6
ATOM      6  C   UNL     1      -1.516  -6.899   1.587  1.00  0.00     0.207 C 
ATOM      7  C   UNL     1      -1.418  -4.557   1.473  1.00  0.00     0.138 C 
ATOM      8  C   UNL     1       0.011  -5.039   1.673  1.00  0.00     0.037 C 
ATOM      9  O   UNL     1      -2.205  -5.721   1.163  1.00  0.00    -0.363 OA
ATOM     10  C   UNL     1      -0.132  -6.490   2.067  1.00  0.00     0.045 C 
BRANCH   7  11
ATOM     11  C   UNL     1      -1.572  -3.548   0.319  1.00  0.00     0.148 C 
BRANCH  11  12
ATOM     12  N   UNL     1      -2.510  -2.488   0.627  1.00  0.00    -0.347 N 
ATOM     13  C   UNL     1      -2.409  -1.125   0.473  1.00  0.00     0.289 C 
ATOM     14  O   UNL     1      -3.469  -0.501   0.535  1.00  0.00    -0.266 OA
ATOM     15  H   UNL     1      -3.364  -2.795   1.010  1.00  0.00     0.164 HD
BRANCH  13  16
ATOM     16  C   UNL     1      -1.132  -0.484   0.257  1.00  0.00     0.224 A 
ATOM     17  C   UNL     1       2.389   0.522   0.025  1.00  0.00     0.070 C 
ATOM     18  C   UNL     1       0.923   0.321   0.033  1.00  0.00     0.081 A 
ATOM     19  C   UNL     1       0.191  -0.801   0.482  1.00  0.00     0.083 A 
ATOM     20  N   UNL     1       0.107   1.281  -0.407  1.00  0.00    -0.084 NA
ATOM     21  O   UNL     1      -1.173   0.785  -0.256  1.00  0.00    -0.351 OA
ENDBRANCH  13  16
ENDBRANCH  11  12
ENDBRANCH   7  11
ENDBRANCH   3   6
ENDBRANCH   1   2
BRANCH   1  22
ATOM     22  C   UNL     1       0.887  -6.630  -1.635  1.00  0.00     0.042 C 
BRANCH  22  23
ATOM     23  C   UNL     1       1.277  -7.287  -2.951  1.00  0.00     0.118 C 
BRANCH  23  24
ATOM     24  N   UNL     1       0.852  -6.498  -4.102  1.00  0.00    -0.352 N 
ATOM     25  C   UNL     1       1.577  -5.995  -5.153  1.00  0.00     0.251 C 
ATOM     26  H   UNL     1      -0.111  -6.294  -4.129  1.00  0.00     0.163 HD
ATOM     27  O   UNL     1       1.050  -5.195  -5.921  1.00  0.00    -0.269 OA
BRANCH  25  28
ATOM     28  C   UNL     1       2.989  -6.387  -5.356  1.00  0.00     0.039 A 
ATOM     29  C   UNL     1       3.899  -5.424  -5.803  1.00  0.00     0.014 A 
ATOM     30  C   UNL     1       3.415  -7.699  -5.139  1.00  0.00     0.014 A 
ATOM     31  C   UNL     1       5.245  -5.760  -5.966  1.00  0.00     0.010 A 
ATOM     32  C   UNL     1       4.768  -8.011  -5.218  1.00  0.00     0.010 A 
ATOM     33  C   UNL     1       5.696  -7.048  -5.640  1.00  0.00    -0.014 A 
BRANCH  33  34
ATOM     34  C   UNL     1       7.129  -7.422  -5.744  1.00  0.00     0.031 A 
ATOM     35  C   UNL     1       7.554  -8.509  -6.695  1.00  0.00     0.074 A 
ATOM     36  C   UNL     1       8.031  -6.851  -4.922  1.00  0.00     0.049 A 
ATOM     37  N   UNL     1       8.733  -9.057  -6.847  1.00  0.00    -0.248 NA
ATOM     38  C   UNL     1       6.511  -9.078  -7.566  1.00  0.00     0.031 C 
ATOM     39  C   UNL     1       7.739  -5.822  -3.920  1.00  0.00     0.029 A 
ATOM     40  N   UNL     1       9.379  -7.070  -4.788  1.00  0.00    -0.354 N 
ATOM     41  C   UNL     1       8.563 -10.058  -7.796  1.00  0.00     0.074 A 
ATOM     42  C   UNL     1       7.164 -10.064  -8.163  1.00  0.00     0.031 C 
ATOM     43  C   UNL     1       8.877  -5.487  -3.290  1.00  0.00     0.029 A 
ATOM     44  C   UNL     1       9.968  -6.301  -3.814  1.00  0.00     0.049 A 
ATOM     45  H   UNL     1       9.877  -7.718  -5.338  1.00  0.00     0.167 HD
ATOM     46  C   UNL     1       9.492 -10.888  -8.326  1.00  0.00     0.031 A 
ATOM     47  C   UNL     1      11.243  -6.263  -3.384  1.00  0.00     0.031 A 
ATOM     48  C   UNL     1      10.891 -10.847  -8.002  1.00  0.00     0.049 A 
ATOM     49  C   UNL     1      12.260  -7.169  -4.020  1.00  0.00     0.074 A 
ATOM     50  C   UNL     1      11.924 -11.584  -8.555  1.00  0.00     0.029 A 
ATOM     51  N   UNL     1      11.454 -10.018  -7.046  1.00  0.00    -0.354 N 
ATOM     52  N   UNL     1      12.095  -8.056  -4.971  1.00  0.00    -0.248 NA
ATOM     53  C   UNL     1      13.642  -7.060  -3.530  1.00  0.00     0.031 C 
ATOM     54  C   UNL     1      13.110 -11.226  -7.907  1.00  0.00     0.029 A 
ATOM     55  C   UNL     1      12.818 -10.238  -6.980  1.00  0.00     0.049 A 
ATOM     56  H   UNL     1      10.958  -9.370  -6.496  1.00  0.00     0.167 HD
ATOM     57  C   UNL     1      13.355  -8.588  -5.212  1.00  0.00     0.074 A 
ATOM     58  C   UNL     1      14.275  -7.916  -4.319  1.00  0.00     0.031 C 
ATOM     59  C   UNL     1      13.718  -9.550  -6.095  1.00  0.00     0.031 A 
BRANCH  46  60
ATOM     60  C   UNL     1       9.026 -11.914  -9.319  1.00  0.00    -0.014 A 
ATOM     61  C   UNL     1       8.657 -11.550 -10.623  1.00  0.00     0.009 A 
ATOM     62  C   UNL     1       9.015 -13.271  -8.962  1.00  0.00     0.009 A 
ATOM     63  C   UNL     1       8.260 -12.523 -11.542  1.00  0.00     0.001 A 
ATOM     64  C   UNL     1       8.641 -14.244  -9.890  1.00  0.00     0.001 A 
ATOM     65  C   UNL     1       8.258 -13.869 -11.177  1.00  0.00     0.000 A 
ENDBRANCH  46  60
BRANCH  47  66
ATOM     66  C   UNL     1      11.643  -5.328  -2.301  1.00  0.00    -0.014 A 
ATOM     67  C   UNL     1      12.438  -4.208  -2.589  1.00  0.00     0.009 A 
ATOM     68  C   UNL     1      11.259  -5.566  -0.973  1.00  0.00     0.009 A 
ATOM     69  C   UNL     1      12.869  -3.364  -1.563  1.00  0.00     0.001 A 
ATOM     70  C   UNL     1      11.670  -4.705   0.047  1.00  0.00     0.001 A 
ATOM     71  C   UNL     1      12.483  -3.612  -0.247  1.00  0.00     0.000 A 
ENDBRANCH  47  66
BRANCH  59  72
ATOM     72  C   UNL     1      15.175  -9.900  -6.165  1.00  0.00    -0.014 A 
ATOM     73  C   UNL     1      15.786 -10.667  -5.163  1.00  0.00     0.009 A 
ATOM     74  C   UNL     1      15.934  -9.489  -7.272  1.00  0.00     0.009 A 
ATOM     75  C   UNL     1      17.140 -10.993  -5.255  1.00  0.00     0.001 A 
ATOM     76  C   UNL     1      17.280  -9.838  -7.373  1.00  0.00     0.001 A 
ATOM     77  C   UNL     1      17.884 -10.583  -6.361  1.00  0.00     0.000 A 
ENDBRANCH  59  72
ENDBRANCH  33  34
ENDBRANCH  25  28
ENDBRANCH  23  24
ENDBRANCH  22  23
ENDBRANCH   1  22
TORSDOF 13
