REMARK SMILES CCc1ccsc1C(=O)N(CC(=O)NCCCNC(=O)c1ccc(-c2c3nc(c(-c4ccccc4)c4ccc([nH]4)c(-c4ccccc4)c4nc(c(-c5ccccc5)c5ccc2[nH]5)C=C4)C=C3)cc1)C(C)(C)C
REMARK SMILES IDX 15 1 14 2 12 3 13 4 11 6 10 7 8 8 9 9 7 10 3 11 4 12 5 13
REMARK SMILES IDX 6 14 2 15 1 16 69 17 70 18 71 19 72 20 16 21 17 22 18 23
REMARK SMILES IDX 19 24 20 26 21 27 22 28 68 29 23 30 67 31 24 32 25 33 26 34
REMARK SMILES IDX 61 35 27 36 66 37 60 38 62 39 28 40 65 41 59 42 58 43 29 45
REMARK SMILES IDX 51 46 36 47 50 48 37 49 40 50 49 51 63 52 38 53 39 54 48 56
REMARK SMILES IDX 64 57 41 58 30 59 31 60 35 61 32 62 34 63 33 64 52 65 53 66
REMARK SMILES IDX 57 67 54 68 56 69 55 70 42 71 43 72 47 73 44 74 46 75 45 76
REMARK H PARENT 14 5 18 25 62 44 40 55
REMARK Flexibility Score: inf
ROOT
ATOM      1  C   UNL     1      -2.373  -0.016   2.005  1.00  0.00     0.117 C 
ENDROOT
BRANCH   1   2
ATOM      2  N   UNL     1      -2.646  -0.252   0.603  1.00  0.00    -0.354 N 
ATOM      3  C   UNL     1      -1.888   0.049  -0.486  1.00  0.00     0.239 C 
ATOM      4  O   UNL     1      -2.353  -0.203  -1.599  1.00  0.00    -0.273 OA
ATOM      5  H   UNL     1      -3.504  -0.695   0.410  1.00  0.00     0.163 HD
BRANCH   3   6
ATOM      6  C   UNL     1      -0.447   0.534  -0.308  1.00  0.00     0.220 C 
BRANCH   6   7
ATOM      7  N   UNL     1      -0.112   1.861   0.200  1.00  0.00    -0.324 N 
BRANCH   7   8
ATOM      8  C   UNL     1       0.486   2.085   1.476  1.00  0.00     0.265 C 
ATOM      9  O   UNL     1       0.528   3.263   1.855  1.00  0.00    -0.268 OA
BRANCH   8  10
ATOM     10  C   UNL     1       1.012   1.031   2.408  1.00  0.00     0.095 A 
ATOM     11  C   UNL     1       1.521  -0.285   2.389  1.00  0.00    -0.025 A 
ATOM     12  C   UNL     1       1.832  -0.750   3.730  1.00  0.00     0.016 A 
ATOM     13  C   UNL     1       1.644   0.184   4.708  1.00  0.00     0.066 A 
ATOM     14  S   UNL     1       1.046   1.625   4.074  1.00  0.00    -0.138 S 
BRANCH  11  15
ATOM     15  C   UNL     1       1.760  -1.278   1.271  1.00  0.00     0.034 C 
ATOM     16  C   UNL     1       2.542  -0.758   0.082  1.00  0.00     0.009 C 
ENDBRANCH  11  15
ENDBRANCH   8  10
ENDBRANCH   7   8
BRANCH   7  17
ATOM     17  C   UNL     1      -0.467   3.066  -0.668  1.00  0.00     0.035 C 
ATOM     18  C   UNL     1      -1.692   3.813  -0.099  1.00  0.00     0.034 C 
ATOM     19  C   UNL     1       0.724   4.052  -0.800  1.00  0.00     0.034 C 
ATOM     20  C   UNL     1      -0.823   2.691  -2.130  1.00  0.00     0.034 C 
ENDBRANCH   7  17
ENDBRANCH   6   7
ENDBRANCH   3   6
ENDBRANCH   1   2
BRANCH   1  21
ATOM     21  C   UNL     1      -3.058   1.247   2.497  1.00  0.00     0.042 C 
BRANCH  21  22
ATOM     22  C   UNL     1      -4.569   1.185   2.327  1.00  0.00     0.118 C 
BRANCH  22  23
ATOM     23  N   UNL     1      -5.160   0.120   3.126  1.00  0.00    -0.352 N 
ATOM     24  C   UNL     1      -6.180   0.199   4.039  1.00  0.00     0.251 C 
ATOM     25  H   UNL     1      -4.776  -0.776   2.992  1.00  0.00     0.163 HD
ATOM     26  O   UNL     1      -6.408  -0.733   4.798  1.00  0.00    -0.269 OA
BRANCH  24  27
ATOM     27  C   UNL     1      -6.990   1.429   4.096  1.00  0.00     0.039 A 
ATOM     28  C   UNL     1      -7.283   1.991   5.338  1.00  0.00     0.014 A 
ATOM     29  C   UNL     1      -7.440   2.029   2.916  1.00  0.00     0.014 A 
ATOM     30  C   UNL     1      -7.994   3.189   5.395  1.00  0.00     0.010 A 
ATOM     31  C   UNL     1      -8.068   3.265   2.971  1.00  0.00     0.010 A 
ATOM     32  C   UNL     1      -8.365   3.849   4.211  1.00  0.00    -0.014 A 
BRANCH  32  33
ATOM     33  C   UNL     1      -9.082   5.145   4.248  1.00  0.00     0.031 A 
ATOM     34  C   UNL     1     -10.470   5.249   3.678  1.00  0.00     0.074 A 
ATOM     35  C   UNL     1      -8.462   6.235   4.738  1.00  0.00     0.049 A 
ATOM     36  N   UNL     1     -11.239   6.302   3.569  1.00  0.00    -0.248 NA
ATOM     37  C   UNL     1     -11.060   4.016   3.131  1.00  0.00     0.031 C 
ATOM     38  C   UNL     1      -7.099   6.268   5.276  1.00  0.00     0.029 A 
ATOM     39  N   UNL     1      -8.897   7.530   4.858  1.00  0.00    -0.354 N 
ATOM     40  C   UNL     1     -12.390   5.862   2.927  1.00  0.00     0.074 A 
ATOM     41  C   UNL     1     -12.198   4.462   2.620  1.00  0.00     0.031 C 
ATOM     42  C   UNL     1      -6.823   7.512   5.696  1.00  0.00     0.029 A 
ATOM     43  C   UNL     1      -7.967   8.373   5.416  1.00  0.00     0.049 A 
ATOM     44  H   UNL     1      -9.790   7.827   4.571  1.00  0.00     0.167 HD
ATOM     45  C   UNL     1     -13.515   6.556   2.637  1.00  0.00     0.031 A 
ATOM     46  C   UNL     1      -8.028   9.694   5.666  1.00  0.00     0.031 A 
ATOM     47  C   UNL     1     -13.706   7.945   2.956  1.00  0.00     0.049 A 
ATOM     48  C   UNL     1      -9.286  10.444   5.325  1.00  0.00     0.074 A 
ATOM     49  C   UNL     1     -14.832   8.725   2.763  1.00  0.00     0.029 A 
ATOM     50  N   UNL     1     -12.745   8.761   3.533  1.00  0.00    -0.354 N 
ATOM     51  N   UNL     1     -10.396   9.996   4.791  1.00  0.00    -0.248 NA
ATOM     52  C   UNL     1      -9.303  11.880   5.636  1.00  0.00     0.031 C 
ATOM     53  C   UNL     1     -14.532  10.029   3.167  1.00  0.00     0.029 A 
ATOM     54  C   UNL     1     -13.242  10.044   3.675  1.00  0.00     0.049 A 
ATOM     55  H   UNL     1     -11.843   8.470   3.800  1.00  0.00     0.167 HD
ATOM     56  C   UNL     1     -11.254  11.086   4.729  1.00  0.00     0.074 A 
ATOM     57  C   UNL     1     -10.541  12.212   5.298  1.00  0.00     0.031 C 
ATOM     58  C   UNL     1     -12.519  11.151   4.246  1.00  0.00     0.031 A 
BRANCH  45  59
ATOM     59  C   UNL     1     -14.623   5.824   1.931  1.00  0.00    -0.014 A 
ATOM     60  C   UNL     1     -15.362   4.819   2.575  1.00  0.00     0.009 A 
ATOM     61  C   UNL     1     -14.960   6.175   0.614  1.00  0.00     0.009 A 
ATOM     62  C   UNL     1     -16.392   4.157   1.904  1.00  0.00     0.001 A 
ATOM     63  C   UNL     1     -16.012   5.533  -0.043  1.00  0.00     0.001 A 
ATOM     64  C   UNL     1     -16.720   4.519   0.599  1.00  0.00     0.000 A 
ENDBRANCH  45  59
BRANCH  46  65
ATOM     65  C   UNL     1      -6.867  10.394   6.277  1.00  0.00    -0.014 A 
ATOM     66  C   UNL     1      -6.944  10.902   7.584  1.00  0.00     0.009 A 
ATOM     67  C   UNL     1      -5.677  10.570   5.552  1.00  0.00     0.009 A 
ATOM     68  C   UNL     1      -5.868  11.600   8.137  1.00  0.00     0.001 A 
ATOM     69  C   UNL     1      -4.592  11.240   6.121  1.00  0.00     0.001 A 
ATOM     70  C   UNL     1      -4.692  11.765   7.407  1.00  0.00     0.000 A 
ENDBRANCH  46  65
BRANCH  58  71
ATOM     71  C   UNL     1     -13.229  12.472   4.351  1.00  0.00    -0.014 A 
ATOM     72  C   UNL     1     -12.864  13.565   3.551  1.00  0.00     0.009 A 
ATOM     73  C   UNL     1     -14.312  12.605   5.234  1.00  0.00     0.009 A 
ATOM     74  C   UNL     1     -13.548  14.778   3.661  1.00  0.00     0.001 A 
ATOM     75  C   UNL     1     -15.015  13.807   5.317  1.00  0.00     0.001 A 
ATOM     76  C   UNL     1     -14.626  14.895   4.538  1.00  0.00     0.000 A 
ENDBRANCH  58  71
ENDBRANCH  32  33
ENDBRANCH  24  27
ENDBRANCH  22  23
ENDBRANCH  21  22
ENDBRANCH   1  21
TORSDOF 15
