REMARK SMILES C[C@H]1[C@H](C(=O)NCCCNC(=O)c2ccc(-c3c4nc(c(-c5ccccc5)c5ccc([nH]5)c(-c5ccccc5)c5nc(c(-c6ccccc6)c6ccc3[nH]6)C=C5)C=C4)cc2)CCN1c1ncnc2sccc12
REMARK SMILES IDX 8 1 7 2 6 3 4 4 5 5 3 7 1 8 2 9 63 10 61 11 62 12 64 13
REMARK SMILES IDX 65 14 72 15 66 16 68 17 71 18 67 19 69 20 70 21 9 22 10 23
REMARK SMILES IDX 11 24 12 26 13 27 14 28 60 29 15 30 59 31 16 32 17 33 18 34
REMARK SMILES IDX 53 35 19 36 58 37 52 38 54 39 20 40 57 41 51 42 50 43 21 45
REMARK SMILES IDX 43 46 28 47 42 48 29 49 32 50 41 51 55 52 30 53 31 54 40 56
REMARK SMILES IDX 56 57 33 58 22 59 23 60 27 61 24 62 26 63 25 64 44 65 45 66
REMARK SMILES IDX 49 67 46 68 48 69 47 70 34 71 35 72 39 73 36 74 38 75 37 76
REMARK H PARENT 6 6 10 25 54 44 32 55
REMARK Flexibility Score: inf
ROOT
ATOM      1  C   UNL     1      -0.288  -0.057   3.896  1.00  0.00     0.042 C 
ENDROOT
BRANCH   1   2
ATOM      2  C   UNL     1      -1.159   0.632   2.853  1.00  0.00     0.117 C 
BRANCH   2   3
ATOM      3  N   UNL     1      -0.566   1.864   2.360  1.00  0.00    -0.356 N 
ATOM      4  C   UNL     1      -0.025   2.181   1.155  1.00  0.00     0.225 C 
ATOM      5  O   UNL     1       0.446   3.316   1.034  1.00  0.00    -0.275 OA
ATOM      6  H   UNL     1      -0.554   2.599   3.015  1.00  0.00     0.163 HD
BRANCH   4   7
ATOM      7  C   UNL     1       0.003   1.219  -0.022  1.00  0.00     0.102 C 
ATOM      8  C   UNL     1       2.014  -0.127  -0.715  1.00  0.00     0.032 C 
ATOM      9  C   UNL     1       0.835  -0.039   0.257  1.00  0.00     0.093 C 
ATOM     10  N   UNL     1      -0.097  -1.156   0.064  1.00  0.00    -0.352 N 
ATOM     11  C   UNL     1      -1.381   0.766  -0.473  1.00  0.00     0.037 C 
ATOM     12  C   UNL     1      -1.330  -0.753  -0.579  1.00  0.00     0.119 C 
BRANCH  10  13
ATOM     13  C   UNL     1       0.206  -2.423   0.514  1.00  0.00     0.141 A 
ATOM     14  N   UNL     1       1.372  -2.565   1.203  1.00  0.00    -0.219 NA
ATOM     15  C   UNL     1      -0.590  -3.592   0.354  1.00  0.00     0.054 A 
ATOM     16  C   UNL     1       1.737  -3.762   1.680  1.00  0.00     0.225 A 
ATOM     17  C   UNL     1      -0.093  -4.758   0.930  1.00  0.00     0.128 A 
ATOM     18  C   UNL     1      -1.845  -3.883  -0.295  1.00  0.00     0.026 A 
ATOM     19  N   UNL     1       1.061  -4.902   1.598  1.00  0.00    -0.225 NA
ATOM     20  S   UNL     1      -1.119  -6.107   0.731  1.00  0.00    -0.124 S 
ATOM     21  C   UNL     1      -2.252  -5.191  -0.149  1.00  0.00     0.068 A 
ENDBRANCH  10  13
ENDBRANCH   4   7
ENDBRANCH   2   3
ENDBRANCH   1   2
BRANCH   1  22
ATOM     22  C   UNL     1      -0.141   0.729   5.194  1.00  0.00     0.118 C 
BRANCH  22  23
ATOM     23  N   UNL     1      -1.405   0.882   5.903  1.00  0.00    -0.352 N 
ATOM     24  C   UNL     1      -1.772   0.473   7.159  1.00  0.00     0.251 C 
ATOM     25  H   UNL     1      -2.107   1.355   5.401  1.00  0.00     0.163 HD
ATOM     26  O   UNL     1      -2.955   0.535   7.493  1.00  0.00    -0.269 OA
BRANCH  24  27
ATOM     27  C   UNL     1      -0.770  -0.053   8.110  1.00  0.00     0.039 A 
ATOM     28  C   UNL     1      -1.115  -1.144   8.914  1.00  0.00     0.014 A 
ATOM     29  C   UNL     1       0.489   0.538   8.242  1.00  0.00     0.014 A 
ATOM     30  C   UNL     1      -0.179  -1.677   9.803  1.00  0.00     0.010 A 
ATOM     31  C   UNL     1       1.448  -0.043   9.068  1.00  0.00     0.010 A 
ATOM     32  C   UNL     1       1.122  -1.152   9.862  1.00  0.00    -0.014 A 
BRANCH  32  33
ATOM     33  C   UNL     1       2.150  -1.755  10.747  1.00  0.00     0.031 A 
ATOM     34  C   UNL     1       2.740  -0.964  11.882  1.00  0.00     0.074 A 
ATOM     35  C   UNL     1       2.595  -3.001  10.493  1.00  0.00     0.049 A 
ATOM     36  N   UNL     1       3.669  -1.313  12.736  1.00  0.00    -0.248 NA
ATOM     37  C   UNL     1       2.238   0.407  12.068  1.00  0.00     0.031 C 
ATOM     38  C   UNL     1       2.143  -3.856   9.393  1.00  0.00     0.029 A 
ATOM     39  N   UNL     1       3.531  -3.765  11.144  1.00  0.00    -0.354 N 
ATOM     40  C   UNL     1       3.872  -0.204  13.548  1.00  0.00     0.074 A 
ATOM     41  C   UNL     1       3.009   0.846  13.052  1.00  0.00     0.031 C 
ATOM     42  C   UNL     1       2.780  -5.035   9.463  1.00  0.00     0.029 A 
ATOM     43  C   UNL     1       3.710  -5.008  10.588  1.00  0.00     0.049 A 
ATOM     44  H   UNL     1       4.028  -3.451  11.934  1.00  0.00     0.167 HD
ATOM     45  C   UNL     1       4.687  -0.075  14.622  1.00  0.00     0.031 A 
ATOM     46  C   UNL     1       4.532  -6.013  10.941  1.00  0.00     0.031 A 
ATOM     47  C   UNL     1       5.541  -1.119  15.121  1.00  0.00     0.049 A 
ATOM     48  C   UNL     1       5.424  -5.848  12.138  1.00  0.00     0.074 A 
ATOM     49  C   UNL     1       6.365  -1.102  16.233  1.00  0.00     0.029 A 
ATOM     50  N   UNL     1       5.682  -2.369  14.538  1.00  0.00    -0.354 N 
ATOM     51  N   UNL     1       5.554  -4.816  12.935  1.00  0.00    -0.248 NA
ATOM     52  C   UNL     1       6.272  -6.995  12.491  1.00  0.00     0.031 C 
ATOM     53  C   UNL     1       7.040  -2.327  16.297  1.00  0.00     0.029 A 
ATOM     54  C   UNL     1       6.595  -3.125  15.255  1.00  0.00     0.049 A 
ATOM     55  H   UNL     1       5.205  -2.673  13.733  1.00  0.00     0.167 HD
ATOM     56  C   UNL     1       6.481  -5.194  13.896  1.00  0.00     0.074 A 
ATOM     57  C   UNL     1       6.864  -6.559  13.594  1.00  0.00     0.031 C 
ATOM     58  C   UNL     1       6.973  -4.477  14.935  1.00  0.00     0.031 A 
BRANCH  45  59
ATOM     59  C   UNL     1       4.689   1.253  15.328  1.00  0.00    -0.014 A 
ATOM     60  C   UNL     1       3.580   1.679  16.077  1.00  0.00     0.009 A 
ATOM     61  C   UNL     1       5.823   2.078  15.265  1.00  0.00     0.009 A 
ATOM     62  C   UNL     1       3.591   2.922  16.715  1.00  0.00     0.001 A 
ATOM     63  C   UNL     1       5.842   3.307  15.928  1.00  0.00     0.001 A 
ATOM     64  C   UNL     1       4.723   3.732  16.643  1.00  0.00     0.000 A 
ENDBRANCH  45  59
BRANCH  46  65
ATOM     65  C   UNL     1       4.533  -7.277  10.160  1.00  0.00    -0.014 A 
ATOM     66  C   UNL     1       3.984  -8.450  10.702  1.00  0.00     0.009 A 
ATOM     67  C   UNL     1       5.079  -7.317   8.868  1.00  0.00     0.009 A 
ATOM     68  C   UNL     1       4.004  -9.642   9.975  1.00  0.00     0.001 A 
ATOM     69  C   UNL     1       5.073  -8.504   8.132  1.00  0.00     0.001 A 
ATOM     70  C   UNL     1       4.544  -9.667   8.689  1.00  0.00     0.000 A 
ENDBRANCH  46  65
BRANCH  58  71
ATOM     71  C   UNL     1       7.961  -5.166  15.833  1.00  0.00    -0.014 A 
ATOM     72  C   UNL     1       9.271  -5.434  15.405  1.00  0.00     0.009 A 
ATOM     73  C   UNL     1       7.582  -5.531  17.134  1.00  0.00     0.009 A 
ATOM     74  C   UNL     1      10.169  -6.088  16.250  1.00  0.00     0.001 A 
ATOM     75  C   UNL     1       8.491  -6.160  17.986  1.00  0.00     0.001 A 
ATOM     76  C   UNL     1       9.780  -6.447  17.540  1.00  0.00     0.000 A 
ENDBRANCH  58  71
ENDBRANCH  32  33
ENDBRANCH  24  27
ENDBRANCH  22  23
ENDBRANCH   1  22
TORSDOF 11
