REMARK SMILES Cc1cccc(N2C(=O)/C(=C/c3ccc(C(=O)NCCCNC(=O)c4ccc(-c5c6nc(c(-c7ccccc7)c7ccc([nH]7)c(-c7ccccc7)c7nc(c(-c8ccccc8)c8ccc5[nH]8)C=C7)C=C6)cc4)cc3)c3ccccc3C2=O)c1
REMARK SMILES IDX 20 1 19 2 18 3 16 4 17 5 15 7 12 8 13 9 74 10 14 11 73 12
REMARK SMILES IDX 11 13 7 14 8 15 81 16 9 17 10 18 80 19 82 20 75 21 79 22
REMARK SMILES IDX 76 23 78 24 77 25 6 26 1 27 2 28 3 29 83 30 4 31 5 32 21 33
REMARK SMILES IDX 22 34 23 35 24 37 25 38 26 39 72 40 27 41 71 42 28 43 29 44
REMARK SMILES IDX 30 45 65 46 31 47 70 48 64 49 66 50 32 51 69 52 63 53 62 54
REMARK SMILES IDX 33 56 55 57 40 58 54 59 41 60 44 61 53 62 67 63 42 64 43 65
REMARK SMILES IDX 52 67 68 68 45 69 34 70 35 71 39 72 36 73 38 74 37 75 56 76
REMARK SMILES IDX 57 77 61 78 58 79 60 80 59 81 46 82 47 83 51 84 48 85 50 86
REMARK SMILES IDX 49 87
REMARK H PARENT 18 6 22 36 66 55 44 66
REMARK Flexibility Score: inf
ROOT
ATOM      1  C   UNL     1      -5.707  10.077   2.014  1.00  0.00     0.042 C 
ENDROOT
BRANCH   1   2
ATOM      2  C   UNL     1      -6.161  10.057   0.560  1.00  0.00     0.118 C 
BRANCH   2   3
ATOM      3  N   UNL     1      -5.481  11.055  -0.260  1.00  0.00    -0.352 N 
ATOM      4  C   UNL     1      -4.337  10.973  -1.023  1.00  0.00     0.251 C 
ATOM      5  O   UNL     1      -3.871  11.989  -1.532  1.00  0.00    -0.269 OA
ATOM      6  H   UNL     1      -5.914  11.940  -0.268  1.00  0.00     0.163 HD
BRANCH   4   7
ATOM      7  C   UNL     1      -3.614   9.691  -1.188  1.00  0.00     0.039 A 
ATOM      8  C   UNL     1      -2.215   7.270  -1.185  1.00  0.00    -0.025 A 
ATOM      9  C   UNL     1      -1.523   8.475  -1.029  1.00  0.00     0.009 A 
ATOM     10  C   UNL     1      -3.581   7.294  -1.490  1.00  0.00     0.009 A 
ATOM     11  C   UNL     1      -2.223   9.685  -1.026  1.00  0.00     0.014 A 
ATOM     12  C   UNL     1      -4.274   8.505  -1.514  1.00  0.00     0.014 A 
BRANCH   8  13
ATOM     13  C   UNL     1      -1.513   5.998  -0.981  1.00  0.00     0.022 C 
ATOM     14  N   UNL     1      -1.704   2.632   0.286  1.00  0.00    -0.242 N 
ATOM     15  C   UNL     1      -1.015   3.788  -0.138  1.00  0.00     0.265 C 
ATOM     16  C   UNL     1      -3.044   2.701   0.723  1.00  0.00     0.265 C 
ATOM     17  O   UNL     1       0.104   3.833  -0.650  1.00  0.00    -0.268 OA
ATOM     18  C   UNL     1      -1.791   5.074  -0.032  1.00  0.00     0.049 C 
ATOM     19  C   UNL     1      -3.496   3.982   1.312  1.00  0.00     0.048 A 
ATOM     20  O   UNL     1      -3.890   1.810   0.699  1.00  0.00    -0.268 OA
ATOM     21  C   UNL     1      -2.832   5.162   0.995  1.00  0.00    -0.000 A 
ATOM     22  C   UNL     1      -4.570   3.985   2.217  1.00  0.00     0.014 A 
ATOM     23  C   UNL     1      -3.184   6.333   1.682  1.00  0.00     0.010 A 
ATOM     24  C   UNL     1      -4.947   5.166   2.852  1.00  0.00     0.001 A 
ATOM     25  C   UNL     1      -4.236   6.334   2.602  1.00  0.00     0.001 A 
BRANCH  14  26
ATOM     26  C   UNL     1      -1.047   1.329   0.161  1.00  0.00     0.053 A 
ATOM     27  C   UNL     1       2.515  -0.108   0.020  1.00  0.00     0.044 C 
ATOM     28  C   UNL     1       1.016  -0.029   0.039  1.00  0.00    -0.049 A 
ATOM     29  C   UNL     1       0.261  -1.195  -0.064  1.00  0.00     0.003 A 
ATOM     30  C   UNL     1       0.358   1.209   0.172  1.00  0.00     0.030 A 
ATOM     31  C   UNL     1      -1.125  -1.118  -0.047  1.00  0.00     0.002 A 
ATOM     32  C   UNL     1      -1.764   0.124   0.060  1.00  0.00     0.027 A 
ENDBRANCH  14  26
ENDBRANCH   8  13
ENDBRANCH   4   7
ENDBRANCH   2   3
ENDBRANCH   1   2
BRANCH   1  33
ATOM     33  C   UNL     1      -6.597  10.941   2.898  1.00  0.00     0.118 C 
BRANCH  33  34
ATOM     34  N   UNL     1      -7.758  10.238   3.440  1.00  0.00    -0.352 N 
ATOM     35  C   UNL     1      -8.795  10.762   4.219  1.00  0.00     0.251 C 
ATOM     36  H   UNL     1      -7.817   9.278   3.232  1.00  0.00     0.163 HD
ATOM     37  O   UNL     1      -9.739  10.088   4.553  1.00  0.00    -0.269 OA
BRANCH  35  38
ATOM     38  C   UNL     1      -8.743  12.213   4.515  1.00  0.00     0.039 A 
ATOM     39  C   UNL     1      -9.756  13.013   3.983  1.00  0.00     0.014 A 
ATOM     40  C   UNL     1      -7.565  12.770   5.001  1.00  0.00     0.014 A 
ATOM     41  C   UNL     1      -9.469  14.341   3.682  1.00  0.00     0.010 A 
ATOM     42  C   UNL     1      -7.245  14.060   4.619  1.00  0.00     0.010 A 
ATOM     43  C   UNL     1      -8.167  14.812   3.884  1.00  0.00    -0.014 A 
BRANCH  43  44
ATOM     44  C   UNL     1      -7.663  15.996   3.195  1.00  0.00     0.031 A 
ATOM     45  C   UNL     1      -7.520  17.276   3.908  1.00  0.00     0.074 A 
ATOM     46  C   UNL     1      -7.385  15.968   1.871  1.00  0.00     0.049 A 
ATOM     47  N   UNL     1      -7.846  18.419   3.395  1.00  0.00    -0.248 NA
ATOM     48  C   UNL     1      -7.024  17.359   5.276  1.00  0.00     0.031 C 
ATOM     49  C   UNL     1      -6.760  17.032   1.088  1.00  0.00     0.029 A 
ATOM     50  N   UNL     1      -7.827  15.057   0.911  1.00  0.00    -0.354 N 
ATOM     51  C   UNL     1      -7.336  19.382   4.229  1.00  0.00     0.074 A 
ATOM     52  C   UNL     1      -6.925  18.683   5.429  1.00  0.00     0.031 C 
ATOM     53  C   UNL     1      -7.130  16.891  -0.194  1.00  0.00     0.029 A 
ATOM     54  C   UNL     1      -8.072  15.788  -0.263  1.00  0.00     0.049 A 
ATOM     55  H   UNL     1      -7.946  14.088   1.034  1.00  0.00     0.167 HD
ATOM     56  C   UNL     1      -7.134  20.654   3.788  1.00  0.00     0.031 A 
ATOM     57  C   UNL     1      -9.254  15.780  -0.941  1.00  0.00     0.031 A 
ATOM     58  C   UNL     1      -7.460  20.827   2.379  1.00  0.00     0.049 A 
ATOM     59  C   UNL     1      -9.851  17.157  -1.116  1.00  0.00     0.074 A 
ATOM     60  C   UNL     1      -6.670  20.853   1.240  1.00  0.00     0.029 A 
ATOM     61  N   UNL     1      -8.775  20.717   1.944  1.00  0.00    -0.354 N 
ATOM     62  N   UNL     1      -9.438  18.209  -0.469  1.00  0.00    -0.248 NA
ATOM     63  C   UNL     1     -11.018  17.442  -1.950  1.00  0.00     0.031 C 
ATOM     64  C   UNL     1      -7.515  20.726   0.113  1.00  0.00     0.029 A 
ATOM     65  C   UNL     1      -8.818  20.631   0.565  1.00  0.00     0.049 A 
ATOM     66  H   UNL     1      -9.563  20.703   2.534  1.00  0.00     0.167 HD
ATOM     67  C   UNL     1     -10.262  19.270  -0.743  1.00  0.00     0.074 A 
ATOM     68  C   UNL     1     -11.225  18.745  -1.691  1.00  0.00     0.031 C 
ATOM     69  C   UNL     1     -10.084  20.480  -0.136  1.00  0.00     0.031 A 
BRANCH  56  70
ATOM     70  C   UNL     1      -6.303  21.624   4.583  1.00  0.00    -0.014 A 
ATOM     71  C   UNL     1      -5.372  22.453   3.935  1.00  0.00     0.009 A 
ATOM     72  C   UNL     1      -6.366  21.720   5.984  1.00  0.00     0.009 A 
ATOM     73  C   UNL     1      -4.472  23.250   4.650  1.00  0.00     0.001 A 
ATOM     74  C   UNL     1      -5.442  22.484   6.707  1.00  0.00     0.001 A 
ATOM     75  C   UNL     1      -4.485  23.239   6.039  1.00  0.00     0.000 A 
ENDBRANCH  56  70
BRANCH  57  76
ATOM     76  C   UNL     1     -10.053  14.543  -0.754  1.00  0.00    -0.014 A 
ATOM     77  C   UNL     1      -9.546  13.341  -1.287  1.00  0.00     0.009 A 
ATOM     78  C   UNL     1     -11.046  14.480   0.232  1.00  0.00     0.009 A 
ATOM     79  C   UNL     1      -9.934  12.109  -0.756  1.00  0.00     0.001 A 
ATOM     80  C   UNL     1     -11.438  13.242   0.753  1.00  0.00     0.001 A 
ATOM     81  C   UNL     1     -10.855  12.063   0.286  1.00  0.00     0.000 A 
ENDBRANCH  57  76
BRANCH  69  82
ATOM     82  C   UNL     1     -11.016  21.664  -0.204  1.00  0.00    -0.014 A 
ATOM     83  C   UNL     1     -12.381  21.585  -0.507  1.00  0.00     0.009 A 
ATOM     84  C   UNL     1     -10.525  22.936   0.172  1.00  0.00     0.009 A 
ATOM     85  C   UNL     1     -13.200  22.724  -0.485  1.00  0.00     0.001 A 
ATOM     86  C   UNL     1     -11.346  24.064   0.237  1.00  0.00     0.001 A 
ATOM     87  C   UNL     1     -12.685  23.960  -0.106  1.00  0.00     0.000 A 
ENDBRANCH  69  82
ENDBRANCH  43  44
ENDBRANCH  35  38
ENDBRANCH  33  34
ENDBRANCH   1  33
TORSDOF 12
