REMARK SMILES C[C@H]([NH3+])C(=O)N1CCC[C@H]1C(=O)NCCCNC(=O)c1ccc(-c2c3nc(c(-c4ccccc4)c4ccc([nH]4)c(-c4ccccc4)c4nc(c(-c5ccccc5)c5ccc2[nH]5)C=C4)C=C3)cc1
REMARK SMILES IDX 14 1 13 2 11 3 12 4 10 6 6 7 7 8 8 9 9 10 4 11 5 12 2 13
REMARK SMILES IDX 1 14 3 15 15 19 16 20 17 21 18 22 19 24 20 25 21 26 67 27
REMARK SMILES IDX 22 28 66 29 23 30 24 31 25 32 60 33 26 34 65 35 59 36 61 37
REMARK SMILES IDX 27 38 64 39 58 40 57 41 28 43 50 44 35 45 49 46 36 47 39 48
REMARK SMILES IDX 48 49 62 50 37 51 38 52 47 54 63 55 40 56 29 57 30 58 34 59
REMARK SMILES IDX 31 60 33 61 32 62 51 63 52 64 56 65 53 66 55 67 54 68 41 69
REMARK SMILES IDX 42 70 46 71 43 72 45 73 44 74
REMARK H PARENT 13 5 3 16 3 17 3 18 17 23 61 42 39 53
REMARK Flexibility Score: inf
ROOT
ATOM      1  C   UNL     1      -5.521  -3.283   0.832  1.00  0.00     0.117 C 
ENDROOT
BRANCH   1   2
ATOM      2  N   UNL     1      -5.144  -2.040   0.183  1.00  0.00    -0.354 N 
ATOM      3  C   UNL     1      -3.915  -1.454   0.037  1.00  0.00     0.242 C 
ATOM      4  O   UNL     1      -3.907  -0.268  -0.302  1.00  0.00    -0.273 OA
ATOM      5  H   UNL     1      -5.892  -1.538  -0.216  1.00  0.00     0.163 HD
BRANCH   3   6
ATOM      6  C   UNL     1      -2.617  -2.282   0.246  1.00  0.00     0.174 C 
ATOM      7  N   UNL     1      -1.402  -1.459   0.124  1.00  0.00    -0.326 N 
ATOM      8  C   UNL     1      -0.835  -1.217   1.434  1.00  0.00     0.120 C 
ATOM      9  C   UNL     1      -1.105  -2.517   2.152  1.00  0.00     0.024 C 
ATOM     10  C   UNL     1      -2.490  -2.896   1.649  1.00  0.00     0.037 C 
BRANCH   7  11
ATOM     11  C   UNL     1      -0.899  -1.159  -1.125  1.00  0.00     0.281 C 
ATOM     12  O   UNL     1      -1.551  -1.428  -2.141  1.00  0.00    -0.268 OA
BRANCH  11  13
ATOM     13  C   UNL     1       0.557  -0.664  -1.285  1.00  0.00     0.268 C 
ATOM     14  C   UNL     1       1.501  -1.848  -1.079  1.00  0.00     0.086 C 
BRANCH  13  15
ATOM     15  N   UNL     1       0.914   0.490  -0.444  1.00  0.00    -0.348 N 
ATOM     16  H   UNL     1       0.849   0.227   0.540  1.00  0.00     0.345 HD
ATOM     17  H   UNL     1       0.272   1.260  -0.633  1.00  0.00     0.345 HD
ATOM     18  H   UNL     1       1.868   0.783  -0.655  1.00  0.00     0.345 HD
ENDBRANCH  13  15
ENDBRANCH  11  13
ENDBRANCH   7  11
ENDBRANCH   3   6
ENDBRANCH   1   2
BRANCH   1  19
ATOM     19  C   UNL     1      -5.904  -3.039   2.295  1.00  0.00     0.042 C 
BRANCH  19  20
ATOM     20  C   UNL     1      -7.257  -2.358   2.471  1.00  0.00     0.118 C 
BRANCH  20  21
ATOM     21  N   UNL     1      -8.357  -3.283   2.268  1.00  0.00    -0.352 N 
ATOM     22  C   UNL     1      -9.338  -3.692   3.136  1.00  0.00     0.251 C 
ATOM     23  H   UNL     1      -8.407  -3.678   1.368  1.00  0.00     0.163 HD
ATOM     24  O   UNL     1     -10.029  -4.662   2.838  1.00  0.00    -0.269 OA
BRANCH  22  25
ATOM     25  C   UNL     1      -9.575  -2.995   4.424  1.00  0.00     0.039 A 
ATOM     26  C   UNL     1      -9.964  -3.760   5.529  1.00  0.00     0.014 A 
ATOM     27  C   UNL     1      -9.506  -1.603   4.540  1.00  0.00     0.014 A 
ATOM     28  C   UNL     1     -10.258  -3.139   6.746  1.00  0.00     0.010 A 
ATOM     29  C   UNL     1      -9.730  -0.989   5.774  1.00  0.00     0.010 A 
ATOM     30  C   UNL     1     -10.129  -1.748   6.884  1.00  0.00    -0.014 A 
BRANCH  30  31
ATOM     31  C   UNL     1     -10.449  -1.077   8.171  1.00  0.00     0.031 A 
ATOM     32  C   UNL     1     -11.623  -0.140   8.268  1.00  0.00     0.074 A 
ATOM     33  C   UNL     1      -9.668  -1.288   9.248  1.00  0.00     0.049 A 
ATOM     34  N   UNL     1     -12.050   0.544   9.301  1.00  0.00    -0.248 NA
ATOM     35  C   UNL     1     -12.408   0.075   7.042  1.00  0.00     0.031 C 
ATOM     36  C   UNL     1      -8.483  -2.148   9.281  1.00  0.00     0.029 A 
ATOM     37  N   UNL     1      -9.757  -0.794  10.525  1.00  0.00    -0.354 N 
ATOM     38  C   UNL     1     -13.136   1.281   8.844  1.00  0.00     0.074 A 
ATOM     39  C   UNL     1     -13.278   0.994   7.433  1.00  0.00     0.031 C 
ATOM     40  C   UNL     1      -7.976  -2.147  10.525  1.00  0.00     0.029 A 
ATOM     41  C   UNL     1      -8.777  -1.263  11.366  1.00  0.00     0.049 A 
ATOM     42  H   UNL     1     -10.457  -0.165  10.812  1.00  0.00     0.167 HD
ATOM     43  C   UNL     1     -13.953   2.110   9.537  1.00  0.00     0.031 A 
ATOM     44  C   UNL     1      -8.549  -1.011  12.669  1.00  0.00     0.031 A 
ATOM     45  C   UNL     1     -13.832   2.380  10.944  1.00  0.00     0.049 A 
ATOM     46  C   UNL     1      -9.471  -0.088  13.415  1.00  0.00     0.074 A 
ATOM     47  C   UNL     1     -14.652   3.153  11.748  1.00  0.00     0.029 A 
ATOM     48  N   UNL     1     -12.825   1.884  11.757  1.00  0.00    -0.354 N 
ATOM     49  N   UNL     1     -10.533   0.546  12.982  1.00  0.00    -0.248 NA
ATOM     50  C   UNL     1      -9.166   0.143  14.835  1.00  0.00     0.031 C 
ATOM     51  C   UNL     1     -14.117   3.159  13.040  1.00  0.00     0.029 A 
ATOM     52  C   UNL     1     -12.990   2.353  13.049  1.00  0.00     0.049 A 
ATOM     53  H   UNL     1     -12.101   1.288  11.460  1.00  0.00     0.167 HD
ATOM     54  C   UNL     1     -11.039   1.228  14.081  1.00  0.00     0.074 A 
ATOM     55  C   UNL     1     -10.175   0.921  15.202  1.00  0.00     0.031 C 
ATOM     56  C   UNL     1     -12.124   2.036  14.154  1.00  0.00     0.031 A 
BRANCH  43  57
ATOM     57  C   UNL     1     -15.055   2.793   8.775  1.00  0.00    -0.014 A 
ATOM     58  C   UNL     1     -16.176   2.081   8.321  1.00  0.00     0.009 A 
ATOM     59  C   UNL     1     -14.988   4.176   8.544  1.00  0.00     0.009 A 
ATOM     60  C   UNL     1     -17.192   2.734   7.620  1.00  0.00     0.001 A 
ATOM     61  C   UNL     1     -16.018   4.831   7.865  1.00  0.00     0.001 A 
ATOM     62  C   UNL     1     -17.114   4.108   7.396  1.00  0.00     0.000 A 
ENDBRANCH  43  57
BRANCH  44  63
ATOM     63  C   UNL     1      -7.410  -1.664  13.364  1.00  0.00    -0.014 A 
ATOM     64  C   UNL     1      -7.643  -2.682  14.303  1.00  0.00     0.009 A 
ATOM     65  C   UNL     1      -6.090  -1.269  13.102  1.00  0.00     0.009 A 
ATOM     66  C   UNL     1      -6.576  -3.274  14.982  1.00  0.00     0.001 A 
ATOM     67  C   UNL     1      -5.024  -1.881  13.765  1.00  0.00     0.001 A 
ATOM     68  C   UNL     1      -5.268  -2.876  14.710  1.00  0.00     0.000 A 
ENDBRANCH  44  63
BRANCH  56  69
ATOM     69  C   UNL     1     -12.457   2.617  15.498  1.00  0.00    -0.014 A 
ATOM     70  C   UNL     1     -11.697   3.661  16.047  1.00  0.00     0.009 A 
ATOM     71  C   UNL     1     -13.570   2.136  16.206  1.00  0.00     0.009 A 
ATOM     72  C   UNL     1     -12.029   4.192  17.295  1.00  0.00     0.001 A 
ATOM     73  C   UNL     1     -13.913   2.686  17.441  1.00  0.00     0.001 A 
ATOM     74  C   UNL     1     -13.138   3.707  17.988  1.00  0.00     0.000 A 
ENDBRANCH  56  69
ENDBRANCH  30  31
ENDBRANCH  22  25
ENDBRANCH  20  21
ENDBRANCH  19  20
ENDBRANCH   1  19
TORSDOF 13
