REMARK SMILES COc1ccc(-c2cc(Cl)cc3c2O[C@@H](C(F)(F)F)C(C(=O)NCCCNC(=O)c2ccc(-c4c5nc(c(-c6ccccc6)c6ccc([nH]6)c(-c6ccccc6)c6nc(c(-c7ccccc7)c7ccc4[nH]7)C=C6)C=C5)cc2)=C3)cc1C
REMARK SMILES IDX 25 1 24 2 23 3 21 4 22 5 20 7 7 8 8 9 13 10 9 11 12 12 14 13
REMARK SMILES IDX 10 14 11 15 78 16 15 17 6 18 3 19 4 20 80 21 5 22 79 23
REMARK SMILES IDX 81 24 2 25 1 26 16 27 17 28 18 29 19 30 26 31 27 32 28 33
REMARK SMILES IDX 29 35 30 36 31 37 77 38 32 39 76 40 33 41 34 42 35 43 70 44
REMARK SMILES IDX 36 45 75 46 69 47 71 48 37 49 74 50 68 51 67 52 38 54 60 55
REMARK SMILES IDX 45 56 59 57 46 58 49 59 58 60 72 61 47 62 48 63 57 65 73 66
REMARK SMILES IDX 50 67 39 68 40 69 44 70 41 71 43 72 42 73 61 74 62 75 66 76
REMARK SMILES IDX 63 77 65 78 64 79 51 80 52 81 56 82 53 83 55 84 54 85
REMARK H PARENT 23 6 27 34 71 53 49 64
REMARK Flexibility Score: inf
ROOT
ATOM      1  C   UNL     1      -2.164  -6.674  -5.662  1.00  0.00     0.042 C 
ENDROOT
BRANCH   1   2
ATOM      2  C   UNL     1      -0.878  -6.150  -6.298  1.00  0.00     0.118 C 
BRANCH   2   3
ATOM      3  N   UNL     1       0.107  -5.703  -5.326  1.00  0.00    -0.352 N 
ATOM      4  C   UNL     1       1.390  -6.103  -5.090  1.00  0.00     0.251 C 
ATOM      5  O   UNL     1       2.195  -5.208  -4.814  1.00  0.00    -0.270 OA
ATOM      6  H   UNL     1      -0.208  -4.982  -4.734  1.00  0.00     0.163 HD
BRANCH   4   7
ATOM      7  C   UNL     1       1.818  -7.573  -5.017  1.00  0.00     0.067 C 
ATOM      8  C   UNL     1       1.327  -7.106  -1.031  1.00  0.00     0.026 A 
ATOM      9  C   UNL     1       2.267  -7.631  -0.124  1.00  0.00     0.033 A 
ATOM     10  C   UNL     1       1.482  -7.513  -2.355  1.00  0.00     0.135 A 
ATOM     11  C   UNL     1       3.463  -8.189  -0.590  1.00  0.00     0.042 A 
ATOM     12  C   UNL     1       2.781  -7.793  -2.855  1.00  0.00     0.019 A 
ATOM     13  O   UNL     1       0.351  -7.780  -3.149  1.00  0.00    -0.475 OA
ATOM     14  Cl  UNL     1       4.631  -8.747   0.543  1.00  0.00    -0.084 Cl
ATOM     15  C   UNL     1       3.768  -8.176  -1.954  1.00  0.00     0.032 A 
ATOM     16  C   UNL     1       2.995  -7.694  -4.342  1.00  0.00     0.025 C 
ATOM     17  C   UNL     1       0.807  -8.490  -4.342  1.00  0.00     0.314 C 
BRANCH   8  18
ATOM     18  C   UNL     1       0.927  -5.700  -0.746  1.00  0.00    -0.014 A 
ATOM     19  C   UNL     1       0.533  -3.019   0.112  1.00  0.00     0.121 A 
ATOM     20  C   UNL     1      -0.507  -3.969   0.139  1.00  0.00     0.047 A 
ATOM     21  C   UNL     1       1.791  -3.396  -0.360  1.00  0.00    -0.008 A 
ATOM     22  C   UNL     1      -0.318  -5.299  -0.280  1.00  0.00     0.013 A 
ATOM     23  C   UNL     1       1.945  -4.714  -0.825  1.00  0.00     0.016 A 
ATOM     24  C   UNL     1       3.016  -2.526  -0.339  1.00  0.00     0.048 C 
BRANCH  19  25
ATOM     25  O   UNL     1       0.206  -1.819   0.684  1.00  0.00    -0.496 OA
ATOM     26  C   UNL     1       0.719  -0.645   0.064  1.00  0.00     0.278 C 
ENDBRANCH  19  25
ENDBRANCH   8  18
BRANCH  17  27
ATOM     27  C   UNL     1      -0.167  -9.267  -5.233  1.00  0.00     0.429 C 
ATOM     28  F   UNL     1       0.155 -10.592  -5.229  1.00  0.00    -0.167 F 
ATOM     29  F   UNL     1      -1.446  -9.191  -4.820  1.00  0.00    -0.167 F 
ATOM     30  F   UNL     1      -0.112  -8.897  -6.531  1.00  0.00    -0.167 F 
ENDBRANCH  17  27
ENDBRANCH   4   7
ENDBRANCH   2   3
ENDBRANCH   1   2
BRANCH   1  31
ATOM     31  C   UNL     1      -3.378  -5.770  -5.834  1.00  0.00     0.118 C 
BRANCH  31  32
ATOM     32  N   UNL     1      -3.966  -5.824  -7.179  1.00  0.00    -0.352 N 
ATOM     33  C   UNL     1      -5.094  -5.174  -7.655  1.00  0.00     0.251 C 
ATOM     34  H   UNL     1      -3.497  -6.396  -7.828  1.00  0.00     0.163 HD
ATOM     35  O   UNL     1      -5.409  -5.205  -8.816  1.00  0.00    -0.269 OA
BRANCH  33  36
ATOM     36  C   UNL     1      -5.853  -4.344  -6.683  1.00  0.00     0.039 A 
ATOM     37  C   UNL     1      -5.830  -2.961  -6.865  1.00  0.00     0.014 A 
ATOM     38  C   UNL     1      -6.263  -4.916  -5.482  1.00  0.00     0.014 A 
ATOM     39  C   UNL     1      -5.954  -2.145  -5.747  1.00  0.00     0.010 A 
ATOM     40  C   UNL     1      -6.310  -4.108  -4.361  1.00  0.00     0.010 A 
ATOM     41  C   UNL     1      -6.050  -2.737  -4.486  1.00  0.00    -0.014 A 
BRANCH  41  42
ATOM     42  C   UNL     1      -5.613  -2.044  -3.275  1.00  0.00     0.031 A 
ATOM     43  C   UNL     1      -6.555  -1.650  -2.215  1.00  0.00     0.074 A 
ATOM     44  C   UNL     1      -4.295  -1.790  -3.102  1.00  0.00     0.049 A 
ATOM     45  N   UNL     1      -6.313  -0.717  -1.354  1.00  0.00    -0.248 NA
ATOM     46  C   UNL     1      -7.895  -2.212  -2.095  1.00  0.00     0.031 C 
ATOM     47  C   UNL     1      -3.616  -1.386  -1.874  1.00  0.00     0.029 A 
ATOM     48  N   UNL     1      -3.336  -1.617  -4.100  1.00  0.00    -0.354 N 
ATOM     49  C   UNL     1      -7.290  -0.784  -0.394  1.00  0.00     0.074 A 
ATOM     50  C   UNL     1      -8.321  -1.607  -0.981  1.00  0.00     0.031 C 
ATOM     51  C   UNL     1      -2.464  -0.782  -2.198  1.00  0.00     0.029 A 
ATOM     52  C   UNL     1      -2.429  -0.644  -3.643  1.00  0.00     0.049 A 
ATOM     53  H   UNL     1      -3.300  -2.088  -4.964  1.00  0.00     0.167 HD
ATOM     54  C   UNL     1      -7.047  -0.262   0.842  1.00  0.00     0.031 A 
ATOM     55  C   UNL     1      -2.264   0.532  -4.317  1.00  0.00     0.031 A 
ATOM     56  C   UNL     1      -5.830   0.559   0.877  1.00  0.00     0.049 A 
ATOM     57  C   UNL     1      -2.623   1.776  -3.526  1.00  0.00     0.074 A 
ATOM     58  C   UNL     1      -4.591   0.453   1.488  1.00  0.00     0.029 A 
ATOM     59  N   UNL     1      -5.725   1.630  -0.001  1.00  0.00    -0.354 N 
ATOM     60  N   UNL     1      -3.075   1.779  -2.303  1.00  0.00    -0.248 NA
ATOM     61  C   UNL     1      -2.618   3.116  -4.120  1.00  0.00     0.031 C 
ATOM     62  C   UNL     1      -3.743   1.473   0.962  1.00  0.00     0.029 A 
ATOM     63  C   UNL     1      -4.472   2.208   0.046  1.00  0.00     0.049 A 
ATOM     64  H   UNL     1      -6.454   1.939  -0.585  1.00  0.00     0.167 HD
ATOM     65  C   UNL     1      -3.513   3.039  -1.990  1.00  0.00     0.074 A 
ATOM     66  C   UNL     1      -3.186   3.848  -3.149  1.00  0.00     0.031 C 
ATOM     67  C   UNL     1      -4.184   3.325  -0.838  1.00  0.00     0.031 A 
BRANCH  54  68
ATOM     68  C   UNL     1      -7.811  -0.654   2.093  1.00  0.00    -0.014 A 
ATOM     69  C   UNL     1      -7.344  -0.232   3.353  1.00  0.00     0.009 A 
ATOM     70  C   UNL     1      -8.929  -1.508   2.123  1.00  0.00     0.009 A 
ATOM     71  C   UNL     1      -7.926  -0.671   4.553  1.00  0.00     0.001 A 
ATOM     72  C   UNL     1      -9.527  -1.939   3.315  1.00  0.00     0.001 A 
ATOM     73  C   UNL     1      -9.016  -1.530   4.534  1.00  0.00     0.000 A 
ENDBRANCH  54  68
BRANCH  55  74
ATOM     74  C   UNL     1      -2.450   0.410  -5.790  1.00  0.00    -0.014 A 
ATOM     75  C   UNL     1      -1.535  -0.366  -6.528  1.00  0.00     0.009 A 
ATOM     76  C   UNL     1      -3.658   0.782  -6.397  1.00  0.00     0.009 A 
ATOM     77  C   UNL     1      -1.864  -0.836  -7.802  1.00  0.00     0.001 A 
ATOM     78  C   UNL     1      -3.976   0.322  -7.679  1.00  0.00     0.001 A 
ATOM     79  C   UNL     1      -3.094  -0.510  -8.367  1.00  0.00     0.000 A 
ENDBRANCH  55  74
BRANCH  67  80
ATOM     80  C   UNL     1      -4.678   4.702  -0.497  1.00  0.00    -0.014 A 
ATOM     81  C   UNL     1      -3.900   5.852  -0.699  1.00  0.00     0.009 A 
ATOM     82  C   UNL     1      -5.921   4.872   0.144  1.00  0.00     0.009 A 
ATOM     83  C   UNL     1      -4.370   7.120  -0.334  1.00  0.00     0.001 A 
ATOM     84  C   UNL     1      -6.383   6.132   0.531  1.00  0.00     0.001 A 
ATOM     85  C   UNL     1      -5.612   7.259   0.281  1.00  0.00     0.000 A 
ENDBRANCH  67  80
ENDBRANCH  41  42
ENDBRANCH  33  36
ENDBRANCH  31  32
ENDBRANCH   1  31
TORSDOF 13
