REMARK SMILES CCNC(=O)c1cccc(-c2ccc(Cl)c(C(=O)NCCCNC(=O)c3ccc(-c4c5nc(c(-c6ccccc6)c6ccc([nH]6)c(-c6ccccc6)c6nc(c(-c7ccccc7)c7ccc4[nH]7)C=C6)C=C5)cc3)c2)c1
REMARK SMILES IDX 20 1 19 2 17 3 18 4 16 6 11 7 12 8 74 9 13 10 14 11 15 12
REMARK SMILES IDX 10 13 6 14 7 15 75 16 8 17 9 18 4 19 3 20 5 22 2 23 1 24
REMARK SMILES IDX 21 25 22 26 23 27 24 28 25 30 26 31 27 32 73 33 28 34 72 35
REMARK SMILES IDX 29 36 30 37 31 38 66 39 32 40 71 41 65 42 67 43 33 44 70 45
REMARK SMILES IDX 64 46 63 47 34 49 56 50 41 51 55 52 42 53 45 54 54 55 68 56
REMARK SMILES IDX 43 57 44 58 53 60 69 61 46 62 35 63 36 64 40 65 37 66 39 67
REMARK SMILES IDX 38 68 57 69 58 70 62 71 59 72 61 73 60 74 47 75 48 76 52 77
REMARK SMILES IDX 49 78 51 79 50 80
REMARK H PARENT 19 5 3 21 23 29 67 48 45 59
REMARK Flexibility Score: inf
ROOT
ATOM      1  C   UNL     1      -2.213   6.243   2.907  1.00  0.00     0.118 C 
ENDROOT
BRANCH   1   2
ATOM      2  N   UNL     1      -2.875   5.922   4.173  1.00  0.00    -0.352 N 
ATOM      3  C   UNL     1      -3.623   4.879   4.687  1.00  0.00     0.252 C 
ATOM      4  O   UNL     1      -3.914   4.982   5.878  1.00  0.00    -0.269 OA
ATOM      5  H   UNL     1      -2.755   6.640   4.835  1.00  0.00     0.163 HD
BRANCH   3   6
ATOM      6  C   UNL     1      -4.099   3.702   3.892  1.00  0.00     0.059 A 
ATOM      7  C   UNL     1      -3.962   2.479   1.755  1.00  0.00    -0.017 A 
ATOM      8  C   UNL     1      -5.077   1.728   2.122  1.00  0.00     0.010 A 
ATOM      9  C   UNL     1      -3.428   3.343   2.725  1.00  0.00     0.024 A 
ATOM     10  C   UNL     1      -5.665   1.913   3.376  1.00  0.00     0.022 A 
ATOM     11  C   UNL     1      -5.213   2.925   4.242  1.00  0.00     0.053 A 
ATOM     12  Cl  UNL     1      -6.117   3.112   5.704  1.00  0.00    -0.083 Cl
BRANCH   7  13
ATOM     13  C   UNL     1      -3.391   2.478   0.392  1.00  0.00    -0.018 A 
ATOM     14  C   UNL     1      -1.460   2.715  -1.095  1.00  0.00     0.040 A 
ATOM     15  C   UNL     1      -2.300   2.741  -2.208  1.00  0.00     0.014 A 
ATOM     16  C   UNL     1      -2.011   2.631   0.186  1.00  0.00     0.022 A 
ATOM     17  C   UNL     1      -3.677   2.614  -2.034  1.00  0.00     0.001 A 
ATOM     18  C   UNL     1      -4.214   2.469  -0.748  1.00  0.00     0.009 A 
BRANCH  14  19
ATOM     19  C   UNL     1       0.000   2.878  -1.283  1.00  0.00     0.251 C 
ATOM     20  N   UNL     1       0.895   2.165  -0.524  1.00  0.00    -0.352 N 
ATOM     21  H   UNL     1       1.832   2.450  -0.619  1.00  0.00     0.163 HD
ATOM     22  O   UNL     1       0.412   3.670  -2.127  1.00  0.00    -0.269 OA
BRANCH  20  23
ATOM     23  C   UNL     1       0.687   1.058   0.397  1.00  0.00     0.112 C 
ATOM     24  C   UNL     1       1.365  -0.205  -0.092  1.00  0.00     0.027 C 
ENDBRANCH  20  23
ENDBRANCH  14  19
ENDBRANCH   7  13
ENDBRANCH   3   6
ENDBRANCH   1   2
BRANCH   1  25
ATOM     25  C   UNL     1      -2.730   7.499   2.227  1.00  0.00     0.042 C 
BRANCH  25  26
ATOM     26  C   UNL     1      -2.375   8.791   2.943  1.00  0.00     0.118 C 
BRANCH  26  27
ATOM     27  N   UNL     1      -0.935   9.013   3.031  1.00  0.00    -0.352 N 
ATOM     28  C   UNL     1      -0.098   9.847   2.327  1.00  0.00     0.251 C 
ATOM     29  H   UNL     1      -0.482   8.470   3.717  1.00  0.00     0.163 HD
ATOM     30  O   UNL     1       1.117   9.711   2.432  1.00  0.00    -0.269 OA
BRANCH  28  31
ATOM     31  C   UNL     1      -0.643  10.887   1.429  1.00  0.00     0.039 A 
ATOM     32  C   UNL     1      -0.015  11.125   0.202  1.00  0.00     0.014 A 
ATOM     33  C   UNL     1      -1.757  11.644   1.796  1.00  0.00     0.014 A 
ATOM     34  C   UNL     1      -0.567  12.043  -0.695  1.00  0.00     0.010 A 
ATOM     35  C   UNL     1      -2.361  12.482   0.867  1.00  0.00     0.010 A 
ATOM     36  C   UNL     1      -1.781  12.681  -0.394  1.00  0.00    -0.014 A 
BRANCH  36  37
ATOM     37  C   UNL     1      -2.490  13.520  -1.392  1.00  0.00     0.031 A 
ATOM     38  C   UNL     1      -2.768  14.969  -1.113  1.00  0.00     0.074 A 
ATOM     39  C   UNL     1      -2.981  12.941  -2.506  1.00  0.00     0.049 A 
ATOM     40  N   UNL     1      -3.471  15.824  -1.812  1.00  0.00    -0.248 NA
ATOM     41  C   UNL     1      -2.204  15.524   0.128  1.00  0.00     0.031 C 
ATOM     42  C   UNL     1      -2.822  11.530  -2.868  1.00  0.00     0.029 A 
ATOM     43  N   UNL     1      -3.732  13.463  -3.529  1.00  0.00    -0.354 N 
ATOM     44  C   UNL     1      -3.445  17.011  -1.091  1.00  0.00     0.074 A 
ATOM     45  C   UNL     1      -2.706  16.750   0.125  1.00  0.00     0.031 C 
ATOM     46  C   UNL     1      -3.443  11.304  -4.035  1.00  0.00     0.029 A 
ATOM     47  C   UNL     1      -4.087  12.536  -4.477  1.00  0.00     0.049 A 
ATOM     48  H   UNL     1      -3.992  14.412  -3.577  1.00  0.00     0.167 HD
ATOM     49  C   UNL     1      -3.974  18.215  -1.419  1.00  0.00     0.031 A 
ATOM     50  C   UNL     1      -4.865  12.652  -5.570  1.00  0.00     0.031 A 
ATOM     51  C   UNL     1      -4.721  18.466  -2.623  1.00  0.00     0.049 A 
ATOM     52  C   UNL     1      -5.478  13.984  -5.894  1.00  0.00     0.074 A 
ATOM     53  C   UNL     1      -5.253  19.661  -3.075  1.00  0.00     0.029 A 
ATOM     54  N   UNL     1      -5.055  17.500  -3.561  1.00  0.00    -0.354 N 
ATOM     55  N   UNL     1      -5.379  15.117  -5.242  1.00  0.00    -0.248 NA
ATOM     56  C   UNL     1      -6.304  14.055  -7.107  1.00  0.00     0.031 C 
ATOM     57  C   UNL     1      -5.965  19.405  -4.252  1.00  0.00     0.029 A 
ATOM     58  C   UNL     1      -5.821  18.064  -4.569  1.00  0.00     0.049 A 
ATOM     59  H   UNL     1      -4.787  16.554  -3.517  1.00  0.00     0.167 HD
ATOM     60  C   UNL     1      -6.120  16.039  -5.970  1.00  0.00     0.074 A 
ATOM     61  C   UNL     1      -6.641  15.337  -7.126  1.00  0.00     0.031 C 
ATOM     62  C   UNL     1      -6.349  17.348  -5.702  1.00  0.00     0.031 A 
BRANCH  49  63
ATOM     63  C   UNL     1      -3.772  19.343  -0.444  1.00  0.00    -0.014 A 
ATOM     64  C   UNL     1      -2.496  19.885  -0.209  1.00  0.00     0.009 A 
ATOM     65  C   UNL     1      -4.871  19.883   0.241  1.00  0.00     0.009 A 
ATOM     66  C   UNL     1      -2.320  20.905   0.728  1.00  0.00     0.001 A 
ATOM     67  C   UNL     1      -4.697  20.926   1.153  1.00  0.00     0.001 A 
ATOM     68  C   UNL     1      -3.421  21.427   1.406  1.00  0.00     0.000 A 
ENDBRANCH  49  63
BRANCH  50  69
ATOM     69  C   UNL     1      -5.116  11.461  -6.423  1.00  0.00    -0.014 A 
ATOM     70  C   UNL     1      -4.546  11.364  -7.701  1.00  0.00     0.009 A 
ATOM     71  C   UNL     1      -5.903  10.399  -5.949  1.00  0.00     0.009 A 
ATOM     72  C   UNL     1      -4.773  10.235  -8.493  1.00  0.00     0.001 A 
ATOM     73  C   UNL     1      -6.103   9.259  -6.730  1.00  0.00     0.001 A 
ATOM     74  C   UNL     1      -5.544   9.181  -8.004  1.00  0.00     0.000 A 
ENDBRANCH  50  69
BRANCH  62  75
ATOM     75  C   UNL     1      -7.200  18.109  -6.680  1.00  0.00    -0.014 A 
ATOM     76  C   UNL     1      -8.584  17.889  -6.764  1.00  0.00     0.009 A 
ATOM     77  C   UNL     1      -6.618  19.094  -7.493  1.00  0.00     0.009 A 
ATOM     78  C   UNL     1      -9.363  18.622  -7.661  1.00  0.00     0.001 A 
ATOM     79  C   UNL     1      -7.404  19.847  -8.367  1.00  0.00     0.001 A 
ATOM     80  C   UNL     1      -8.774  19.605  -8.456  1.00  0.00     0.000 A 
ENDBRANCH  62  75
ENDBRANCH  36  37
ENDBRANCH  28  31
ENDBRANCH  26  27
ENDBRANCH  25  26
ENDBRANCH   1  25
TORSDOF 13
