REMARK SMILES COc1cc(OC)cc(-c2cc3nc(C)c(CCC(=O)NCCCNC(=O)c4ccc(-c5c6nc(c(-c7ccccc7)c7ccc([nH]7)c(-c7ccccc7)c7nc(c(-c8ccccc8)c8ccc5[nH]8)C=C7)C=C6)cc4)c(C)n3n2)c1
REMARK SMILES IDX 22 1 21 2 19 3 20 4 18 6 17 7 16 8 10 9 11 10 79 11 12 12
REMARK SMILES IDX 78 13 13 14 76 15 14 16 77 17 15 18 9 19 3 20 4 21 80 22
REMARK SMILES IDX 5 23 8 24 2 25 1 26 6 27 7 28 23 29 24 30 25 31 26 32 27 34
REMARK SMILES IDX 28 35 29 36 75 37 30 38 74 39 31 40 32 41 33 42 68 43 34 44
REMARK SMILES IDX 73 45 67 46 69 47 35 48 72 49 66 50 65 51 36 53 58 54 43 55
REMARK SMILES IDX 57 56 44 57 47 58 56 59 70 60 45 61 46 62 55 64 71 65 48 66
REMARK SMILES IDX 37 67 38 68 42 69 39 70 41 71 40 72 59 73 60 74 64 75 61 76
REMARK SMILES IDX 63 77 62 78 49 79 50 80 54 81 51 82 53 83 52 84
REMARK H PARENT 21 5 25 33 69 52 47 63
REMARK Flexibility Score: inf
ROOT
ATOM      1  C   UNL     1       8.222   0.625  -1.200  1.00  0.00     0.117 C 
ENDROOT
BRANCH   1   2
ATOM      2  N   UNL     1       9.060  -0.322  -1.923  1.00  0.00    -0.356 N 
ATOM      3  C   UNL     1       9.812  -0.178  -3.048  1.00  0.00     0.220 C 
ATOM      4  O   UNL     1      10.249  -1.198  -3.585  1.00  0.00    -0.275 OA
ATOM      5  H   UNL     1       9.089  -1.223  -1.527  1.00  0.00     0.163 HD
BRANCH   3   6
ATOM      6  C   UNL     1      10.134   1.195  -3.602  1.00  0.00     0.105 C 
BRANCH   6   7
ATOM      7  C   UNL     1       9.723   1.344  -5.080  1.00  0.00     0.049 C 
BRANCH   7   8
ATOM      8  C   UNL     1       8.349   1.958  -5.210  1.00  0.00    -0.005 A 
ATOM      9  C   UNL     1       3.934   2.123  -4.585  1.00  0.00     0.095 A 
ATOM     10  C   UNL     1       4.609   3.308  -4.228  1.00  0.00     0.080 A 
ATOM     11  N   UNL     1       4.732   1.299  -5.281  1.00  0.00    -0.166 NA
ATOM     12  C   UNL     1       5.899   3.150  -4.674  1.00  0.00     0.156 A 
ATOM     13  N   UNL     1       5.965   1.877  -5.244  1.00  0.00    -0.219 N 
ATOM     14  N   UNL     1       6.989   3.957  -4.572  1.00  0.00    -0.234 NA
ATOM     15  C   UNL     1       7.216   1.283  -5.530  1.00  0.00     0.046 A 
ATOM     16  C   UNL     1       8.143   3.416  -4.833  1.00  0.00     0.045 A 
ATOM     17  C   UNL     1       7.206  -0.141  -6.013  1.00  0.00     0.067 C 
ATOM     18  C   UNL     1       9.329   4.362  -4.821  1.00  0.00     0.067 C 
BRANCH   9  19
ATOM     19  C   UNL     1       2.536   1.800  -4.315  1.00  0.00     0.009 A 
ATOM     20  C   UNL     1       0.715   1.339  -2.777  1.00  0.00     0.123 A 
ATOM     21  C   UNL     1      -0.152   1.259  -3.871  1.00  0.00     0.092 A 
ATOM     22  C   UNL     1       2.063   1.628  -2.998  1.00  0.00     0.057 A 
ATOM     23  C   UNL     1       0.303   1.436  -5.177  1.00  0.00     0.123 A 
ATOM     24  C   UNL     1       1.652   1.694  -5.398  1.00  0.00     0.057 A 
BRANCH  20  25
ATOM     25  O   UNL     1       0.092   1.121  -1.583  1.00  0.00    -0.497 OA
ATOM     26  C   UNL     1       0.858   0.978  -0.398  1.00  0.00     0.278 C 
ENDBRANCH  20  25
BRANCH  23  27
ATOM     27  O   UNL     1      -0.667   1.337  -6.136  1.00  0.00    -0.497 OA
ATOM     28  C   UNL     1      -0.254   1.509  -7.484  1.00  0.00     0.278 C 
ENDBRANCH  23  27
ENDBRANCH   9  19
ENDBRANCH   7   8
ENDBRANCH   6   7
ENDBRANCH   3   6
ENDBRANCH   1   2
BRANCH   1  29
ATOM     29  C   UNL     1       6.907   0.908  -1.920  1.00  0.00     0.042 C 
BRANCH  29  30
ATOM     30  C   UNL     1       6.149  -0.344  -2.335  1.00  0.00     0.118 C 
BRANCH  30  31
ATOM     31  N   UNL     1       5.080  -0.695  -1.431  1.00  0.00    -0.352 N 
ATOM     32  C   UNL     1       3.915  -1.363  -1.703  1.00  0.00     0.251 C 
ATOM     33  H   UNL     1       5.204  -0.418  -0.495  1.00  0.00     0.163 HD
ATOM     34  O   UNL     1       3.075  -1.455  -0.800  1.00  0.00    -0.269 OA
BRANCH  32  35
ATOM     35  C   UNL     1       3.650  -2.023  -3.006  1.00  0.00     0.039 A 
ATOM     36  C   UNL     1       2.314  -2.270  -3.355  1.00  0.00     0.014 A 
ATOM     37  C   UNL     1       4.677  -2.564  -3.788  1.00  0.00     0.014 A 
ATOM     38  C   UNL     1       2.021  -3.138  -4.400  1.00  0.00     0.010 A 
ATOM     39  C   UNL     1       4.390  -3.372  -4.871  1.00  0.00     0.010 A 
ATOM     40  C   UNL     1       3.069  -3.734  -5.106  1.00  0.00    -0.014 A 
BRANCH  40  41
ATOM     41  C   UNL     1       2.788  -4.831  -6.018  1.00  0.00     0.031 A 
ATOM     42  C   UNL     1       2.126  -4.493  -7.295  1.00  0.00     0.074 A 
ATOM     43  C   UNL     1       3.234  -6.083  -5.785  1.00  0.00     0.049 A 
ATOM     44  N   UNL     1       0.960  -4.870  -7.701  1.00  0.00    -0.248 NA
ATOM     45  C   UNL     1       2.831  -3.594  -8.218  1.00  0.00     0.031 C 
ATOM     46  C   UNL     1       4.174  -6.524  -4.748  1.00  0.00     0.029 A 
ATOM     47  N   UNL     1       3.024  -7.215  -6.514  1.00  0.00    -0.354 N 
ATOM     48  C   UNL     1       0.838  -4.399  -9.003  1.00  0.00     0.074 A 
ATOM     49  C   UNL     1       1.958  -3.516  -9.223  1.00  0.00     0.031 C 
ATOM     50  C   UNL     1       4.622  -7.762  -5.052  1.00  0.00     0.029 A 
ATOM     51  C   UNL     1       3.893  -8.251  -6.210  1.00  0.00     0.049 A 
ATOM     52  H   UNL     1       2.319  -7.290  -7.197  1.00  0.00     0.167 HD
ATOM     53  C   UNL     1      -0.053  -4.944  -9.877  1.00  0.00     0.031 A 
ATOM     54  C   UNL     1       4.040  -9.415  -6.886  1.00  0.00     0.031 A 
ATOM     55  C   UNL     1      -1.048  -5.745  -9.211  1.00  0.00     0.049 A 
ATOM     56  C   UNL     1       2.828  -9.619  -7.709  1.00  0.00     0.074 A 
ATOM     57  C   UNL     1      -1.983  -5.517  -8.220  1.00  0.00     0.029 A 
ATOM     58  N   UNL     1      -0.930  -7.111  -9.307  1.00  0.00    -0.354 N 
ATOM     59  N   UNL     1       1.659  -9.912  -7.217  1.00  0.00    -0.248 NA
ATOM     60  C   UNL     1       2.821  -9.123  -9.076  1.00  0.00     0.031 C 
ATOM     61  C   UNL     1      -2.018  -6.722  -7.459  1.00  0.00     0.029 A 
ATOM     62  C   UNL     1      -1.138  -7.628  -8.055  1.00  0.00     0.049 A 
ATOM     63  H   UNL     1      -0.732  -7.623 -10.124  1.00  0.00     0.167 HD
ATOM     64  C   UNL     1       0.758  -9.232  -8.023  1.00  0.00     0.074 A 
ATOM     65  C   UNL     1       1.515  -8.883  -9.221  1.00  0.00     0.031 C 
ATOM     66  C   UNL     1      -0.426  -8.769  -7.522  1.00  0.00     0.031 A 
BRANCH  53  67
ATOM     67  C   UNL     1       0.204  -5.071 -11.358  1.00  0.00    -0.014 A 
ATOM     68  C   UNL     1      -0.814  -5.587 -12.181  1.00  0.00     0.009 A 
ATOM     69  C   UNL     1       1.488  -4.975 -11.926  1.00  0.00     0.009 A 
ATOM     70  C   UNL     1      -0.542  -6.051 -13.473  1.00  0.00     0.001 A 
ATOM     71  C   UNL     1       1.754  -5.394 -13.232  1.00  0.00     0.001 A 
ATOM     72  C   UNL     1       0.744  -5.961 -13.995  1.00  0.00     0.000 A 
ENDBRANCH  53  67
BRANCH  54  73
ATOM     73  C   UNL     1       5.240 -10.265  -7.014  1.00  0.00    -0.014 A 
ATOM     74  C   UNL     1       5.134 -11.593  -7.455  1.00  0.00     0.009 A 
ATOM     75  C   UNL     1       6.527  -9.700  -6.941  1.00  0.00     0.009 A 
ATOM     76  C   UNL     1       6.271 -12.313  -7.845  1.00  0.00     0.001 A 
ATOM     77  C   UNL     1       7.662 -10.421  -7.321  1.00  0.00     0.001 A 
ATOM     78  C   UNL     1       7.531 -11.724  -7.789  1.00  0.00     0.000 A 
ENDBRANCH  54  73
BRANCH  66  79
ATOM     79  C   UNL     1      -0.871  -9.268  -6.169  1.00  0.00    -0.014 A 
ATOM     80  C   UNL     1      -0.101  -9.111  -5.003  1.00  0.00     0.009 A 
ATOM     81  C   UNL     1      -2.169  -9.787  -6.041  1.00  0.00     0.009 A 
ATOM     82  C   UNL     1      -0.599  -9.502  -3.756  1.00  0.00     0.001 A 
ATOM     83  C   UNL     1      -2.676 -10.154  -4.792  1.00  0.00     0.001 A 
ATOM     84  C   UNL     1      -1.888 -10.020  -3.651  1.00  0.00     0.000 A 
ENDBRANCH  66  79
ENDBRANCH  40  41
ENDBRANCH  32  35
ENDBRANCH  30  31
ENDBRANCH  29  30
ENDBRANCH   1  29
TORSDOF 15
