REMARK SMILES O=C(CC[NH+]1CCN(C(=O)c2n[nH]c3ccccc23)CC1)NCCCNC(=O)c1ccc(-c2c3nc(c(-c4ccccc4)c4ccc([nH]4)c(-c4ccccc4)c4nc(c(-c5ccccc5)c5ccc2[nH]5)C=C4)C=C3)cc1
REMARK SMILES IDX 23 1 22 2 1 3 2 4 3 6 4 7 5 8 6 9 21 10 7 12 20 13 8 14 9 15
REMARK SMILES IDX 10 16 11 17 12 18 19 19 13 20 14 21 18 22 15 24 17 25 16 26
REMARK SMILES IDX 24 27 25 28 26 29 27 30 28 32 29 33 30 34 76 35 31 36 75 37
REMARK SMILES IDX 32 38 33 39 34 40 69 41 35 42 74 43 68 44 70 45 36 46 73 47
REMARK SMILES IDX 67 48 66 49 37 51 59 52 44 53 58 54 45 55 48 56 57 57 71 58
REMARK SMILES IDX 46 59 47 60 56 62 72 63 49 64 38 65 39 66 43 67 40 68 42 69
REMARK SMILES IDX 41 70 60 71 61 72 65 73 62 74 64 75 63 76 50 77 51 78 55 79
REMARK SMILES IDX 52 80 54 81 53 82
REMARK H PARENT 22 5 5 11 13 23 26 31 70 50 48 61
REMARK Flexibility Score: inf
ROOT
ATOM      1  C   UNL     1       2.001   0.473   2.541  1.00  0.00     0.117 C 
ENDROOT
BRANCH   1   2
ATOM      2  N   UNL     1       2.494  -0.319   1.430  1.00  0.00    -0.356 N 
ATOM      3  O   UNL     1       0.997   0.516  -0.091  1.00  0.00    -0.275 OA
ATOM      4  C   UNL     1       2.030  -0.101   0.147  1.00  0.00     0.225 C 
ATOM      5  H   UNL     1       3.167  -1.019   1.592  1.00  0.00     0.163 HD
BRANCH   4   6
ATOM      6  C   UNL     1       2.972  -0.565  -0.952  1.00  0.00     0.161 C 
BRANCH   6   7
ATOM      7  C   UNL     1       3.481   0.637  -1.786  1.00  0.00     0.272 C 
BRANCH   7   8
ATOM      8  N   UNL     1       4.713   1.301  -1.298  1.00  0.00    -0.332 N 
ATOM      9  C   UNL     1       5.034   2.533  -2.064  1.00  0.00     0.284 C 
ATOM     10  C   UNL     1       4.664   1.696   0.112  1.00  0.00     0.284 C 
ATOM     11  H   UNL     1       5.427   0.584  -1.427  1.00  0.00     0.348 HD
ATOM     12  C   UNL     1       4.192   3.799  -1.734  1.00  0.00     0.181 C 
ATOM     13  C   UNL     1       3.613   2.776   0.423  1.00  0.00     0.181 C 
ATOM     14  N   UNL     1       3.877   3.997  -0.310  1.00  0.00    -0.326 N 
ATOM     15  C   UNL     1       3.458   5.281   0.093  1.00  0.00     0.275 C 
ATOM     16  O   UNL     1       3.735   6.260  -0.605  1.00  0.00    -0.267 OA
BRANCH  15  17
ATOM     17  C   UNL     1       2.572   5.441   1.278  1.00  0.00     0.157 A 
ATOM     18  N   UNL     1       1.376   6.047   1.108  1.00  0.00    -0.169 NA
ATOM     19  C   UNL     1       2.749   5.089   2.660  1.00  0.00     0.033 A 
ATOM     20  N   UNL     1       0.824   6.070   2.325  1.00  0.00    -0.277 N 
ATOM     21  C   UNL     1       1.562   5.456   3.292  1.00  0.00     0.066 A 
ATOM     22  C   UNL     1       3.752   4.509   3.457  1.00  0.00     0.013 A 
ATOM     23  H   UNL     1      -0.044   6.496   2.508  1.00  0.00     0.190 HD
ATOM     24  C   UNL     1       1.288   5.222   4.646  1.00  0.00     0.028 A 
ATOM     25  C   UNL     1       3.479   4.227   4.803  1.00  0.00     0.001 A 
ATOM     26  C   UNL     1       2.266   4.568   5.389  1.00  0.00     0.002 A 
ENDBRANCH  15  17
ENDBRANCH   7   8
ENDBRANCH   6   7
ENDBRANCH   4   6
ENDBRANCH   1   2
BRANCH   1  27
ATOM     27  C   UNL     1       2.793   0.360   3.844  1.00  0.00     0.042 C 
BRANCH  27  28
ATOM     28  C   UNL     1       4.300   0.115   3.776  1.00  0.00     0.118 C 
BRANCH  28  29
ATOM     29  N   UNL     1       5.138   1.266   3.478  1.00  0.00    -0.352 N 
ATOM     30  C   UNL     1       6.098   1.922   4.215  1.00  0.00     0.251 C 
ATOM     31  H   UNL     1       4.993   1.646   2.582  1.00  0.00     0.163 HD
ATOM     32  O   UNL     1       6.727   2.843   3.719  1.00  0.00    -0.269 OA
BRANCH  30  33
ATOM     33  C   UNL     1       6.309   1.575   5.630  1.00  0.00     0.039 A 
ATOM     34  C   UNL     1       6.325   2.605   6.581  1.00  0.00     0.014 A 
ATOM     35  C   UNL     1       6.488   0.250   6.017  1.00  0.00     0.014 A 
ATOM     36  C   UNL     1       6.410   2.297   7.935  1.00  0.00     0.010 A 
ATOM     37  C   UNL     1       6.519  -0.066   7.364  1.00  0.00     0.010 A 
ATOM     38  C   UNL     1       6.499   0.958   8.325  1.00  0.00    -0.014 A 
BRANCH  38  39
ATOM     39  C   UNL     1       6.801   0.584   9.716  1.00  0.00     0.031 A 
ATOM     40  C   UNL     1       8.201   0.135  10.012  1.00  0.00     0.074 A 
ATOM     41  C   UNL     1       5.834   0.549  10.646  1.00  0.00     0.049 A 
ATOM     42  N   UNL     1       8.680  -0.432  11.085  1.00  0.00    -0.248 NA
ATOM     43  C   UNL     1       9.182   0.308   8.925  1.00  0.00     0.031 C 
ATOM     44  C   UNL     1       4.445   0.964  10.451  1.00  0.00     0.029 A 
ATOM     45  N   UNL     1       5.878   0.112  11.943  1.00  0.00    -0.354 N 
ATOM     46  C   UNL     1      10.007  -0.714  10.788  1.00  0.00     0.074 A 
ATOM     47  C   UNL     1      10.243  -0.303   9.424  1.00  0.00     0.031 C 
ATOM     48  C   UNL     1       3.764   0.753  11.592  1.00  0.00     0.029 A 
ATOM     49  C   UNL     1       4.662   0.159  12.578  1.00  0.00     0.049 A 
ATOM     50  H   UNL     1       6.702  -0.205  12.378  1.00  0.00     0.167 HD
ATOM     51  C   UNL     1      10.949  -1.257  11.591  1.00  0.00     0.031 A 
ATOM     52  C   UNL     1       4.325  -0.251  13.814  1.00  0.00     0.031 A 
ATOM     53  C   UNL     1      10.697  -1.651  12.948  1.00  0.00     0.049 A 
ATOM     54  C   UNL     1       5.391  -0.854  14.690  1.00  0.00     0.074 A 
ATOM     55  C   UNL     1      11.577  -2.179  13.874  1.00  0.00     0.029 A 
ATOM     56  N   UNL     1       9.463  -1.548  13.574  1.00  0.00    -0.354 N 
ATOM     57  N   UNL     1       6.653  -1.088  14.417  1.00  0.00    -0.248 NA
ATOM     58  C   UNL     1       4.987  -1.232  16.050  1.00  0.00     0.031 C 
ATOM     59  C   UNL     1      10.864  -2.430  15.051  1.00  0.00     0.029 A 
ATOM     60  C   UNL     1       9.555  -2.009  14.874  1.00  0.00     0.049 A 
ATOM     61  H   UNL     1       8.644  -1.198  13.155  1.00  0.00     0.167 HD
ATOM     62  C   UNL     1       7.203  -1.609  15.581  1.00  0.00     0.074 A 
ATOM     63  C   UNL     1       6.138  -1.641  16.565  1.00  0.00     0.031 C 
ATOM     64  C   UNL     1       8.472  -2.023  15.823  1.00  0.00     0.031 A 
BRANCH  51  65
ATOM     65  C   UNL     1      12.314  -1.464  10.999  1.00  0.00    -0.014 A 
ATOM     66  C   UNL     1      13.136  -0.374  10.666  1.00  0.00     0.009 A 
ATOM     67  C   UNL     1      12.778  -2.764  10.752  1.00  0.00     0.009 A 
ATOM     68  C   UNL     1      14.374  -0.582  10.055  1.00  0.00     0.001 A 
ATOM     69  C   UNL     1      14.030  -2.970  10.171  1.00  0.00     0.001 A 
ATOM     70  C   UNL     1      14.822  -1.880   9.812  1.00  0.00     0.000 A 
ENDBRANCH  51  65
BRANCH  52  71
ATOM     71  C   UNL     1       2.933  -0.087  14.306  1.00  0.00    -0.014 A 
ATOM     72  C   UNL     1       2.640   0.862  15.298  1.00  0.00     0.009 A 
ATOM     73  C   UNL     1       1.892  -0.882  13.802  1.00  0.00     0.009 A 
ATOM     74  C   UNL     1       1.342   0.991  15.797  1.00  0.00     0.001 A 
ATOM     75  C   UNL     1       0.588  -0.732  14.283  1.00  0.00     0.001 A 
ATOM     76  C   UNL     1       0.316   0.196  15.287  1.00  0.00     0.000 A 
ENDBRANCH  52  71
BRANCH  64  77
ATOM     77  C   UNL     1       8.778  -2.495  17.216  1.00  0.00    -0.014 A 
ATOM     78  C   UNL     1       8.296  -3.724  17.693  1.00  0.00     0.009 A 
ATOM     79  C   UNL     1       9.588  -1.708  18.049  1.00  0.00     0.009 A 
ATOM     80  C   UNL     1       8.585  -4.133  18.996  1.00  0.00     0.001 A 
ATOM     81  C   UNL     1       9.901  -2.135  19.339  1.00  0.00     0.001 A 
ATOM     82  C   UNL     1       9.390  -3.341  19.815  1.00  0.00     0.000 A 
ENDBRANCH  64  77
ENDBRANCH  38  39
ENDBRANCH  30  33
ENDBRANCH  28  29
ENDBRANCH  27  28
ENDBRANCH   1  27
TORSDOF 13
