REMARK SMILES O=C(NCCCNC(=O)c1oc2cccc3c2c1CCC3)c1ccc(-c2c3nc(c(-c4ccccc4)c4ccc([nH]4)c(-c4ccccc4)c4nc(c(-c5ccccc5)c5ccc2[nH]5)C=C4)C=C3)cc1
REMARK SMILES IDX 4 1 3 2 1 3 2 4 22 6 23 7 69 8 24 9 68 10 25 11 26 12 27 13
REMARK SMILES IDX 62 14 28 15 67 16 61 17 63 18 29 19 66 20 60 21 59 22 30 24
REMARK SMILES IDX 52 25 37 26 51 27 38 28 41 29 50 30 64 31 39 32 40 33 49 35
REMARK SMILES IDX 65 36 42 37 31 38 32 39 36 40 33 41 35 42 34 43 53 44 54 45
REMARK SMILES IDX 58 46 55 47 57 48 56 49 43 50 44 51 48 52 45 53 47 54 46 55
REMARK SMILES IDX 5 56 6 57 7 58 8 59 9 61 10 62 11 63 18 64 12 65 17 66 19 67
REMARK SMILES IDX 13 68 16 69 20 70 14 71 15 72 21 73
REMARK H PARENT 3 5 63 23 41 34 7 60
REMARK Flexibility Score: inf
ROOT
ATOM      1  C   UNL     1       4.606  -0.701  -1.027  1.00  0.00     0.118 C 
ENDROOT
BRANCH   1   2
ATOM      2  N   UNL     1       3.181  -0.428  -1.061  1.00  0.00    -0.352 N 
ATOM      3  O   UNL     1       1.151   0.298  -0.517  1.00  0.00    -0.269 OA
ATOM      4  C   UNL     1       2.271  -0.026  -0.120  1.00  0.00     0.251 C 
ATOM      5  H   UNL     1       2.784  -0.560  -1.952  1.00  0.00     0.163 HD
BRANCH   4   6
ATOM      6  C   UNL     1       2.522  -0.070   1.341  1.00  0.00     0.039 A 
ATOM      7  C   UNL     1       3.776   0.037   1.943  1.00  0.00     0.014 A 
ATOM      8  C   UNL     1       1.390  -0.262   2.154  1.00  0.00     0.014 A 
ATOM      9  C   UNL     1       3.914  -0.185   3.308  1.00  0.00     0.010 A 
ATOM     10  C   UNL     1       1.518  -0.455   3.523  1.00  0.00     0.010 A 
ATOM     11  C   UNL     1       2.788  -0.460   4.090  1.00  0.00    -0.014 A 
BRANCH  11  12
ATOM     12  C   UNL     1       2.975  -0.573   5.532  1.00  0.00     0.031 A 
ATOM     13  C   UNL     1       3.400   0.692   6.199  1.00  0.00     0.074 A 
ATOM     14  C   UNL     1       2.680  -1.673   6.251  1.00  0.00     0.049 A 
ATOM     15  N   UNL     1       4.481   0.916   6.873  1.00  0.00    -0.248 NA
ATOM     16  C   UNL     1       2.548   1.878   6.012  1.00  0.00     0.031 C 
ATOM     17  C   UNL     1       1.989  -2.889   5.819  1.00  0.00     0.029 A 
ATOM     18  N   UNL     1       2.864  -1.881   7.584  1.00  0.00    -0.354 N 
ATOM     19  C   UNL     1       4.392   2.234   7.312  1.00  0.00     0.074 A 
ATOM     20  C   UNL     1       3.236   2.809   6.671  1.00  0.00     0.031 C 
ATOM     21  C   UNL     1       1.616  -3.600   6.909  1.00  0.00     0.029 A 
ATOM     22  C   UNL     1       2.163  -2.965   8.097  1.00  0.00     0.049 A 
ATOM     23  H   UNL     1       3.445  -1.312   8.138  1.00  0.00     0.167 HD
ATOM     24  C   UNL     1       5.170   2.736   8.309  1.00  0.00     0.031 A 
ATOM     25  C   UNL     1       2.002  -3.264   9.411  1.00  0.00     0.031 A 
ATOM     26  C   UNL     1       6.319   1.925   8.580  1.00  0.00     0.049 A 
ATOM     27  C   UNL     1       3.074  -2.566  10.155  1.00  0.00     0.074 A 
ATOM     28  C   UNL     1       7.444   1.565   7.866  1.00  0.00     0.029 A 
ATOM     29  N   UNL     1       6.239   1.041   9.627  1.00  0.00    -0.354 N 
ATOM     30  N   UNL     1       4.337  -2.862  10.055  1.00  0.00    -0.248 NA
ATOM     31  C   UNL     1       2.777  -1.262  10.726  1.00  0.00     0.031 C 
ATOM     32  C   UNL     1       7.690   0.210   8.230  1.00  0.00     0.029 A 
ATOM     33  C   UNL     1       6.734  -0.156   9.178  1.00  0.00     0.049 A 
ATOM     34  H   UNL     1       5.891   1.231  10.529  1.00  0.00     0.167 HD
ATOM     35  C   UNL     1       4.992  -1.645  10.150  1.00  0.00     0.074 A 
ATOM     36  C   UNL     1       3.992  -0.712  10.662  1.00  0.00     0.031 C 
ATOM     37  C   UNL     1       6.200  -1.447   9.548  1.00  0.00     0.031 A 
BRANCH  24  38
ATOM     38  C   UNL     1       4.691   3.803   9.251  1.00  0.00    -0.014 A 
ATOM     39  C   UNL     1       5.605   4.482  10.071  1.00  0.00     0.009 A 
ATOM     40  C   UNL     1       3.321   3.981   9.530  1.00  0.00     0.009 A 
ATOM     41  C   UNL     1       5.164   5.293  11.125  1.00  0.00     0.001 A 
ATOM     42  C   UNL     1       2.878   4.817  10.556  1.00  0.00     0.001 A 
ATOM     43  C   UNL     1       3.802   5.462  11.365  1.00  0.00     0.000 A 
ENDBRANCH  24  38
BRANCH  25  44
ATOM     44  C   UNL     1       0.818  -3.816  10.110  1.00  0.00    -0.014 A 
ATOM     45  C   UNL     1       0.914  -4.209  11.458  1.00  0.00     0.009 A 
ATOM     46  C   UNL     1      -0.470  -3.661   9.568  1.00  0.00     0.009 A 
ATOM     47  C   UNL     1      -0.231  -4.368  12.249  1.00  0.00     0.001 A 
ATOM     48  C   UNL     1      -1.614  -3.829  10.357  1.00  0.00     0.001 A 
ATOM     49  C   UNL     1      -1.494  -4.160  11.703  1.00  0.00     0.000 A 
ENDBRANCH  25  44
BRANCH  37  50
ATOM     50  C   UNL     1       6.905  -2.648   8.969  1.00  0.00    -0.014 A 
ATOM     51  C   UNL     1       6.405  -3.364   7.866  1.00  0.00     0.009 A 
ATOM     52  C   UNL     1       8.194  -2.946   9.430  1.00  0.00     0.009 A 
ATOM     53  C   UNL     1       7.178  -4.352   7.245  1.00  0.00     0.001 A 
ATOM     54  C   UNL     1       8.971  -3.921   8.800  1.00  0.00     0.001 A 
ATOM     55  C   UNL     1       8.465  -4.621   7.707  1.00  0.00     0.000 A 
ENDBRANCH  37  50
ENDBRANCH  11  12
ENDBRANCH   4   6
ENDBRANCH   1   2
BRANCH   1  56
ATOM     56  C   UNL     1       5.007  -2.043  -0.424  1.00  0.00     0.042 C 
BRANCH  56  57
ATOM     57  C   UNL     1       4.559  -3.265  -1.221  1.00  0.00     0.118 C 
BRANCH  57  58
ATOM     58  N   UNL     1       5.082  -3.290  -2.575  1.00  0.00    -0.349 N 
ATOM     59  C   UNL     1       5.810  -4.259  -3.217  1.00  0.00     0.287 C 
ATOM     60  H   UNL     1       4.885  -2.491  -3.115  1.00  0.00     0.163 HD
ATOM     61  O   UNL     1       6.299  -3.941  -4.316  1.00  0.00    -0.266 OA
BRANCH  59  62
ATOM     62  C   UNL     1       5.985  -5.560  -2.624  1.00  0.00     0.195 A 
ATOM     63  O   UNL     1       7.235  -6.150  -2.738  1.00  0.00    -0.451 OA
ATOM     64  C   UNL     1       5.135  -6.432  -1.956  1.00  0.00     0.012 A 
ATOM     65  C   UNL     1       7.187  -7.358  -2.106  1.00  0.00     0.135 A 
ATOM     66  C   UNL     1       5.921  -7.547  -1.614  1.00  0.00     0.028 A 
ATOM     67  C   UNL     1       3.693  -6.434  -1.574  1.00  0.00     0.041 C 
ATOM     68  C   UNL     1       8.198  -8.294  -1.943  1.00  0.00     0.048 A 
ATOM     69  C   UNL     1       5.543  -8.698  -0.924  1.00  0.00    -0.037 A 
ATOM     70  C   UNL     1       3.188  -7.888  -1.327  1.00  0.00     0.010 C 
ATOM     71  C   UNL     1       7.842  -9.452  -1.222  1.00  0.00     0.004 A 
ATOM     72  C   UNL     1       6.543  -9.652  -0.713  1.00  0.00     0.004 A 
ATOM     73  C   UNL     1       4.124  -8.758  -0.431  1.00  0.00     0.036 C 
ENDBRANCH  59  62
ENDBRANCH  57  58
ENDBRANCH  56  57
ENDBRANCH   1  56
TORSDOF 10
