REMARK SMILES Cc1nn(C)c2nc(C3CC3)c(Cl)c(C(=O)NCCCNC(=O)c3ccc(-c4c5nc(c(-c6ccccc6)c6ccc([nH]6)c(-c6ccccc6)c6nc(c(-c7ccccc7)c7ccc4[nH]7)C=C6)C=C5)cc3)c12
REMARK SMILES IDX 19 1 18 2 17 3 15 4 16 5 14 7 1 8 2 9 3 10 72 11 4 12 6 13
REMARK SMILES IDX 5 14 7 15 12 16 8 17 13 18 9 19 10 20 11 21 20 22 21 23
REMARK SMILES IDX 22 24 23 26 24 27 25 28 71 29 26 30 70 31 27 32 28 33 29 34
REMARK SMILES IDX 64 35 30 36 69 37 63 38 65 39 31 40 68 41 62 42 61 43 32 45
REMARK SMILES IDX 54 46 39 47 53 48 40 49 43 50 52 51 66 52 41 53 42 54 51 56
REMARK SMILES IDX 67 57 44 58 33 59 34 60 38 61 35 62 37 63 36 64 55 65 56 66
REMARK SMILES IDX 60 67 57 68 59 69 58 70 45 71 46 72 50 73 47 74 49 75 48 76
REMARK H PARENT 17 6 21 25 65 44 43 55
REMARK Flexibility Score: inf
ROOT
ATOM      1  C   UNL     1      -1.420   5.990   0.473  1.00  0.00     0.042 C 
ENDROOT
BRANCH   1   2
ATOM      2  C   UNL     1      -0.426   5.337  -0.494  1.00  0.00     0.118 C 
BRANCH   2   3
ATOM      3  N   UNL     1       0.433   4.299   0.066  1.00  0.00    -0.352 N 
ATOM      4  C   UNL     1       0.973   3.157  -0.501  1.00  0.00     0.253 C 
ATOM      5  O   UNL     1       1.808   2.532   0.157  1.00  0.00    -0.269 OA
ATOM      6  H   UNL     1       0.670   4.435   1.012  1.00  0.00     0.163 HD
BRANCH   4   7
ATOM      7  C   UNL     1       0.548   2.617  -1.817  1.00  0.00     0.073 A 
ATOM      8  C   UNL     1       0.875  -0.230   0.162  1.00  0.00     0.069 C 
ATOM      9  C   UNL     1       0.408   0.006  -1.229  1.00  0.00     0.070 A 
ATOM     10  N   UNL     1       0.062  -1.064  -1.964  1.00  0.00    -0.176 NA
ATOM     11  C   UNL     1       0.306   1.230  -1.968  1.00  0.00     0.056 A 
ATOM     12  N   UNL     1      -0.247  -0.547  -3.164  1.00  0.00    -0.250 N 
ATOM     13  C   UNL     1      -0.172   0.816  -3.203  1.00  0.00     0.158 A 
ATOM     14  C   UNL     1      -0.566  -1.414  -4.271  1.00  0.00     0.176 C 
ATOM     15  N   UNL     1      -0.510   1.586  -4.246  1.00  0.00    -0.231 NA
ATOM     16  C   UNL     1       0.442   3.405  -2.983  1.00  0.00     0.076 A 
ATOM     17  C   UNL     1      -0.227   2.907  -4.121  1.00  0.00     0.065 A 
ATOM     18  Cl  UNL     1       1.342   4.890  -3.077  1.00  0.00    -0.081 Cl
BRANCH  17  19
ATOM     19  C   UNL     1      -0.842   3.731  -5.255  1.00  0.00     0.040 C 
ATOM     20  C   UNL     1      -1.456   5.086  -4.975  1.00  0.00     0.011 C 
ATOM     21  C   UNL     1      -0.285   4.959  -5.912  1.00  0.00     0.011 C 
ENDBRANCH  17  19
ENDBRANCH   4   7
ENDBRANCH   2   3
ENDBRANCH   1   2
BRANCH   1  22
ATOM     22  C   UNL     1      -0.856   6.908   1.570  1.00  0.00     0.118 C 
BRANCH  22  23
ATOM     23  N   UNL     1      -0.080   8.027   1.057  1.00  0.00    -0.352 N 
ATOM     24  C   UNL     1      -0.078   9.375   1.319  1.00  0.00     0.251 C 
ATOM     25  H   UNL     1       0.584   7.762   0.380  1.00  0.00     0.163 HD
ATOM     26  O   UNL     1       0.654  10.082   0.621  1.00  0.00    -0.269 OA
BRANCH  24  27
ATOM     27  C   UNL     1      -0.903  10.038   2.366  1.00  0.00     0.039 A 
ATOM     28  C   UNL     1      -1.320  11.358   2.117  1.00  0.00     0.014 A 
ATOM     29  C   UNL     1      -1.185   9.475   3.611  1.00  0.00     0.014 A 
ATOM     30  C   UNL     1      -2.062  12.077   3.064  1.00  0.00     0.010 A 
ATOM     31  C   UNL     1      -1.940  10.191   4.556  1.00  0.00     0.010 A 
ATOM     32  C   UNL     1      -2.405  11.490   4.286  1.00  0.00    -0.014 A 
BRANCH  32  33
ATOM     33  C   UNL     1      -3.371  12.182   5.172  1.00  0.00     0.031 A 
ATOM     34  C   UNL     1      -4.484  11.344   5.702  1.00  0.00     0.074 A 
ATOM     35  C   UNL     1      -3.143  13.329   5.848  1.00  0.00     0.049 A 
ATOM     36  N   UNL     1      -4.351  10.600   6.761  1.00  0.00    -0.248 NA
ATOM     37  C   UNL     1      -5.739  11.143   4.981  1.00  0.00     0.031 C 
ATOM     38  C   UNL     1      -1.820  13.832   6.223  1.00  0.00     0.029 A 
ATOM     39  N   UNL     1      -4.020  14.146   6.528  1.00  0.00    -0.354 N 
ATOM     40  C   UNL     1      -5.457   9.780   6.818  1.00  0.00     0.074 A 
ATOM     41  C   UNL     1      -6.306  10.170   5.711  1.00  0.00     0.031 C 
ATOM     42  C   UNL     1      -1.972  14.746   7.207  1.00  0.00     0.029 A 
ATOM     43  C   UNL     1      -3.393  15.023   7.407  1.00  0.00     0.049 A 
ATOM     44  H   UNL     1      -4.996  14.113   6.403  1.00  0.00     0.167 HD
ATOM     45  C   UNL     1      -5.608   8.804   7.749  1.00  0.00     0.031 A 
ATOM     46  C   UNL     1      -3.917  15.508   8.566  1.00  0.00     0.031 A 
ATOM     47  C   UNL     1      -4.554   8.684   8.711  1.00  0.00     0.049 A 
ATOM     48  C   UNL     1      -4.171  14.264   9.372  1.00  0.00     0.074 A 
ATOM     49  C   UNL     1      -3.348   8.021   8.804  1.00  0.00     0.029 A 
ATOM     50  N   UNL     1      -4.604   9.468   9.839  1.00  0.00    -0.354 N 
ATOM     51  N   UNL     1      -3.303  13.617  10.098  1.00  0.00    -0.248 NA
ATOM     52  C   UNL     1      -5.429  13.551   9.140  1.00  0.00     0.031 C 
ATOM     53  C   UNL     1      -2.562   8.778   9.729  1.00  0.00     0.029 A 
ATOM     54  C   UNL     1      -3.320   9.892  10.081  1.00  0.00     0.049 A 
ATOM     55  H   UNL     1      -5.404   9.684  10.370  1.00  0.00     0.167 HD
ATOM     56  C   UNL     1      -3.781  12.309  10.166  1.00  0.00     0.074 A 
ATOM     57  C   UNL     1      -5.113  12.346   9.594  1.00  0.00     0.031 C 
ATOM     58  C   UNL     1      -3.002  11.239  10.499  1.00  0.00     0.031 A 
BRANCH  45  59
ATOM     59  C   UNL     1      -6.802   7.946   7.837  1.00  0.00    -0.014 A 
ATOM     60  C   UNL     1      -7.788   8.243   8.788  1.00  0.00     0.009 A 
ATOM     61  C   UNL     1      -6.892   6.763   7.097  1.00  0.00     0.009 A 
ATOM     62  C   UNL     1      -8.833   7.350   9.022  1.00  0.00     0.001 A 
ATOM     63  C   UNL     1      -7.944   5.873   7.328  1.00  0.00     0.001 A 
ATOM     64  C   UNL     1      -8.905   6.162   8.298  1.00  0.00     0.000 A 
ENDBRANCH  45  59
BRANCH  46  65
ATOM     65  C   UNL     1      -4.965  16.578   8.449  1.00  0.00    -0.014 A 
ATOM     66  C   UNL     1      -4.751  17.651   7.563  1.00  0.00     0.009 A 
ATOM     67  C   UNL     1      -6.142  16.612   9.218  1.00  0.00     0.009 A 
ATOM     68  C   UNL     1      -5.707  18.659   7.388  1.00  0.00     0.001 A 
ATOM     69  C   UNL     1      -7.114  17.602   9.023  1.00  0.00     0.001 A 
ATOM     70  C   UNL     1      -6.900  18.621   8.101  1.00  0.00     0.000 A 
ENDBRANCH  46  65
BRANCH  58  71
ATOM     71  C   UNL     1      -1.646  11.551  11.047  1.00  0.00    -0.014 A 
ATOM     72  C   UNL     1      -1.514  12.064  12.344  1.00  0.00     0.009 A 
ATOM     73  C   UNL     1      -0.486  11.299  10.298  1.00  0.00     0.009 A 
ATOM     74  C   UNL     1      -0.248  12.292  12.891  1.00  0.00     0.001 A 
ATOM     75  C   UNL     1       0.778  11.510  10.851  1.00  0.00     0.001 A 
ATOM     76  C   UNL     1       0.896  12.002  12.149  1.00  0.00     0.000 A 
ENDBRANCH  58  71
ENDBRANCH  32  33
ENDBRANCH  24  27
ENDBRANCH  22  23
ENDBRANCH   1  22
TORSDOF 11
