REMARK SMILES O=C(NCCCNC(=O)c1ccc(-c2c3nc(c(-c4ccccc4)c4ccc([nH]4)c(-c4ccccc4)c4nc(c(-c5ccccc5)c5ccc2[nH]5)C=C4)C=C3)cc1)C1=Cc2cc(Cl)cc(-c3ccc(O)cc3)c2O[C@@H]1C(F)(F)F
REMARK SMILES IDX 5 1 4 2 3 3 1 4 2 5 58 7 59 8 75 9 60 10 74 11 61 12 73 13
REMARK SMILES IDX 62 14 65 15 63 16 64 17 76 18 77 19 78 20 79 21 66 22 67 23
REMARK SMILES IDX 72 24 68 25 71 26 69 27 70 28 6 30 7 31 8 32 9 34 10 35
REMARK SMILES IDX 11 36 57 37 12 38 56 39 13 40 14 41 15 42 50 43 16 44 55 45
REMARK SMILES IDX 49 46 51 47 17 48 54 49 48 50 47 51 18 53 40 54 25 55 39 56
REMARK SMILES IDX 26 57 29 58 38 59 52 60 27 61 28 62 37 64 53 65 30 66 19 67
REMARK SMILES IDX 20 68 24 69 21 70 23 71 22 72 41 73 42 74 46 75 43 76 45 77
REMARK SMILES IDX 44 78 31 79 32 80 36 81 33 82 35 83 34 84
REMARK H PARENT 3 6 70 29 7 33 51 52 29 63
REMARK Flexibility Score: inf
ROOT
ATOM      1  C   UNL     1       4.103   2.463  -1.565  1.00  0.00     0.042 C 
ENDROOT
BRANCH   1   2
ATOM      2  C   UNL     1       3.029   1.932  -0.613  1.00  0.00     0.118 C 
BRANCH   2   3
ATOM      3  N   UNL     1       2.229   0.859  -1.212  1.00  0.00    -0.352 N 
ATOM      4  O   UNL     1       1.409  -1.247  -1.438  1.00  0.00    -0.270 OA
ATOM      5  C   UNL     1       2.266  -0.495  -0.995  1.00  0.00     0.251 C 
ATOM      6  H   UNL     1       1.563   1.156  -1.873  1.00  0.00     0.163 HD
BRANCH   5   7
ATOM      7  C   UNL     1       3.358  -0.993  -0.149  1.00  0.00     0.067 C 
ATOM      8  C   UNL     1       4.605  -0.882  -0.619  1.00  0.00     0.025 C 
ATOM      9  C   UNL     1       3.054  -1.258   1.290  1.00  0.00     0.314 C 
ATOM     10  C   UNL     1       5.605  -0.534   0.393  1.00  0.00     0.019 A 
ATOM     11  O   UNL     1       3.908  -0.468   2.153  1.00  0.00    -0.475 OA
ATOM     12  C   UNL     1       6.888  -0.194  -0.042  1.00  0.00     0.032 A 
ATOM     13  C   UNL     1       5.167  -0.163   1.683  1.00  0.00     0.135 A 
ATOM     14  C   UNL     1       7.694   0.600   0.766  1.00  0.00     0.042 A 
ATOM     15  C   UNL     1       5.954   0.692   2.474  1.00  0.00     0.026 A 
ATOM     16  Cl  UNL     1       9.212   1.144   0.167  1.00  0.00    -0.084 Cl
ATOM     17  C   UNL     1       7.226   1.060   1.997  1.00  0.00     0.033 A 
BRANCH   9  18
ATOM     18  C   UNL     1       3.113  -2.760   1.622  1.00  0.00     0.429 C 
ATOM     19  F   UNL     1       2.750  -2.992   2.907  1.00  0.00    -0.167 F 
ATOM     20  F   UNL     1       2.268  -3.478   0.844  1.00  0.00    -0.167 F 
ATOM     21  F   UNL     1       4.351  -3.283   1.456  1.00  0.00    -0.167 F 
ENDBRANCH   9  18
BRANCH  15  22
ATOM     22  C   UNL     1       5.422   1.370   3.668  1.00  0.00    -0.014 A 
ATOM     23  C   UNL     1       4.868   2.658   3.549  1.00  0.00     0.012 A 
ATOM     24  C   UNL     1       5.498   0.801   4.944  1.00  0.00     0.012 A 
ATOM     25  C   UNL     1       4.461   3.384   4.665  1.00  0.00     0.047 A 
ATOM     26  C   UNL     1       5.083   1.525   6.070  1.00  0.00     0.047 A 
ATOM     27  C   UNL     1       4.588   2.818   5.920  1.00  0.00     0.115 A 
BRANCH  27  28
ATOM     28  O   UNL     1       4.224   3.576   6.992  1.00  0.00    -0.508 OA
ATOM     29  H   UNL     1       3.894   4.444   6.861  1.00  0.00     0.293 HD
ENDBRANCH  27  28
ENDBRANCH  15  22
ENDBRANCH   5   7
ENDBRANCH   2   3
ENDBRANCH   1   2
BRANCH   1  30
ATOM     30  C   UNL     1       4.642   3.829  -1.152  1.00  0.00     0.118 C 
BRANCH  30  31
ATOM     31  N   UNL     1       5.397   3.851   0.092  1.00  0.00    -0.352 N 
ATOM     32  C   UNL     1       6.146   4.883   0.630  1.00  0.00     0.251 C 
ATOM     33  H   UNL     1       5.372   3.021   0.620  1.00  0.00     0.163 HD
ATOM     34  O   UNL     1       6.740   4.727   1.693  1.00  0.00    -0.269 OA
BRANCH  32  35
ATOM     35  C   UNL     1       6.342   6.128  -0.147  1.00  0.00     0.039 A 
ATOM     36  C   UNL     1       7.651   6.590  -0.322  1.00  0.00     0.014 A 
ATOM     37  C   UNL     1       5.293   6.728  -0.838  1.00  0.00     0.014 A 
ATOM     38  C   UNL     1       7.928   7.508  -1.335  1.00  0.00     0.010 A 
ATOM     39  C   UNL     1       5.580   7.555  -1.915  1.00  0.00     0.010 A 
ATOM     40  C   UNL     1       6.907   7.901  -2.212  1.00  0.00    -0.014 A 
BRANCH  40  41
ATOM     41  C   UNL     1       7.198   8.572  -3.504  1.00  0.00     0.031 A 
ATOM     42  C   UNL     1       6.557   9.889  -3.829  1.00  0.00     0.074 A 
ATOM     43  C   UNL     1       7.911   7.914  -4.441  1.00  0.00     0.049 A 
ATOM     44  N   UNL     1       6.501  10.519  -4.974  1.00  0.00    -0.248 NA
ATOM     45  C   UNL     1       5.840  10.559  -2.733  1.00  0.00     0.031 C 
ATOM     46  C   UNL     1       8.538   6.598  -4.272  1.00  0.00     0.029 A 
ATOM     47  N   UNL     1       8.216   8.254  -5.736  1.00  0.00    -0.354 N 
ATOM     48  C   UNL     1       5.702  11.632  -4.748  1.00  0.00     0.074 A 
ATOM     49  C   UNL     1       5.269  11.571  -3.368  1.00  0.00     0.031 C 
ATOM     50  C   UNL     1       9.181   6.264  -5.401  1.00  0.00     0.029 A 
ATOM     51  C   UNL     1       8.968   7.309  -6.393  1.00  0.00     0.049 A 
ATOM     52  H   UNL     1       7.923   9.096  -6.154  1.00  0.00     0.167 HD
ATOM     53  C   UNL     1       5.366  12.621  -5.610  1.00  0.00     0.031 A 
ATOM     54  C   UNL     1       9.425   7.281  -7.658  1.00  0.00     0.031 A 
ATOM     55  C   UNL     1       5.833  12.697  -6.967  1.00  0.00     0.049 A 
ATOM     56  C   UNL     1       9.087   8.417  -8.579  1.00  0.00     0.074 A 
ATOM     57  C   UNL     1       5.599  13.685  -7.908  1.00  0.00     0.029 A 
ATOM     58  N   UNL     1       6.648  11.751  -7.571  1.00  0.00    -0.354 N 
ATOM     59  N   UNL     1       8.353   9.477  -8.342  1.00  0.00    -0.248 NA
ATOM     60  C   UNL     1       9.640   8.355  -9.939  1.00  0.00     0.031 C 
ATOM     61  C   UNL     1       6.260  13.327  -9.088  1.00  0.00     0.029 A 
ATOM     62  C   UNL     1       6.931  12.133  -8.870  1.00  0.00     0.049 A 
ATOM     63  H   UNL     1       6.976  10.930  -7.139  1.00  0.00     0.167 HD
ATOM     64  C   UNL     1       8.378  10.222  -9.512  1.00  0.00     0.074 A 
ATOM     65  C   UNL     1       9.204   9.496 -10.456  1.00  0.00     0.031 C 
ATOM     66  C   UNL     1       7.769  11.401  -9.782  1.00  0.00     0.031 A 
BRANCH  53  67
ATOM     67  C   UNL     1       4.446  13.690  -5.095  1.00  0.00    -0.014 A 
ATOM     68  C   UNL     1       4.881  14.628  -4.145  1.00  0.00     0.009 A 
ATOM     69  C   UNL     1       3.121  13.753  -5.554  1.00  0.00     0.009 A 
ATOM     70  C   UNL     1       3.995  15.574  -3.627  1.00  0.00     0.001 A 
ATOM     71  C   UNL     1       2.245  14.719  -5.056  1.00  0.00     0.001 A 
ATOM     72  C   UNL     1       2.678  15.619  -4.083  1.00  0.00     0.000 A 
ENDBRANCH  53  67
BRANCH  54  73
ATOM     73  C   UNL     1      10.278   6.155  -8.120  1.00  0.00    -0.014 A 
ATOM     74  C   UNL     1      11.657   6.347  -8.296  1.00  0.00     0.009 A 
ATOM     75  C   UNL     1       9.730   4.889  -8.377  1.00  0.00     0.009 A 
ATOM     76  C   UNL     1      12.467   5.301  -8.743  1.00  0.00     0.001 A 
ATOM     77  C   UNL     1      10.547   3.838  -8.801  1.00  0.00     0.001 A 
ATOM     78  C   UNL     1      11.913   4.046  -8.991  1.00  0.00     0.000 A 
ENDBRANCH  54  73
BRANCH  66  79
ATOM     79  C   UNL     1       8.016  12.002 -11.133  1.00  0.00    -0.014 A 
ATOM     80  C   UNL     1       7.354  11.522 -12.272  1.00  0.00     0.009 A 
ATOM     81  C   UNL     1       8.882  13.099 -11.253  1.00  0.00     0.009 A 
ATOM     82  C   UNL     1       7.570  12.122 -13.513  1.00  0.00     0.001 A 
ATOM     83  C   UNL     1       9.081  13.708 -12.492  1.00  0.00     0.001 A 
ATOM     84  C   UNL     1       8.428  13.216 -13.621  1.00  0.00     0.000 A 
ENDBRANCH  66  79
ENDBRANCH  40  41
ENDBRANCH  32  35
ENDBRANCH  30  31
ENDBRANCH   1  30
TORSDOF 13
