REMARK SMILES Cc1ccc(C(=O)NCCCNC(=O)c2ccc(-c3c4nc(c(-c5ccccc5)c5ccc([nH]5)c(-c5ccccc5)c5nc(c(-c6ccccc6)c6ccc3[nH]6)C=C5)C=C4)cc2)c2c1N[C@H](c1ccccc1F)[C@H]1CC=C[C@@H]21
REMARK SMILES IDX 10 1 9 2 8 3 6 4 7 5 5 7 1 8 2 9 3 10 64 11 4 12 63 13 65 14
REMARK SMILES IDX 78 15 66 16 74 18 77 19 75 20 76 21 67 22 68 23 72 24 69 25
REMARK SMILES IDX 71 26 73 27 70 28 11 29 12 30 13 31 14 33 15 34 16 35 62 36
REMARK SMILES IDX 17 37 61 38 18 39 19 40 20 41 55 42 21 43 60 44 54 45 56 46
REMARK SMILES IDX 22 47 59 48 53 49 52 50 23 52 45 53 30 54 44 55 31 56 34 57
REMARK SMILES IDX 43 58 57 59 32 60 33 61 42 63 58 64 35 65 24 66 25 67 29 68
REMARK SMILES IDX 26 69 28 70 27 71 46 72 47 73 51 74 48 75 50 76 49 77 36 78
REMARK SMILES IDX 37 79 41 80 38 81 40 82 39 83
REMARK H PARENT 8 6 65 17 12 32 56 51 34 62
REMARK Flexibility Score: inf
ROOT
ATOM      1  C   UNL     1       1.187  -6.928   2.215  1.00  0.00     0.042 C 
ENDROOT
BRANCH   1   2
ATOM      2  C   UNL     1       1.090  -6.695   0.705  1.00  0.00     0.118 C 
BRANCH   2   3
ATOM      3  N   UNL     1      -0.294  -6.490   0.326  1.00  0.00    -0.352 N 
ATOM      4  C   UNL     1      -1.109  -5.394   0.209  1.00  0.00     0.251 C 
ATOM      5  O   UNL     1      -2.304  -5.665   0.091  1.00  0.00    -0.269 OA
ATOM      6  H   UNL     1      -0.754  -7.331   0.101  1.00  0.00     0.163 HD
BRANCH   4   7
ATOM      7  C   UNL     1      -0.622  -3.969   0.191  1.00  0.00     0.045 A 
ATOM      8  C   UNL     1       1.007   0.047   0.060  1.00  0.00     0.046 C 
ATOM      9  C   UNL     1       0.395  -1.329   0.115  1.00  0.00    -0.028 A 
ATOM     10  C   UNL     1       1.065  -2.324   0.819  1.00  0.00     0.006 A 
ATOM     11  C   UNL     1      -0.857  -1.617  -0.466  1.00  0.00     0.042 A 
ATOM     12  C   UNL     1       0.541  -3.611   0.884  1.00  0.00     0.014 A 
ATOM     13  C   UNL     1      -1.357  -2.942  -0.472  1.00  0.00    -0.005 A 
ATOM     14  N   UNL     1      -1.571  -0.585  -1.039  1.00  0.00    -0.377 N 
ATOM     15  C   UNL     1      -2.713  -3.196  -1.108  1.00  0.00     0.050 C 
ATOM     16  C   UNL     1      -2.668  -0.797  -1.963  1.00  0.00     0.117 C 
ATOM     17  H   UNL     1      -1.324   0.340  -0.809  1.00  0.00     0.161 HD
ATOM     18  C   UNL     1      -3.555  -1.944  -1.457  1.00  0.00     0.031 C 
ATOM     19  C   UNL     1      -2.698  -3.924  -2.427  1.00  0.00    -0.023 C 
ATOM     20  C   UNL     1      -4.506  -2.442  -2.561  1.00  0.00     0.034 C 
ATOM     21  C   UNL     1      -3.702  -3.522  -3.217  1.00  0.00    -0.030 C 
BRANCH  16  22
ATOM     22  C   UNL     1      -3.296   0.574  -2.172  1.00  0.00     0.010 A 
ATOM     23  C   UNL     1      -2.593   1.501  -2.972  1.00  0.00     0.009 A 
ATOM     24  C   UNL     1      -4.438   1.032  -1.506  1.00  0.00     0.128 A 
ATOM     25  C   UNL     1      -3.001   2.833  -3.067  1.00  0.00     0.001 A 
ATOM     26  C   UNL     1      -4.850   2.362  -1.601  1.00  0.00     0.039 A 
ATOM     27  F   UNL     1      -5.162   0.221  -0.726  1.00  0.00    -0.207 F 
ATOM     28  C   UNL     1      -4.125   3.267  -2.372  1.00  0.00     0.003 A 
ENDBRANCH  16  22
ENDBRANCH   4   7
ENDBRANCH   2   3
ENDBRANCH   1   2
BRANCH   1  29
ATOM     29  C   UNL     1       0.580  -8.264   2.640  1.00  0.00     0.118 C 
BRANCH  29  30
ATOM     30  N   UNL     1       1.377  -9.384   2.159  1.00  0.00    -0.352 N 
ATOM     31  C   UNL     1       2.187 -10.231   2.872  1.00  0.00     0.251 C 
ATOM     32  H   UNL     1       1.327  -9.558   1.192  1.00  0.00     0.163 HD
ATOM     33  O   UNL     1       3.016 -10.930   2.303  1.00  0.00    -0.269 OA
BRANCH  31  34
ATOM     34  C   UNL     1       2.043 -10.295   4.338  1.00  0.00     0.039 A 
ATOM     35  C   UNL     1       3.183 -10.227   5.141  1.00  0.00     0.014 A 
ATOM     36  C   UNL     1       0.775 -10.450   4.907  1.00  0.00     0.014 A 
ATOM     37  C   UNL     1       3.046 -10.274   6.528  1.00  0.00     0.010 A 
ATOM     38  C   UNL     1       0.634 -10.439   6.289  1.00  0.00     0.010 A 
ATOM     39  C   UNL     1       1.770 -10.367   7.109  1.00  0.00    -0.014 A 
BRANCH  39  40
ATOM     40  C   UNL     1       1.606 -10.443   8.577  1.00  0.00     0.031 A 
ATOM     41  C   UNL     1       1.148 -11.727   9.205  1.00  0.00     0.074 A 
ATOM     42  C   UNL     1       1.837  -9.355   9.334  1.00  0.00     0.049 A 
ATOM     43  N   UNL     1       0.926 -11.990  10.466  1.00  0.00    -0.248 NA
ATOM     44  C   UNL     1       0.895 -12.862   8.300  1.00  0.00     0.031 C 
ATOM     45  C   UNL     1       2.266  -8.050   8.830  1.00  0.00     0.029 A 
ATOM     46  N   UNL     1       1.745  -9.177  10.691  1.00  0.00    -0.354 N 
ATOM     47  C   UNL     1       0.507 -13.313  10.504  1.00  0.00     0.074 A 
ATOM     48  C   UNL     1       0.457 -13.788   9.141  1.00  0.00     0.031 C 
ATOM     49  C   UNL     1       2.430  -7.213   9.867  1.00  0.00     0.029 A 
ATOM     50  C   UNL     1       2.088  -7.913  11.103  1.00  0.00     0.049 A 
ATOM     51  H   UNL     1       1.460  -9.887  11.310  1.00  0.00     0.167 HD
ATOM     52  C   UNL     1       0.218 -14.071  11.585  1.00  0.00     0.031 A 
ATOM     53  C   UNL     1       2.126  -7.379  12.339  1.00  0.00     0.031 A 
ATOM     54  C   UNL     1       0.285 -13.602  12.939  1.00  0.00     0.049 A 
ATOM     55  C   UNL     1       1.765  -8.232  13.521  1.00  0.00     0.074 A 
ATOM     56  C   UNL     1       0.053 -14.313  14.103  1.00  0.00     0.029 A 
ATOM     57  N   UNL     1       0.611 -12.309  13.311  1.00  0.00    -0.354 N 
ATOM     58  N   UNL     1       1.415  -9.495  13.545  1.00  0.00    -0.248 NA
ATOM     59  C   UNL     1       1.806  -7.593  14.845  1.00  0.00     0.031 C 
ATOM     60  C   UNL     1       0.193 -13.436  15.180  1.00  0.00     0.029 A 
ATOM     61  C   UNL     1       0.562 -12.193  14.687  1.00  0.00     0.049 A 
ATOM     62  H   UNL     1       0.842 -11.581  12.688  1.00  0.00     0.167 HD
ATOM     63  C   UNL     1       1.213  -9.808  14.882  1.00  0.00     0.074 A 
ATOM     64  C   UNL     1       1.485  -8.606  15.642  1.00  0.00     0.031 C 
ATOM     65  C   UNL     1       0.839 -10.990  15.427  1.00  0.00     0.031 A 
BRANCH  52  66
ATOM     66  C   UNL     1      -0.179 -15.499  11.355  1.00  0.00    -0.014 A 
ATOM     67  C   UNL     1       0.780 -16.461  11.002  1.00  0.00     0.009 A 
ATOM     68  C   UNL     1      -1.503 -15.905  11.586  1.00  0.00     0.009 A 
ATOM     69  C   UNL     1       0.418 -17.803  10.878  1.00  0.00     0.001 A 
ATOM     70  C   UNL     1      -1.856 -17.251  11.482  1.00  0.00     0.001 A 
ATOM     71  C   UNL     1      -0.896 -18.198  11.127  1.00  0.00     0.000 A 
ENDBRANCH  52  66
BRANCH  53  72
ATOM     72  C   UNL     1       2.563  -5.970  12.509  1.00  0.00    -0.014 A 
ATOM     73  C   UNL     1       3.842  -5.682  13.006  1.00  0.00     0.009 A 
ATOM     74  C   UNL     1       1.729  -4.910  12.120  1.00  0.00     0.009 A 
ATOM     75  C   UNL     1       4.279  -4.359  13.111  1.00  0.00     0.001 A 
ATOM     76  C   UNL     1       2.176  -3.589  12.207  1.00  0.00     0.001 A 
ATOM     77  C   UNL     1       3.449  -3.315  12.705  1.00  0.00     0.000 A 
ENDBRANCH  53  72
BRANCH  65  78
ATOM     78  C   UNL     1       0.703 -11.072  16.919  1.00  0.00    -0.014 A 
ATOM     79  C   UNL     1      -0.436 -10.566  17.562  1.00  0.00     0.009 A 
ATOM     80  C   UNL     1       1.647 -11.798  17.663  1.00  0.00     0.009 A 
ATOM     81  C   UNL     1      -0.629 -10.792  18.926  1.00  0.00     0.001 A 
ATOM     82  C   UNL     1       1.439 -12.040  19.021  1.00  0.00     0.001 A 
ATOM     83  C   UNL     1       0.301 -11.537  19.651  1.00  0.00     0.000 A 
ENDBRANCH  65  78
ENDBRANCH  39  40
ENDBRANCH  31  34
ENDBRANCH  29  30
ENDBRANCH   1  29
TORSDOF 11
