REMARK SMILES CC(C)(C)OC(=O)[C@H]1CC[C@]1([NH3+])C(=O)NCCCNC(=O)c1ccc(-c2c3nc(c(-c4ccccc4)c4ccc([nH]4)c(-c4ccccc4)c4nc(c(-c5ccccc5)c5ccc2[nH]5)C=C4)C=C3)cc1
REMARK SMILES IDX 16 1 15 2 13 3 14 4 11 6 8 7 9 8 10 9 6 10 7 11 5 12 2 13
REMARK SMILES IDX 1 14 3 15 4 16 12 17 17 21 18 22 19 23 20 24 21 26 22 27
REMARK SMILES IDX 23 28 69 29 24 30 68 31 25 32 26 33 27 34 62 35 28 36 67 37
REMARK SMILES IDX 61 38 63 39 29 40 66 41 60 42 59 43 30 45 52 46 37 47 51 48
REMARK SMILES IDX 38 49 41 50 50 51 64 52 39 53 40 54 49 56 65 57 42 58 31 59
REMARK SMILES IDX 32 60 36 61 33 62 35 63 34 64 53 65 54 66 58 67 55 68 57 69
REMARK SMILES IDX 56 70 43 71 44 72 48 73 45 74 47 75 46 76
REMARK H PARENT 15 5 12 18 12 19 12 20 19 25 63 44 41 55
REMARK Flexibility Score: inf
ROOT
ATOM      1  C   UNL     1       3.644  -2.018  -1.458  1.00  0.00     0.118 C 
ENDROOT
BRANCH   1   2
ATOM      2  N   UNL     1       3.919  -3.336  -0.916  1.00  0.00    -0.351 N 
ATOM      3  C   UNL     1       3.567  -4.571  -1.412  1.00  0.00     0.282 C 
ATOM      4  O   UNL     1       3.939  -5.552  -0.756  1.00  0.00    -0.268 OA
ATOM      5  H   UNL     1       4.430  -3.348  -0.074  1.00  0.00     0.163 HD
BRANCH   3   6
ATOM      6  C   UNL     1       2.729  -4.657  -2.751  1.00  0.00     0.187 C 
ATOM      7  C   UNL     1       1.224  -4.263  -2.663  1.00  0.00     0.170 C 
ATOM      8  C   UNL     1       0.909  -5.780  -2.550  1.00  0.00     0.029 C 
ATOM      9  C   UNL     1       2.264  -6.070  -3.214  1.00  0.00     0.081 C 
BRANCH   7  10
ATOM     10  C   UNL     1       0.550  -3.494  -3.822  1.00  0.00     0.316 C 
ATOM     11  O   UNL     1       0.301  -3.967  -4.929  1.00  0.00    -0.252 OA
BRANCH  10  12
ATOM     12  O   UNL     1       0.239  -2.216  -3.451  1.00  0.00    -0.460 OA
BRANCH  12  13
ATOM     13  C   UNL     1      -0.447  -1.319  -4.363  1.00  0.00     0.104 C 
ATOM     14  C   UNL     1      -0.548   0.012  -3.600  1.00  0.00     0.056 C 
ATOM     15  C   UNL     1      -1.863  -1.823  -4.659  1.00  0.00     0.056 C 
ATOM     16  C   UNL     1       0.360  -1.080  -5.644  1.00  0.00     0.056 C 
ENDBRANCH  12  13
ENDBRANCH  10  12
ENDBRANCH   7  10
BRANCH   6  17
ATOM     17  N   UNL     1       3.396  -4.031  -3.916  1.00  0.00    -0.344 N 
ATOM     18  H   UNL     1       2.801  -4.124  -4.739  1.00  0.00     0.345 HD
ATOM     19  H   UNL     1       4.288  -4.495  -4.087  1.00  0.00     0.345 HD
ATOM     20  H   UNL     1       3.558  -3.042  -3.724  1.00  0.00     0.345 HD
ENDBRANCH   6  17
ENDBRANCH   3   6
ENDBRANCH   1   2
BRANCH   1  21
ATOM     21  C   UNL     1       2.742  -1.190  -0.550  1.00  0.00     0.042 C 
BRANCH  21  22
ATOM     22  C   UNL     1       3.301  -0.931   0.844  1.00  0.00     0.118 C 
BRANCH  22  23
ATOM     23  N   UNL     1       4.560  -0.198   0.833  1.00  0.00    -0.352 N 
ATOM     24  C   UNL     1       4.913   0.981   1.439  1.00  0.00     0.251 C 
ATOM     25  H   UNL     1       5.275  -0.619   0.303  1.00  0.00     0.163 HD
ATOM     26  O   UNL     1       6.001   1.491   1.177  1.00  0.00    -0.269 OA
BRANCH  24  27
ATOM     27  C   UNL     1       3.997   1.663   2.380  1.00  0.00     0.039 A 
ATOM     28  C   UNL     1       3.898   3.057   2.321  1.00  0.00     0.014 A 
ATOM     29  C   UNL     1       3.259   0.955   3.332  1.00  0.00     0.014 A 
ATOM     30  C   UNL     1       3.011   3.729   3.166  1.00  0.00     0.010 A 
ATOM     31  C   UNL     1       2.317   1.617   4.117  1.00  0.00     0.010 A 
ATOM     32  C   UNL     1       2.183   3.011   4.043  1.00  0.00    -0.014 A 
BRANCH  32  33
ATOM     33  C   UNL     1       1.168   3.706   4.875  1.00  0.00     0.031 A 
ATOM     34  C   UNL     1       1.264   3.693   6.375  1.00  0.00     0.074 A 
ATOM     35  C   UNL     1       0.125   4.312   4.275  1.00  0.00     0.049 A 
ATOM     36  N   UNL     1       0.463   4.238   7.257  1.00  0.00    -0.248 NA
ATOM     37  C   UNL     1       2.391   2.953   6.963  1.00  0.00     0.031 C 
ATOM     38  C   UNL     1      -0.114   4.358   2.831  1.00  0.00     0.029 A 
ATOM     39  N   UNL     1      -0.930   5.009   4.808  1.00  0.00    -0.354 N 
ATOM     40  C   UNL     1       0.980   3.894   8.500  1.00  0.00     0.074 A 
ATOM     41  C   UNL     1       2.132   3.052   8.259  1.00  0.00     0.031 C 
ATOM     42  C   UNL     1      -1.220   5.080   2.591  1.00  0.00     0.029 A 
ATOM     43  C   UNL     1      -1.788   5.516   3.862  1.00  0.00     0.049 A 
ATOM     44  H   UNL     1      -1.060   5.134   5.776  1.00  0.00     0.167 HD
ATOM     45  C   UNL     1       0.550   4.260   9.731  1.00  0.00     0.031 A 
ATOM     46  C   UNL     1      -2.905   6.254   4.001  1.00  0.00     0.031 A 
ATOM     47  C   UNL     1      -0.591   5.102   9.976  1.00  0.00     0.049 A 
ATOM     48  C   UNL     1      -3.364   6.646   5.376  1.00  0.00     0.074 A 
ATOM     49  C   UNL     1      -1.070   5.577  11.185  1.00  0.00     0.029 A 
ATOM     50  N   UNL     1      -1.435   5.592   8.991  1.00  0.00    -0.354 N 
ATOM     51  N   UNL     1      -2.822   6.372   6.537  1.00  0.00    -0.248 NA
ATOM     52  C   UNL     1      -4.584   7.461   5.455  1.00  0.00     0.031 C 
ATOM     53  C   UNL     1      -2.233   6.316  10.934  1.00  0.00     0.029 A 
ATOM     54  C   UNL     1      -2.446   6.343   9.566  1.00  0.00     0.049 A 
ATOM     55  H   UNL     1      -1.330   5.429   8.026  1.00  0.00     0.167 HD
ATOM     56  C   UNL     1      -3.622   6.997   7.484  1.00  0.00     0.074 A 
ATOM     57  C   UNL     1      -4.673   7.681   6.759  1.00  0.00     0.031 C 
ATOM     58  C   UNL     1      -3.495   7.005   8.834  1.00  0.00     0.031 A 
BRANCH  45  59
ATOM     59  C   UNL     1       1.323   3.738  10.912  1.00  0.00    -0.014 A 
ATOM     60  C   UNL     1       2.621   4.194  11.191  1.00  0.00     0.009 A 
ATOM     61  C   UNL     1       0.739   2.789  11.765  1.00  0.00     0.009 A 
ATOM     62  C   UNL     1       3.335   3.679  12.275  1.00  0.00     0.001 A 
ATOM     63  C   UNL     1       1.444   2.297  12.866  1.00  0.00     0.001 A 
ATOM     64  C   UNL     1       2.745   2.733  13.113  1.00  0.00     0.000 A 
ENDBRANCH  45  59
BRANCH  46  65
ATOM     65  C   UNL     1      -3.649   6.702   2.796  1.00  0.00    -0.014 A 
ATOM     66  C   UNL     1      -3.610   8.047   2.399  1.00  0.00     0.009 A 
ATOM     67  C   UNL     1      -4.395   5.790   2.034  1.00  0.00     0.009 A 
ATOM     68  C   UNL     1      -4.319   8.474   1.275  1.00  0.00     0.001 A 
ATOM     69  C   UNL     1      -5.082   6.215   0.895  1.00  0.00     0.001 A 
ATOM     70  C   UNL     1      -5.050   7.557   0.521  1.00  0.00     0.000 A 
ENDBRANCH  46  65
BRANCH  58  71
ATOM     71  C   UNL     1      -4.512   7.796   9.608  1.00  0.00    -0.014 A 
ATOM     72  C   UNL     1      -5.836   7.348   9.738  1.00  0.00     0.009 A 
ATOM     73  C   UNL     1      -4.135   8.996  10.229  1.00  0.00     0.009 A 
ATOM     74  C   UNL     1      -6.772   8.108  10.442  1.00  0.00     0.001 A 
ATOM     75  C   UNL     1      -5.066   9.739  10.957  1.00  0.00     0.001 A 
ATOM     76  C   UNL     1      -6.385   9.301  11.053  1.00  0.00     0.000 A 
ENDBRANCH  58  71
ENDBRANCH  32  33
ENDBRANCH  24  27
ENDBRANCH  22  23
ENDBRANCH  21  22
ENDBRANCH   1  21
TORSDOF 14
