REMARK SMILES C=Cc1cncc(-c2ccc([C@@H](C)C(=O)NCCCNC(=O)c3ccc(-c4c5nc(c(-c6ccccc6)c6ccc([nH]6)c(-c6ccccc6)c6nc(c(-c7ccccc7)c7ccc4[nH]7)C=C6)C=C5)cc3)cc2)c1
REMARK SMILES IDX 17 1 16 2 14 3 15 4 12 6 13 7 11 8 8 9 9 10 72 11 10 12
REMARK SMILES IDX 71 13 7 14 3 15 4 16 73 17 5 18 6 19 2 20 1 21 18 22 19 23
REMARK SMILES IDX 20 24 21 25 22 27 23 28 24 29 70 30 25 31 69 32 26 33 27 34
REMARK SMILES IDX 28 35 63 36 29 37 68 38 62 39 64 40 30 41 67 42 61 43 60 44
REMARK SMILES IDX 31 46 53 47 38 48 52 49 39 50 42 51 51 52 65 53 40 54 41 55
REMARK SMILES IDX 50 57 66 58 43 59 32 60 33 61 37 62 34 63 36 64 35 65 54 66
REMARK SMILES IDX 55 67 59 68 56 69 58 70 57 71 44 72 45 73 49 74 46 75 48 76
REMARK SMILES IDX 47 77
REMARK H PARENT 16 5 20 26 64 45 42 56
REMARK Flexibility Score: inf
ROOT
ATOM      1  C   UNL     1      -7.667   2.114  -4.260  1.00  0.00     0.117 C 
ENDROOT
BRANCH   1   2
ATOM      2  N   UNL     1      -6.889   1.626  -5.382  1.00  0.00    -0.356 N 
ATOM      3  C   UNL     1      -6.415   0.388  -5.690  1.00  0.00     0.227 C 
ATOM      4  O   UNL     1      -5.702   0.315  -6.699  1.00  0.00    -0.274 OA
ATOM      5  H   UNL     1      -6.660   2.319  -6.043  1.00  0.00     0.163 HD
BRANCH   3   6
ATOM      6  C   UNL     1      -6.713  -0.876  -4.870  1.00  0.00     0.105 C 
ATOM      7  C   UNL     1      -8.199  -1.206  -4.729  1.00  0.00     0.023 C 
BRANCH   6   8
ATOM      8  C   UNL     1      -5.881  -0.979  -3.602  1.00  0.00    -0.036 A 
ATOM      9  C   UNL     1      -4.178  -1.060  -1.304  1.00  0.00    -0.017 A 
ATOM     10  C   UNL     1      -5.463  -0.498  -1.252  1.00  0.00     0.009 A 
ATOM     11  C   UNL     1      -3.780  -1.616  -2.530  1.00  0.00     0.009 A 
ATOM     12  C   UNL     1      -6.309  -0.482  -2.369  1.00  0.00     0.005 A 
ATOM     13  C   UNL     1      -4.606  -1.561  -3.661  1.00  0.00     0.005 A 
BRANCH   9  14
ATOM     14  C   UNL     1      -3.288  -1.053  -0.123  1.00  0.00     0.001 A 
ATOM     15  C   UNL     1      -1.078  -0.867   0.909  1.00  0.00    -0.007 A 
ATOM     16  C   UNL     1      -1.703  -1.016   2.143  1.00  0.00     0.119 A 
ATOM     17  C   UNL     1      -1.895  -0.893  -0.229  1.00  0.00     0.020 A 
ATOM     18  N   UNL     1      -3.035  -1.172   2.308  1.00  0.00    -0.263 NA
ATOM     19  C   UNL     1      -3.782  -1.191   1.178  1.00  0.00     0.119 A 
BRANCH  15  20
ATOM     20  C   UNL     1       0.383  -0.754   0.842  1.00  0.00     0.002 C 
ATOM     21  C   UNL     1       1.038   0.054  -0.001  1.00  0.00     0.009 C 
ENDBRANCH  15  20
ENDBRANCH   9  14
ENDBRANCH   6   8
ENDBRANCH   3   6
ENDBRANCH   1   2
BRANCH   1  22
ATOM     22  C   UNL     1      -6.796   2.752  -3.182  1.00  0.00     0.042 C 
BRANCH  22  23
ATOM     23  C   UNL     1      -6.375   4.184  -3.490  1.00  0.00     0.118 C 
BRANCH  23  24
ATOM     24  N   UNL     1      -7.485   5.120  -3.389  1.00  0.00    -0.352 N 
ATOM     25  C   UNL     1      -7.684   6.195  -2.558  1.00  0.00     0.251 C 
ATOM     26  H   UNL     1      -8.218   4.955  -4.025  1.00  0.00     0.163 HD
ATOM     27  O   UNL     1      -8.796   6.716  -2.518  1.00  0.00    -0.269 OA
BRANCH  25  28
ATOM     28  C   UNL     1      -6.597   6.736  -1.706  1.00  0.00     0.039 A 
ATOM     29  C   UNL     1      -6.930   7.255  -0.449  1.00  0.00     0.014 A 
ATOM     30  C   UNL     1      -5.276   6.817  -2.152  1.00  0.00     0.014 A 
ATOM     31  C   UNL     1      -5.942   7.814   0.368  1.00  0.00     0.010 A 
ATOM     32  C   UNL     1      -4.278   7.303  -1.308  1.00  0.00     0.010 A 
ATOM     33  C   UNL     1      -4.602   7.824  -0.046  1.00  0.00    -0.014 A 
BRANCH  33  34
ATOM     34  C   UNL     1      -3.534   8.410   0.806  1.00  0.00     0.031 A 
ATOM     35  C   UNL     1      -2.777   9.627   0.341  1.00  0.00     0.074 A 
ATOM     36  C   UNL     1      -3.204   7.821   1.972  1.00  0.00     0.049 A 
ATOM     37  N   UNL     1      -1.769  10.242   0.909  1.00  0.00    -0.248 NA
ATOM     38  C   UNL     1      -3.189  10.217  -0.944  1.00  0.00     0.031 C 
ATOM     39  C   UNL     1      -3.832   6.619   2.526  1.00  0.00     0.029 A 
ATOM     40  N   UNL     1      -2.248   8.153   2.901  1.00  0.00    -0.354 N 
ATOM     41  C   UNL     1      -1.408  11.262   0.037  1.00  0.00     0.074 A 
ATOM     42  C   UNL     1      -2.281  11.167  -1.112  1.00  0.00     0.031 C 
ATOM     43  C   UNL     1      -3.262   6.330   3.707  1.00  0.00     0.029 A 
ATOM     44  C   UNL     1      -2.207   7.301   3.978  1.00  0.00     0.049 A 
ATOM     45  H   UNL     1      -1.649   8.928   2.804  1.00  0.00     0.167 HD
ATOM     46  C   UNL     1      -0.445  12.203   0.184  1.00  0.00     0.031 A 
ATOM     47  C   UNL     1      -1.406   7.300   5.061  1.00  0.00     0.031 A 
ATOM     48  C   UNL     1       0.396  12.330   1.343  1.00  0.00     0.049 A 
ATOM     49  C   UNL     1      -0.362   8.371   5.208  1.00  0.00     0.074 A 
ATOM     50  C   UNL     1       1.347  13.299   1.615  1.00  0.00     0.029 A 
ATOM     51  N   UNL     1       0.383  11.465   2.424  1.00  0.00    -0.354 N 
ATOM     52  N   UNL     1      -0.082   9.369   4.405  1.00  0.00    -0.248 NA
ATOM     53  C   UNL     1       0.468   8.322   6.421  1.00  0.00     0.031 C 
ATOM     54  C   UNL     1       1.936  12.998   2.848  1.00  0.00     0.029 A 
ATOM     55  C   UNL     1       1.321  11.867   3.359  1.00  0.00     0.049 A 
ATOM     56  H   UNL     1      -0.205  10.680   2.514  1.00  0.00     0.167 HD
ATOM     57  C   UNL     1       0.930  10.085   5.032  1.00  0.00     0.074 A 
ATOM     58  C   UNL     1       1.207   9.414   6.285  1.00  0.00     0.031 C 
ATOM     59  C   UNL     1       1.572  11.200   4.608  1.00  0.00     0.031 A 
BRANCH  46  60
ATOM     60  C   UNL     1      -0.245  13.178  -0.942  1.00  0.00    -0.014 A 
ATOM     61  C   UNL     1      -1.170  14.203  -1.192  1.00  0.00     0.009 A 
ATOM     62  C   UNL     1       0.915  13.102  -1.729  1.00  0.00     0.009 A 
ATOM     63  C   UNL     1      -0.952  15.115  -2.227  1.00  0.00     0.001 A 
ATOM     64  C   UNL     1       1.143  14.031  -2.746  1.00  0.00     0.001 A 
ATOM     65  C   UNL     1       0.207  15.032  -2.998  1.00  0.00     0.000 A 
ENDBRANCH  46  60
BRANCH  47  66
ATOM     66  C   UNL     1      -1.567   6.262   6.112  1.00  0.00    -0.014 A 
ATOM     67  C   UNL     1      -2.087   6.603   7.371  1.00  0.00     0.009 A 
ATOM     68  C   UNL     1      -1.175   4.936   5.876  1.00  0.00     0.009 A 
ATOM     69  C   UNL     1      -2.179   5.645   8.382  1.00  0.00     0.001 A 
ATOM     70  C   UNL     1      -1.294   3.974   6.881  1.00  0.00     0.001 A 
ATOM     71  C   UNL     1      -1.784   4.331   8.136  1.00  0.00     0.000 A 
ENDBRANCH  47  66
BRANCH  59  72
ATOM     72  C   UNL     1       2.597  11.794   5.530  1.00  0.00    -0.014 A 
ATOM     73  C   UNL     1       3.851  11.193   5.711  1.00  0.00     0.009 A 
ATOM     74  C   UNL     1       2.311  12.994   6.200  1.00  0.00     0.009 A 
ATOM     75  C   UNL     1       4.789  11.767   6.572  1.00  0.00     0.001 A 
ATOM     76  C   UNL     1       3.259  13.578   7.040  1.00  0.00     0.001 A 
ATOM     77  C   UNL     1       4.494  12.959   7.232  1.00  0.00     0.000 A 
ENDBRANCH  59  72
ENDBRANCH  33  34
ENDBRANCH  25  28
ENDBRANCH  23  24
ENDBRANCH  22  23
ENDBRANCH   1  22
TORSDOF 13
