REMARK SMILES Cc1ccc(S(=O)(=O)n2cc(C(=O)C(=O)NCC(=O)NCCCNC(=O)c3ccc(-c4c5nc(c(-c6ccccc6)c6ccc([nH]6)c(-c6ccccc6)c6nc(c(-c7ccccc7)c7ccc4[nH]7)C=C6)C=C5)cc3)c3ccccc32)cc1
REMARK SMILES IDX 18 1 19 2 20 3 17 5 16 6 14 7 15 8 12 10 13 11 11 12 9 13
REMARK SMILES IDX 10 14 80 15 75 16 79 17 76 18 78 19 77 20 6 21 7 22 8 23
REMARK SMILES IDX 5 24 1 25 2 26 3 27 82 28 4 29 81 30 21 31 22 32 23 33 24 34
REMARK SMILES IDX 25 35 26 37 27 38 28 39 74 40 29 41 73 42 30 43 31 44 32 45
REMARK SMILES IDX 67 46 33 47 72 48 66 49 68 50 34 51 71 52 65 53 64 54 35 56
REMARK SMILES IDX 57 57 42 58 56 59 43 60 46 61 55 62 69 63 44 64 45 65 54 67
REMARK SMILES IDX 70 68 47 69 36 70 37 71 41 72 38 73 40 74 39 75 58 76 59 77
REMARK SMILES IDX 63 78 60 79 62 80 61 81 48 82 49 83 53 84 50 85 52 86 51 87
REMARK H PARENT 20 4 16 9 24 36 68 55 46 66
REMARK Flexibility Score: inf
ROOT
ATOM      1  C   UNL     1      -9.240   6.558   2.830  1.00  0.00     0.239 C 
ATOM      2  O   UNL     1      -9.940   7.270   3.553  1.00  0.00    -0.273 OA
ATOM      3  N   UNL     1      -9.818   5.968   1.740  1.00  0.00    -0.355 N 
ATOM      4  H   UNL     1     -10.782   6.134   1.625  1.00  0.00     0.163 HD
ENDROOT
BRANCH   1   5
ATOM      5  C   UNL     1      -7.742   6.373   3.099  1.00  0.00     0.216 C 
BRANCH   5   6
ATOM      6  N   UNL     1      -7.396   4.992   3.418  1.00  0.00    -0.340 N 
ATOM      7  C   UNL     1      -6.508   4.113   2.836  1.00  0.00     0.292 C 
ATOM      8  O   UNL     1      -6.417   2.983   3.305  1.00  0.00    -0.265 OA
ATOM      9  H   UNL     1      -7.885   4.621   4.188  1.00  0.00     0.164 HD
BRANCH   7  10
ATOM     10  C   UNL     1      -5.669   4.515   1.595  1.00  0.00     0.252 C 
ATOM     11  O   UNL     1      -5.541   5.710   1.347  1.00  0.00    -0.283 OA
BRANCH  10  12
ATOM     12  C   UNL     1      -5.048   3.512   0.713  1.00  0.00     0.054 A 
ATOM     13  N   UNL     1      -4.170   1.616  -0.086  1.00  0.00    -0.240 N 
ATOM     14  C   UNL     1      -4.846   2.167   0.974  1.00  0.00     0.117 A 
ATOM     15  C   UNL     1      -3.942   2.550  -1.073  1.00  0.00     0.065 A 
ATOM     16  C   UNL     1      -4.483   3.753  -0.594  1.00  0.00     0.012 A 
ATOM     17  C   UNL     1      -3.284   2.473  -2.315  1.00  0.00     0.028 A 
ATOM     18  C   UNL     1      -4.373   4.904  -1.407  1.00  0.00     0.011 A 
ATOM     19  C   UNL     1      -3.169   3.636  -3.079  1.00  0.00     0.002 A 
ATOM     20  C   UNL     1      -3.712   4.835  -2.637  1.00  0.00     0.001 A 
BRANCH  13  21
ATOM     21  S   UNL     1      -3.586   0.015  -0.106  1.00  0.00     0.268 S 
ATOM     22  O   UNL     1      -3.929  -0.500  -1.413  1.00  0.00    -0.201 OA
ATOM     23  O   UNL     1      -4.082  -0.598   1.118  1.00  0.00    -0.201 OA
BRANCH  21  24
ATOM     24  C   UNL     1      -1.817   0.069   0.014  1.00  0.00     0.088 A 
ATOM     25  C   UNL     1       2.485  -0.044   0.021  1.00  0.00     0.044 C 
ATOM     26  C   UNL     1       0.985   0.001   0.039  1.00  0.00    -0.051 A 
ATOM     27  C   UNL     1       0.251  -1.189  -0.038  1.00  0.00     0.005 A 
ATOM     28  C   UNL     1       0.303   1.220   0.134  1.00  0.00     0.005 A 
ATOM     29  C   UNL     1      -1.144  -1.157  -0.056  1.00  0.00     0.022 A 
ATOM     30  C   UNL     1      -1.095   1.258   0.134  1.00  0.00     0.022 A 
ENDBRANCH  21  24
ENDBRANCH  13  21
ENDBRANCH  10  12
ENDBRANCH   7  10
ENDBRANCH   5   6
ENDBRANCH   1   5
BRANCH   3  31
ATOM     31  C   UNL     1      -9.197   5.131   0.732  1.00  0.00     0.117 C 
BRANCH  31  32
ATOM     32  C   UNL     1      -9.356   3.653   1.054  1.00  0.00     0.042 C 
BRANCH  32  33
ATOM     33  C   UNL     1     -10.689   3.094   0.591  1.00  0.00     0.118 C 
BRANCH  33  34
ATOM     34  N   UNL     1     -10.701   2.726  -0.825  1.00  0.00    -0.352 N 
ATOM     35  C   UNL     1     -11.638   2.039  -1.577  1.00  0.00     0.251 C 
ATOM     36  H   UNL     1      -9.906   3.017  -1.329  1.00  0.00     0.163 HD
ATOM     37  O   UNL     1     -11.431   1.844  -2.771  1.00  0.00    -0.269 OA
BRANCH  35  38
ATOM     38  C   UNL     1     -12.968   1.725  -1.002  1.00  0.00     0.039 A 
ATOM     39  C   UNL     1     -14.070   2.099  -1.784  1.00  0.00     0.014 A 
ATOM     40  C   UNL     1     -13.102   1.548   0.365  1.00  0.00     0.014 A 
ATOM     41  C   UNL     1     -15.164   2.668  -1.157  1.00  0.00     0.010 A 
ATOM     42  C   UNL     1     -14.086   2.267   0.986  1.00  0.00     0.010 A 
ATOM     43  C   UNL     1     -15.068   2.886   0.209  1.00  0.00    -0.014 A 
BRANCH  43  44
ATOM     44  C   UNL     1     -16.001   3.677   0.970  1.00  0.00     0.031 A 
ATOM     45  C   UNL     1     -17.088   2.942   1.617  1.00  0.00     0.074 A 
ATOM     46  C   UNL     1     -15.739   4.985   1.175  1.00  0.00     0.049 A 
ATOM     47  N   UNL     1     -18.180   3.486   2.006  1.00  0.00    -0.248 NA
ATOM     48  C   UNL     1     -17.069   1.489   1.801  1.00  0.00     0.031 C 
ATOM     49  C   UNL     1     -16.323   5.891   2.156  1.00  0.00     0.029 A 
ATOM     50  N   UNL     1     -14.988   5.819   0.347  1.00  0.00    -0.354 N 
ATOM     51  C   UNL     1     -18.800   2.566   2.815  1.00  0.00     0.074 A 
ATOM     52  C   UNL     1     -18.188   1.302   2.503  1.00  0.00     0.031 C 
ATOM     53  C   UNL     1     -16.140   7.158   1.739  1.00  0.00     0.029 A 
ATOM     54  C   UNL     1     -15.594   7.092   0.393  1.00  0.00     0.049 A 
ATOM     55  H   UNL     1     -14.189   5.568  -0.170  1.00  0.00     0.167 HD
ATOM     56  C   UNL     1     -19.618   3.036   3.791  1.00  0.00     0.031 A 
ATOM     57  C   UNL     1     -16.210   7.585  -0.727  1.00  0.00     0.031 A 
ATOM     58  C   UNL     1     -19.809   4.481   3.651  1.00  0.00     0.049 A 
ATOM     59  C   UNL     1     -17.717   7.717  -0.568  1.00  0.00     0.074 A 
ATOM     60  C   UNL     1     -19.322   5.585   4.329  1.00  0.00     0.029 A 
ATOM     61  N   UNL     1     -20.302   4.958   2.447  1.00  0.00    -0.354 N 
ATOM     62  N   UNL     1     -18.400   7.182   0.408  1.00  0.00    -0.248 NA
ATOM     63  C   UNL     1     -18.580   8.417  -1.516  1.00  0.00     0.031 C 
ATOM     64  C   UNL     1     -19.518   6.730   3.498  1.00  0.00     0.029 A 
ATOM     65  C   UNL     1     -20.161   6.325   2.342  1.00  0.00     0.049 A 
ATOM     66  H   UNL     1     -20.705   4.390   1.751  1.00  0.00     0.167 HD
ATOM     67  C   UNL     1     -19.737   7.438   0.251  1.00  0.00     0.074 A 
ATOM     68  C   UNL     1     -19.800   8.190  -0.993  1.00  0.00     0.031 C 
ATOM     69  C   UNL     1     -20.670   6.988   1.147  1.00  0.00     0.031 A 
BRANCH  56  70
ATOM     70  C   UNL     1     -20.058   2.254   5.001  1.00  0.00    -0.014 A 
ATOM     71  C   UNL     1     -20.795   2.917   5.997  1.00  0.00     0.009 A 
ATOM     72  C   UNL     1     -19.723   0.915   5.273  1.00  0.00     0.009 A 
ATOM     73  C   UNL     1     -21.148   2.292   7.200  1.00  0.00     0.001 A 
ATOM     74  C   UNL     1     -20.085   0.278   6.467  1.00  0.00     0.001 A 
ATOM     75  C   UNL     1     -20.792   0.971   7.436  1.00  0.00     0.000 A 
ENDBRANCH  56  70
BRANCH  57  76
ATOM     76  C   UNL     1     -15.491   7.171  -1.977  1.00  0.00    -0.014 A 
ATOM     77  C   UNL     1     -14.158   7.618  -2.136  1.00  0.00     0.009 A 
ATOM     78  C   UNL     1     -15.894   6.028  -2.680  1.00  0.00     0.009 A 
ATOM     79  C   UNL     1     -13.213   6.831  -2.804  1.00  0.00     0.001 A 
ATOM     80  C   UNL     1     -14.948   5.263  -3.379  1.00  0.00     0.001 A 
ATOM     81  C   UNL     1     -13.601   5.630  -3.387  1.00  0.00     0.000 A 
ENDBRANCH  57  76
BRANCH  69  82
ATOM     82  C   UNL     1     -22.174   7.081   0.992  1.00  0.00    -0.014 A 
ATOM     83  C   UNL     1     -22.837   8.097   0.300  1.00  0.00     0.009 A 
ATOM     84  C   UNL     1     -23.002   6.128   1.637  1.00  0.00     0.009 A 
ATOM     85  C   UNL     1     -24.236   8.104   0.182  1.00  0.00     0.001 A 
ATOM     86  C   UNL     1     -24.393   6.137   1.540  1.00  0.00     0.001 A 
ATOM     87  C   UNL     1     -25.012   7.120   0.792  1.00  0.00     0.000 A 
ENDBRANCH  69  82
ENDBRANCH  43  44
ENDBRANCH  35  38
ENDBRANCH  33  34
ENDBRANCH  32  33
ENDBRANCH  31  32
ENDBRANCH   3  31
TORSDOF 15
