REMARK SMILES O=C(NCCCNC(=O)[C@H]1CC2(CCN(C(=O)c3cccc(O)c3)CC2)CN1C(=O)C1CC1)c1ccc(-c2c3nc(c(-c4ccccc4)c4ccc([nH]4)c(-c4ccccc4)c4nc(c(-c5ccccc5)c5ccc2[nH]5)C=C4)C=C3)cc1
REMARK SMILES IDX 5 1 4 2 3 3 1 4 2 5 34 7 35 8 81 9 36 10 80 11 37 12 38 13
REMARK SMILES IDX 39 14 74 15 40 16 79 17 73 18 75 19 41 20 78 21 72 22 71 23
REMARK SMILES IDX 42 25 64 26 49 27 63 28 50 29 53 30 62 31 76 32 51 33 52 34
REMARK SMILES IDX 61 36 77 37 54 38 43 39 44 40 48 41 45 42 47 43 46 44 65 45
REMARK SMILES IDX 66 46 70 47 67 48 69 49 68 50 55 51 56 52 60 53 57 54 59 55
REMARK SMILES IDX 58 56 6 57 7 58 8 59 9 61 10 62 11 63 28 64 12 65 27 66
REMARK SMILES IDX 13 67 26 68 14 69 25 70 15 71 16 72 17 73 29 74 30 75 31 76
REMARK SMILES IDX 32 77 33 78 18 79 19 80 24 81 20 82 22 83 21 84 23 85
REMARK H PARENT 3 6 75 24 53 35 7 60 23 86
REMARK Flexibility Score: inf
ROOT
ATOM      1  C   UNL     1       6.165   5.568  -5.353  1.00  0.00     0.042 C 
ENDROOT
BRANCH   1   2
ATOM      2  C   UNL     1       5.065   5.199  -6.337  1.00  0.00     0.118 C 
BRANCH   2   3
ATOM      3  N   UNL     1       4.700   6.313  -7.196  1.00  0.00    -0.352 N 
ATOM      4  O   UNL     1       4.488   7.399  -9.164  1.00  0.00    -0.269 OA
ATOM      5  C   UNL     1       4.622   6.341  -8.568  1.00  0.00     0.251 C 
ATOM      6  H   UNL     1       4.482   7.156  -6.737  1.00  0.00     0.163 HD
BRANCH   5   7
ATOM      7  C   UNL     1       4.722   5.069  -9.313  1.00  0.00     0.039 A 
ATOM      8  C   UNL     1       3.986   3.954  -8.904  1.00  0.00     0.014 A 
ATOM      9  C   UNL     1       5.565   4.995 -10.424  1.00  0.00     0.014 A 
ATOM     10  C   UNL     1       4.181   2.733  -9.534  1.00  0.00     0.010 A 
ATOM     11  C   UNL     1       5.696   3.786 -11.109  1.00  0.00     0.010 A 
ATOM     12  C   UNL     1       5.018   2.643 -10.658  1.00  0.00    -0.014 A 
BRANCH  12  13
ATOM     13  C   UNL     1       5.093   1.363 -11.402  1.00  0.00     0.031 A 
ATOM     14  C   UNL     1       6.369   0.576 -11.477  1.00  0.00     0.074 A 
ATOM     15  C   UNL     1       3.975   0.911 -12.004  1.00  0.00     0.049 A 
ATOM     16  N   UNL     1       6.596  -0.559 -12.088  1.00  0.00    -0.248 NA
ATOM     17  C   UNL     1       7.542   1.133 -10.786  1.00  0.00     0.031 C 
ATOM     18  C   UNL     1       2.679   1.597 -12.000  1.00  0.00     0.029 A 
ATOM     19  N   UNL     1       3.742  -0.234 -12.718  1.00  0.00    -0.354 N 
ATOM     20  C   UNL     1       7.939  -0.843 -11.875  1.00  0.00     0.074 A 
ATOM     21  C   UNL     1       8.481   0.247 -11.093  1.00  0.00     0.031 C 
ATOM     22  C   UNL     1       1.778   0.837 -12.637  1.00  0.00     0.029 A 
ATOM     23  C   UNL     1       2.445  -0.352 -13.152  1.00  0.00     0.049 A 
ATOM     24  H   UNL     1       4.437  -0.907 -12.902  1.00  0.00     0.167 HD
ATOM     25  C   UNL     1       8.650  -1.918 -12.293  1.00  0.00     0.031 A 
ATOM     26  C   UNL     1       1.857  -1.302 -13.900  1.00  0.00     0.031 A 
ATOM     27  C   UNL     1       8.102  -3.000 -13.071  1.00  0.00     0.049 A 
ATOM     28  C   UNL     1       2.678  -2.463 -14.374  1.00  0.00     0.074 A 
ATOM     29  C   UNL     1       8.735  -4.147 -13.518  1.00  0.00     0.029 A 
ATOM     30  N   UNL     1       6.791  -3.067 -13.518  1.00  0.00    -0.354 N 
ATOM     31  N   UNL     1       3.940  -2.730 -14.139  1.00  0.00    -0.248 NA
ATOM     32  C   UNL     1       1.995  -3.452 -15.216  1.00  0.00     0.031 C 
ATOM     33  C   UNL     1       7.820  -4.883 -14.278  1.00  0.00     0.029 A 
ATOM     34  C   UNL     1       6.603  -4.223 -14.257  1.00  0.00     0.049 A 
ATOM     35  H   UNL     1       6.097  -2.393 -13.337  1.00  0.00     0.167 HD
ATOM     36  C   UNL     1       4.199  -3.926 -14.791  1.00  0.00     0.074 A 
ATOM     37  C   UNL     1       2.957  -4.343 -15.411  1.00  0.00     0.031 C 
ATOM     38  C   UNL     1       5.361  -4.617 -14.871  1.00  0.00     0.031 A 
BRANCH  25  39
ATOM     39  C   UNL     1      10.111  -1.968 -11.944  1.00  0.00    -0.014 A 
ATOM     40  C   UNL     1      10.541  -2.236 -10.635  1.00  0.00     0.009 A 
ATOM     41  C   UNL     1      11.073  -1.802 -12.953  1.00  0.00     0.009 A 
ATOM     42  C   UNL     1      11.905  -2.312 -10.340  1.00  0.00     0.001 A 
ATOM     43  C   UNL     1      12.435  -1.904 -12.661  1.00  0.00     0.001 A 
ATOM     44  C   UNL     1      12.850  -2.152 -11.353  1.00  0.00     0.000 A 
ENDBRANCH  25  39
BRANCH  26  45
ATOM     45  C   UNL     1       0.421  -1.178 -14.258  1.00  0.00    -0.014 A 
ATOM     46  C   UNL     1      -0.531  -2.049 -13.709  1.00  0.00     0.009 A 
ATOM     47  C   UNL     1      -0.005  -0.175 -15.143  1.00  0.00     0.009 A 
ATOM     48  C   UNL     1      -1.878  -1.931 -14.056  1.00  0.00     0.001 A 
ATOM     49  C   UNL     1      -1.356  -0.040 -15.464  1.00  0.00     0.001 A 
ATOM     50  C   UNL     1      -2.290  -0.924 -14.928  1.00  0.00     0.000 A 
ENDBRANCH  26  45
BRANCH  38  51
ATOM     51  C   UNL     1       5.330  -5.909 -15.635  1.00  0.00    -0.014 A 
ATOM     52  C   UNL     1       5.249  -5.924 -17.036  1.00  0.00     0.009 A 
ATOM     53  C   UNL     1       5.404  -7.127 -14.942  1.00  0.00     0.009 A 
ATOM     54  C   UNL     1       5.208  -7.136 -17.726  1.00  0.00     0.001 A 
ATOM     55  C   UNL     1       5.390  -8.337 -15.636  1.00  0.00     0.001 A 
ATOM     56  C   UNL     1       5.283  -8.341 -17.026  1.00  0.00     0.000 A 
ENDBRANCH  38  51
ENDBRANCH  12  13
ENDBRANCH   5   7
ENDBRANCH   2   3
ENDBRANCH   1   2
BRANCH   1  57
ATOM     57  C   UNL     1       5.690   6.522  -4.266  1.00  0.00     0.117 C 
BRANCH  57  58
ATOM     58  N   UNL     1       4.718   5.870  -3.416  1.00  0.00    -0.354 N 
ATOM     59  C   UNL     1       4.812   5.474  -2.122  1.00  0.00     0.242 C 
ATOM     60  H   UNL     1       3.851   5.683  -3.845  1.00  0.00     0.163 HD
ATOM     61  O   UNL     1       3.941   4.702  -1.707  1.00  0.00    -0.273 OA
BRANCH  59  62
ATOM     62  C   UNL     1       6.012   5.825  -1.243  1.00  0.00     0.175 C 
ATOM     63  C   UNL     1       7.107   4.787  -1.586  1.00  0.00     0.044 C 
ATOM     64  N   UNL     1       6.698   7.109  -1.311  1.00  0.00    -0.330 N 
ATOM     65  C   UNL     1       8.476   5.487  -1.453  1.00  0.00    -0.006 C 
ATOM     66  C   UNL     1       8.116   6.916  -1.037  1.00  0.00     0.127 C 
ATOM     67  C   UNL     1       9.276   5.527  -2.781  1.00  0.00     0.030 C 
ATOM     68  C   UNL     1       9.345   4.785  -0.387  1.00  0.00     0.030 C 
ATOM     69  C   UNL     1       9.808   4.162  -3.210  1.00  0.00     0.120 C 
ATOM     70  C   UNL     1       9.844   3.416  -0.857  1.00  0.00     0.120 C 
ATOM     71  N   UNL     1      10.553   3.526  -2.127  1.00  0.00    -0.339 N 
ATOM     72  C   UNL     1      11.749   2.824  -2.279  1.00  0.00     0.253 C 
ATOM     73  O   UNL     1      12.184   2.040  -1.439  1.00  0.00    -0.269 OA
BRANCH  64  74
ATOM     74  C   UNL     1       6.222   8.401  -1.100  1.00  0.00     0.226 C 
ATOM     75  O   UNL     1       7.025   9.304  -0.853  1.00  0.00    -0.275 OA
BRANCH  74  76
ATOM     76  C   UNL     1       4.805   8.849  -1.193  1.00  0.00     0.079 C 
ATOM     77  C   UNL     1       3.483   8.201  -1.452  1.00  0.00     0.014 C 
ATOM     78  C   UNL     1       3.871   8.528  -0.046  1.00  0.00     0.014 C 
ENDBRANCH  74  76
ENDBRANCH  64  74
BRANCH  72  79
ATOM     79  C   UNL     1      12.567   3.035  -3.492  1.00  0.00     0.043 A 
ATOM     80  C   UNL     1      13.045   4.313  -3.811  1.00  0.00     0.014 A 
ATOM     81  C   UNL     1      12.943   1.929  -4.258  1.00  0.00     0.060 A 
ATOM     82  C   UNL     1      13.869   4.486  -4.925  1.00  0.00     0.005 A 
ATOM     83  C   UNL     1      13.767   2.116  -5.361  1.00  0.00     0.116 A 
ATOM     84  C   UNL     1      14.229   3.384  -5.705  1.00  0.00     0.046 A 
BRANCH  83  85
ATOM     85  O   UNL     1      14.113   1.015  -6.089  1.00  0.00    -0.508 OA
ATOM     86  H   UNL     1      14.667   1.105  -6.839  1.00  0.00     0.293 HD
ENDBRANCH  83  85
ENDBRANCH  72  79
ENDBRANCH  59  62
ENDBRANCH  57  58
ENDBRANCH   1  57
TORSDOF 14
