REMARK SMILES COc1cc([N+](=O)[O-])cc([C@H]2[NH2+][C@H](C(=O)NCCCNC(=O)c3ccc(-c4c5nc(c(-c6ccccc6)c6ccc([nH]6)c(-c6ccccc6)c6nc(c(-c7ccccc7)c7ccc4[nH]7)C=C6)C=C5)cc3)CS2)c1O
REMARK SMILES IDX 18 1 17 2 16 3 14 4 15 5 13 7 11 8 12 9 72 10 71 13 10 14
REMARK SMILES IDX 3 15 4 16 73 17 5 18 9 19 2 20 1 21 74 22 6 24 7 25 8 26
REMARK SMILES IDX 19 27 20 28 21 29 22 31 23 32 24 33 70 34 25 35 69 36 26 37
REMARK SMILES IDX 27 38 28 39 63 40 29 41 68 42 62 43 64 44 30 45 67 46 61 47
REMARK SMILES IDX 60 48 31 50 53 51 38 52 52 53 39 54 42 55 51 56 65 57 40 58
REMARK SMILES IDX 41 59 50 61 66 62 43 63 32 64 33 65 37 66 34 67 36 68 35 69
REMARK SMILES IDX 54 70 55 71 59 72 56 73 58 74 57 75 44 76 45 77 49 78 46 79
REMARK SMILES IDX 48 80 47 81
REMARK H PARENT 16 6 12 11 12 12 74 23 20 30 64 49 42 60
REMARK Flexibility Score: inf
ROOT
ATOM      1  C   UNL     1       2.166  -2.906   0.341  1.00  0.00     0.042 C 
ENDROOT
BRANCH   1   2
ATOM      2  C   UNL     1       2.487  -1.490  -0.126  1.00  0.00     0.118 C 
BRANCH   2   3
ATOM      3  N   UNL     1       3.156  -0.694   0.882  1.00  0.00    -0.351 N 
ATOM      4  C   UNL     1       4.480  -0.442   1.083  1.00  0.00     0.279 C 
ATOM      5  O   UNL     1       4.774   0.306   2.021  1.00  0.00    -0.268 OA
ATOM      6  H   UNL     1       2.554  -0.264   1.532  1.00  0.00     0.163 HD
BRANCH   4   7
ATOM      7  C   UNL     1       5.584  -1.022   0.185  1.00  0.00     0.283 C 
ATOM      8  C   UNL     1       5.532  -3.040  -1.170  1.00  0.00     0.278 C 
ATOM      9  N   UNL     1       5.566  -2.513   0.201  1.00  0.00    -0.320 N 
ATOM     10  S   UNL     1       6.327  -1.779  -2.190  1.00  0.00    -0.087 SA
ATOM     11  H   UNL     1       6.404  -2.854   0.671  1.00  0.00     0.348 HD
ATOM     12  H   UNL     1       4.732  -2.829   0.697  1.00  0.00     0.348 HD
ATOM     13  C   UNL     1       5.606  -0.439  -1.220  1.00  0.00     0.151 C 
BRANCH   8  14
ATOM     14  C   UNL     1       6.056  -4.472  -1.285  1.00  0.00     0.073 A 
ATOM     15  C   UNL     1       6.879  -6.423  -2.549  1.00  0.00     0.167 A 
ATOM     16  C   UNL     1       6.751  -7.224  -1.411  1.00  0.00     0.136 A 
ATOM     17  C   UNL     1       6.519  -5.059  -2.487  1.00  0.00     0.168 A 
ATOM     18  C   UNL     1       6.260  -6.681  -0.228  1.00  0.00     0.273 A 
ATOM     19  C   UNL     1       5.909  -5.327  -0.164  1.00  0.00     0.100 A 
BRANCH  15  20
ATOM     20  O   UNL     1       7.344  -7.134  -3.623  1.00  0.00    -0.493 OA
ATOM     21  C   UNL     1       7.638  -6.449  -4.831  1.00  0.00     0.278 C 
ENDBRANCH  15  20
BRANCH  17  22
ATOM     22  O   UNL     1       6.581  -4.322  -3.638  1.00  0.00    -0.504 OA
ATOM     23  H   UNL     1       6.888  -4.716  -4.431  1.00  0.00     0.293 HD
ENDBRANCH  17  22
BRANCH  18  24
ATOM     24  N   UNL     1       6.080  -7.539   0.950  1.00  0.00     0.062 N 
ATOM     25  O   UNL     1       6.492  -8.705   0.886  1.00  0.00    -0.258 OA
ATOM     26  O   UNL     1       5.520  -7.045   1.940  1.00  0.00    -0.258 OA
ENDBRANCH  18  24
ENDBRANCH   8  14
ENDBRANCH   4   7
ENDBRANCH   2   3
ENDBRANCH   1   2
BRANCH   1  27
ATOM     27  C   UNL     1       1.027  -2.981   1.352  1.00  0.00     0.118 C 
BRANCH  27  28
ATOM     28  N   UNL     1      -0.242  -2.554   0.784  1.00  0.00    -0.352 N 
ATOM     29  C   UNL     1      -1.443  -3.207   0.679  1.00  0.00     0.251 C 
ATOM     30  H   UNL     1      -0.238  -1.643   0.412  1.00  0.00     0.163 HD
ATOM     31  O   UNL     1      -2.320  -2.720  -0.031  1.00  0.00    -0.269 OA
BRANCH  29  32
ATOM     32  C   UNL     1      -1.707  -4.472   1.401  1.00  0.00     0.039 A 
ATOM     33  C   UNL     1      -2.545  -5.417   0.797  1.00  0.00     0.014 A 
ATOM     34  C   UNL     1      -1.225  -4.702   2.693  1.00  0.00     0.014 A 
ATOM     35  C   UNL     1      -2.882  -6.589   1.477  1.00  0.00     0.010 A 
ATOM     36  C   UNL     1      -1.499  -5.905   3.340  1.00  0.00     0.010 A 
ATOM     37  C   UNL     1      -2.355  -6.846   2.751  1.00  0.00    -0.014 A 
BRANCH  37  38
ATOM     38  C   UNL     1      -2.742  -8.066   3.499  1.00  0.00     0.031 A 
ATOM     39  C   UNL     1      -3.569  -7.955   4.752  1.00  0.00     0.074 A 
ATOM     40  C   UNL     1      -2.338  -9.274   3.065  1.00  0.00     0.049 A 
ATOM     41  N   UNL     1      -4.023  -8.905   5.530  1.00  0.00    -0.248 NA
ATOM     42  C   UNL     1      -3.912  -6.596   5.200  1.00  0.00     0.031 C 
ATOM     43  C   UNL     1      -1.507  -9.515   1.884  1.00  0.00     0.029 A 
ATOM     44  N   UNL     1      -2.583 -10.527   3.565  1.00  0.00    -0.354 N 
ATOM     45  C   UNL     1      -4.688  -8.258   6.565  1.00  0.00     0.074 A 
ATOM     46  C   UNL     1      -4.533  -6.837   6.344  1.00  0.00     0.031 C 
ATOM     47  C   UNL     1      -1.349 -10.839   1.725  1.00  0.00     0.029 A 
ATOM     48  C   UNL     1      -2.041 -11.535   2.805  1.00  0.00     0.049 A 
ATOM     49  H   UNL     1      -3.097 -10.689   4.389  1.00  0.00     0.167 HD
ATOM     50  C   UNL     1      -5.384  -8.794   7.596  1.00  0.00     0.031 A 
ATOM     51  C   UNL     1      -2.111 -12.870   2.954  1.00  0.00     0.031 A 
ATOM     52  C   UNL     1      -5.548 -10.206   7.814  1.00  0.00     0.049 A 
ATOM     53  C   UNL     1      -2.894 -13.444   4.099  1.00  0.00     0.074 A 
ATOM     54  C   UNL     1      -6.267 -10.852   8.805  1.00  0.00     0.029 A 
ATOM     55  N   UNL     1      -4.984 -11.193   7.021  1.00  0.00    -0.354 N 
ATOM     56  N   UNL     1      -3.563 -12.821   5.039  1.00  0.00    -0.248 NA
ATOM     57  C   UNL     1      -2.946 -14.910   4.191  1.00  0.00     0.031 C 
ATOM     58  C   UNL     1      -6.109 -12.232   8.630  1.00  0.00     0.029 A 
ATOM     59  C   UNL     1      -5.330 -12.444   7.504  1.00  0.00     0.049 A 
ATOM     60  H   UNL     1      -4.420 -11.029   6.230  1.00  0.00     0.167 HD
ATOM     61  C   UNL     1      -4.142 -13.817   5.814  1.00  0.00     0.074 A 
ATOM     62  C   UNL     1      -3.752 -15.084   5.229  1.00  0.00     0.031 C 
ATOM     63  C   UNL     1      -4.932 -13.693   6.909  1.00  0.00     0.031 A 
BRANCH  50  64
ATOM     64  C   UNL     1      -6.010  -7.832   8.568  1.00  0.00    -0.014 A 
ATOM     65  C   UNL     1      -7.106  -7.035   8.197  1.00  0.00     0.009 A 
ATOM     66  C   UNL     1      -5.492  -7.712   9.866  1.00  0.00     0.009 A 
ATOM     67  C   UNL     1      -7.637  -6.102   9.090  1.00  0.00     0.001 A 
ATOM     68  C   UNL     1      -6.044  -6.799  10.767  1.00  0.00     0.001 A 
ATOM     69  C   UNL     1      -7.107  -5.986  10.374  1.00  0.00     0.000 A 
ENDBRANCH  50  64
BRANCH  51  70
ATOM     70  C   UNL     1      -1.473 -13.757   1.949  1.00  0.00    -0.014 A 
ATOM     71  C   UNL     1      -2.264 -14.445   1.016  1.00  0.00     0.009 A 
ATOM     72  C   UNL     1      -0.080 -13.907   1.903  1.00  0.00     0.009 A 
ATOM     73  C   UNL     1      -1.673 -15.281   0.067  1.00  0.00     0.001 A 
ATOM     74  C   UNL     1       0.511 -14.727   0.939  1.00  0.00     0.001 A 
ATOM     75  C   UNL     1      -0.286 -15.417   0.026  1.00  0.00     0.000 A 
ENDBRANCH  51  70
BRANCH  63  76
ATOM     76  C   UNL     1      -5.458 -14.962   7.515  1.00  0.00    -0.014 A 
ATOM     77  C   UNL     1      -4.627 -15.820   8.252  1.00  0.00     0.009 A 
ATOM     78  C   UNL     1      -6.814 -15.292   7.360  1.00  0.00     0.009 A 
ATOM     79  C   UNL     1      -5.136 -17.003   8.790  1.00  0.00     0.001 A 
ATOM     80  C   UNL     1      -7.325 -16.463   7.921  1.00  0.00     0.001 A 
ATOM     81  C   UNL     1      -6.484 -17.322   8.626  1.00  0.00     0.000 A 
ENDBRANCH  63  76
ENDBRANCH  37  38
ENDBRANCH  29  32
ENDBRANCH  27  28
ENDBRANCH   1  27
TORSDOF 14
