REMARK SMILES CCCCCC[C@@H](C)N1C[C@H](C(=O)NCCCNC(=O)c2ccc(-c3c4nc(c(-c5ccccc5)c5ccc([nH]5)c(-c5ccccc5)c5nc(c(-c6ccccc6)c6ccc3[nH]6)C=C5)C=C4)cc2)CC1=O
REMARK SMILES IDX 12 1 13 2 14 3 11 5 9 6 10 7 70 8 69 9 71 10 7 11 8 12 6 13
REMARK SMILES IDX 5 14 4 15 3 16 2 17 1 18 15 19 16 20 17 21 18 22 19 23 20 25
REMARK SMILES IDX 21 26 22 27 68 28 23 29 67 30 24 31 25 32 26 33 61 34 27 35
REMARK SMILES IDX 66 36 60 37 62 38 28 39 65 40 59 41 58 42 29 44 51 45 36 46
REMARK SMILES IDX 50 47 37 48 40 49 49 50 63 51 38 52 39 53 48 55 64 56 41 57
REMARK SMILES IDX 30 58 31 59 35 60 32 61 34 62 33 63 52 64 53 65 57 66 54 67
REMARK SMILES IDX 56 68 55 69 42 70 43 71 47 72 44 73 46 74 45 75
REMARK H PARENT 14 4 18 24 62 43 40 54
REMARK Flexibility Score: inf
ROOT
ATOM      1  C   UNL     1      -2.471  -6.513   3.653  1.00  0.00     0.225 C 
ATOM      2  O   UNL     1      -2.259  -5.994   2.558  1.00  0.00    -0.275 OA
ATOM      3  N   UNL     1      -3.402  -7.508   3.701  1.00  0.00    -0.356 N 
ATOM      4  H   UNL     1      -3.823  -7.720   2.837  1.00  0.00     0.163 HD
ENDROOT
BRANCH   1   5
ATOM      5  C   UNL     1      -1.680  -6.148   4.904  1.00  0.00     0.107 C 
ATOM      6  N   UNL     1      -1.415  -3.817   5.059  1.00  0.00    -0.339 N 
ATOM      7  C   UNL     1      -0.699  -5.007   4.649  1.00  0.00     0.133 C 
ATOM      8  C   UNL     1      -2.563  -4.121   5.765  1.00  0.00     0.223 C 
ATOM      9  C   UNL     1      -2.544  -5.598   6.030  1.00  0.00     0.115 C 
ATOM     10  O   UNL     1      -3.421  -3.361   6.183  1.00  0.00    -0.275 OA
BRANCH   6  11
ATOM     11  C   UNL     1      -0.953  -2.480   4.686  1.00  0.00     0.082 C 
ATOM     12  C   UNL     1      -1.247  -1.438   5.771  1.00  0.00     0.031 C 
BRANCH  11  13
ATOM     13  C   UNL     1      -1.510  -2.063   3.313  1.00  0.00     0.025 C 
BRANCH  13  14
ATOM     14  C   UNL     1      -0.957  -0.732   2.784  1.00  0.00     0.002 C 
BRANCH  14  15
ATOM     15  C   UNL     1       0.571  -0.670   2.662  1.00  0.00     0.000 C 
BRANCH  15  16
ATOM     16  C   UNL     1       1.179  -1.654   1.658  1.00  0.00    -0.000 C 
BRANCH  16  17
ATOM     17  C   UNL     1       0.748  -1.442   0.205  1.00  0.00    -0.003 C 
ATOM     18  C   UNL     1       1.118  -0.069  -0.337  1.00  0.00     0.004 C 
ENDBRANCH  16  17
ENDBRANCH  15  16
ENDBRANCH  14  15
ENDBRANCH  13  14
ENDBRANCH  11  13
ENDBRANCH   6  11
ENDBRANCH   1   5
BRANCH   3  19
ATOM     19  C   UNL     1      -3.873  -8.306   4.818  1.00  0.00     0.117 C 
BRANCH  19  20
ATOM     20  C   UNL     1      -5.278  -7.894   5.258  1.00  0.00     0.042 C 
BRANCH  20  21
ATOM     21  C   UNL     1      -6.356  -8.141   4.212  1.00  0.00     0.118 C 
BRANCH  21  22
ATOM     22  N   UNL     1      -6.559  -9.555   3.949  1.00  0.00    -0.352 N 
ATOM     23  C   UNL     1      -7.678 -10.331   4.113  1.00  0.00     0.251 C 
ATOM     24  H   UNL     1      -5.771 -10.030   3.598  1.00  0.00     0.163 HD
ATOM     25  O   UNL     1      -7.581 -11.553   4.035  1.00  0.00    -0.269 OA
BRANCH  23  26
ATOM     26  C   UNL     1      -8.993  -9.714   4.397  1.00  0.00     0.039 A 
ATOM     27  C   UNL     1      -9.849 -10.351   5.300  1.00  0.00     0.014 A 
ATOM     28  C   UNL     1      -9.406  -8.544   3.755  1.00  0.00     0.014 A 
ATOM     29  C   UNL     1     -11.094  -9.790   5.593  1.00  0.00     0.010 A 
ATOM     30  C   UNL     1     -10.608  -7.939   4.114  1.00  0.00     0.010 A 
ATOM     31  C   UNL     1     -11.472  -8.562   5.025  1.00  0.00    -0.014 A 
BRANCH  31  32
ATOM     32  C   UNL     1     -12.771  -7.929   5.369  1.00  0.00     0.031 A 
ATOM     33  C   UNL     1     -13.819  -7.715   4.310  1.00  0.00     0.074 A 
ATOM     34  C   UNL     1     -12.993  -7.507   6.629  1.00  0.00     0.049 A 
ATOM     35  N   UNL     1     -15.002  -7.164   4.419  1.00  0.00    -0.248 NA
ATOM     36  C   UNL     1     -13.489  -8.158   2.946  1.00  0.00     0.031 C 
ATOM     37  C   UNL     1     -12.044  -7.617   7.739  1.00  0.00     0.029 A 
ATOM     38  N   UNL     1     -14.089  -6.899   7.188  1.00  0.00    -0.354 N 
ATOM     39  C   UNL     1     -15.546  -7.179   3.140  1.00  0.00     0.074 A 
ATOM     40  C   UNL     1     -14.546  -7.745   2.263  1.00  0.00     0.031 C 
ATOM     41  C   UNL     1     -12.612  -7.126   8.852  1.00  0.00     0.029 A 
ATOM     42  C   UNL     1     -13.943  -6.626   8.527  1.00  0.00     0.049 A 
ATOM     43  H   UNL     1     -14.902  -6.678   6.679  1.00  0.00     0.167 HD
ATOM     44  C   UNL     1     -16.775  -6.779   2.735  1.00  0.00     0.031 A 
ATOM     45  C   UNL     1     -14.785  -6.035   9.396  1.00  0.00     0.031 A 
ATOM     46  C   UNL     1     -17.772  -6.218   3.608  1.00  0.00     0.049 A 
ATOM     47  C   UNL     1     -16.136  -5.582   8.917  1.00  0.00     0.074 A 
ATOM     48  C   UNL     1     -19.066  -5.832   3.303  1.00  0.00     0.029 A 
ATOM     49  N   UNL     1     -17.584  -5.958   4.957  1.00  0.00    -0.354 N 
ATOM     50  N   UNL     1     -16.663  -5.673   7.720  1.00  0.00    -0.248 NA
ATOM     51  C   UNL     1     -17.014  -4.958   9.916  1.00  0.00     0.031 C 
ATOM     52  C   UNL     1     -19.640  -5.280   4.453  1.00  0.00     0.029 A 
ATOM     53  C   UNL     1     -18.729  -5.389   5.491  1.00  0.00     0.049 A 
ATOM     54  H   UNL     1     -16.760  -6.148   5.460  1.00  0.00     0.167 HD
ATOM     55  C   UNL     1     -17.944  -5.148   7.829  1.00  0.00     0.074 A 
ATOM     56  C   UNL     1     -18.120  -4.759   9.213  1.00  0.00     0.031 C 
ATOM     57  C   UNL     1     -18.891  -5.003   6.870  1.00  0.00     0.031 A 
BRANCH  44  58
ATOM     58  C   UNL     1     -17.105  -6.921   1.273  1.00  0.00    -0.014 A 
ATOM     59  C   UNL     1     -17.267  -8.183   0.679  1.00  0.00     0.009 A 
ATOM     60  C   UNL     1     -17.292  -5.774   0.485  1.00  0.00     0.009 A 
ATOM     61  C   UNL     1     -17.571  -8.293  -0.680  1.00  0.00     0.001 A 
ATOM     62  C   UNL     1     -17.628  -5.887  -0.865  1.00  0.00     0.001 A 
ATOM     63  C   UNL     1     -17.757  -7.146  -1.449  1.00  0.00     0.000 A 
ENDBRANCH  44  58
BRANCH  45  64
ATOM     64  C   UNL     1     -14.381  -5.849  10.815  1.00  0.00    -0.014 A 
ATOM     65  C   UNL     1     -15.011  -6.573  11.839  1.00  0.00     0.009 A 
ATOM     66  C   UNL     1     -13.368  -4.938  11.155  1.00  0.00     0.009 A 
ATOM     67  C   UNL     1     -14.658  -6.364  13.175  1.00  0.00     0.001 A 
ATOM     68  C   UNL     1     -12.994  -4.756  12.488  1.00  0.00     0.001 A 
ATOM     69  C   UNL     1     -13.647  -5.461  13.497  1.00  0.00     0.000 A 
ENDBRANCH  45  64
BRANCH  57  70
ATOM     70  C   UNL     1     -20.219  -4.438   7.294  1.00  0.00    -0.014 A 
ATOM     71  C   UNL     1     -20.359  -3.093   7.672  1.00  0.00     0.009 A 
ATOM     72  C   UNL     1     -21.355  -5.263   7.287  1.00  0.00     0.009 A 
ATOM     73  C   UNL     1     -21.602  -2.599   8.075  1.00  0.00     0.001 A 
ATOM     74  C   UNL     1     -22.602  -4.757   7.656  1.00  0.00     0.001 A 
ATOM     75  C   UNL     1     -22.722  -3.429   8.062  1.00  0.00     0.000 A 
ENDBRANCH  57  70
ENDBRANCH  31  32
ENDBRANCH  23  26
ENDBRANCH  21  22
ENDBRANCH  20  21
ENDBRANCH  19  20
ENDBRANCH   3  19
TORSDOF 16
