REMARK SMILES O=C(CC1(CC(=O)NNc2ccc([N+](=O)[O-])cc2)CCCC1)NCCCNC(=O)c1ccc(-c2c3nc(c(-c4ccccc4)c4ccc([nH]4)c(-c4ccccc4)c4nc(c(-c5ccccc5)c5ccc2[nH]5)C=C4)C=C3)cc1
REMARK SMILES IDX 1 1 2 2 23 3 3 5 4 6 19 7 22 8 20 9 21 10 5 11 6 12 7 13
REMARK SMILES IDX 8 14 9 16 10 18 11 19 18 20 12 21 17 22 13 23 14 24 15 25
REMARK SMILES IDX 16 26 24 27 25 28 26 29 27 30 28 31 29 33 30 34 31 35 77 36
REMARK SMILES IDX 32 37 76 38 33 39 34 40 35 41 70 42 36 43 75 44 69 45 71 46
REMARK SMILES IDX 37 47 74 48 68 49 67 50 38 52 60 53 45 54 59 55 46 56 49 57
REMARK SMILES IDX 58 58 72 59 47 60 48 61 57 63 73 64 50 65 39 66 40 67 44 68
REMARK SMILES IDX 41 69 43 70 42 71 61 72 62 73 66 74 63 75 65 76 64 77 51 78
REMARK SMILES IDX 52 79 56 80 53 81 55 82 54 83
REMARK H PARENT 23 4 8 15 9 17 27 32 71 51 49 62
REMARK Flexibility Score: inf
ROOT
ATOM      1  O   UNL     1       1.144  -0.584  -0.862  1.00  0.00    -0.275 OA
ATOM      2  C   UNL     1       2.236  -0.325  -0.363  1.00  0.00     0.220 C 
ATOM      3  N   UNL     1       2.854  -1.143   0.546  1.00  0.00    -0.356 N 
ATOM      4  H   UNL     1       3.811  -1.010   0.737  1.00  0.00     0.163 HD
ENDROOT
BRANCH   2   5
ATOM      5  C   UNL     1       3.025   0.899  -0.797  1.00  0.00     0.107 C 
BRANCH   5   6
ATOM      6  C   UNL     1       3.887   1.676   0.233  1.00  0.00    -0.012 C 
ATOM      7  C   UNL     1       5.337   1.133   0.323  1.00  0.00     0.008 C 
ATOM      8  C   UNL     1       4.202   3.068  -0.364  1.00  0.00     0.008 C 
ATOM      9  C   UNL     1       6.187   2.314   0.801  1.00  0.00     0.001 C 
ATOM     10  C   UNL     1       5.430   3.571   0.384  1.00  0.00     0.001 C 
BRANCH   6  11
ATOM     11  C   UNL     1       3.285   1.756   1.667  1.00  0.00     0.109 C 
BRANCH  11  12
ATOM     12  C   UNL     1       1.819   2.147   1.779  1.00  0.00     0.238 C 
ATOM     13  O   UNL     1       0.933   1.295   1.825  1.00  0.00    -0.273 OA
ATOM     14  N   UNL     1       1.491   3.474   1.880  1.00  0.00    -0.270 N 
ATOM     15  H   UNL     1       0.540   3.728   1.895  1.00  0.00     0.191 HD
BRANCH  14  16
ATOM     16  N   UNL     1       2.447   4.469   1.961  1.00  0.00    -0.299 N 
ATOM     17  H   UNL     1       3.384   4.273   2.194  1.00  0.00     0.188 HD
BRANCH  16  18
ATOM     18  C   UNL     1       2.009   5.774   1.693  1.00  0.00     0.055 A 
ATOM     19  C   UNL     1       2.732   6.552   0.779  1.00  0.00     0.034 A 
ATOM     20  C   UNL     1       1.005   6.380   2.458  1.00  0.00     0.034 A 
ATOM     21  C   UNL     1       2.445   7.907   0.603  1.00  0.00     0.088 A 
ATOM     22  C   UNL     1       0.714   7.739   2.301  1.00  0.00     0.088 A 
ATOM     23  C   UNL     1       1.443   8.499   1.378  1.00  0.00     0.269 A 
BRANCH  23  24
ATOM     24  N   UNL     1       1.186   9.938   1.252  1.00  0.00     0.062 N 
ATOM     25  O   UNL     1       1.853  10.573   0.423  1.00  0.00    -0.258 OA
ATOM     26  O   UNL     1       0.326  10.436   1.993  1.00  0.00    -0.258 OA
ENDBRANCH  23  24
ENDBRANCH  16  18
ENDBRANCH  14  16
ENDBRANCH  11  12
ENDBRANCH   6  11
ENDBRANCH   5   6
ENDBRANCH   2   5
BRANCH   3  27
ATOM     27  C   UNL     1       2.138  -2.196   1.233  1.00  0.00     0.117 C 
BRANCH  27  28
ATOM     28  C   UNL     1       2.448  -3.574   0.671  1.00  0.00     0.042 C 
BRANCH  28  29
ATOM     29  C   UNL     1       3.928  -3.936   0.695  1.00  0.00     0.118 C 
BRANCH  29  30
ATOM     30  N   UNL     1       4.486  -4.016   2.039  1.00  0.00    -0.352 N 
ATOM     31  C   UNL     1       5.147  -5.049   2.662  1.00  0.00     0.251 C 
ATOM     32  H   UNL     1       4.372  -3.205   2.585  1.00  0.00     0.163 HD
ATOM     33  O   UNL     1       5.442  -4.963   3.845  1.00  0.00    -0.269 OA
BRANCH  31  34
ATOM     34  C   UNL     1       5.466  -6.283   1.910  1.00  0.00     0.039 A 
ATOM     35  C   UNL     1       5.169  -7.517   2.494  1.00  0.00     0.014 A 
ATOM     36  C   UNL     1       6.033  -6.227   0.635  1.00  0.00     0.014 A 
ATOM     37  C   UNL     1       5.353  -8.692   1.760  1.00  0.00     0.010 A 
ATOM     38  C   UNL     1       6.147  -7.391  -0.122  1.00  0.00     0.010 A 
ATOM     39  C   UNL     1       5.794  -8.633   0.428  1.00  0.00    -0.014 A 
BRANCH  39  40
ATOM     40  C   UNL     1       5.848  -9.851  -0.421  1.00  0.00     0.031 A 
ATOM     41  C   UNL     1       7.158 -10.343  -0.968  1.00  0.00     0.074 A 
ATOM     42  C   UNL     1       4.701 -10.470  -0.765  1.00  0.00     0.049 A 
ATOM     43  N   UNL     1       7.388 -11.337  -1.789  1.00  0.00    -0.248 NA
ATOM     44  C   UNL     1       8.366  -9.611  -0.555  1.00  0.00     0.031 C 
ATOM     45  C   UNL     1       3.359 -10.074  -0.331  1.00  0.00     0.029 A 
ATOM     46  N   UNL     1       4.480 -11.560  -1.570  1.00  0.00    -0.354 N 
ATOM     47  C   UNL     1       8.760 -11.341  -2.002  1.00  0.00     0.074 A 
ATOM     48  C   UNL     1       9.306 -10.225  -1.260  1.00  0.00     0.031 C 
ATOM     49  C   UNL     1       2.460 -10.921  -0.856  1.00  0.00     0.029 A 
ATOM     50  C   UNL     1       3.152 -11.888  -1.701  1.00  0.00     0.049 A 
ATOM     51  H   UNL     1       5.205 -12.059  -2.013  1.00  0.00     0.167 HD
ATOM     52  C   UNL     1       9.502 -12.204  -2.736  1.00  0.00     0.031 A 
ATOM     53  C   UNL     1       2.555 -12.849  -2.431  1.00  0.00     0.031 A 
ATOM     54  C   UNL     1       8.961 -13.315  -3.475  1.00  0.00     0.049 A 
ATOM     55  C   UNL     1       3.398 -13.768  -3.269  1.00  0.00     0.074 A 
ATOM     56  C   UNL     1       9.640 -14.277  -4.204  1.00  0.00     0.029 A 
ATOM     57  N   UNL     1       7.611 -13.608  -3.587  1.00  0.00    -0.354 N 
ATOM     58  N   UNL     1       4.701 -13.801  -3.405  1.00  0.00    -0.248 NA
ATOM     59  C   UNL     1       2.684 -14.788  -4.052  1.00  0.00     0.031 C 
ATOM     60  C   UNL     1       8.697 -15.116  -4.806  1.00  0.00     0.029 A 
ATOM     61  C   UNL     1       7.434 -14.715  -4.402  1.00  0.00     0.049 A 
ATOM     62  H   UNL     1       6.885 -13.104  -3.153  1.00  0.00     0.167 HD
ATOM     63  C   UNL     1       4.965 -14.856  -4.268  1.00  0.00     0.074 A 
ATOM     64  C   UNL     1       3.689 -15.451  -4.608  1.00  0.00     0.031 C 
ATOM     65  C   UNL     1       6.159 -15.292  -4.739  1.00  0.00     0.031 A 
BRANCH  52  66
ATOM     66  C   UNL     1      10.987 -11.971  -2.788  1.00  0.00    -0.014 A 
ATOM     67  C   UNL     1      11.798 -12.191  -1.663  1.00  0.00     0.009 A 
ATOM     68  C   UNL     1      11.588 -11.564  -3.988  1.00  0.00     0.009 A 
ATOM     69  C   UNL     1      13.175 -11.973  -1.730  1.00  0.00     0.001 A 
ATOM     70  C   UNL     1      12.970 -11.376  -4.061  1.00  0.00     0.001 A 
ATOM     71  C   UNL     1      13.761 -11.571  -2.930  1.00  0.00     0.000 A 
ENDBRANCH  52  66
BRANCH  53  72
ATOM     72  C   UNL     1       1.075 -12.992  -2.407  1.00  0.00    -0.014 A 
ATOM     73  C   UNL     1       0.477 -14.103  -1.792  1.00  0.00     0.009 A 
ATOM     74  C   UNL     1       0.253 -12.025  -3.007  1.00  0.00     0.009 A 
ATOM     75  C   UNL     1      -0.911 -14.256  -1.804  1.00  0.00     0.001 A 
ATOM     76  C   UNL     1      -1.136 -12.166  -2.990  1.00  0.00     0.001 A 
ATOM     77  C   UNL     1      -1.716 -13.286  -2.398  1.00  0.00     0.000 A 
ENDBRANCH  53  72
BRANCH  65  78
ATOM     78  C   UNL     1       6.143 -16.486  -5.652  1.00  0.00    -0.014 A 
ATOM     79  C   UNL     1       5.663 -16.391  -6.968  1.00  0.00     0.009 A 
ATOM     80  C   UNL     1       6.648 -17.715  -5.200  1.00  0.00     0.009 A 
ATOM     81  C   UNL     1       5.660 -17.511  -7.801  1.00  0.00     0.001 A 
ATOM     82  C   UNL     1       6.672 -18.826  -6.045  1.00  0.00     0.001 A 
ATOM     83  C   UNL     1       6.169 -18.725  -7.341  1.00  0.00     0.000 A 
ENDBRANCH  65  78
ENDBRANCH  39  40
ENDBRANCH  31  34
ENDBRANCH  29  30
ENDBRANCH  28  29
ENDBRANCH  27  28
ENDBRANCH   3  27
TORSDOF 16
