REMARK SMILES C[N@@H+]1CC[N@H+](Cc2ccc(C#CC(C)(C)O)s2)C[C@H]1C(=O)NCCCNC(=O)c1ccc(-c2c3nc(c(-c4ccccc4)c4ccc([nH]4)c(-c4ccccc4)c4nc(c(-c5ccccc5)c5ccc2[nH]5)C=C4)C=C3)cc1
REMARK SMILES IDX 20 1 21 2 22 3 19 5 1 6 2 7 3 8 4 10 18 11 5 12 6 14 7 15
REMARK SMILES IDX 8 16 17 17 9 18 10 19 11 20 12 21 13 22 14 23 15 24 16 25
REMARK SMILES IDX 23 27 24 28 25 29 26 30 27 31 28 33 29 34 30 35 76 36 31 37
REMARK SMILES IDX 75 38 32 39 33 40 34 41 69 42 35 43 74 44 68 45 70 46 36 47
REMARK SMILES IDX 73 48 67 49 66 50 37 52 59 53 44 54 58 55 45 56 48 57 57 58
REMARK SMILES IDX 71 59 46 60 47 61 56 63 72 64 49 65 38 66 39 67 43 68 40 69
REMARK SMILES IDX 42 70 41 71 60 72 61 73 65 74 62 75 64 76 63 77 50 78 51 79
REMARK SMILES IDX 55 80 52 81 54 82 53 83
REMARK H PARENT 22 4 2 9 5 13 16 26 26 32 70 51 48 62
REMARK Flexibility Score: inf
ROOT
ATOM      1  C   UNL     1       0.866  -2.459  -0.512  1.00  0.00     0.284 C 
ATOM      2  O   UNL     1       1.368  -3.368   0.154  1.00  0.00    -0.268 OA
ATOM      3  N   UNL     1       0.744  -2.636  -1.865  1.00  0.00    -0.351 N 
ATOM      4  H   UNL     1       1.078  -3.493  -2.216  1.00  0.00     0.163 HD
ENDROOT
BRANCH   1   5
ATOM      5  C   UNL     1       0.376  -1.155   0.141  1.00  0.00     0.329 C 
ATOM      6  C   UNL     1       2.469   0.061  -0.100  1.00  0.00     0.333 C 
ATOM      7  N   UNL     1       1.056   0.007  -0.499  1.00  0.00    -0.318 N 
ATOM      8  C   UNL     1       0.389   1.273  -0.183  1.00  0.00     0.325 C 
ATOM      9  H   UNL     1       1.001  -0.127  -1.509  1.00  0.00     0.348 HD
ATOM     10  C   UNL     1      -1.154   1.244  -0.295  1.00  0.00     0.324 C 
ATOM     11  C   UNL     1      -1.185  -1.155   0.123  1.00  0.00     0.339 C 
ATOM     12  N   UNL     1      -1.859   0.133   0.352  1.00  0.00    -0.320 N 
ATOM     13  H   UNL     1      -2.757   0.079  -0.129  1.00  0.00     0.348 HD
BRANCH  12  14
ATOM     14  C   UNL     1      -2.292   0.363   1.738  1.00  0.00     0.310 C 
BRANCH  14  15
ATOM     15  C   UNL     1      -1.177   0.355   2.731  1.00  0.00     0.060 A 
ATOM     16  C   UNL     1      -0.326   1.381   3.093  1.00  0.00     0.022 A 
ATOM     17  S   UNL     1      -0.798  -1.082   3.588  1.00  0.00    -0.126 S 
ATOM     18  C   UNL     1       0.830   0.884   3.763  1.00  0.00     0.029 A 
ATOM     19  C   UNL     1       0.738  -0.469   3.993  1.00  0.00     0.077 A 
BRANCH  19  20
ATOM     20  C   UNL     1       1.729  -1.265   4.614  1.00  0.00    -0.053 C 
ATOM     21  C   UNL     1       2.456  -1.930   5.468  1.00  0.00    -0.063 C 
BRANCH  21  22
ATOM     22  C   UNL     1       3.304  -2.705   6.463  1.00  0.00     0.120 C 
ATOM     23  C   UNL     1       2.437  -3.730   7.191  1.00  0.00     0.056 C 
ATOM     24  C   UNL     1       4.467  -3.377   5.738  1.00  0.00     0.056 C 
BRANCH  22  25
ATOM     25  O   UNL     1       3.826  -1.780   7.413  1.00  0.00    -0.378 OA
ATOM     26  H   UNL     1       3.094  -1.347   7.879  1.00  0.00     0.212 HD
ENDBRANCH  22  25
ENDBRANCH  21  22
ENDBRANCH  19  20
ENDBRANCH  14  15
ENDBRANCH  12  14
ENDBRANCH   1   5
BRANCH   3  27
ATOM     27  C   UNL     1       0.185  -1.722  -2.852  1.00  0.00     0.118 C 
BRANCH  27  28
ATOM     28  C   UNL     1       1.233  -0.990  -3.685  1.00  0.00     0.042 C 
BRANCH  28  29
ATOM     29  C   UNL     1       1.948  -1.923  -4.634  1.00  0.00     0.118 C 
BRANCH  29  30
ATOM     30  N   UNL     1       1.055  -2.514  -5.639  1.00  0.00    -0.352 N 
ATOM     31  C   UNL     1       1.388  -3.370  -6.668  1.00  0.00     0.251 C 
ATOM     32  H   UNL     1       0.104  -2.268  -5.571  1.00  0.00     0.163 HD
ATOM     33  O   UNL     1       0.629  -3.564  -7.616  1.00  0.00    -0.269 OA
BRANCH  31  34
ATOM     34  C   UNL     1       2.681  -4.060  -6.590  1.00  0.00     0.039 A 
ATOM     35  C   UNL     1       3.542  -4.168  -7.684  1.00  0.00     0.014 A 
ATOM     36  C   UNL     1       3.053  -4.520  -5.332  1.00  0.00     0.014 A 
ATOM     37  C   UNL     1       4.817  -4.683  -7.471  1.00  0.00     0.010 A 
ATOM     38  C   UNL     1       4.366  -4.783  -5.084  1.00  0.00     0.010 A 
ATOM     39  C   UNL     1       5.221  -4.972  -6.158  1.00  0.00    -0.014 A 
BRANCH  39  40
ATOM     40  C   UNL     1       6.571  -5.397  -5.833  1.00  0.00     0.031 A 
ATOM     41  C   UNL     1       7.620  -4.424  -6.230  1.00  0.00     0.074 A 
ATOM     42  C   UNL     1       6.805  -6.446  -5.012  1.00  0.00     0.049 A 
ATOM     43  N   UNL     1       8.504  -4.563  -7.160  1.00  0.00    -0.248 NA
ATOM     44  C   UNL     1       7.585  -3.075  -5.639  1.00  0.00     0.031 C 
ATOM     45  C   UNL     1       5.833  -7.268  -4.273  1.00  0.00     0.029 A 
ATOM     46  N   UNL     1       7.989  -6.928  -4.558  1.00  0.00    -0.354 N 
ATOM     47  C   UNL     1       9.280  -3.409  -7.124  1.00  0.00     0.074 A 
ATOM     48  C   UNL     1       8.549  -2.459  -6.326  1.00  0.00     0.031 C 
ATOM     49  C   UNL     1       6.464  -7.954  -3.294  1.00  0.00     0.029 A 
ATOM     50  C   UNL     1       7.893  -7.768  -3.453  1.00  0.00     0.049 A 
ATOM     51  H   UNL     1       8.850  -6.700  -4.977  1.00  0.00     0.167 HD
ATOM     52  C   UNL     1      10.583  -3.430  -7.522  1.00  0.00     0.031 A 
ATOM     53  C   UNL     1       8.920  -8.255  -2.712  1.00  0.00     0.031 A 
ATOM     54  C   UNL     1      10.890  -4.648  -8.230  1.00  0.00     0.049 A 
ATOM     55  C   UNL     1      10.149  -8.104  -3.526  1.00  0.00     0.074 A 
ATOM     56  C   UNL     1      10.431  -5.244  -9.387  1.00  0.00     0.029 A 
ATOM     57  N   UNL     1      11.494  -5.645  -7.499  1.00  0.00    -0.354 N 
ATOM     58  N   UNL     1      10.357  -8.761  -4.632  1.00  0.00    -0.248 NA
ATOM     59  C   UNL     1      10.908  -6.872  -3.377  1.00  0.00     0.031 C 
ATOM     60  C   UNL     1      10.354  -6.633  -9.075  1.00  0.00     0.029 A 
ATOM     61  C   UNL     1      10.858  -6.823  -7.785  1.00  0.00     0.049 A 
ATOM     62  H   UNL     1      12.250  -5.531  -6.879  1.00  0.00     0.167 HD
ATOM     63  C   UNL     1      10.907  -7.825  -5.497  1.00  0.00     0.074 A 
ATOM     64  C   UNL     1      11.308  -6.707  -4.642  1.00  0.00     0.031 C 
ATOM     65  C   UNL     1      10.713  -7.915  -6.847  1.00  0.00     0.031 A 
BRANCH  52  66
ATOM     66  C   UNL     1      11.673  -2.594  -6.895  1.00  0.00    -0.014 A 
ATOM     67  C   UNL     1      12.986  -2.741  -7.380  1.00  0.00     0.009 A 
ATOM     68  C   UNL     1      11.525  -1.901  -5.679  1.00  0.00     0.009 A 
ATOM     69  C   UNL     1      14.091  -2.305  -6.641  1.00  0.00     0.001 A 
ATOM     70  C   UNL     1      12.625  -1.429  -4.957  1.00  0.00     0.001 A 
ATOM     71  C   UNL     1      13.910  -1.659  -5.423  1.00  0.00     0.000 A 
ENDBRANCH  52  66
BRANCH  53  72
ATOM     72  C   UNL     1       8.967  -8.572  -1.267  1.00  0.00    -0.014 A 
ATOM     73  C   UNL     1       9.957  -9.418  -0.741  1.00  0.00     0.009 A 
ATOM     74  C   UNL     1       8.204  -7.817  -0.356  1.00  0.00     0.009 A 
ATOM     75  C   UNL     1      10.196  -9.480   0.640  1.00  0.00     0.001 A 
ATOM     76  C   UNL     1       8.444  -7.876   1.022  1.00  0.00     0.001 A 
ATOM     77  C   UNL     1       9.450  -8.698   1.520  1.00  0.00     0.000 A 
ENDBRANCH  53  72
BRANCH  65  78
ATOM     78  C   UNL     1      10.080  -9.172  -7.395  1.00  0.00    -0.014 A 
ATOM     79  C   UNL     1       8.761  -9.567  -7.109  1.00  0.00     0.009 A 
ATOM     80  C   UNL     1      10.784  -9.872  -8.386  1.00  0.00     0.009 A 
ATOM     81  C   UNL     1       8.172 -10.639  -7.792  1.00  0.00     0.001 A 
ATOM     82  C   UNL     1      10.190 -10.927  -9.080  1.00  0.00     0.001 A 
ATOM     83  C   UNL     1       8.884 -11.312  -8.783  1.00  0.00     0.000 A 
ENDBRANCH  65  78
ENDBRANCH  39  40
ENDBRANCH  31  34
ENDBRANCH  29  30
ENDBRANCH  28  29
ENDBRANCH  27  28
ENDBRANCH   3  27
TORSDOF 15
