REMARK SMILES O=C(C[NH+]1CCN(c2nccc(N3CCCCC3)n2)CC1)NCCCNC(=O)c1ccc(-c2c3nc(c(-c4ccccc4)c4ccc([nH]4)c(-c4ccccc4)c4nc(c(-c5ccccc5)c5ccc2[nH]5)C=C4)C=C3)cc1
REMARK SMILES IDX 23 1 22 2 1 3 2 4 3 6 4 7 5 8 21 9 6 11 20 12 7 13 8 14 9 15
REMARK SMILES IDX 19 16 10 17 12 18 11 19 13 20 14 21 18 22 15 23 17 24 16 25
REMARK SMILES IDX 24 26 25 27 26 28 27 29 28 31 29 32 30 33 76 34 31 35 75 36
REMARK SMILES IDX 32 37 33 38 34 39 69 40 35 41 74 42 68 43 70 44 36 45 73 46
REMARK SMILES IDX 67 47 66 48 37 50 59 51 44 52 58 53 45 54 48 55 57 56 71 57
REMARK SMILES IDX 46 58 47 59 56 61 72 62 49 63 38 64 39 65 43 66 40 67 42 68
REMARK SMILES IDX 41 69 60 70 61 71 65 72 62 73 64 74 63 75 50 76 51 77 55 78
REMARK SMILES IDX 52 79 54 80 53 81
REMARK H PARENT 22 5 4 10 26 30 70 49 48 60
REMARK Flexibility Score: inf
ROOT
ATOM      1  C   UNL     1       1.909   0.030  -2.247  1.00  0.00     0.118 C 
ENDROOT
BRANCH   1   2
ATOM      2  N   UNL     1       2.531   0.226  -0.952  1.00  0.00    -0.351 N 
ATOM      3  O   UNL     1       1.227  -1.313   0.157  1.00  0.00    -0.269 OA
ATOM      4  C   UNL     1       2.179  -0.539   0.150  1.00  0.00     0.275 C 
ATOM      5  H   UNL     1       3.222   0.920  -0.852  1.00  0.00     0.163 HD
BRANCH   4   6
ATOM      6  C   UNL     1       3.129  -0.371   1.338  1.00  0.00     0.363 C 
BRANCH   6   7
ATOM      7  N   UNL     1       4.289  -1.282   1.359  1.00  0.00    -0.324 N 
ATOM      8  C   UNL     1       4.062  -2.553   2.088  1.00  0.00     0.284 C 
ATOM      9  C   UNL     1       4.950  -1.545   0.063  1.00  0.00     0.284 C 
ATOM     10  H   UNL     1       4.951  -0.721   1.896  1.00  0.00     0.348 HD
ATOM     11  C   UNL     1       3.482  -3.750   1.285  1.00  0.00     0.181 C 
ATOM     12  C   UNL     1       4.319  -2.671  -0.784  1.00  0.00     0.181 C 
ATOM     13  N   UNL     1       4.170  -3.875   0.009  1.00  0.00    -0.329 N 
BRANCH  13  14
ATOM     14  C   UNL     1       5.011  -4.926  -0.238  1.00  0.00     0.227 A 
ATOM     15  N   UNL     1       4.533  -6.167  -0.081  1.00  0.00    -0.221 NA
ATOM     16  N   UNL     1       6.228  -4.662  -0.743  1.00  0.00    -0.196 NA
ATOM     17  C   UNL     1       5.283  -7.163  -0.578  1.00  0.00     0.119 A 
ATOM     18  C   UNL     1       6.974  -5.678  -1.201  1.00  0.00     0.134 A 
ATOM     19  C   UNL     1       6.503  -6.970  -1.177  1.00  0.00     0.067 A 
BRANCH  18  20
ATOM     20  N   UNL     1       8.241  -5.401  -1.667  1.00  0.00    -0.356 N 
ATOM     21  C   UNL     1       9.125  -4.588  -0.846  1.00  0.00     0.118 C 
ATOM     22  C   UNL     1       8.623  -5.713  -3.034  1.00  0.00     0.118 C 
ATOM     23  C   UNL     1       9.533  -3.315  -1.579  1.00  0.00     0.022 C 
ATOM     24  C   UNL     1       9.024  -4.431  -3.770  1.00  0.00     0.022 C 
ATOM     25  C   UNL     1      10.056  -3.629  -2.979  1.00  0.00     0.004 C 
ENDBRANCH  18  20
ENDBRANCH  13  14
ENDBRANCH   6   7
ENDBRANCH   4   6
ENDBRANCH   1   2
BRANCH   1  26
ATOM     26  C   UNL     1       2.236   1.136  -3.243  1.00  0.00     0.042 C 
BRANCH  26  27
ATOM     27  C   UNL     1       3.714   1.268  -3.606  1.00  0.00     0.118 C 
BRANCH  27  28
ATOM     28  N   UNL     1       4.221   0.191  -4.441  1.00  0.00    -0.352 N 
ATOM     29  C   UNL     1       4.963   0.265  -5.602  1.00  0.00     0.251 C 
ATOM     30  H   UNL     1       4.006  -0.720  -4.135  1.00  0.00     0.163 HD
ATOM     31  O   UNL     1       5.236  -0.751  -6.228  1.00  0.00    -0.269 OA
BRANCH  29  32
ATOM     32  C   UNL     1       5.397   1.583  -6.121  1.00  0.00     0.039 A 
ATOM     33  C   UNL     1       5.184   1.880  -7.471  1.00  0.00     0.014 A 
ATOM     34  C   UNL     1       5.995   2.529  -5.285  1.00  0.00     0.014 A 
ATOM     35  C   UNL     1       5.487   3.155  -7.961  1.00  0.00     0.010 A 
ATOM     36  C   UNL     1       6.231   3.818  -5.756  1.00  0.00     0.010 A 
ATOM     37  C   UNL     1       5.970   4.150  -7.096  1.00  0.00    -0.014 A 
BRANCH  37  38
ATOM     38  C   UNL     1       6.201   5.545  -7.555  1.00  0.00     0.031 A 
ATOM     39  C   UNL     1       7.585   6.133  -7.517  1.00  0.00     0.074 A 
ATOM     40  C   UNL     1       5.157   6.318  -7.915  1.00  0.00     0.049 A 
ATOM     41  N   UNL     1       7.967   7.366  -7.733  1.00  0.00    -0.248 NA
ATOM     42  C   UNL     1       8.681   5.216  -7.163  1.00  0.00     0.031 C 
ATOM     43  C   UNL     1       3.759   5.886  -7.979  1.00  0.00     0.029 A 
ATOM     44  N   UNL     1       5.110   7.642  -8.279  1.00  0.00    -0.354 N 
ATOM     45  C   UNL     1       9.339   7.380  -7.515  1.00  0.00     0.074 A 
ATOM     46  C   UNL     1       9.716   6.042  -7.113  1.00  0.00     0.031 C 
ATOM     47  C   UNL     1       2.996   6.920  -8.370  1.00  0.00     0.029 A 
ATOM     48  C   UNL     1       3.840   8.099  -8.538  1.00  0.00     0.049 A 
ATOM     49  H   UNL     1       5.911   8.210  -8.348  1.00  0.00     0.167 HD
ATOM     50  C   UNL     1      10.210   8.408  -7.648  1.00  0.00     0.031 A 
ATOM     51  C   UNL     1       3.398   9.331  -8.855  1.00  0.00     0.031 A 
ATOM     52  C   UNL     1       9.843   9.736  -8.062  1.00  0.00     0.049 A 
ATOM     53  C   UNL     1       4.382  10.462  -8.975  1.00  0.00     0.074 A 
ATOM     54  C   UNL     1      10.664  10.831  -8.271  1.00  0.00     0.029 A 
ATOM     55  N   UNL     1       8.548  10.149  -8.331  1.00  0.00    -0.354 N 
ATOM     56  N   UNL     1       5.682  10.448  -8.807  1.00  0.00    -0.248 NA
ATOM     57  C   UNL     1       3.836  11.779  -9.335  1.00  0.00     0.031 C 
ATOM     58  C   UNL     1       9.859  11.920  -8.623  1.00  0.00     0.029 A 
ATOM     59  C   UNL     1       8.544  11.488  -8.686  1.00  0.00     0.049 A 
ATOM     60  H   UNL     1       7.749   9.577  -8.277  1.00  0.00     0.167 HD
ATOM     61  C   UNL     1       6.112  11.741  -9.076  1.00  0.00     0.074 A 
ATOM     62  C   UNL     1       4.937  12.512  -9.425  1.00  0.00     0.031 C 
ATOM     63  C   UNL     1       7.371  12.242  -9.042  1.00  0.00     0.031 A 
BRANCH  50  64
ATOM     64  C   UNL     1      11.654   8.137  -7.328  1.00  0.00    -0.014 A 
ATOM     65  C   UNL     1      12.446   7.332  -8.162  1.00  0.00     0.009 A 
ATOM     66  C   UNL     1      12.239   8.722  -6.194  1.00  0.00     0.009 A 
ATOM     67  C   UNL     1      13.784   7.087  -7.844  1.00  0.00     0.001 A 
ATOM     68  C   UNL     1      13.584   8.499  -5.895  1.00  0.00     0.001 A 
ATOM     69  C   UNL     1      14.352   7.674  -6.715  1.00  0.00     0.000 A 
ENDBRANCH  50  64
BRANCH  51  70
ATOM     70  C   UNL     1       1.949   9.566  -9.090  1.00  0.00    -0.014 A 
ATOM     71  C   UNL     1       1.473   9.831 -10.383  1.00  0.00     0.009 A 
ATOM     72  C   UNL     1       1.037   9.541  -8.023  1.00  0.00     0.009 A 
ATOM     73  C   UNL     1       0.118  10.092 -10.600  1.00  0.00     0.001 A 
ATOM     74  C   UNL     1      -0.322   9.774  -8.247  1.00  0.00     0.001 A 
ATOM     75  C   UNL     1      -0.778  10.059  -9.533  1.00  0.00     0.000 A 
ENDBRANCH  51  70
BRANCH  63  76
ATOM     76  C   UNL     1       7.556  13.678  -9.444  1.00  0.00    -0.014 A 
ATOM     77  C   UNL     1       7.157  14.731  -8.607  1.00  0.00     0.009 A 
ATOM     78  C   UNL     1       8.188  13.977 -10.661  1.00  0.00     0.009 A 
ATOM     79  C   UNL     1       7.364  16.056  -8.995  1.00  0.00     0.001 A 
ATOM     80  C   UNL     1       8.419  15.302 -11.033  1.00  0.00     0.001 A 
ATOM     81  C   UNL     1       8.000  16.340 -10.204  1.00  0.00     0.000 A 
ENDBRANCH  63  76
ENDBRANCH  37  38
ENDBRANCH  29  32
ENDBRANCH  27  28
ENDBRANCH  26  27
ENDBRANCH   1  26
TORSDOF 13
