REMARK SMILES CC(=O)N1CC[NH+]([C@@H](C(=O)NCCCNC(=O)c2ccc(-c3c4nc(c(-c5ccccc5)c5ccc([nH]5)c(-c5ccccc5)c5nc(c(-c6ccccc6)c6ccc3[nH]6)C=C5)C=C4)cc2)c2c[nH]c3ccc(Cl)cc23)CC1
REMARK SMILES IDX 13 1 12 2 11 3 9 4 10 5 8 7 7 8 1 9 2 10 3 11 4 12 5 13
REMARK SMILES IDX 77 14 6 15 76 16 66 18 67 19 75 20 68 21 69 22 74 23 70 25
REMARK SMILES IDX 72 26 71 27 73 28 14 29 15 30 16 31 17 33 18 34 19 35 65 36
REMARK SMILES IDX 20 37 64 38 21 39 22 40 23 41 58 42 24 43 63 44 57 45 59 46
REMARK SMILES IDX 25 47 62 48 56 49 55 50 26 52 48 53 33 54 47 55 34 56 37 57
REMARK SMILES IDX 46 58 60 59 35 60 36 61 45 63 61 64 38 65 27 66 28 67 32 68
REMARK SMILES IDX 29 69 31 70 30 71 49 72 50 73 54 74 51 75 53 76 52 77 39 78
REMARK SMILES IDX 40 79 44 80 41 81 43 82 42 83
REMARK H PARENT 11 6 7 17 68 24 15 32 59 51 37 62
REMARK Flexibility Score: inf
ROOT
ATOM      1  C   UNL     1       4.362  -3.381   0.640  1.00  0.00     0.042 C 
ENDROOT
BRANCH   1   2
ATOM      2  C   UNL     1       3.620  -4.408   1.536  1.00  0.00     0.118 C 
BRANCH   2   3
ATOM      3  N   UNL     1       2.507  -3.887   2.318  1.00  0.00    -0.351 N 
ATOM      4  C   UNL     1       1.152  -4.105   2.373  1.00  0.00     0.283 C 
ATOM      5  O   UNL     1       0.616  -3.505   3.309  1.00  0.00    -0.268 OA
ATOM      6  H   UNL     1       2.799  -3.209   2.970  1.00  0.00     0.163 HD
BRANCH   4   7
ATOM      7  C   UNL     1       0.381  -5.020   1.378  1.00  0.00     0.307 C 
BRANCH   7   8
ATOM      8  N   UNL     1       0.069  -4.436   0.016  1.00  0.00    -0.318 N 
ATOM      9  C   UNL     1       1.064   0.700  -0.199  1.00  0.00     0.114 C 
ATOM     10  C   UNL     1      -0.093  -0.123   0.292  1.00  0.00     0.219 C 
ATOM     11  O   UNL     1      -1.051   0.415   0.842  1.00  0.00    -0.275 OA
ATOM     12  N   UNL     1      -0.013  -1.490   0.069  1.00  0.00    -0.332 N 
ATOM     13  C   UNL     1      -1.122  -2.297   0.563  1.00  0.00     0.181 C 
ATOM     14  C   UNL     1       1.244  -2.189  -0.216  1.00  0.00     0.181 C 
ATOM     15  C   UNL     1      -1.171  -3.647  -0.139  1.00  0.00     0.285 C 
ATOM     16  C   UNL     1       1.117  -3.672  -0.648  1.00  0.00     0.285 C 
ATOM     17  H   UNL     1      -0.047  -5.341  -0.440  1.00  0.00     0.349 HD
ENDBRANCH   7   8
BRANCH   7  18
ATOM     18  C   UNL     1      -0.946  -5.649   1.881  1.00  0.00     0.044 A 
ATOM     19  C   UNL     1      -1.436  -6.849   1.373  1.00  0.00     0.094 A 
ATOM     20  C   UNL     1      -2.082  -5.037   2.556  1.00  0.00     0.011 A 
ATOM     21  N   UNL     1      -2.803  -6.750   1.328  1.00  0.00    -0.361 N 
ATOM     22  C   UNL     1      -3.212  -5.588   1.937  1.00  0.00     0.046 A 
ATOM     23  C   UNL     1      -2.300  -3.938   3.418  1.00  0.00     0.031 A 
ATOM     24  H   UNL     1      -3.404  -7.414   0.920  1.00  0.00     0.166 HD
ATOM     25  C   UNL     1      -4.462  -4.950   1.923  1.00  0.00     0.028 A 
ATOM     26  C   UNL     1      -3.567  -3.349   3.493  1.00  0.00     0.041 A 
ATOM     27  C   UNL     1      -4.613  -3.799   2.698  1.00  0.00     0.022 A 
ATOM     28  Cl  UNL     1      -3.822  -2.008   4.545  1.00  0.00    -0.084 Cl
ENDBRANCH   7  18
ENDBRANCH   4   7
ENDBRANCH   2   3
ENDBRANCH   1   2
BRANCH   1  29
ATOM     29  C   UNL     1       4.459  -1.922   1.124  1.00  0.00     0.118 C 
BRANCH  29  30
ATOM     30  N   UNL     1       5.825  -1.511   1.388  1.00  0.00    -0.352 N 
ATOM     31  C   UNL     1       6.543  -0.420   0.953  1.00  0.00     0.251 C 
ATOM     32  H   UNL     1       6.325  -2.117   1.981  1.00  0.00     0.163 HD
ATOM     33  O   UNL     1       7.743  -0.368   1.208  1.00  0.00    -0.269 OA
BRANCH  31  34
ATOM     34  C   UNL     1       5.932   0.688   0.170  1.00  0.00     0.039 A 
ATOM     35  C   UNL     1       6.657   1.204  -0.912  1.00  0.00     0.014 A 
ATOM     36  C   UNL     1       4.737   1.309   0.542  1.00  0.00     0.014 A 
ATOM     37  C   UNL     1       6.172   2.296  -1.645  1.00  0.00     0.010 A 
ATOM     38  C   UNL     1       4.238   2.388  -0.210  1.00  0.00     0.010 A 
ATOM     39  C   UNL     1       4.944   2.889  -1.316  1.00  0.00    -0.014 A 
BRANCH  39  40
ATOM     40  C   UNL     1       4.386   3.995  -2.148  1.00  0.00     0.031 A 
ATOM     41  C   UNL     1       4.285   5.403  -1.625  1.00  0.00     0.074 A 
ATOM     42  C   UNL     1       3.930   3.729  -3.388  1.00  0.00     0.049 A 
ATOM     43  N   UNL     1       3.808   6.472  -2.218  1.00  0.00    -0.248 NA
ATOM     44  C   UNL     1       4.775   5.641  -0.261  1.00  0.00     0.031 C 
ATOM     45  C   UNL     1       3.947   2.414  -4.029  1.00  0.00     0.029 A 
ATOM     46  N   UNL     1       3.353   4.551  -4.328  1.00  0.00    -0.354 N 
ATOM     47  C   UNL     1       3.936   7.508  -1.301  1.00  0.00     0.074 A 
ATOM     48  C   UNL     1       4.504   6.929  -0.099  1.00  0.00     0.031 C 
ATOM     49  C   UNL     1       3.409   2.518  -5.255  1.00  0.00     0.029 A 
ATOM     50  C   UNL     1       2.978   3.896  -5.475  1.00  0.00     0.049 A 
ATOM     51  H   UNL     1       3.222   5.517  -4.191  1.00  0.00     0.167 HD
ATOM     52  C   UNL     1       3.620   8.819  -1.442  1.00  0.00     0.031 A 
ATOM     53  C   UNL     1       2.340   4.338  -6.577  1.00  0.00     0.031 A 
ATOM     54  C   UNL     1       3.041   9.407  -2.624  1.00  0.00     0.049 A 
ATOM     55  C   UNL     1       1.942   5.782  -6.689  1.00  0.00     0.074 A 
ATOM     56  C   UNL     1       2.752  10.739  -2.872  1.00  0.00     0.029 A 
ATOM     57  N   UNL     1       2.641   8.700  -3.746  1.00  0.00    -0.354 N 
ATOM     58  N   UNL     1       2.140   6.759  -5.840  1.00  0.00    -0.248 NA
ATOM     59  C   UNL     1       1.232   6.182  -7.914  1.00  0.00     0.031 C 
ATOM     60  C   UNL     1       2.121  10.829  -4.119  1.00  0.00     0.029 A 
ATOM     61  C   UNL     1       2.065   9.559  -4.669  1.00  0.00     0.049 A 
ATOM     62  H   UNL     1       2.749   7.729  -3.870  1.00  0.00     0.167 HD
ATOM     63  C   UNL     1       1.585   7.889  -6.427  1.00  0.00     0.074 A 
ATOM     64  C   UNL     1       1.062   7.482  -7.715  1.00  0.00     0.031 C 
ATOM     65  C   UNL     1       1.516   9.150  -5.936  1.00  0.00     0.031 A 
BRANCH  52  66
ATOM     66  C   UNL     1       3.875   9.720  -0.264  1.00  0.00    -0.014 A 
ATOM     67  C   UNL     1       5.180  10.077   0.111  1.00  0.00     0.009 A 
ATOM     68  C   UNL     1       2.793  10.247   0.459  1.00  0.00     0.009 A 
ATOM     69  C   UNL     1       5.397  10.909   1.212  1.00  0.00     0.001 A 
ATOM     70  C   UNL     1       3.013  11.099   1.543  1.00  0.00     0.001 A 
ATOM     71  C   UNL     1       4.314  11.420   1.925  1.00  0.00     0.000 A 
ENDBRANCH  52  66
BRANCH  53  72
ATOM     72  C   UNL     1       2.014   3.378  -7.662  1.00  0.00    -0.014 A 
ATOM     73  C   UNL     1       2.728   3.392  -8.868  1.00  0.00     0.009 A 
ATOM     74  C   UNL     1       1.000   2.424  -7.480  1.00  0.00     0.009 A 
ATOM     75  C   UNL     1       2.428   2.471  -9.875  1.00  0.00     0.001 A 
ATOM     76  C   UNL     1       0.720   1.490  -8.478  1.00  0.00     0.001 A 
ATOM     77  C   UNL     1       1.431   1.517  -9.676  1.00  0.00     0.000 A 
ENDBRANCH  53  72
BRANCH  65  78
ATOM     78  C   UNL     1       0.839  10.186  -6.790  1.00  0.00    -0.014 A 
ATOM     79  C   UNL     1      -0.558  10.204  -6.930  1.00  0.00     0.009 A 
ATOM     80  C   UNL     1       1.599  11.177  -7.431  1.00  0.00     0.009 A 
ATOM     81  C   UNL     1      -1.178  11.179  -7.715  1.00  0.00     0.001 A 
ATOM     82  C   UNL     1       0.974  12.164  -8.197  1.00  0.00     0.001 A 
ATOM     83  C   UNL     1      -0.412  12.160  -8.344  1.00  0.00     0.000 A 
ENDBRANCH  65  78
ENDBRANCH  39  40
ENDBRANCH  31  34
ENDBRANCH  29  30
ENDBRANCH   1  29
TORSDOF 12
