REMARK SMILES C[C@H](NC(=O)N(CC(=O)NCCCNC(=O)c1ccc(-c2c3nc(c(-c4ccccc4)c4ccc([nH]4)c(-c4ccccc4)c4nc(c(-c5ccccc5)c5ccc2[nH]5)C=C4)C=C3)cc1)C(C)(C)C)c1nncn1C
REMARK SMILES IDX 11 1 10 2 8 3 9 4 7 6 6 7 4 8 3 9 5 11 2 12 1 13 69 14 70 15
REMARK SMILES IDX 73 16 71 17 72 18 74 19 65 20 66 21 67 22 68 23 12 24 13 25
REMARK SMILES IDX 14 26 15 27 16 29 17 30 18 31 64 32 19 33 63 34 20 35 21 36
REMARK SMILES IDX 22 37 57 38 23 39 62 40 56 41 58 42 24 43 61 44 55 45 54 46
REMARK SMILES IDX 25 48 47 49 32 50 46 51 33 52 36 53 45 54 59 55 34 56 35 57
REMARK SMILES IDX 44 59 60 60 37 61 26 62 27 63 31 64 28 65 30 66 29 67 48 68
REMARK SMILES IDX 49 69 53 70 50 71 52 72 51 73 38 74 39 75 43 76 40 77 42 78
REMARK SMILES IDX 41 79
REMARK H PARENT 10 5 3 10 14 28 58 47 36 58
REMARK Flexibility Score: inf
ROOT
ATOM      1  C   UNL     1       1.905  -1.215  -3.218  1.00  0.00     0.117 C 
ENDROOT
BRANCH   1   2
ATOM      2  N   UNL     1       2.710  -2.417  -3.256  1.00  0.00    -0.354 N 
ATOM      3  C   UNL     1       3.159  -3.226  -2.260  1.00  0.00     0.239 C 
ATOM      4  O   UNL     1       3.752  -4.253  -2.605  1.00  0.00    -0.273 OA
ATOM      5  H   UNL     1       2.980  -2.697  -4.160  1.00  0.00     0.163 HD
BRANCH   3   6
ATOM      6  C   UNL     1       2.810  -2.989  -0.785  1.00  0.00     0.221 C 
BRANCH   6   7
ATOM      7  N   UNL     1       3.204  -1.711  -0.165  1.00  0.00    -0.311 N 
BRANCH   7   8
ATOM      8  C   UNL     1       2.368  -0.646   0.093  1.00  0.00     0.318 C 
ATOM      9  N   UNL     1       1.022  -0.715   0.172  1.00  0.00    -0.328 N 
ATOM     10  H   UNL     1       0.613   0.176   0.259  1.00  0.00     0.166 HD
ATOM     11  O   UNL     1       2.793   0.493   0.312  1.00  0.00    -0.249 OA
BRANCH   9  12
ATOM     12  C   UNL     1       0.020  -1.772   0.163  1.00  0.00     0.149 C 
ATOM     13  C   UNL     1       0.154  -2.628   1.423  1.00  0.00     0.040 C 
BRANCH  12  14
ATOM     14  C   UNL     1      -1.417  -1.338  -0.013  1.00  0.00     0.154 A 
ATOM     15  N   UNL     1      -2.400  -2.228  -0.042  1.00  0.00    -0.133 NA
ATOM     16  N   UNL     1      -1.972  -0.105  -0.263  1.00  0.00    -0.319 N 
ATOM     17  N   UNL     1      -3.580  -1.591  -0.293  1.00  0.00    -0.139 NA
ATOM     18  C   UNL     1      -3.313  -0.317  -0.425  1.00  0.00     0.225 A 
ATOM     19  C   UNL     1      -1.360   1.191  -0.368  1.00  0.00     0.152 C 
ENDBRANCH  12  14
ENDBRANCH   9  12
ENDBRANCH   7   8
BRANCH   7  20
ATOM     20  C   UNL     1       4.690  -1.549   0.158  1.00  0.00     0.037 C 
ATOM     21  C   UNL     1       5.375  -0.539  -0.786  1.00  0.00     0.034 C 
ATOM     22  C   UNL     1       4.879  -1.098   1.628  1.00  0.00     0.034 C 
ATOM     23  C   UNL     1       5.516  -2.862   0.038  1.00  0.00     0.034 C 
ENDBRANCH   7  20
ENDBRANCH   6   7
ENDBRANCH   3   6
ENDBRANCH   1   2
BRANCH   1  24
ATOM     24  C   UNL     1       2.726   0.046  -3.453  1.00  0.00     0.042 C 
BRANCH  24  25
ATOM     25  C   UNL     1       3.451   0.058  -4.793  1.00  0.00     0.118 C 
BRANCH  25  26
ATOM     26  N   UNL     1       2.527   0.098  -5.917  1.00  0.00    -0.352 N 
ATOM     27  C   UNL     1       2.486   0.965  -6.979  1.00  0.00     0.251 C 
ATOM     28  H   UNL     1       1.831  -0.599  -5.914  1.00  0.00     0.163 HD
ATOM     29  O   UNL     1       1.509   0.980  -7.719  1.00  0.00    -0.269 OA
BRANCH  27  30
ATOM     30  C   UNL     1       3.612   1.890  -7.222  1.00  0.00     0.039 A 
ATOM     31  C   UNL     1       3.332   3.211  -7.580  1.00  0.00     0.014 A 
ATOM     32  C   UNL     1       4.937   1.454  -7.122  1.00  0.00     0.014 A 
ATOM     33  C   UNL     1       4.381   4.106  -7.792  1.00  0.00     0.010 A 
ATOM     34  C   UNL     1       5.979   2.365  -7.260  1.00  0.00     0.010 A 
ATOM     35  C   UNL     1       5.712   3.698  -7.608  1.00  0.00    -0.014 A 
BRANCH  35  36
ATOM     36  C   UNL     1       6.835   4.650  -7.788  1.00  0.00     0.031 A 
ATOM     37  C   UNL     1       7.838   4.438  -8.889  1.00  0.00     0.074 A 
ATOM     38  C   UNL     1       6.978   5.680  -6.932  1.00  0.00     0.049 A 
ATOM     39  N   UNL     1       8.899   5.145  -9.185  1.00  0.00    -0.248 NA
ATOM     40  C   UNL     1       7.638   3.265  -9.755  1.00  0.00     0.031 C 
ATOM     41  C   UNL     1       6.098   5.968  -5.797  1.00  0.00     0.029 A 
ATOM     42  N   UNL     1       7.921   6.675  -6.882  1.00  0.00    -0.354 N 
ATOM     43  C   UNL     1       9.499   4.495 -10.256  1.00  0.00     0.074 A 
ATOM     44  C   UNL     1       8.714   3.310 -10.526  1.00  0.00     0.031 C 
ATOM     45  C   UNL     1       6.524   7.083  -5.183  1.00  0.00     0.029 A 
ATOM     46  C   UNL     1       7.726   7.567  -5.855  1.00  0.00     0.049 A 
ATOM     47  H   UNL     1       8.666   6.744  -7.521  1.00  0.00     0.167 HD
ATOM     48  C   UNL     1      10.593   4.860 -10.965  1.00  0.00     0.031 A 
ATOM     49  C   UNL     1       8.438   8.651  -5.494  1.00  0.00     0.031 A 
ATOM     50  C   UNL     1      11.364   6.046 -10.706  1.00  0.00     0.049 A 
ATOM     51  C   UNL     1       9.650   9.033  -6.296  1.00  0.00     0.074 A 
ATOM     52  C   UNL     1      12.453   6.536 -11.406  1.00  0.00     0.029 A 
ATOM     53  N   UNL     1      11.129   6.927  -9.663  1.00  0.00    -0.354 N 
ATOM     54  N   UNL     1      10.159   8.448  -7.353  1.00  0.00    -0.248 NA
ATOM     55  C   UNL     1      10.377  10.234  -5.861  1.00  0.00     0.031 C 
ATOM     56  C   UNL     1      12.907   7.688 -10.756  1.00  0.00     0.029 A 
ATOM     57  C   UNL     1      12.066   7.945  -9.685  1.00  0.00     0.049 A 
ATOM     58  H   UNL     1      10.402   6.841  -9.004  1.00  0.00     0.167 HD
ATOM     59  C   UNL     1      11.249   9.224  -7.726  1.00  0.00     0.074 A 
ATOM     60  C   UNL     1      11.316  10.330  -6.793  1.00  0.00     0.031 C 
ATOM     61  C   UNL     1      12.117   9.038  -8.749  1.00  0.00     0.031 A 
BRANCH  48  62
ATOM     62  C   UNL     1      11.022   3.961 -12.091  1.00  0.00    -0.014 A 
ATOM     63  C   UNL     1      10.265   3.859 -13.270  1.00  0.00     0.009 A 
ATOM     64  C   UNL     1      12.219   3.236 -11.989  1.00  0.00     0.009 A 
ATOM     65  C   UNL     1      10.680   3.022 -14.307  1.00  0.00     0.001 A 
ATOM     66  C   UNL     1      12.647   2.422 -13.040  1.00  0.00     0.001 A 
ATOM     67  C   UNL     1      11.873   2.308 -14.194  1.00  0.00     0.000 A 
ENDBRANCH  48  62
BRANCH  49  68
ATOM     68  C   UNL     1       8.013   9.466  -4.325  1.00  0.00    -0.014 A 
ATOM     69  C   UNL     1       7.488  10.755  -4.509  1.00  0.00     0.009 A 
ATOM     70  C   UNL     1       8.139   8.965  -3.021  1.00  0.00     0.009 A 
ATOM     71  C   UNL     1       7.127  11.535  -3.409  1.00  0.00     0.001 A 
ATOM     72  C   UNL     1       7.750   9.736  -1.924  1.00  0.00     0.001 A 
ATOM     73  C   UNL     1       7.254  11.024  -2.118  1.00  0.00     0.000 A 
ENDBRANCH  49  68
BRANCH  61  74
ATOM     74  C   UNL     1      13.192  10.071  -8.934  1.00  0.00    -0.014 A 
ATOM     75  C   UNL     1      14.278  10.159  -8.050  1.00  0.00     0.009 A 
ATOM     76  C   UNL     1      13.136  10.941 -10.035  1.00  0.00     0.009 A 
ATOM     77  C   UNL     1      15.270  11.122  -8.246  1.00  0.00     0.001 A 
ATOM     78  C   UNL     1      14.145  11.882 -10.245  1.00  0.00     0.001 A 
ATOM     79  C   UNL     1      15.205  11.978  -9.345  1.00  0.00     0.000 A 
ENDBRANCH  61  74
ENDBRANCH  35  36
ENDBRANCH  27  30
ENDBRANCH  25  26
ENDBRANCH  24  25
ENDBRANCH   1  24
TORSDOF 15
