REMARK SMILES [NH3+][C@@H](CNc1ccc(C(=O)NCCCNC(=O)c2ccc(-c3c4nc(c(-c5ccccc5)c5ccc([nH]5)c(-c5ccccc5)c5nc(c(-c6ccccc6)c6ccc3[nH]6)C=C5)C=C4)cc2)c(F)c1F)c1ccccc1
REMARK SMILES IDX 12 1 11 2 9 3 10 4 8 6 5 7 6 8 68 9 7 10 66 11 69 12 67 13
REMARK SMILES IDX 4 14 3 16 2 17 1 18 70 22 71 23 75 24 72 25 74 26 73 27
REMARK SMILES IDX 13 28 14 29 15 30 16 31 17 33 18 34 19 35 65 36 20 37 64 38
REMARK SMILES IDX 21 39 22 40 23 41 58 42 24 43 63 44 57 45 59 46 25 47 62 48
REMARK SMILES IDX 56 49 55 50 26 52 48 53 33 54 47 55 34 56 37 57 46 58 60 59
REMARK SMILES IDX 35 60 36 61 45 63 61 64 38 65 27 66 28 67 32 68 29 69 31 70
REMARK SMILES IDX 30 71 49 72 50 73 54 74 51 75 53 76 52 77 39 78 40 79 44 80
REMARK SMILES IDX 41 81 43 82 42 83
REMARK H PARENT 11 5 4 15 1 19 1 20 1 21 15 32 59 51 37 62
REMARK Flexibility Score: inf
ROOT
ATOM      1  C   UNL     1      -4.593  -2.652   6.286  1.00  0.00     0.118 C 
ENDROOT
BRANCH   1   2
ATOM      2  N   UNL     1      -3.989  -3.950   6.063  1.00  0.00    -0.352 N 
ATOM      3  C   UNL     1      -2.914  -4.406   5.354  1.00  0.00     0.254 C 
ATOM      4  O   UNL     1      -2.745  -5.629   5.402  1.00  0.00    -0.269 OA
ATOM      5  H   UNL     1      -4.465  -4.673   6.532  1.00  0.00     0.163 HD
BRANCH   3   6
ATOM      6  C   UNL     1      -1.926  -3.594   4.585  1.00  0.00     0.078 A 
ATOM      7  C   UNL     1       0.177  -2.326   3.129  1.00  0.00     0.074 A 
ATOM      8  C   UNL     1       0.261  -3.675   3.457  1.00  0.00     0.030 A 
ATOM      9  C   UNL     1      -0.975  -1.633   3.522  1.00  0.00     0.182 A 
ATOM     10  C   UNL     1      -0.759  -4.289   4.194  1.00  0.00     0.019 A 
ATOM     11  C   UNL     1      -2.028  -2.263   4.193  1.00  0.00     0.173 A 
ATOM     12  F   UNL     1      -1.085  -0.330   3.211  1.00  0.00    -0.201 F 
ATOM     13  F   UNL     1      -3.142  -1.543   4.363  1.00  0.00    -0.203 F 
BRANCH   7  14
ATOM     14  N   UNL     1       1.151  -1.712   2.338  1.00  0.00    -0.376 N 
ATOM     15  H   UNL     1       1.696  -0.970   2.687  1.00  0.00     0.160 HD
BRANCH  14  16
ATOM     16  C   UNL     1       1.331  -2.211   0.967  1.00  0.00     0.183 C 
BRANCH  16  17
ATOM     17  C   UNL     1       0.628  -1.305  -0.103  1.00  0.00     0.231 C 
BRANCH  17  18
ATOM     18  N   UNL     1       1.186   0.065  -0.053  1.00  0.00    -0.350 N 
ATOM     19  H   UNL     1       2.204   0.020  -0.104  1.00  0.00     0.345 HD
ATOM     20  H   UNL     1       0.909   0.514   0.820  1.00  0.00     0.345 HD
ATOM     21  H   UNL     1       0.830   0.606  -0.841  1.00  0.00     0.345 HD
ENDBRANCH  17  18
BRANCH  17  22
ATOM     22  C   UNL     1      -0.900  -1.327  -0.032  1.00  0.00     0.011 A 
ATOM     23  C   UNL     1      -1.671  -0.151  -0.001  1.00  0.00     0.010 A 
ATOM     24  C   UNL     1      -1.589  -2.554  -0.025  1.00  0.00     0.010 A 
ATOM     25  C   UNL     1      -3.065  -0.198   0.088  1.00  0.00     0.001 A 
ATOM     26  C   UNL     1      -2.985  -2.601   0.064  1.00  0.00     0.001 A 
ATOM     27  C   UNL     1      -3.721  -1.423   0.128  1.00  0.00     0.000 A 
ENDBRANCH  17  22
ENDBRANCH  16  17
ENDBRANCH  14  16
ENDBRANCH   7  14
ENDBRANCH   3   6
ENDBRANCH   1   2
BRANCH   1  28
ATOM     28  C   UNL     1      -5.759  -2.421   5.323  1.00  0.00     0.042 C 
BRANCH  28  29
ATOM     29  C   UNL     1      -7.048  -3.111   5.776  1.00  0.00     0.118 C 
BRANCH  29  30
ATOM     30  N   UNL     1      -7.570  -2.529   7.009  1.00  0.00    -0.352 N 
ATOM     31  C   UNL     1      -8.740  -1.859   7.257  1.00  0.00     0.251 C 
ATOM     32  H   UNL     1      -6.985  -2.637   7.793  1.00  0.00     0.163 HD
ATOM     33  O   UNL     1      -8.864  -1.222   8.299  1.00  0.00    -0.269 OA
BRANCH  31  34
ATOM     34  C   UNL     1      -9.854  -1.899   6.288  1.00  0.00     0.039 A 
ATOM     35  C   UNL     1     -10.615  -0.743   6.085  1.00  0.00     0.014 A 
ATOM     36  C   UNL     1     -10.193  -3.084   5.631  1.00  0.00     0.014 A 
ATOM     37  C   UNL     1     -11.682  -0.764   5.186  1.00  0.00     0.010 A 
ATOM     38  C   UNL     1     -11.206  -3.083   4.678  1.00  0.00     0.010 A 
ATOM     39  C   UNL     1     -11.967  -1.927   4.453  1.00  0.00    -0.014 A 
BRANCH  39  40
ATOM     40  C   UNL     1     -13.056  -1.955   3.446  1.00  0.00     0.031 A 
ATOM     41  C   UNL     1     -14.232  -2.875   3.626  1.00  0.00     0.074 A 
ATOM     42  C   UNL     1     -12.941  -1.215   2.327  1.00  0.00     0.049 A 
ATOM     43  N   UNL     1     -15.240  -3.094   2.820  1.00  0.00    -0.248 NA
ATOM     44  C   UNL     1     -14.261  -3.679   4.858  1.00  0.00     0.031 C 
ATOM     45  C   UNL     1     -11.820  -0.328   2.011  1.00  0.00     0.029 A 
ATOM     46  N   UNL     1     -13.771  -1.105   1.241  1.00  0.00    -0.354 N 
ATOM     47  C   UNL     1     -16.003  -4.081   3.431  1.00  0.00     0.074 A 
ATOM     48  C   UNL     1     -15.317  -4.451   4.650  1.00  0.00     0.031 C 
ATOM     49  C   UNL     1     -12.041   0.250   0.820  1.00  0.00     0.029 A 
ATOM     50  C   UNL     1     -13.296  -0.255   0.272  1.00  0.00     0.049 A 
ATOM     51  H   UNL     1     -14.626  -1.587   1.163  1.00  0.00     0.167 HD
ATOM     52  C   UNL     1     -17.176  -4.622   3.022  1.00  0.00     0.031 A 
ATOM     53  C   UNL     1     -13.806   0.074  -0.929  1.00  0.00     0.031 A 
ATOM     54  C   UNL     1     -17.860  -4.239   1.816  1.00  0.00     0.049 A 
ATOM     55  C   UNL     1     -15.118  -0.521  -1.355  1.00  0.00     0.074 A 
ATOM     56  C   UNL     1     -19.094  -4.661   1.353  1.00  0.00     0.029 A 
ATOM     57  N   UNL     1     -17.363  -3.349   0.876  1.00  0.00    -0.354 N 
ATOM     58  N   UNL     1     -15.874  -1.386  -0.724  1.00  0.00    -0.248 NA
ATOM     59  C   UNL     1     -15.653  -0.082  -2.651  1.00  0.00     0.031 C 
ATOM     60  C   UNL     1     -19.315  -4.071   0.103  1.00  0.00     0.029 A 
ATOM     61  C   UNL     1     -18.249  -3.233  -0.182  1.00  0.00     0.049 A 
ATOM     62  H   UNL     1     -16.506  -2.869   0.950  1.00  0.00     0.167 HD
ATOM     63  C   UNL     1     -16.984  -1.581  -1.534  1.00  0.00     0.074 A 
ATOM     64  C   UNL     1     -16.809  -0.729  -2.694  1.00  0.00     0.031 C 
ATOM     65  C   UNL     1     -18.053  -2.392  -1.335  1.00  0.00     0.031 A 
BRANCH  52  66
ATOM     66  C   UNL     1     -17.775  -5.703   3.881  1.00  0.00    -0.014 A 
ATOM     67  C   UNL     1     -18.278  -5.428   5.164  1.00  0.00     0.009 A 
ATOM     68  C   UNL     1     -17.845  -7.018   3.395  1.00  0.00     0.009 A 
ATOM     69  C   UNL     1     -18.788  -6.457   5.960  1.00  0.00     0.001 A 
ATOM     70  C   UNL     1     -18.387  -8.038   4.180  1.00  0.00     0.001 A 
ATOM     71  C   UNL     1     -18.845  -7.759   5.467  1.00  0.00     0.000 A 
ENDBRANCH  52  66
BRANCH  53  72
ATOM     72  C   UNL     1     -13.071   1.026  -1.801  1.00  0.00    -0.014 A 
ATOM     73  C   UNL     1     -13.542   2.335  -1.984  1.00  0.00     0.009 A 
ATOM     74  C   UNL     1     -11.873   0.642  -2.423  1.00  0.00     0.009 A 
ATOM     75  C   UNL     1     -12.836   3.234  -2.786  1.00  0.00     0.001 A 
ATOM     76  C   UNL     1     -11.155   1.552  -3.202  1.00  0.00     0.001 A 
ATOM     77  C   UNL     1     -11.640   2.845  -3.388  1.00  0.00     0.000 A 
ENDBRANCH  53  72
BRANCH  65  78
ATOM     78  C   UNL     1     -19.127  -2.380  -2.386  1.00  0.00    -0.014 A 
ATOM     79  C   UNL     1     -18.924  -2.968  -3.644  1.00  0.00     0.009 A 
ATOM     80  C   UNL     1     -20.377  -1.811  -2.095  1.00  0.00     0.009 A 
ATOM     81  C   UNL     1     -19.941  -2.957  -4.600  1.00  0.00     0.001 A 
ATOM     82  C   UNL     1     -21.402  -1.828  -3.042  1.00  0.00     0.001 A 
ATOM     83  C   UNL     1     -21.180  -2.393  -4.297  1.00  0.00     0.000 A 
ENDBRANCH  65  78
ENDBRANCH  39  40
ENDBRANCH  31  34
ENDBRANCH  29  30
ENDBRANCH  28  29
ENDBRANCH   1  28
TORSDOF 15
