REMARK SMILES Cc1nsc(N(C)C(=O)[C@H]2CCOC2)c1C(=O)NCCCNC(=O)c1ccc(-c2c3nc(c(-c4ccccc4)c4ccc([nH]4)c(-c4ccccc4)c4nc(c(-c5ccccc5)c5ccc2[nH]5)C=C4)C=C3)cc1
REMARK SMILES IDX 19 1 18 2 16 3 17 4 15 6 1 7 2 8 3 9 4 10 5 11 6 12 7 13
REMARK SMILES IDX 8 14 9 15 10 16 11 17 14 18 12 19 13 20 20 21 21 22 22 23
REMARK SMILES IDX 23 24 24 26 25 27 26 28 72 29 27 30 71 31 28 32 29 33 30 34
REMARK SMILES IDX 65 35 31 36 70 37 64 38 66 39 32 40 69 41 63 42 62 43 33 45
REMARK SMILES IDX 55 46 40 47 54 48 41 49 44 50 53 51 67 52 42 53 43 54 52 56
REMARK SMILES IDX 68 57 45 58 34 59 35 60 39 61 36 62 38 63 37 64 56 65 57 66
REMARK SMILES IDX 61 67 58 68 60 69 59 70 46 71 47 72 51 73 48 74 50 75 49 76
REMARK H PARENT 18 5 22 25 66 44 44 55
REMARK Flexibility Score: inf
ROOT
ATOM      1  C   UNL     1      -0.624   3.018 -11.851  1.00  0.00     0.118 C 
ENDROOT
BRANCH   1   2
ATOM      2  N   UNL     1      -0.247   3.610 -10.581  1.00  0.00    -0.352 N 
ATOM      3  C   UNL     1       0.143   2.994  -9.401  1.00  0.00     0.256 C 
ATOM      4  O   UNL     1       0.771   3.677  -8.588  1.00  0.00    -0.269 OA
ATOM      5  H   UNL     1      -0.271   4.593 -10.553  1.00  0.00     0.163 HD
BRANCH   3   6
ATOM      6  C   UNL     1      -0.180   1.591  -9.123  1.00  0.00     0.097 A 
ATOM      7  C   UNL     1       0.831   0.376 -11.280  1.00  0.00     0.069 C 
ATOM      8  C   UNL     1       0.109   0.432  -9.973  1.00  0.00     0.066 A 
ATOM      9  N   UNL     1      -0.291  -0.751  -9.517  1.00  0.00    -0.195 NA
ATOM     10  S   UNL     1      -0.856  -0.576  -7.998  1.00  0.00    -0.017 S 
ATOM     11  C   UNL     1      -0.632   1.123  -7.875  1.00  0.00     0.131 A 
BRANCH  11  12
ATOM     12  N   UNL     1      -0.930   1.711  -6.617  1.00  0.00    -0.305 N 
ATOM     13  C   UNL     1      -0.845   0.964  -5.354  1.00  0.00     0.154 C 
BRANCH  12  14
ATOM     14  C   UNL     1      -1.338   3.057  -6.588  1.00  0.00     0.232 C 
ATOM     15  O   UNL     1      -1.857   3.628  -7.551  1.00  0.00    -0.274 OA
BRANCH  14  16
ATOM     16  C   UNL     1      -1.180   3.796  -5.254  1.00  0.00     0.107 C 
ATOM     17  C   UNL     1      -0.378   5.076  -5.359  1.00  0.00     0.044 C 
ATOM     18  C   UNL     1      -2.511   4.314  -4.744  1.00  0.00     0.173 C 
ATOM     19  C   UNL     1      -0.877   5.869  -4.169  1.00  0.00     0.161 C 
ATOM     20  O   UNL     1      -2.226   5.452  -3.917  1.00  0.00    -0.381 OA
ENDBRANCH  14  16
ENDBRANCH  12  14
ENDBRANCH  11  12
ENDBRANCH   3   6
ENDBRANCH   1   2
BRANCH   1  21
ATOM     21  C   UNL     1      -1.722   3.674 -12.676  1.00  0.00     0.042 C 
BRANCH  21  22
ATOM     22  C   UNL     1      -1.519   5.130 -13.028  1.00  0.00     0.118 C 
BRANCH  22  23
ATOM     23  N   UNL     1      -0.427   5.429 -13.954  1.00  0.00    -0.352 N 
ATOM     24  C   UNL     1      -0.178   6.665 -14.539  1.00  0.00     0.251 C 
ATOM     25  H   UNL     1       0.184   4.692 -14.182  1.00  0.00     0.163 HD
ATOM     26  O   UNL     1       0.605   6.792 -15.475  1.00  0.00    -0.269 OA
BRANCH  24  27
ATOM     27  C   UNL     1      -0.936   7.823 -14.023  1.00  0.00     0.039 A 
ATOM     28  C   UNL     1      -1.756   8.573 -14.863  1.00  0.00     0.014 A 
ATOM     29  C   UNL     1      -0.996   7.982 -12.643  1.00  0.00     0.014 A 
ATOM     30  C   UNL     1      -2.746   9.374 -14.291  1.00  0.00     0.010 A 
ATOM     31  C   UNL     1      -2.080   8.634 -12.094  1.00  0.00     0.010 A 
ATOM     32  C   UNL     1      -2.961   9.354 -12.899  1.00  0.00    -0.014 A 
BRANCH  32  33
ATOM     33  C   UNL     1      -4.151  10.004 -12.327  1.00  0.00     0.031 A 
ATOM     34  C   UNL     1      -5.416   9.918 -13.122  1.00  0.00     0.074 A 
ATOM     35  C   UNL     1      -4.245  10.558 -11.097  1.00  0.00     0.049 A 
ATOM     36  N   UNL     1      -6.007  10.882 -13.750  1.00  0.00    -0.248 NA
ATOM     37  C   UNL     1      -6.071   8.612 -13.285  1.00  0.00     0.031 C 
ATOM     38  C   UNL     1      -3.281  10.557  -9.991  1.00  0.00     0.029 A 
ATOM     39  N   UNL     1      -5.320  11.200 -10.549  1.00  0.00    -0.354 N 
ATOM     40  C   UNL     1      -7.194  10.360 -14.257  1.00  0.00     0.074 A 
ATOM     41  C   UNL     1      -7.129   8.934 -14.036  1.00  0.00     0.031 C 
ATOM     42  C   UNL     1      -3.892  10.944  -8.851  1.00  0.00     0.029 A 
ATOM     43  C   UNL     1      -5.217  11.423  -9.186  1.00  0.00     0.049 A 
ATOM     44  H   UNL     1      -6.102  11.480 -11.079  1.00  0.00     0.167 HD
ATOM     45  C   UNL     1      -8.222  11.164 -14.653  1.00  0.00     0.031 A 
ATOM     46  C   UNL     1      -6.133  11.996  -8.376  1.00  0.00     0.031 A 
ATOM     47  C   UNL     1      -7.812  12.537 -14.796  1.00  0.00     0.049 A 
ATOM     48  C   UNL     1      -7.009  12.835  -9.216  1.00  0.00     0.074 A 
ATOM     49  C   UNL     1      -6.867  13.210 -15.546  1.00  0.00     0.029 A 
ATOM     50  N   UNL     1      -8.187  13.415 -13.808  1.00  0.00    -0.354 N 
ATOM     51  N   UNL     1      -6.609  13.926  -9.802  1.00  0.00    -0.248 NA
ATOM     52  C   UNL     1      -8.254  12.280  -9.714  1.00  0.00     0.031 C 
ATOM     53  C   UNL     1      -6.367  14.228 -14.677  1.00  0.00     0.029 A 
ATOM     54  C   UNL     1      -7.073  14.141 -13.475  1.00  0.00     0.049 A 
ATOM     55  H   UNL     1      -9.084  13.505 -13.414  1.00  0.00     0.167 HD
ATOM     56  C   UNL     1      -7.287  13.945 -11.009  1.00  0.00     0.074 A 
ATOM     57  C   UNL     1      -8.383  12.995 -10.834  1.00  0.00     0.031 C 
ATOM     58  C   UNL     1      -6.734  14.517 -12.120  1.00  0.00     0.031 A 
BRANCH  45  59
ATOM     59  C   UNL     1      -9.683  10.791 -14.551  1.00  0.00    -0.014 A 
ATOM     60  C   UNL     1     -10.650  11.683 -15.057  1.00  0.00     0.009 A 
ATOM     61  C   UNL     1     -10.154   9.751 -13.730  1.00  0.00     0.009 A 
ATOM     62  C   UNL     1     -12.000  11.584 -14.694  1.00  0.00     0.001 A 
ATOM     63  C   UNL     1     -11.508   9.623 -13.401  1.00  0.00     0.001 A 
ATOM     64  C   UNL     1     -12.426  10.558 -13.859  1.00  0.00     0.000 A 
ENDBRANCH  45  59
BRANCH  46  65
ATOM     65  C   UNL     1      -6.387  11.759  -6.946  1.00  0.00    -0.014 A 
ATOM     66  C   UNL     1      -7.097  12.694  -6.179  1.00  0.00     0.009 A 
ATOM     67  C   UNL     1      -6.173  10.480  -6.400  1.00  0.00     0.009 A 
ATOM     68  C   UNL     1      -7.626  12.343  -4.932  1.00  0.00     0.001 A 
ATOM     69  C   UNL     1      -6.698  10.131  -5.153  1.00  0.00     0.001 A 
ATOM     70  C   UNL     1      -7.442  11.056  -4.429  1.00  0.00     0.000 A 
ENDBRANCH  46  65
BRANCH  58  71
ATOM     71  C   UNL     1      -5.501  15.371 -11.935  1.00  0.00    -0.014 A 
ATOM     72  C   UNL     1      -4.316  14.892 -11.348  1.00  0.00     0.009 A 
ATOM     73  C   UNL     1      -5.494  16.667 -12.473  1.00  0.00     0.009 A 
ATOM     74  C   UNL     1      -3.180  15.704 -11.251  1.00  0.00     0.001 A 
ATOM     75  C   UNL     1      -4.351  17.469 -12.400  1.00  0.00     0.001 A 
ATOM     76  C   UNL     1      -3.199  16.992 -11.778  1.00  0.00     0.000 A 
ENDBRANCH  58  71
ENDBRANCH  32  33
ENDBRANCH  24  27
ENDBRANCH  22  23
ENDBRANCH  21  22
ENDBRANCH   1  21
TORSDOF 13
