REMARK SMILES CCOC(=O)C1=NN(c2ccc(Cl)cc2F)[C@@H](C(=O)NCCCNC(=O)c2ccc(-c3c4nc(c(-c5ccccc5)c5ccc([nH]5)c(-c5ccccc5)c5nc(c(-c6ccccc6)c6ccc3[nH]6)C=C5)C=C4)cc2)C1
REMARK SMILES IDX 21 1 20 2 18 3 19 4 17 6 6 7 7 8 75 9 8 10 4 11 5 12 3 13
REMARK SMILES IDX 2 14 1 15 9 16 10 17 15 18 11 19 14 20 16 21 12 22 13 23
REMARK SMILES IDX 22 24 23 25 24 26 25 27 26 29 27 30 28 31 74 32 29 33 73 34
REMARK SMILES IDX 30 35 31 36 32 37 67 38 33 39 72 40 66 41 68 42 34 43 71 44
REMARK SMILES IDX 65 45 64 46 35 48 57 49 42 50 56 51 43 52 46 53 55 54 69 55
REMARK SMILES IDX 44 56 45 57 54 59 70 60 47 61 36 62 37 63 41 64 38 65 40 66
REMARK SMILES IDX 39 67 58 68 59 69 63 70 60 71 62 72 61 73 48 74 49 75 53 76
REMARK SMILES IDX 50 77 52 78 51 79
REMARK H PARENT 20 5 24 28 68 47 46 58
REMARK Flexibility Score: inf
ROOT
ATOM      1  C   UNL     1       0.690   6.991  -2.838  1.00  0.00     0.117 C 
ENDROOT
BRANCH   1   2
ATOM      2  N   UNL     1       1.537   6.717  -3.982  1.00  0.00    -0.354 N 
ATOM      3  C   UNL     1       2.678   5.981  -4.128  1.00  0.00     0.245 C 
ATOM      4  O   UNL     1       3.129   5.958  -5.278  1.00  0.00    -0.273 OA
ATOM      5  H   UNL     1       1.231   7.144  -4.815  1.00  0.00     0.163 HD
BRANCH   3   6
ATOM      6  C   UNL     1       3.388   5.315  -2.926  1.00  0.00     0.203 C 
ATOM      7  C   UNL     1       3.139   3.280  -1.843  1.00  0.00     0.148 C 
ATOM      8  N   UNL     1       4.115   3.056  -2.662  1.00  0.00    -0.169 NA
ATOM      9  C   UNL     1       2.448   4.589  -1.971  1.00  0.00     0.103 C 
ATOM     10  N   UNL     1       4.266   4.217  -3.371  1.00  0.00    -0.249 N 
BRANCH   7  11
ATOM     11  C   UNL     1       2.672   2.321  -0.787  1.00  0.00     0.354 C 
ATOM     12  O   UNL     1       3.395   1.914   0.104  1.00  0.00    -0.245 OA
BRANCH  11  13
ATOM     13  O   UNL     1       1.346   2.128  -0.943  1.00  0.00    -0.461 OA
BRANCH  13  14
ATOM     14  C   UNL     1       0.709   1.379   0.101  1.00  0.00     0.230 C 
ATOM     15  C   UNL     1       0.874  -0.109  -0.131  1.00  0.00     0.049 C 
ENDBRANCH  13  14
ENDBRANCH  11  13
ENDBRANCH   7  11
BRANCH  10  16
ATOM     16  C   UNL     1       5.385   4.370  -4.182  1.00  0.00     0.096 A 
ATOM     17  C   UNL     1       5.648   3.418  -5.180  1.00  0.00     0.032 A 
ATOM     18  C   UNL     1       6.277   5.448  -4.069  1.00  0.00     0.149 A 
ATOM     19  C   UNL     1       6.736   3.555  -6.047  1.00  0.00     0.023 A 
ATOM     20  C   UNL     1       7.386   5.578  -4.903  1.00  0.00     0.062 A 
ATOM     21  F   UNL     1       6.101   6.373  -3.111  1.00  0.00    -0.205 F 
ATOM     22  C   UNL     1       7.604   4.633  -5.899  1.00  0.00     0.044 A 
ATOM     23  Cl  UNL     1       8.953   4.797  -6.953  1.00  0.00    -0.084 Cl
ENDBRANCH  10  16
ENDBRANCH   3   6
ENDBRANCH   1   2
BRANCH   1  24
ATOM     24  C   UNL     1       0.382   8.470  -2.663  1.00  0.00     0.042 C 
BRANCH  24  25
ATOM     25  C   UNL     1      -0.268   9.143  -3.863  1.00  0.00     0.118 C 
BRANCH  25  26
ATOM     26  N   UNL     1      -1.585   8.611  -4.184  1.00  0.00    -0.352 N 
ATOM     27  C   UNL     1      -2.822   9.210  -4.152  1.00  0.00     0.251 C 
ATOM     28  H   UNL     1      -1.590   7.669  -4.470  1.00  0.00     0.163 HD
ATOM     29  O   UNL     1      -3.828   8.530  -4.332  1.00  0.00    -0.269 OA
BRANCH  27  30
ATOM     30  C   UNL     1      -2.957  10.657  -3.867  1.00  0.00     0.039 A 
ATOM     31  C   UNL     1      -3.981  11.082  -3.015  1.00  0.00     0.014 A 
ATOM     32  C   UNL     1      -2.093  11.595  -4.435  1.00  0.00     0.014 A 
ATOM     33  C   UNL     1      -4.082  12.432  -2.666  1.00  0.00     0.010 A 
ATOM     34  C   UNL     1      -2.135  12.922  -4.015  1.00  0.00     0.010 A 
ATOM     35  C   UNL     1      -3.130  13.355  -3.127  1.00  0.00    -0.014 A 
BRANCH  35  36
ATOM     36  C   UNL     1      -3.151  14.775  -2.691  1.00  0.00     0.031 A 
ATOM     37  C   UNL     1      -3.335  15.877  -3.699  1.00  0.00     0.074 A 
ATOM     38  C   UNL     1      -2.913  15.082  -1.400  1.00  0.00     0.049 A 
ATOM     39  N   UNL     1      -3.287  17.173  -3.524  1.00  0.00    -0.248 NA
ATOM     40  C   UNL     1      -3.568  15.467  -5.093  1.00  0.00     0.031 C 
ATOM     41  C   UNL     1      -2.660  14.115  -0.330  1.00  0.00     0.029 A 
ATOM     42  N   UNL     1      -2.828  16.300  -0.773  1.00  0.00    -0.354 N 
ATOM     43  C   UNL     1      -3.450  17.730  -4.786  1.00  0.00     0.074 A 
ATOM     44  C   UNL     1      -3.556  16.633  -5.723  1.00  0.00     0.031 C 
ATOM     45  C   UNL     1      -2.468  14.776   0.823  1.00  0.00     0.029 A 
ATOM     46  C   UNL     1      -2.546  16.210   0.568  1.00  0.00     0.049 A 
ATOM     47  H   UNL     1      -2.957  17.157  -1.241  1.00  0.00     0.167 HD
ATOM     48  C   UNL     1      -3.522  19.037  -5.135  1.00  0.00     0.031 A 
ATOM     49  C   UNL     1      -2.362  17.173   1.490  1.00  0.00     0.031 A 
ATOM     50  C   UNL     1      -3.448  20.130  -4.205  1.00  0.00     0.049 A 
ATOM     51  C   UNL     1      -2.476  18.615   1.086  1.00  0.00     0.074 A 
ATOM     52  C   UNL     1      -3.597  21.484  -4.451  1.00  0.00     0.029 A 
ATOM     53  N   UNL     1      -3.203  19.994  -2.848  1.00  0.00    -0.354 N 
ATOM     54  N   UNL     1      -2.712  19.122  -0.099  1.00  0.00    -0.248 NA
ATOM     55  C   UNL     1      -2.311  19.616   2.150  1.00  0.00     0.031 C 
ATOM     56  C   UNL     1      -3.399  22.171  -3.248  1.00  0.00     0.029 A 
ATOM     57  C   UNL     1      -3.173  21.241  -2.246  1.00  0.00     0.049 A 
ATOM     58  H   UNL     1      -3.070  19.138  -2.380  1.00  0.00     0.167 HD
ATOM     59  C   UNL     1      -2.744  20.499   0.079  1.00  0.00     0.074 A 
ATOM     60  C   UNL     1      -2.519  20.746   1.488  1.00  0.00     0.031 C 
ATOM     61  C   UNL     1      -2.943  21.471  -0.844  1.00  0.00     0.031 A 
BRANCH  48  62
ATOM     62  C   UNL     1      -3.683  19.351  -6.597  1.00  0.00    -0.014 A 
ATOM     63  C   UNL     1      -4.885  19.085  -7.272  1.00  0.00     0.009 A 
ATOM     64  C   UNL     1      -2.623  19.939  -7.303  1.00  0.00     0.009 A 
ATOM     65  C   UNL     1      -5.007  19.362  -8.635  1.00  0.00     0.001 A 
ATOM     66  C   UNL     1      -2.757  20.241  -8.660  1.00  0.00     0.001 A 
ATOM     67  C   UNL     1      -3.944  19.942  -9.327  1.00  0.00     0.000 A 
ENDBRANCH  48  62
BRANCH  49  68
ATOM     68  C   UNL     1      -2.064  16.800   2.897  1.00  0.00    -0.014 A 
ATOM     69  C   UNL     1      -3.044  16.938   3.891  1.00  0.00     0.009 A 
ATOM     70  C   UNL     1      -0.804  16.293   3.248  1.00  0.00     0.009 A 
ATOM     71  C   UNL     1      -2.760  16.594   5.215  1.00  0.00     0.001 A 
ATOM     72  C   UNL     1      -0.532  15.926   4.568  1.00  0.00     0.001 A 
ATOM     73  C   UNL     1      -1.507  16.084   5.551  1.00  0.00     0.000 A 
ENDBRANCH  49  68
BRANCH  61  74
ATOM     74  C   UNL     1      -2.950  22.890  -0.354  1.00  0.00    -0.014 A 
ATOM     75  C   UNL     1      -1.760  23.539   0.009  1.00  0.00     0.009 A 
ATOM     76  C   UNL     1      -4.160  23.599  -0.295  1.00  0.00     0.009 A 
ATOM     77  C   UNL     1      -1.786  24.863   0.451  1.00  0.00     0.001 A 
ATOM     78  C   UNL     1      -4.179  24.931   0.123  1.00  0.00     0.001 A 
ATOM     79  C   UNL     1      -2.994  25.559   0.503  1.00  0.00     0.000 A 
ENDBRANCH  61  74
ENDBRANCH  35  36
ENDBRANCH  27  30
ENDBRANCH  25  26
ENDBRANCH  24  25
ENDBRANCH   1  24
TORSDOF 14
