REMARK SMILES CC(=O)Nc1cnc(N(C)CCc2cn[nH]c2)c(C(=O)NCCCNC(=O)c2ccc(-c3c4nc(c(-c5ccccc5)c5ccc([nH]5)c(-c5ccccc5)c5nc(c(-c6ccccc6)c6ccc3[nH]6)C=C5)C=C4)cc2)c1
REMARK SMILES IDX 22 1 21 2 19 3 20 4 18 6 5 7 6 8 76 9 7 10 8 11 4 12 1 13
REMARK SMILES IDX 2 14 3 15 9 17 10 18 11 19 12 20 13 21 14 22 17 23 15 24
REMARK SMILES IDX 16 25 23 27 24 28 25 29 26 30 27 32 28 33 29 34 75 35 30 36
REMARK SMILES IDX 74 37 31 38 32 39 33 40 68 41 34 42 73 43 67 44 69 45 35 46
REMARK SMILES IDX 72 47 66 48 65 49 36 51 58 52 43 53 57 54 44 55 47 56 56 57
REMARK SMILES IDX 70 58 45 59 46 60 55 62 71 63 48 64 37 65 38 66 42 67 39 68
REMARK SMILES IDX 41 69 40 70 59 71 60 72 64 73 61 74 63 75 62 76 49 77 50 78
REMARK SMILES IDX 54 79 51 80 53 81 52 82
REMARK H PARENT 21 5 4 16 16 26 25 31 69 50 47 61
REMARK Flexibility Score: inf
ROOT
ATOM      1  C   UNL     1       4.773  -0.246   0.612  1.00  0.00     0.118 C 
ENDROOT
BRANCH   1   2
ATOM      2  N   UNL     1       5.585   0.419   1.614  1.00  0.00    -0.352 N 
ATOM      3  C   UNL     1       5.227   1.330   2.575  1.00  0.00     0.255 C 
ATOM      4  O   UNL     1       6.115   1.931   3.175  1.00  0.00    -0.269 OA
ATOM      5  H   UNL     1       6.539   0.179   1.602  1.00  0.00     0.163 HD
BRANCH   3   6
ATOM      6  C   UNL     1       3.811   1.564   2.915  1.00  0.00     0.084 A 
ATOM      7  C   UNL     1       1.650   2.398   2.217  1.00  0.00     0.060 A 
ATOM      8  C   UNL     1       1.313   2.426   3.553  1.00  0.00     0.139 A 
ATOM      9  C   UNL     1       2.950   2.033   1.904  1.00  0.00     0.045 A 
ATOM     10  N   UNL     1       2.115   1.954   4.535  1.00  0.00    -0.236 NA
ATOM     11  C   UNL     1       3.348   1.455   4.237  1.00  0.00     0.141 A 
BRANCH   7  12
ATOM     12  N   UNL     1       0.711   2.766   1.246  1.00  0.00    -0.325 N 
ATOM     13  C   UNL     1       0.878   0.672  -0.074  1.00  0.00     0.114 C 
ATOM     14  C   UNL     1       0.380   2.084   0.103  1.00  0.00     0.221 C 
ATOM     15  O   UNL     1      -0.384   2.600  -0.713  1.00  0.00    -0.275 OA
ATOM     16  H   UNL     1       0.234   3.613   1.401  1.00  0.00     0.169 HD
ENDBRANCH   7  12
BRANCH  11  17
ATOM     17  N   UNL     1       3.980   0.792   5.273  1.00  0.00    -0.359 N 
ATOM     18  C   UNL     1       3.649   1.201   6.636  1.00  0.00     0.145 C 
BRANCH  17  19
ATOM     19  C   UNL     1       4.948  -0.305   5.134  1.00  0.00     0.122 C 
BRANCH  19  20
ATOM     20  C   UNL     1       4.308  -1.701   5.062  1.00  0.00     0.060 C 
BRANCH  20  21
ATOM     21  C   UNL     1       3.647  -2.078   3.774  1.00  0.00    -0.008 A 
ATOM     22  C   UNL     1       2.440  -1.581   3.230  1.00  0.00     0.138 A 
ATOM     23  C   UNL     1       4.013  -3.073   2.888  1.00  0.00     0.108 A 
ATOM     24  N   UNL     1       2.114  -2.162   2.072  1.00  0.00    -0.184 NA
ATOM     25  N   UNL     1       3.052  -3.108   1.919  1.00  0.00    -0.285 N 
ATOM     26  H   UNL     1       3.048  -3.761   1.183  1.00  0.00     0.189 HD
ENDBRANCH  20  21
ENDBRANCH  19  20
ENDBRANCH  17  19
ENDBRANCH  11  17
ENDBRANCH   3   6
ENDBRANCH   1   2
BRANCH   1  27
ATOM     27  C   UNL     1       5.037   0.393  -0.746  1.00  0.00     0.042 C 
BRANCH  27  28
ATOM     28  C   UNL     1       6.315  -0.149  -1.366  1.00  0.00     0.118 C 
BRANCH  28  29
ATOM     29  N   UNL     1       6.096  -1.440  -2.006  1.00  0.00    -0.352 N 
ATOM     30  C   UNL     1       6.480  -1.836  -3.268  1.00  0.00     0.251 C 
ATOM     31  H   UNL     1       5.614  -2.111  -1.471  1.00  0.00     0.163 HD
ATOM     32  O   UNL     1       6.072  -2.878  -3.750  1.00  0.00    -0.269 OA
BRANCH  30  33
ATOM     33  C   UNL     1       7.380  -0.948  -4.034  1.00  0.00     0.039 A 
ATOM     34  C   UNL     1       7.036  -0.581  -5.336  1.00  0.00     0.014 A 
ATOM     35  C   UNL     1       8.526  -0.430  -3.425  1.00  0.00     0.014 A 
ATOM     36  C   UNL     1       7.815   0.361  -6.011  1.00  0.00     0.010 A 
ATOM     37  C   UNL     1       9.246   0.569  -4.064  1.00  0.00     0.010 A 
ATOM     38  C   UNL     1       8.905   0.969  -5.366  1.00  0.00    -0.014 A 
BRANCH  38  39
ATOM     39  C   UNL     1       9.736   2.004  -6.029  1.00  0.00     0.031 A 
ATOM     40  C   UNL     1      11.201   1.742  -6.249  1.00  0.00     0.074 A 
ATOM     41  C   UNL     1       9.208   3.204  -6.340  1.00  0.00     0.049 A 
ATOM     42  N   UNL     1      12.137   2.560  -6.657  1.00  0.00    -0.248 NA
ATOM     43  C   UNL     1      11.684   0.388  -5.926  1.00  0.00     0.031 C 
ATOM     44  C   UNL     1       7.811   3.597  -6.149  1.00  0.00     0.029 A 
ATOM     45  N   UNL     1       9.799   4.325  -6.869  1.00  0.00    -0.354 N 
ATOM     46  C   UNL     1      13.319   1.832  -6.601  1.00  0.00     0.074 A 
ATOM     47  C   UNL     1      12.992   0.526  -6.075  1.00  0.00     0.031 C 
ATOM     48  C   UNL     1       7.648   4.861  -6.574  1.00  0.00     0.029 A 
ATOM     49  C   UNL     1       8.935   5.383  -7.021  1.00  0.00     0.049 A 
ATOM     50  H   UNL     1      10.751   4.367  -7.117  1.00  0.00     0.167 HD
ATOM     51  C   UNL     1      14.565   2.210  -6.972  1.00  0.00     0.031 A 
ATOM     52  C   UNL     1       9.160   6.637  -7.458  1.00  0.00     0.031 A 
ATOM     53  C   UNL     1      14.883   3.497  -7.526  1.00  0.00     0.049 A 
ATOM     54  C   UNL     1      10.552   7.032  -7.869  1.00  0.00     0.074 A 
ATOM     55  C   UNL     1      16.102   3.958  -7.991  1.00  0.00     0.029 A 
ATOM     56  N   UNL     1      13.972   4.527  -7.695  1.00  0.00    -0.354 N 
ATOM     57  N   UNL     1      11.651   6.317  -7.860  1.00  0.00    -0.248 NA
ATOM     58  C   UNL     1      10.732   8.406  -8.362  1.00  0.00     0.031 C 
ATOM     59  C   UNL     1      15.937   5.283  -8.404  1.00  0.00     0.029 A 
ATOM     60  C   UNL     1      14.603   5.628  -8.246  1.00  0.00     0.049 A 
ATOM     61  H   UNL     1      13.017   4.482  -7.458  1.00  0.00     0.167 HD
ATOM     62  C   UNL     1      12.643   7.140  -8.377  1.00  0.00     0.074 A 
ATOM     63  C   UNL     1      12.014   8.405  -8.697  1.00  0.00     0.031 C 
ATOM     64  C   UNL     1      13.957   6.871  -8.573  1.00  0.00     0.031 A 
BRANCH  51  65
ATOM     65  C   UNL     1      15.674   1.212  -6.784  1.00  0.00    -0.014 A 
ATOM     66  C   UNL     1      15.748   0.048  -7.566  1.00  0.00     0.009 A 
ATOM     67  C   UNL     1      16.671   1.450  -5.825  1.00  0.00     0.009 A 
ATOM     68  C   UNL     1      16.771  -0.879  -7.360  1.00  0.00     0.001 A 
ATOM     69  C   UNL     1      17.712   0.537  -5.644  1.00  0.00     0.001 A 
ATOM     70  C   UNL     1      17.754  -0.631  -6.403  1.00  0.00     0.000 A 
ENDBRANCH  51  65
BRANCH  52  71
ATOM     71  C   UNL     1       8.040   7.610  -7.546  1.00  0.00    -0.014 A 
ATOM     72  C   UNL     1       7.549   8.014  -8.798  1.00  0.00     0.009 A 
ATOM     73  C   UNL     1       7.461   8.148  -6.386  1.00  0.00     0.009 A 
ATOM     74  C   UNL     1       6.523   8.957  -8.887  1.00  0.00     0.001 A 
ATOM     75  C   UNL     1       6.415   9.069  -6.478  1.00  0.00     0.001 A 
ATOM     76  C   UNL     1       5.954   9.480  -7.727  1.00  0.00     0.000 A 
ENDBRANCH  52  71
BRANCH  64  77
ATOM     77  C   UNL     1      14.794   7.940  -9.215  1.00  0.00    -0.014 A 
ATOM     78  C   UNL     1      15.183   9.088  -8.510  1.00  0.00     0.009 A 
ATOM     79  C   UNL     1      15.253   7.759 -10.530  1.00  0.00     0.009 A 
ATOM     80  C   UNL     1      15.996  10.046  -9.119  1.00  0.00     0.001 A 
ATOM     81  C   UNL     1      16.088   8.704 -11.126  1.00  0.00     0.001 A 
ATOM     82  C   UNL     1      16.453   9.850 -10.422  1.00  0.00     0.000 A 
ENDBRANCH  64  77
ENDBRANCH  38  39
ENDBRANCH  30  33
ENDBRANCH  28  29
ENDBRANCH  27  28
ENDBRANCH   1  27
TORSDOF 15
