REMARK SMILES CC1=C(C)C(=O)N(C[C@H](CC(C)C)C(=O)NCCCNC(=O)c2ccc(-c3c4nc(c(-c5ccccc5)c5ccc([nH]5)c(-c5ccccc5)c5nc(c(-c6ccccc6)c6ccc3[nH]6)C=C5)C=C4)cc2)C1=O
REMARK SMILES IDX 18 1 17 2 16 3 14 4 15 5 9 7 8 8 7 9 1 10 2 11 3 12 71 13
REMARK SMILES IDX 4 14 5 15 72 16 6 17 10 18 11 19 12 20 13 21 19 22 20 23
REMARK SMILES IDX 21 24 22 26 23 27 24 28 70 29 25 30 69 31 26 32 27 33 28 34
REMARK SMILES IDX 63 35 29 36 68 37 62 38 64 39 30 40 67 41 61 42 60 43 31 45
REMARK SMILES IDX 53 46 38 47 52 48 39 49 42 50 51 51 65 52 40 53 41 54 50 56
REMARK SMILES IDX 66 57 43 58 32 59 33 60 37 61 34 62 36 63 35 64 54 65 55 66
REMARK SMILES IDX 59 67 56 68 58 69 57 70 44 71 45 72 49 73 46 74 48 75 47 76
REMARK H PARENT 16 6 20 25 64 44 42 55
REMARK Flexibility Score: inf
ROOT
ATOM      1  C   UNL     1      -6.059   4.109  -1.728  1.00  0.00     0.042 C 
ENDROOT
BRANCH   1   2
ATOM      2  C   UNL     1      -5.348   3.183  -2.727  1.00  0.00     0.117 C 
BRANCH   2   3
ATOM      3  N   UNL     1      -4.440   3.976  -3.910  1.00  0.00    -0.356 N 
ATOM      4  C   UNL     1      -2.471   4.391  -4.265  1.00  0.00     0.224 C 
ATOM      5  O   UNL     1      -1.861   4.977  -5.199  1.00  0.00    -0.275 OA
ATOM      6  H   UNL     1      -5.016   4.336  -4.623  1.00  0.00     0.163 HD
BRANCH   4   7
ATOM      7  C   UNL     1      -1.244   3.774  -3.141  1.00  0.00     0.099 C 
BRANCH   7   8
ATOM      8  C   UNL     1      -1.877   2.495  -2.801  1.00  0.00     0.142 C 
BRANCH   8   9
ATOM      9  N   UNL     1      -3.096   3.050  -3.193  1.00  0.00    -0.274 N 
ATOM     10  C   UNL     1      -4.087   7.225  -4.464  1.00  0.00     0.051 C 
ATOM     11  C   UNL     1      -3.920   5.754  -4.420  1.00  0.00     0.023 C 
ATOM     12  C   UNL     1      -3.947   4.649  -5.665  1.00  0.00     0.023 C 
ATOM     13  C   UNL     1      -3.416   4.853  -2.675  1.00  0.00     0.256 C 
ATOM     14  C   UNL     1      -4.289   4.780  -7.100  1.00  0.00     0.051 C 
ATOM     15  C   UNL     1      -3.416   2.825  -5.009  1.00  0.00     0.256 C 
ATOM     16  O   UNL     1      -3.369   5.368  -1.575  1.00  0.00    -0.269 OA
ATOM     17  O   UNL     1      -3.100   1.870  -5.696  1.00  0.00    -0.269 OA
ENDBRANCH   8   9
ENDBRANCH   7   8
BRANCH   7  18
ATOM     18  C   UNL     1      -0.764   4.423  -1.814  1.00  0.00     0.018 C 
BRANCH  18  19
ATOM     19  C   UNL     1      -0.301   5.886  -1.657  1.00  0.00    -0.017 C 
ATOM     20  C   UNL     1      -0.915   6.938  -2.566  1.00  0.00     0.007 C 
ATOM     21  C   UNL     1      -0.527   6.303  -0.188  1.00  0.00     0.007 C 
ENDBRANCH  18  19
ENDBRANCH   7  18
ENDBRANCH   4   7
ENDBRANCH   2   3
ENDBRANCH   1   2
BRANCH   1  22
ATOM     22  C   UNL     1      -6.742   5.310  -2.348  1.00  0.00     0.118 C 
BRANCH  22  23
ATOM     23  N   UNL     1      -7.879   4.897  -3.146  1.00  0.00    -0.352 N 
ATOM     24  C   UNL     1      -9.204   5.035  -2.828  1.00  0.00     0.251 C 
ATOM     25  H   UNL     1      -7.677   4.470  -4.011  1.00  0.00     0.163 HD
ATOM     26  O   UNL     1     -10.039   4.301  -3.344  1.00  0.00    -0.269 OA
BRANCH  24  27
ATOM     27  C   UNL     1      -9.610   6.078  -1.864  1.00  0.00     0.039 A 
ATOM     28  C   UNL     1     -10.601   5.782  -0.930  1.00  0.00     0.014 A 
ATOM     29  C   UNL     1      -9.039   7.356  -1.910  1.00  0.00     0.014 A 
ATOM     30  C   UNL     1     -11.018   6.769  -0.040  1.00  0.00     0.010 A 
ATOM     31  C   UNL     1      -9.393   8.311  -0.962  1.00  0.00     0.010 A 
ATOM     32  C   UNL     1     -10.412   8.039  -0.041  1.00  0.00    -0.014 A 
BRANCH  32  33
ATOM     33  C   UNL     1     -10.880   9.088   0.897  1.00  0.00     0.031 A 
ATOM     34  C   UNL     1     -11.531  10.342   0.373  1.00  0.00     0.074 A 
ATOM     35  C   UNL     1     -10.742   8.896   2.223  1.00  0.00     0.049 A 
ATOM     36  N   UNL     1     -12.081  11.324   1.042  1.00  0.00    -0.248 NA
ATOM     37  C   UNL     1     -11.554  10.530  -1.087  1.00  0.00     0.031 C 
ATOM     38  C   UNL     1     -10.082   7.746   2.849  1.00  0.00     0.029 A 
ATOM     39  N   UNL     1     -11.169   9.651   3.285  1.00  0.00    -0.354 N 
ATOM     40  C   UNL     1     -12.519  12.234   0.087  1.00  0.00     0.074 A 
ATOM     41  C   UNL     1     -12.109  11.727  -1.202  1.00  0.00     0.031 C 
ATOM     42  C   UNL     1     -10.199   7.845   4.182  1.00  0.00     0.029 A 
ATOM     43  C   UNL     1     -10.907   9.078   4.506  1.00  0.00     0.049 A 
ATOM     44  H   UNL     1     -11.621  10.519   3.182  1.00  0.00     0.167 HD
ATOM     45  C   UNL     1     -13.230  13.373   0.263  1.00  0.00     0.031 A 
ATOM     46  C   UNL     1     -11.214   9.497   5.747  1.00  0.00     0.031 A 
ATOM     47  C   UNL     1     -13.638  13.878   1.546  1.00  0.00     0.049 A 
ATOM     48  C   UNL     1     -11.992  10.774   5.910  1.00  0.00     0.074 A 
ATOM     49  C   UNL     1     -14.381  15.010   1.831  1.00  0.00     0.029 A 
ATOM     50  N   UNL     1     -13.340  13.277   2.758  1.00  0.00    -0.354 N 
ATOM     51  N   UNL     1     -12.459  11.584   4.990  1.00  0.00    -0.248 NA
ATOM     52  C   UNL     1     -12.302  11.182   7.286  1.00  0.00     0.031 C 
ATOM     53  C   UNL     1     -14.492  15.120   3.221  1.00  0.00     0.029 A 
ATOM     54  C   UNL     1     -13.872  14.023   3.797  1.00  0.00     0.049 A 
ATOM     55  H   UNL     1     -12.827  12.444   2.866  1.00  0.00     0.167 HD
ATOM     56  C   UNL     1     -13.140  12.581   5.676  1.00  0.00     0.074 A 
ATOM     57  C   UNL     1     -13.057  12.251   7.084  1.00  0.00     0.031 C 
ATOM     58  C   UNL     1     -13.772  13.678   5.190  1.00  0.00     0.031 A 
BRANCH  45  59
ATOM     59  C   UNL     1     -13.627  14.144  -0.967  1.00  0.00    -0.014 A 
ATOM     60  C   UNL     1     -14.598  13.643  -1.850  1.00  0.00     0.009 A 
ATOM     61  C   UNL     1     -13.073  15.409  -1.216  1.00  0.00     0.009 A 
ATOM     62  C   UNL     1     -14.989  14.382  -2.968  1.00  0.00     0.001 A 
ATOM     63  C   UNL     1     -13.488  16.159  -2.320  1.00  0.00     0.001 A 
ATOM     64  C   UNL     1     -14.440  15.642  -3.197  1.00  0.00     0.000 A 
ENDBRANCH  45  59
BRANCH  46  65
ATOM     65  C   UNL     1     -10.802   8.706   6.939  1.00  0.00    -0.014 A 
ATOM     66  C   UNL     1     -11.761   8.106   7.771  1.00  0.00     0.009 A 
ATOM     67  C   UNL     1      -9.445   8.592   7.279  1.00  0.00     0.009 A 
ATOM     68  C   UNL     1     -11.372   7.455   8.944  1.00  0.00     0.001 A 
ATOM     69  C   UNL     1      -9.057   7.907   8.432  1.00  0.00     0.001 A 
ATOM     70  C   UNL     1     -10.022   7.354   9.273  1.00  0.00     0.000 A 
ENDBRANCH  46  65
BRANCH  58  71
ATOM     71  C   UNL     1     -14.447  14.570   6.195  1.00  0.00    -0.014 A 
ATOM     72  C   UNL     1     -13.703  15.332   7.111  1.00  0.00     0.009 A 
ATOM     73  C   UNL     1     -15.848  14.644   6.228  1.00  0.00     0.009 A 
ATOM     74  C   UNL     1     -14.351  16.101   8.079  1.00  0.00     0.001 A 
ATOM     75  C   UNL     1     -16.492  15.444   7.173  1.00  0.00     0.001 A 
ATOM     76  C   UNL     1     -15.744  16.158   8.108  1.00  0.00     0.000 A 
ENDBRANCH  58  71
ENDBRANCH  32  33
ENDBRANCH  24  27
ENDBRANCH  22  23
ENDBRANCH   1  22
TORSDOF 14
