REMARK SMILES Cc1ccc(N2C(=O)/C(=C3\C(=O)N(CC(=O)NCCCNC(=O)c4ccc(-c5c6nc(c(-c7ccccc7)c7ccc([nH]7)c(-c7ccccc7)c7nc(c(-c8ccccc8)c8ccc5[nH]8)C=C7)C=C6)cc4)c4ccccc43)SC2=S)c(C)c1
REMARK SMILES IDX 19 1 18 2 17 3 15 4 16 5 14 7 13 8 6 9 7 10 79 11 8 12 9 13
REMARK SMILES IDX 78 14 80 15 10 16 11 17 77 18 12 19 72 20 76 21 73 22 75 23
REMARK SMILES IDX 74 24 5 25 1 26 2 27 3 28 83 29 4 30 81 31 82 32 20 33 21 34
REMARK SMILES IDX 22 35 23 37 24 38 25 39 71 40 26 41 70 42 27 43 28 44 29 45
REMARK SMILES IDX 64 46 30 47 69 48 63 49 65 50 31 51 68 52 62 53 61 54 32 56
REMARK SMILES IDX 54 57 39 58 53 59 40 60 43 61 52 62 66 63 41 64 42 65 51 67
REMARK SMILES IDX 67 68 44 69 33 70 34 71 38 72 35 73 37 74 36 75 55 76 56 77
REMARK SMILES IDX 60 78 57 79 59 80 58 81 45 82 46 83 50 84 47 85 49 86 48 87
REMARK H PARENT 17 6 21 36 65 55 43 66
REMARK Flexibility Score: inf
ROOT
ATOM      1  C   UNL     1      -8.291  -2.541  -3.496  1.00  0.00     0.042 C 
ENDROOT
BRANCH   1   2
ATOM      2  C   UNL     1      -8.635  -1.125  -3.940  1.00  0.00     0.117 C 
BRANCH   2   3
ATOM      3  N   UNL     1      -9.817  -0.619  -3.268  1.00  0.00    -0.354 N 
ATOM      4  C   UNL     1      -9.902   0.229  -2.203  1.00  0.00     0.240 C 
ATOM      5  O   UNL     1     -11.027   0.532  -1.795  1.00  0.00    -0.273 OA
ATOM      6  H   UNL     1     -10.677  -0.932  -3.631  1.00  0.00     0.163 HD
BRANCH   4   7
ATOM      7  C   UNL     1      -8.641   0.812  -1.560  1.00  0.00     0.225 C 
BRANCH   7   8
ATOM      8  N   UNL     1      -7.813  -0.162  -0.876  1.00  0.00    -0.298 N 
ATOM      9  N   UNL     1      -2.475  -1.809  -0.025  1.00  0.00    -0.261 N 
ATOM     10  C   UNL     1      -3.557  -1.533  -0.867  1.00  0.00     0.271 C 
ATOM     11  C   UNL     1      -2.681  -2.816   0.905  1.00  0.00     0.152 C 
ATOM     12  O   UNL     1      -3.498  -1.031  -1.978  1.00  0.00    -0.268 OA
ATOM     13  C   UNL     1      -4.805  -2.051  -0.222  1.00  0.00     0.094 C 
ATOM     14  S   UNL     1      -4.330  -3.400   0.752  1.00  0.00    -0.053 SA
ATOM     15  S   UNL     1      -1.708  -3.404   2.131  1.00  0.00    -0.051 S 
ATOM     16  C   UNL     1      -6.026  -1.488  -0.240  1.00  0.00     0.069 C 
ATOM     17  C   UNL     1      -6.471  -0.383  -1.171  1.00  0.00     0.260 C 
ATOM     18  C   UNL     1      -7.180  -1.757   0.651  1.00  0.00     0.012 A 
ATOM     19  O   UNL     1      -5.821   0.196  -2.020  1.00  0.00    -0.269 OA
ATOM     20  C   UNL     1      -8.225  -0.928   0.224  1.00  0.00     0.053 A 
ATOM     21  C   UNL     1      -7.339  -2.509   1.809  1.00  0.00     0.011 A 
ATOM     22  C   UNL     1      -9.440  -0.870   0.890  1.00  0.00     0.027 A 
ATOM     23  C   UNL     1      -8.554  -2.451   2.500  1.00  0.00     0.001 A 
ATOM     24  C   UNL     1      -9.599  -1.645   2.038  1.00  0.00     0.002 A 
BRANCH   9  25
ATOM     25  C   UNL     1      -1.258  -1.070  -0.141  1.00  0.00     0.054 A 
ATOM     26  C   UNL     1       2.502   1.077  -0.051  1.00  0.00     0.044 C 
ATOM     27  C   UNL     1       1.208   0.322  -0.120  1.00  0.00    -0.051 A 
ATOM     28  C   UNL     1       1.186  -1.070  -0.170  1.00  0.00     0.005 A 
ATOM     29  C   UNL     1      -0.006   1.016  -0.119  1.00  0.00     0.009 A 
ATOM     30  C   UNL     1      -0.031  -1.754  -0.192  1.00  0.00     0.027 A 
ATOM     31  C   UNL     1      -1.245   0.343  -0.112  1.00  0.00    -0.027 A 
ATOM     32  C   UNL     1      -2.473   1.211  -0.026  1.00  0.00     0.046 C 
ENDBRANCH   9  25
ENDBRANCH   7   8
ENDBRANCH   4   7
ENDBRANCH   2   3
ENDBRANCH   1   2
BRANCH   1  33
ATOM     33  C   UNL     1      -9.337  -3.579  -3.888  1.00  0.00     0.118 C 
BRANCH  33  34
ATOM     34  N   UNL     1      -9.410  -3.812  -5.326  1.00  0.00    -0.352 N 
ATOM     35  C   UNL     1      -9.192  -4.960  -6.052  1.00  0.00     0.251 C 
ATOM     36  H   UNL     1      -9.654  -3.023  -5.862  1.00  0.00     0.163 HD
ATOM     37  O   UNL     1      -9.166  -4.917  -7.278  1.00  0.00    -0.269 OA
BRANCH  35  38
ATOM     38  C   UNL     1      -8.946  -6.241  -5.355  1.00  0.00     0.039 A 
ATOM     39  C   UNL     1      -9.719  -6.612  -4.256  1.00  0.00     0.014 A 
ATOM     40  C   UNL     1      -7.904  -7.066  -5.789  1.00  0.00     0.014 A 
ATOM     41  C   UNL     1      -9.317  -7.682  -3.465  1.00  0.00     0.010 A 
ATOM     42  C   UNL     1      -7.569  -8.205  -5.052  1.00  0.00     0.010 A 
ATOM     43  C   UNL     1      -8.230  -8.486  -3.846  1.00  0.00    -0.014 A 
BRANCH  43  44
ATOM     44  C   UNL     1      -7.795  -9.598  -2.960  1.00  0.00     0.031 A 
ATOM     45  C   UNL     1      -6.424  -9.594  -2.336  1.00  0.00     0.074 A 
ATOM     46  C   UNL     1      -8.662 -10.589  -2.669  1.00  0.00     0.049 A 
ATOM     47  N   UNL     1      -5.891 -10.469  -1.519  1.00  0.00    -0.248 NA
ATOM     48  C   UNL     1      -5.532  -8.470  -2.667  1.00  0.00     0.031 C 
ATOM     49  C   UNL     1     -10.027 -10.690  -3.189  1.00  0.00     0.029 A 
ATOM     50  N   UNL     1      -8.538 -11.682  -1.848  1.00  0.00    -0.354 N 
ATOM     51  C   UNL     1      -4.604 -10.013  -1.257  1.00  0.00     0.074 A 
ATOM     52  C   UNL     1      -4.420  -8.803  -2.026  1.00  0.00     0.031 C 
ATOM     53  C   UNL     1     -10.631 -11.748  -2.632  1.00  0.00     0.029 A 
ATOM     54  C   UNL     1      -9.676 -12.449  -1.780  1.00  0.00     0.049 A 
ATOM     55  H   UNL     1      -7.713 -11.895  -1.354  1.00  0.00     0.167 HD
ATOM     56  C   UNL     1      -3.668 -10.548  -0.439  1.00  0.00     0.031 A 
ATOM     57  C   UNL     1      -9.928 -13.599  -1.125  1.00  0.00     0.031 A 
ATOM     58  C   UNL     1      -3.863 -11.747   0.336  1.00  0.00     0.049 A 
ATOM     59  C   UNL     1      -8.850 -14.206  -0.273  1.00  0.00     0.074 A 
ATOM     60  C   UNL     1      -2.980 -12.346   1.218  1.00  0.00     0.029 A 
ATOM     61  N   UNL     1      -5.008 -12.527   0.323  1.00  0.00    -0.354 N 
ATOM     62  N   UNL     1      -7.650 -13.744  -0.013  1.00  0.00    -0.248 NA
ATOM     63  C   UNL     1      -9.156 -15.485   0.382  1.00  0.00     0.031 C 
ATOM     64  C   UNL     1      -3.557 -13.532   1.672  1.00  0.00     0.029 A 
ATOM     65  C   UNL     1      -4.838 -13.624   1.151  1.00  0.00     0.049 A 
ATOM     66  H   UNL     1      -5.821 -12.331  -0.197  1.00  0.00     0.167 HD
ATOM     67  C   UNL     1      -7.066 -14.664   0.848  1.00  0.00     0.074 A 
ATOM     68  C   UNL     1      -8.052 -15.698   1.086  1.00  0.00     0.031 C 
ATOM     69  C   UNL     1      -5.823 -14.650   1.387  1.00  0.00     0.031 A 
BRANCH  56  70
ATOM     70  C   UNL     1      -2.330  -9.863  -0.330  1.00  0.00    -0.014 A 
ATOM     71  C   UNL     1      -1.174 -10.525  -0.779  1.00  0.00     0.009 A 
ATOM     72  C   UNL     1      -2.190  -8.628   0.322  1.00  0.00     0.009 A 
ATOM     73  C   UNL     1       0.092  -9.981  -0.552  1.00  0.00     0.001 A 
ATOM     74  C   UNL     1      -0.924  -8.069   0.517  1.00  0.00     0.001 A 
ATOM     75  C   UNL     1       0.215  -8.752   0.092  1.00  0.00     0.000 A 
ENDBRANCH  56  70
BRANCH  57  76
ATOM     76  C   UNL     1     -11.267 -14.235  -1.260  1.00  0.00    -0.014 A 
ATOM     77  C   UNL     1     -11.704 -14.718  -2.506  1.00  0.00     0.009 A 
ATOM     78  C   UNL     1     -12.142 -14.304  -0.167  1.00  0.00     0.009 A 
ATOM     79  C   UNL     1     -12.999 -15.216  -2.664  1.00  0.00     0.001 A 
ATOM     80  C   UNL     1     -13.424 -14.840  -0.319  1.00  0.00     0.001 A 
ATOM     81  C   UNL     1     -13.856 -15.281  -1.569  1.00  0.00     0.000 A 
ENDBRANCH  57  76
BRANCH  69  82
ATOM     82  C   UNL     1      -5.435 -15.773   2.312  1.00  0.00    -0.014 A 
ATOM     83  C   UNL     1      -5.168 -15.500   3.664  1.00  0.00     0.009 A 
ATOM     84  C   UNL     1      -5.206 -17.069   1.825  1.00  0.00     0.009 A 
ATOM     85  C   UNL     1      -4.652 -16.490   4.501  1.00  0.00     0.001 A 
ATOM     86  C   UNL     1      -4.725 -18.068   2.674  1.00  0.00     0.001 A 
ATOM     87  C   UNL     1      -4.434 -17.774   4.006  1.00  0.00     0.000 A 
ENDBRANCH  69  82
ENDBRANCH  43  44
ENDBRANCH  35  38
ENDBRANCH  33  34
ENDBRANCH   1  33
TORSDOF 12
