REMARK SMILES O=C(Cn1c(=O)n(Cc2cccnc2)c(=O)c2sccc21)NCCCNC(=O)c1ccc(-c2c3nc(c(-c4ccccc4)c4ccc([nH]4)c(-c4ccccc4)c4nc(c(-c5ccccc5)c5ccc2[nH]5)C=C4)C=C3)cc1
REMARK SMILES IDX 23 1 22 2 1 3 2 4 3 6 4 7 5 8 21 9 6 10 7 11 17 12 20 13
REMARK SMILES IDX 15 14 18 15 19 16 16 17 8 18 9 19 10 20 14 21 11 22 13 23
REMARK SMILES IDX 12 24 24 25 25 26 26 27 27 28 28 30 29 31 30 32 76 33 31 34
REMARK SMILES IDX 75 35 32 36 33 37 34 38 69 39 35 40 74 41 68 42 70 43 36 44
REMARK SMILES IDX 73 45 67 46 66 47 37 49 59 50 44 51 58 52 45 53 48 54 57 55
REMARK SMILES IDX 71 56 46 57 47 58 56 60 72 61 49 62 38 63 39 64 43 65 40 66
REMARK SMILES IDX 42 67 41 68 60 69 61 70 65 71 62 72 64 73 63 74 50 75 51 76
REMARK SMILES IDX 55 77 52 78 54 79 53 80
REMARK H PARENT 22 5 26 29 70 48 48 59
REMARK Flexibility Score: inf
ROOT
ATOM      1  C   UNL     1       1.951   1.940   1.597  1.00  0.00     0.117 C 
ENDROOT
BRANCH   1   2
ATOM      2  N   UNL     1       2.772   0.984   0.869  1.00  0.00    -0.354 N 
ATOM      3  O   UNL     1       1.107  -0.545   0.579  1.00  0.00    -0.273 OA
ATOM      4  C   UNL     1       2.183  -0.071   0.208  1.00  0.00     0.240 C 
ATOM      5  H   UNL     1       3.751   1.092   0.847  1.00  0.00     0.163 HD
BRANCH   4   6
ATOM      6  C   UNL     1       2.996  -0.772  -0.897  1.00  0.00     0.227 C 
BRANCH   6   7
ATOM      7  N   UNL     1       3.932  -0.079  -1.812  1.00  0.00    -0.283 N 
ATOM      8  C   UNL     1       3.725   1.269  -2.154  1.00  0.00     0.332 A 
ATOM      9  C   UNL     1       4.809  -0.849  -2.598  1.00  0.00     0.070 A 
ATOM     10  O   UNL     1       2.848   1.944  -1.616  1.00  0.00    -0.247 OA
ATOM     11  N   UNL     1       4.557   1.832  -3.128  1.00  0.00    -0.254 N 
ATOM     12  C   UNL     1       5.442  -0.285  -3.674  1.00  0.00     0.116 A 
ATOM     13  C   UNL     1       5.115  -2.243  -2.503  1.00  0.00     0.039 A 
ATOM     14  C   UNL     1       5.285   1.084  -4.050  1.00  0.00     0.274 A 
ATOM     15  S   UNL     1       6.405  -1.375  -4.547  1.00  0.00    -0.136 S 
ATOM     16  C   UNL     1       5.977  -2.657  -3.500  1.00  0.00     0.068 A 
ATOM     17  O   UNL     1       5.716   1.560  -5.105  1.00  0.00    -0.268 OA
BRANCH  11  18
ATOM     18  C   UNL     1       4.488   3.276  -3.354  1.00  0.00     0.168 C 
BRANCH  18  19
ATOM     19  C   UNL     1       5.721   4.006  -2.868  1.00  0.00    -0.010 A 
ATOM     20  C   UNL     1       5.741   4.694  -1.649  1.00  0.00     0.009 A 
ATOM     21  C   UNL     1       6.886   4.046  -3.632  1.00  0.00     0.116 A 
ATOM     22  C   UNL     1       6.889   5.385  -1.261  1.00  0.00     0.020 A 
ATOM     23  N   UNL     1       8.018   4.691  -3.269  1.00  0.00    -0.264 NA
ATOM     24  C   UNL     1       7.993   5.353  -2.096  1.00  0.00     0.111 A 
ENDBRANCH  18  19
ENDBRANCH  11  18
ENDBRANCH   6   7
ENDBRANCH   4   6
ENDBRANCH   1   2
BRANCH   1  25
ATOM     25  C   UNL     1       2.106   1.895   3.114  1.00  0.00     0.042 C 
BRANCH  25  26
ATOM     26  C   UNL     1       3.482   2.330   3.588  1.00  0.00     0.118 C 
BRANCH  26  27
ATOM     27  N   UNL     1       3.771   3.745   3.342  1.00  0.00    -0.352 N 
ATOM     28  C   UNL     1       4.934   4.426   3.644  1.00  0.00     0.251 C 
ATOM     29  H   UNL     1       3.056   4.269   2.914  1.00  0.00     0.163 HD
ATOM     30  O   UNL     1       4.982   5.650   3.636  1.00  0.00    -0.269 OA
BRANCH  28  31
ATOM     31  C   UNL     1       6.128   3.636   3.988  1.00  0.00     0.039 A 
ATOM     32  C   UNL     1       6.854   3.894   5.155  1.00  0.00     0.014 A 
ATOM     33  C   UNL     1       6.461   2.571   3.158  1.00  0.00     0.014 A 
ATOM     34  C   UNL     1       7.866   3.010   5.533  1.00  0.00     0.010 A 
ATOM     35  C   UNL     1       7.367   1.634   3.599  1.00  0.00     0.010 A 
ATOM     36  C   UNL     1       8.106   1.864   4.763  1.00  0.00    -0.014 A 
BRANCH  36  37
ATOM     37  C   UNL     1       9.093   0.863   5.180  1.00  0.00     0.031 A 
ATOM     38  C   UNL     1       8.907   0.192   6.505  1.00  0.00     0.074 A 
ATOM     39  C   UNL     1       9.979   0.344   4.303  1.00  0.00     0.049 A 
ATOM     40  N   UNL     1       9.778   0.039   7.452  1.00  0.00    -0.248 NA
ATOM     41  C   UNL     1       7.591  -0.389   6.816  1.00  0.00     0.031 C 
ATOM     42  C   UNL     1      10.111   0.627   2.868  1.00  0.00     0.029 A 
ATOM     43  N   UNL     1      10.850  -0.686   4.489  1.00  0.00    -0.354 N 
ATOM     44  C   UNL     1       9.173  -0.746   8.436  1.00  0.00     0.074 A 
ATOM     45  C   UNL     1       7.803  -0.926   8.020  1.00  0.00     0.031 C 
ATOM     46  C   UNL     1      10.791  -0.377   2.276  1.00  0.00     0.029 A 
ATOM     47  C   UNL     1      11.294  -1.262   3.309  1.00  0.00     0.049 A 
ATOM     48  H   UNL     1      11.137  -0.993   5.380  1.00  0.00     0.167 HD
ATOM     49  C   UNL     1       9.864  -1.307   9.469  1.00  0.00     0.031 A 
ATOM     50  C   UNL     1      11.999  -2.407   3.176  1.00  0.00     0.031 A 
ATOM     51  C   UNL     1      11.180  -0.752   9.614  1.00  0.00     0.049 A 
ATOM     52  C   UNL     1      12.632  -2.697   4.480  1.00  0.00     0.074 A 
ATOM     53  C   UNL     1      11.681   0.500   9.904  1.00  0.00     0.029 A 
ATOM     54  N   UNL     1      12.241  -1.472   9.122  1.00  0.00    -0.354 N 
ATOM     55  N   UNL     1      13.573  -1.962   5.000  1.00  0.00    -0.248 NA
ATOM     56  C   UNL     1      11.946  -3.579   5.411  1.00  0.00     0.031 C 
ATOM     57  C   UNL     1      12.854   0.616   9.103  1.00  0.00     0.029 A 
ATOM     58  C   UNL     1      13.010  -0.588   8.411  1.00  0.00     0.049 A 
ATOM     59  H   UNL     1      12.414  -2.432   9.254  1.00  0.00     0.167 HD
ATOM     60  C   UNL     1      13.314  -1.963   6.362  1.00  0.00     0.074 A 
ATOM     61  C   UNL     1      12.389  -3.075   6.567  1.00  0.00     0.031 C 
ATOM     62  C   UNL     1      13.645  -0.895   7.148  1.00  0.00     0.031 A 
BRANCH  49  63
ATOM     63  C   UNL     1       9.457  -2.552  10.211  1.00  0.00    -0.014 A 
ATOM     64  C   UNL     1      10.129  -2.901  11.399  1.00  0.00     0.009 A 
ATOM     65  C   UNL     1       8.607  -3.525   9.655  1.00  0.00     0.009 A 
ATOM     66  C   UNL     1       9.984  -4.169  11.978  1.00  0.00     0.001 A 
ATOM     67  C   UNL     1       8.430  -4.778  10.252  1.00  0.00     0.001 A 
ATOM     68  C   UNL     1       9.135  -5.108  11.402  1.00  0.00     0.000 A 
ENDBRANCH  49  63
BRANCH  50  69
ATOM     69  C   UNL     1      12.006  -3.347   2.041  1.00  0.00    -0.014 A 
ATOM     70  C   UNL     1      13.074  -4.231   1.841  1.00  0.00     0.009 A 
ATOM     71  C   UNL     1      10.843  -3.532   1.267  1.00  0.00     0.009 A 
ATOM     72  C   UNL     1      12.973  -5.277   0.916  1.00  0.00     0.001 A 
ATOM     73  C   UNL     1      10.745  -4.573   0.340  1.00  0.00     0.001 A 
ATOM     74  C   UNL     1      11.807  -5.454   0.174  1.00  0.00     0.000 A 
ENDBRANCH  50  69
BRANCH  62  75
ATOM     75  C   UNL     1      14.467   0.215   6.532  1.00  0.00    -0.014 A 
ATOM     76  C   UNL     1      14.013   0.962   5.430  1.00  0.00     0.009 A 
ATOM     77  C   UNL     1      15.628   0.647   7.189  1.00  0.00     0.009 A 
ATOM     78  C   UNL     1      14.709   2.089   4.984  1.00  0.00     0.001 A 
ATOM     79  C   UNL     1      16.313   1.786   6.757  1.00  0.00     0.001 A 
ATOM     80  C   UNL     1      15.856   2.505   5.653  1.00  0.00     0.000 A 
ENDBRANCH  62  75
ENDBRANCH  36  37
ENDBRANCH  28  31
ENDBRANCH  26  27
ENDBRANCH  25  26
ENDBRANCH   1  25
TORSDOF 13
