REMARK SMILES CC(C)Cc1ccc([C@@H](C)C(=O)NCCCNC(=O)c2ccc(-c3c4nc(c(-c5ccccc5)c5ccc([nH]5)c(-c5ccccc5)c5nc(c(-c6ccccc6)c6ccc3[nH]6)C=C5)C=C4)cc2)cc1
REMARK SMILES IDX 14 1 13 2 11 3 12 4 9 6 10 7 8 8 5 9 6 10 69 11 7 12 68 13
REMARK SMILES IDX 4 14 2 15 1 16 3 17 15 18 16 19 17 20 18 21 19 23 20 24
REMARK SMILES IDX 21 25 67 26 22 27 66 28 23 29 24 30 25 31 60 32 26 33 65 34
REMARK SMILES IDX 59 35 61 36 27 37 64 38 58 39 57 40 28 42 50 43 35 44 49 45
REMARK SMILES IDX 36 46 39 47 48 48 62 49 37 50 38 51 47 53 63 54 40 55 29 56
REMARK SMILES IDX 30 57 34 58 31 59 33 60 32 61 51 62 52 63 56 64 53 65 55 66
REMARK SMILES IDX 54 67 41 68 42 69 46 70 43 71 45 72 44 73
REMARK H PARENT 13 5 17 22 61 41 39 52
REMARK Flexibility Score: inf
ROOT
ATOM      1  C   UNL     1      -0.515   4.284  -3.247  1.00  0.00     0.117 C 
ENDROOT
BRANCH   1   2
ATOM      2  N   UNL     1      -0.597   3.614  -4.530  1.00  0.00    -0.356 N 
ATOM      3  C   UNL     1      -1.513   2.742  -5.037  1.00  0.00     0.227 C 
ATOM      4  O   UNL     1      -1.286   2.304  -6.171  1.00  0.00    -0.274 OA
ATOM      5  H   UNL     1       0.141   3.827  -5.145  1.00  0.00     0.163 HD
BRANCH   3   6
ATOM      6  C   UNL     1      -2.772   2.294  -4.278  1.00  0.00     0.105 C 
ATOM      7  C   UNL     1      -3.744   3.434  -3.972  1.00  0.00     0.023 C 
BRANCH   6   8
ATOM      8  C   UNL     1      -2.453   1.331  -3.146  1.00  0.00    -0.036 A 
ATOM      9  C   UNL     1      -1.580  -0.489  -1.165  1.00  0.00    -0.048 A 
ATOM     10  C   UNL     1      -1.927   0.824  -0.827  1.00  0.00     0.004 A 
ATOM     11  C   UNL     1      -1.734  -0.907  -2.489  1.00  0.00     0.004 A 
ATOM     12  C   UNL     1      -2.372   1.720  -1.804  1.00  0.00     0.005 A 
ATOM     13  C   UNL     1      -2.159  -0.006  -3.467  1.00  0.00     0.005 A 
BRANCH   9  14
ATOM     14  C   UNL     1      -0.989  -1.416  -0.131  1.00  0.00     0.038 C 
BRANCH  14  15
ATOM     15  C   UNL     1       0.551  -1.504  -0.200  1.00  0.00    -0.013 C 
ATOM     16  C   UNL     1       1.232  -0.154   0.054  1.00  0.00     0.008 C 
ATOM     17  C   UNL     1       1.057  -2.529   0.817  1.00  0.00     0.008 C 
ENDBRANCH  14  15
ENDBRANCH   9  14
ENDBRANCH   6   8
ENDBRANCH   3   6
ENDBRANCH   1   2
BRANCH   1  18
ATOM     18  C   UNL     1       0.458   3.608  -2.284  1.00  0.00     0.042 C 
BRANCH  18  19
ATOM     19  C   UNL     1       1.928   3.915  -2.554  1.00  0.00     0.118 C 
BRANCH  19  20
ATOM     20  N   UNL     1       2.263   5.309  -2.296  1.00  0.00    -0.352 N 
ATOM     21  C   UNL     1       3.140   5.883  -1.410  1.00  0.00     0.251 C 
ATOM     22  H   UNL     1       1.775   5.953  -2.858  1.00  0.00     0.163 HD
ATOM     23  O   UNL     1       3.102   7.101  -1.249  1.00  0.00    -0.269 OA
BRANCH  21  24
ATOM     24  C   UNL     1       4.119   5.081  -0.638  1.00  0.00     0.039 A 
ATOM     25  C   UNL     1       4.436   5.497   0.661  1.00  0.00     0.014 A 
ATOM     26  C   UNL     1       4.787   3.984  -1.189  1.00  0.00     0.014 A 
ATOM     27  C   UNL     1       5.377   4.791   1.417  1.00  0.00     0.010 A 
ATOM     28  C   UNL     1       5.673   3.237  -0.410  1.00  0.00     0.010 A 
ATOM     29  C   UNL     1       5.984   3.637   0.898  1.00  0.00    -0.014 A 
BRANCH  29  30
ATOM     30  C   UNL     1       6.940   2.847   1.716  1.00  0.00     0.031 A 
ATOM     31  C   UNL     1       8.389   2.744   1.323  1.00  0.00     0.074 A 
ATOM     32  C   UNL     1       6.494   2.186   2.802  1.00  0.00     0.049 A 
ATOM     33  N   UNL     1       9.359   2.090   1.911  1.00  0.00    -0.248 NA
ATOM     34  C   UNL     1       8.798   3.449   0.098  1.00  0.00     0.031 C 
ATOM     35  C   UNL     1       5.106   2.166   3.271  1.00  0.00     0.029 A 
ATOM     36  N   UNL     1       7.162   1.402   3.709  1.00  0.00    -0.354 N 
ATOM     37  C   UNL     1      10.485   2.289   1.122  1.00  0.00     0.074 A 
ATOM     38  C   UNL     1      10.070   3.092  -0.008  1.00  0.00     0.031 C 
ATOM     39  C   UNL     1       5.033   1.434   4.394  1.00  0.00     0.029 A 
ATOM     40  C   UNL     1       6.358   0.907   4.706  1.00  0.00     0.049 A 
ATOM     41  H   UNL     1       8.127   1.212   3.650  1.00  0.00     0.167 HD
ATOM     42  C   UNL     1      11.754   1.859   1.326  1.00  0.00     0.031 A 
ATOM     43  C   UNL     1       6.652   0.119   5.757  1.00  0.00     0.031 A 
ATOM     44  C   UNL     1      12.176   1.074   2.456  1.00  0.00     0.049 A 
ATOM     45  C   UNL     1       8.068  -0.335   5.966  1.00  0.00     0.074 A 
ATOM     46  C   UNL     1      13.452   0.642   2.778  1.00  0.00     0.029 A 
ATOM     47  N   UNL     1      11.332   0.603   3.448  1.00  0.00    -0.354 N 
ATOM     48  N   UNL     1       9.132  -0.080   5.246  1.00  0.00    -0.248 NA
ATOM     49  C   UNL     1       8.323  -1.178   7.144  1.00  0.00     0.031 C 
ATOM     50  C   UNL     1      13.372  -0.127   3.945  1.00  0.00     0.029 A 
ATOM     51  C   UNL     1      12.055  -0.133   4.373  1.00  0.00     0.049 A 
ATOM     52  H   UNL     1      10.362   0.767   3.490  1.00  0.00     0.167 HD
ATOM     53  C   UNL     1      10.186  -0.712   5.892  1.00  0.00     0.074 A 
ATOM     54  C   UNL     1       9.636  -1.345   7.073  1.00  0.00     0.031 C 
ATOM     55  C   UNL     1      11.493  -0.765   5.537  1.00  0.00     0.031 A 
BRANCH  42  56
ATOM     56  C   UNL     1      12.784   2.228   0.294  1.00  0.00    -0.014 A 
ATOM     57  C   UNL     1      13.256   3.545   0.178  1.00  0.00     0.009 A 
ATOM     58  C   UNL     1      13.318   1.238  -0.545  1.00  0.00     0.009 A 
ATOM     59  C   UNL     1      14.218   3.870  -0.781  1.00  0.00     0.001 A 
ATOM     60  C   UNL     1      14.298   1.561  -1.486  1.00  0.00     0.001 A 
ATOM     61  C   UNL     1      14.741   2.877  -1.609  1.00  0.00     0.000 A 
ENDBRANCH  42  56
BRANCH  43  62
ATOM     62  C   UNL     1       5.583  -0.275   6.710  1.00  0.00    -0.014 A 
ATOM     63  C   UNL     1       5.541   0.278   7.999  1.00  0.00     0.009 A 
ATOM     64  C   UNL     1       4.604  -1.209   6.338  1.00  0.00     0.009 A 
ATOM     65  C   UNL     1       4.554  -0.114   8.905  1.00  0.00     0.001 A 
ATOM     66  C   UNL     1       3.602  -1.579   7.238  1.00  0.00     0.001 A 
ATOM     67  C   UNL     1       3.583  -1.039   8.523  1.00  0.00     0.000 A 
ENDBRANCH  43  62
BRANCH  55  68
ATOM     68  C   UNL     1      12.416  -1.517   6.452  1.00  0.00    -0.014 A 
ATOM     69  C   UNL     1      12.398  -2.920   6.508  1.00  0.00     0.009 A 
ATOM     70  C   UNL     1      13.330  -0.814   7.252  1.00  0.00     0.009 A 
ATOM     71  C   UNL     1      13.252  -3.601   7.378  1.00  0.00     0.001 A 
ATOM     72  C   UNL     1      14.200  -1.500   8.101  1.00  0.00     0.001 A 
ATOM     73  C   UNL     1      14.154  -2.892   8.170  1.00  0.00     0.000 A 
ENDBRANCH  55  68
ENDBRANCH  29  30
ENDBRANCH  21  24
ENDBRANCH  19  20
ENDBRANCH  18  19
ENDBRANCH   1  18
TORSDOF 13
