REMARK SMILES Cc1cc(NC(=O)c2ccc(Br)cc2N)ccc1C(=O)NCCCNC(=O)c1ccc(-c2c3nc(c(-c4ccccc4)c4ccc([nH]4)c(-c4ccccc4)c4nc(c(-c5ccccc5)c5ccc2[nH]5)C=C4)C=C3)cc1
REMARK SMILES IDX 22 1 21 2 19 3 20 4 18 6 1 7 2 8 3 9 4 10 17 11 16 12 5 13
REMARK SMILES IDX 6 14 7 16 8 17 9 18 14 19 10 20 13 21 11 22 12 23 15 24
REMARK SMILES IDX 23 27 24 28 25 29 26 30 27 32 28 33 29 34 75 35 30 36 74 37
REMARK SMILES IDX 31 38 32 39 33 40 68 41 34 42 73 43 67 44 69 45 35 46 72 47
REMARK SMILES IDX 66 48 65 49 36 51 58 52 43 53 57 54 44 55 47 56 56 57 70 58
REMARK SMILES IDX 45 59 46 60 55 62 71 63 48 64 37 65 38 66 42 67 39 68 41 69
REMARK SMILES IDX 40 70 59 71 60 72 64 73 61 74 63 75 62 76 49 77 50 78 54 79
REMARK SMILES IDX 51 80 53 81 52 82
REMARK H PARENT 21 5 5 15 15 25 15 26 25 31 69 50 47 61
REMARK Flexibility Score: inf
ROOT
ATOM      1  C   UNL     1       3.423   1.344   0.361  1.00  0.00     0.118 C 
ENDROOT
BRANCH   1   2
ATOM      2  N   UNL     1       2.350   2.179  -0.153  1.00  0.00    -0.352 N 
ATOM      3  C   UNL     1       1.038   1.968  -0.499  1.00  0.00     0.251 C 
ATOM      4  O   UNL     1       0.415   2.968  -0.869  1.00  0.00    -0.269 OA
ATOM      5  H   UNL     1       2.629   3.115  -0.284  1.00  0.00     0.163 HD
BRANCH   3   6
ATOM      6  C   UNL     1       0.271   0.681  -0.389  1.00  0.00     0.042 A 
ATOM      7  C   UNL     1       1.980  -1.036  -1.309  1.00  0.00     0.045 C 
ATOM      8  C   UNL     1       0.677  -0.620  -0.725  1.00  0.00    -0.036 A 
ATOM      9  C   UNL     1      -0.208  -1.693  -0.518  1.00  0.00     0.030 A 
ATOM     10  C   UNL     1      -1.495  -1.514  -0.033  1.00  0.00     0.041 A 
ATOM     11  C   UNL     1      -1.085   0.853  -0.011  1.00  0.00     0.016 A 
ATOM     12  C   UNL     1      -1.972  -0.225   0.134  1.00  0.00     0.027 A 
BRANCH  10  13
ATOM     13  N   UNL     1      -2.289  -2.618   0.313  1.00  0.00    -0.322 N 
ATOM     14  C   UNL     1      -1.855  -3.852   0.776  1.00  0.00     0.257 C 
ATOM     15  H   UNL     1      -3.263  -2.504   0.216  1.00  0.00     0.170 HD
ATOM     16  O   UNL     1      -2.588  -4.837   0.696  1.00  0.00    -0.269 OA
BRANCH  14  17
ATOM     17  C   UNL     1      -0.519  -3.991   1.440  1.00  0.00     0.063 A 
ATOM     18  C   UNL     1       0.271  -5.089   1.055  1.00  0.00     0.017 A 
ATOM     19  C   UNL     1      -0.039  -3.078   2.409  1.00  0.00     0.045 A 
ATOM     20  C   UNL     1       1.539  -5.278   1.609  1.00  0.00     0.016 A 
ATOM     21  C   UNL     1       1.231  -3.297   2.964  1.00  0.00     0.042 A 
ATOM     22  C   UNL     1       2.013  -4.379   2.559  1.00  0.00     0.020 A 
ATOM     23  Br  UNL     1       3.720  -4.635   3.332  1.00  0.00    -0.051 Br
BRANCH  19  24
ATOM     24  N   UNL     1      -0.814  -2.054   2.953  1.00  0.00    -0.398 N 
ATOM     25  H   UNL     1      -1.711  -1.870   2.591  1.00  0.00     0.156 HD
ATOM     26  H   UNL     1      -0.465  -1.517   3.701  1.00  0.00     0.156 HD
ENDBRANCH  19  24
ENDBRANCH  14  17
ENDBRANCH  10  13
ENDBRANCH   3   6
ENDBRANCH   1   2
BRANCH   1  27
ATOM     27  C   UNL     1       4.299   0.809  -0.773  1.00  0.00     0.042 C 
BRANCH  27  28
ATOM     28  C   UNL     1       5.625   1.502  -1.008  1.00  0.00     0.118 C 
BRANCH  28  29
ATOM     29  N   UNL     1       6.758   0.571  -0.906  1.00  0.00    -0.352 N 
ATOM     30  C   UNL     1       8.059   0.720  -1.379  1.00  0.00     0.251 C 
ATOM     31  H   UNL     1       6.572  -0.274  -0.437  1.00  0.00     0.163 HD
ATOM     32  O   UNL     1       8.928  -0.064  -1.125  1.00  0.00    -0.269 OA
BRANCH  30  33
ATOM     33  C   UNL     1       8.343   1.981  -2.107  1.00  0.00     0.039 A 
ATOM     34  C   UNL     1       9.042   2.949  -1.386  1.00  0.00     0.014 A 
ATOM     35  C   UNL     1       7.537   2.313  -3.193  1.00  0.00     0.014 A 
ATOM     36  C   UNL     1       8.684   4.279  -1.552  1.00  0.00     0.010 A 
ATOM     37  C   UNL     1       7.122   3.628  -3.298  1.00  0.00     0.010 A 
ATOM     38  C   UNL     1       7.628   4.587  -2.412  1.00  0.00    -0.014 A 
BRANCH  38  39
ATOM     39  C   UNL     1       6.969   5.886  -2.380  1.00  0.00     0.031 A 
ATOM     40  C   UNL     1       7.373   6.896  -3.369  1.00  0.00     0.074 A 
ATOM     41  C   UNL     1       6.088   6.236  -1.415  1.00  0.00     0.049 A 
ATOM     42  N   UNL     1       7.516   8.151  -3.102  1.00  0.00    -0.248 NA
ATOM     43  C   UNL     1       7.718   6.539  -4.737  1.00  0.00     0.031 C 
ATOM     44  C   UNL     1       5.335   7.488  -1.337  1.00  0.00     0.029 A 
ATOM     45  N   UNL     1       5.880   5.645  -0.169  1.00  0.00    -0.354 N 
ATOM     46  C   UNL     1       7.650   8.795  -4.307  1.00  0.00     0.074 A 
ATOM     47  C   UNL     1       7.886   7.748  -5.276  1.00  0.00     0.031 C 
ATOM     48  C   UNL     1       5.047   7.733  -0.049  1.00  0.00     0.029 A 
ATOM     49  C   UNL     1       5.679   6.695   0.745  1.00  0.00     0.049 A 
ATOM     50  H   UNL     1       5.875   4.681   0.031  1.00  0.00     0.167 HD
ATOM     51  C   UNL     1       7.381  10.127  -4.400  1.00  0.00     0.031 A 
ATOM     52  C   UNL     1       6.442   6.887   1.859  1.00  0.00     0.031 A 
ATOM     53  C   UNL     1       7.004  10.713  -3.113  1.00  0.00     0.049 A 
ATOM     54  C   UNL     1       7.135   8.235   1.899  1.00  0.00     0.074 A 
ATOM     55  C   UNL     1       5.792  11.093  -2.558  1.00  0.00     0.029 A 
ATOM     56  N   UNL     1       7.918  10.713  -2.069  1.00  0.00    -0.354 N 
ATOM     57  N   UNL     1       7.064   9.134   0.957  1.00  0.00    -0.248 NA
ATOM     58  C   UNL     1       8.072   8.618   2.953  1.00  0.00     0.031 C 
ATOM     59  C   UNL     1       5.988  11.328  -1.170  1.00  0.00     0.029 A 
ATOM     60  C   UNL     1       7.320  11.102  -0.882  1.00  0.00     0.049 A 
ATOM     61  H   UNL     1       8.868  10.469  -2.160  1.00  0.00     0.167 HD
ATOM     62  C   UNL     1       7.948  10.155   1.215  1.00  0.00     0.074 A 
ATOM     63  C   UNL     1       8.553   9.781   2.481  1.00  0.00     0.031 C 
ATOM     64  C   UNL     1       8.127  11.187   0.333  1.00  0.00     0.031 A 
BRANCH  51  65
ATOM     65  C   UNL     1       7.158  10.803  -5.733  1.00  0.00    -0.014 A 
ATOM     66  C   UNL     1       6.254  11.875  -5.832  1.00  0.00     0.009 A 
ATOM     67  C   UNL     1       7.762  10.395  -6.935  1.00  0.00     0.009 A 
ATOM     68  C   UNL     1       5.880  12.417  -7.069  1.00  0.00     0.001 A 
ATOM     69  C   UNL     1       7.356  10.895  -8.180  1.00  0.00     0.001 A 
ATOM     70  C   UNL     1       6.401  11.899  -8.247  1.00  0.00     0.000 A 
ENDBRANCH  51  65
BRANCH  52  71
ATOM     71  C   UNL     1       7.006   5.627   2.412  1.00  0.00    -0.014 A 
ATOM     72  C   UNL     1       6.106   4.698   2.971  1.00  0.00     0.009 A 
ATOM     73  C   UNL     1       8.274   5.183   2.015  1.00  0.00     0.009 A 
ATOM     74  C   UNL     1       6.409   3.334   2.986  1.00  0.00     0.001 A 
ATOM     75  C   UNL     1       8.577   3.817   2.047  1.00  0.00     0.001 A 
ATOM     76  C   UNL     1       7.629   2.892   2.484  1.00  0.00     0.000 A 
ENDBRANCH  52  71
BRANCH  64  77
ATOM     77  C   UNL     1       9.074  12.370   0.469  1.00  0.00    -0.014 A 
ATOM     78  C   UNL     1       9.745  12.746   1.638  1.00  0.00     0.009 A 
ATOM     79  C   UNL     1       9.277  13.217  -0.649  1.00  0.00     0.009 A 
ATOM     80  C   UNL     1      10.624  13.842   1.668  1.00  0.00     0.001 A 
ATOM     81  C   UNL     1      10.141  14.316  -0.626  1.00  0.00     0.001 A 
ATOM     82  C   UNL     1      10.830  14.620   0.534  1.00  0.00     0.000 A 
ENDBRANCH  64  77
ENDBRANCH  38  39
ENDBRANCH  30  33
ENDBRANCH  28  29
ENDBRANCH  27  28
ENDBRANCH   1  27
TORSDOF 13
