REMARK SMILES CC[C@@H](C(=O)NCCCNC(=O)c1ccc(-c2c3nc(c(-c4ccccc4)c4ccc([nH]4)c(-c4ccccc4)c4nc(c(-c5ccccc5)c5ccc2[nH]5)C=C4)C=C3)cc1)N(C)C(=O)c1cn(C2C[NH2+]C2)nn1
REMARK SMILES IDX 7 1 6 2 4 3 5 4 3 6 2 7 1 8 61 9 62 10 63 11 64 12 65 13
REMARK SMILES IDX 66 14 73 15 67 16 72 17 68 18 69 19 71 20 70 21 8 24 9 25
REMARK SMILES IDX 10 26 11 27 12 29 13 30 14 31 60 32 15 33 59 34 16 35 17 36
REMARK SMILES IDX 18 37 53 38 19 39 58 40 52 41 54 42 20 43 57 44 51 45 50 46
REMARK SMILES IDX 21 48 43 49 28 50 42 51 29 52 32 53 41 54 55 55 30 56 31 57
REMARK SMILES IDX 40 59 56 60 33 61 22 62 23 63 27 64 24 65 26 66 25 67 44 68
REMARK SMILES IDX 45 69 49 70 46 71 48 72 47 73 34 74 35 75 39 76 36 77 38 78
REMARK SMILES IDX 37 79
REMARK H PARENT 6 5 70 22 70 23 10 28 54 47 32 58
REMARK Flexibility Score: inf
ROOT
ATOM      1  C   UNL     1       1.991  -0.637  -2.057  1.00  0.00     0.117 C 
ENDROOT
BRANCH   1   2
ATOM      2  N   UNL     1       0.943   0.180  -2.634  1.00  0.00    -0.354 N 
ATOM      3  C   UNL     1       0.427   1.392  -2.285  1.00  0.00     0.242 C 
ATOM      4  O   UNL     1      -0.335   1.888  -3.123  1.00  0.00    -0.273 OA
ATOM      5  H   UNL     1       0.524  -0.216  -3.432  1.00  0.00     0.163 HD
BRANCH   3   6
ATOM      6  C   UNL     1       0.841   2.133  -0.978  1.00  0.00     0.174 C 
BRANCH   6   7
ATOM      7  C   UNL     1       0.288   1.608   0.366  1.00  0.00     0.032 C 
ATOM      8  C   UNL     1       1.022   0.456   1.025  1.00  0.00     0.006 C 
ENDBRANCH   6   7
BRANCH   6   9
ATOM      9  N   UNL     1       0.467   3.575  -1.117  1.00  0.00    -0.328 N 
ATOM     10  C   UNL     1       1.539   4.554  -1.204  1.00  0.00     0.148 C 
BRANCH   9  11
ATOM     11  C   UNL     1      -0.900   3.918  -1.079  1.00  0.00     0.276 C 
ATOM     12  O   UNL     1      -1.780   3.070  -0.907  1.00  0.00    -0.267 OA
BRANCH  11  13
ATOM     13  C   UNL     1      -1.279   5.322  -1.166  1.00  0.00     0.170 A 
ATOM     14  C   UNL     1      -0.931   6.284  -2.096  1.00  0.00     0.145 A 
ATOM     15  N   UNL     1      -2.158   5.881  -0.267  1.00  0.00    -0.125 NA
ATOM     16  N   UNL     1      -1.603   7.403  -1.685  1.00  0.00    -0.237 N 
ATOM     17  N   UNL     1      -2.327   7.156  -0.581  1.00  0.00    -0.066 NA
BRANCH  16  18
ATOM     18  C   UNL     1      -1.576   8.716  -2.253  1.00  0.00     0.218 C 
ATOM     19  C   UNL     1      -0.153   9.227  -2.566  1.00  0.00     0.294 C 
ATOM     20  C   UNL     1      -1.752   8.751  -3.786  1.00  0.00     0.294 C 
ATOM     21  N   UNL     1      -0.656   9.745  -3.857  1.00  0.00    -0.342 N 
ATOM     22  H   UNL     1      -0.018   9.613  -4.642  1.00  0.00     0.346 HD
ATOM     23  H   UNL     1      -0.851  10.738  -3.988  1.00  0.00     0.346 HD
ENDBRANCH  16  18
ENDBRANCH  11  13
ENDBRANCH   9  11
ENDBRANCH   6   9
ENDBRANCH   3   6
ENDBRANCH   1   2
BRANCH   1  24
ATOM     24  C   UNL     1       1.451  -1.960  -1.524  1.00  0.00     0.042 C 
BRANCH  24  25
ATOM     25  C   UNL     1       0.897  -2.899  -2.587  1.00  0.00     0.118 C 
BRANCH  25  26
ATOM     26  N   UNL     1       1.935  -3.631  -3.292  1.00  0.00    -0.352 N 
ATOM     27  C   UNL     1       2.176  -4.983  -3.347  1.00  0.00     0.251 C 
ATOM     28  H   UNL     1       2.561  -3.074  -3.808  1.00  0.00     0.163 HD
ATOM     29  O   UNL     1       3.214  -5.386  -3.867  1.00  0.00    -0.269 OA
BRANCH  27  30
ATOM     30  C   UNL     1       1.220  -5.963  -2.774  1.00  0.00     0.039 A 
ATOM     31  C   UNL     1       1.728  -7.091  -2.122  1.00  0.00     0.014 A 
ATOM     32  C   UNL     1      -0.163  -5.818  -2.918  1.00  0.00     0.014 A 
ATOM     33  C   UNL     1       0.858  -8.044  -1.582  1.00  0.00     0.010 A 
ATOM     34  C   UNL     1      -1.031  -6.722  -2.305  1.00  0.00     0.010 A 
ATOM     35  C   UNL     1      -0.532  -7.858  -1.651  1.00  0.00    -0.014 A 
BRANCH  35  36
ATOM     36  C   UNL     1      -1.476  -8.867  -1.102  1.00  0.00     0.031 A 
ATOM     37  C   UNL     1      -2.409  -9.605  -2.027  1.00  0.00     0.074 A 
ATOM     38  C   UNL     1      -1.535  -9.092   0.225  1.00  0.00     0.049 A 
ATOM     39  N   UNL     1      -3.348 -10.471  -1.738  1.00  0.00    -0.248 NA
ATOM     40  C   UNL     1      -2.288  -9.312  -3.465  1.00  0.00     0.031 C 
ATOM     41  C   UNL     1      -0.715  -8.426   1.239  1.00  0.00     0.029 A 
ATOM     42  N   UNL     1      -2.329  -9.947   0.950  1.00  0.00    -0.354 N 
ATOM     43  C   UNL     1      -3.946 -10.799  -2.949  1.00  0.00     0.074 A 
ATOM     44  C   UNL     1      -3.295 -10.009  -3.970  1.00  0.00     0.031 C 
ATOM     45  C   UNL     1      -1.032  -8.915   2.450  1.00  0.00     0.029 A 
ATOM     46  C   UNL     1      -2.097  -9.902   2.303  1.00  0.00     0.049 A 
ATOM     47  H   UNL     1      -3.002 -10.536   0.538  1.00  0.00     0.167 HD
ATOM     48  C   UNL     1      -4.935 -11.690  -3.197  1.00  0.00     0.031 A 
ATOM     49  C   UNL     1      -2.678 -10.577   3.313  1.00  0.00     0.031 A 
ATOM     50  C   UNL     1      -5.565 -12.504  -2.193  1.00  0.00     0.049 A 
ATOM     51  C   UNL     1      -3.760 -11.576   3.010  1.00  0.00     0.074 A 
ATOM     52  C   UNL     1      -6.536 -13.477  -2.356  1.00  0.00     0.029 A 
ATOM     53  N   UNL     1      -5.277 -12.446  -0.839  1.00  0.00    -0.354 N 
ATOM     54  N   UNL     1      -4.274 -11.912   1.853  1.00  0.00    -0.248 NA
ATOM     55  C   UNL     1      -4.330 -12.301   4.156  1.00  0.00     0.031 C 
ATOM     56  C   UNL     1      -6.861 -13.986  -1.094  1.00  0.00     0.029 A 
ATOM     57  C   UNL     1      -6.059 -13.360  -0.153  1.00  0.00     0.049 A 
ATOM     58  H   UNL     1      -4.616 -11.845  -0.427  1.00  0.00     0.167 HD
ATOM     59  C   UNL     1      -5.205 -12.906   2.126  1.00  0.00     0.074 A 
ATOM     60  C   UNL     1      -5.176 -13.127   3.557  1.00  0.00     0.031 C 
ATOM     61  C   UNL     1      -6.010 -13.577   1.268  1.00  0.00     0.031 A 
BRANCH  48  62
ATOM     62  C   UNL     1      -5.398 -11.830  -4.620  1.00  0.00    -0.014 A 
ATOM     63  C   UNL     1      -4.594 -12.454  -5.587  1.00  0.00     0.009 A 
ATOM     64  C   UNL     1      -6.667 -11.359  -4.991  1.00  0.00     0.009 A 
ATOM     65  C   UNL     1      -5.037 -12.570  -6.906  1.00  0.00     0.001 A 
ATOM     66  C   UNL     1      -7.118 -11.501  -6.305  1.00  0.00     0.001 A 
ATOM     67  C   UNL     1      -6.300 -12.097  -7.263  1.00  0.00     0.000 A 
ENDBRANCH  48  62
BRANCH  49  68
ATOM     68  C   UNL     1      -2.232 -10.354   4.712  1.00  0.00    -0.014 A 
ATOM     69  C   UNL     1      -1.485 -11.334   5.384  1.00  0.00     0.009 A 
ATOM     70  C   UNL     1      -2.562  -9.169   5.387  1.00  0.00     0.009 A 
ATOM     71  C   UNL     1      -1.101 -11.143   6.713  1.00  0.00     0.001 A 
ATOM     72  C   UNL     1      -2.154  -8.970   6.708  1.00  0.00     0.001 A 
ATOM     73  C   UNL     1      -1.433  -9.961   7.373  1.00  0.00     0.000 A 
ENDBRANCH  49  68
BRANCH  61  74
ATOM     74  C   UNL     1      -6.891 -14.647   1.845  1.00  0.00    -0.014 A 
ATOM     75  C   UNL     1      -8.037 -14.325   2.588  1.00  0.00     0.009 A 
ATOM     76  C   UNL     1      -6.591 -15.996   1.602  1.00  0.00     0.009 A 
ATOM     77  C   UNL     1      -8.848 -15.338   3.104  1.00  0.00     0.001 A 
ATOM     78  C   UNL     1      -7.417 -17.005   2.098  1.00  0.00     0.001 A 
ATOM     79  C   UNL     1      -8.540 -16.676   2.855  1.00  0.00     0.000 A 
ENDBRANCH  61  74
ENDBRANCH  35  36
ENDBRANCH  27  30
ENDBRANCH  25  26
ENDBRANCH  24  25
ENDBRANCH   1  24
TORSDOF 15
