REMARK SMILES Cc1cc(I)ccc1[C@H]([NH3+])C(=O)NCCCNC(=O)c1ccc(-c2c3nc(c(-c4ccccc4)c4ccc([nH]4)c(-c4ccccc4)c4nc(c(-c5ccccc5)c5ccc2[nH]5)C=C4)C=C3)cc1
REMARK SMILES IDX 15 1 14 2 13 3 11 4 12 5 9 7 8 8 1 9 2 10 3 11 4 12 7 13
REMARK SMILES IDX 5 14 6 15 10 16 16 20 17 21 18 22 19 24 20 25 21 26 67 27
REMARK SMILES IDX 22 28 66 29 23 30 24 31 25 32 60 33 26 34 65 35 59 36 61 37
REMARK SMILES IDX 27 38 64 39 58 40 57 41 28 43 50 44 35 45 49 46 36 47 39 48
REMARK SMILES IDX 48 49 62 50 37 51 38 52 47 54 63 55 40 56 29 57 30 58 34 59
REMARK SMILES IDX 31 60 33 61 32 62 51 63 52 64 56 65 53 66 55 67 54 68 41 69
REMARK SMILES IDX 42 70 46 71 43 72 45 73 44 74
REMARK H PARENT 13 6 10 17 10 18 10 19 17 23 61 42 39 53
REMARK Flexibility Score: inf
ROOT
ATOM      1  C   UNL     1       1.989  -3.711  -1.493  1.00  0.00     0.042 C 
ENDROOT
BRANCH   1   2
ATOM      2  C   UNL     1       3.162  -3.292  -0.624  1.00  0.00     0.118 C 
BRANCH   2   3
ATOM      3  N   UNL     1       4.238  -2.682  -1.385  1.00  0.00    -0.351 N 
ATOM      4  C   UNL     1       5.149  -1.747  -0.973  1.00  0.00     0.283 C 
ATOM      5  O   UNL     1       6.075  -1.480  -1.747  1.00  0.00    -0.268 OA
ATOM      6  H   UNL     1       4.323  -2.979  -2.320  1.00  0.00     0.163 HD
BRANCH   4   7
ATOM      7  C   UNL     1       5.009  -1.025   0.380  1.00  0.00     0.302 C 
BRANCH   7   8
ATOM      8  C   UNL     1       5.328  -1.774   1.682  1.00  0.00     0.022 A 
ATOM      9  C   UNL     1       6.194  -4.069   0.781  1.00  0.00     0.045 C 
ATOM     10  C   UNL     1       5.775  -3.103   1.858  1.00  0.00    -0.040 A 
ATOM     11  C   UNL     1       5.880  -3.627   3.171  1.00  0.00     0.018 A 
ATOM     12  C   UNL     1       5.664  -2.838   4.297  1.00  0.00     0.013 A 
ATOM     13  C   UNL     1       5.201  -0.982   2.859  1.00  0.00     0.012 A 
ATOM     14  I   UNL     1       5.839  -3.654   6.196  1.00  0.00    -0.044 I 
ATOM     15  C   UNL     1       5.359  -1.499   4.144  1.00  0.00     0.015 A 
ENDBRANCH   7   8
BRANCH   7  16
ATOM     16  N   UNL     1       3.663  -0.386   0.408  1.00  0.00    -0.343 N 
ATOM     17  H   UNL     1       2.943  -1.108   0.392  1.00  0.00     0.345 HD
ATOM     18  H   UNL     1       3.557   0.219  -0.407  1.00  0.00     0.345 HD
ATOM     19  H   UNL     1       3.569   0.170   1.258  1.00  0.00     0.345 HD
ENDBRANCH   7  16
ENDBRANCH   4   7
ENDBRANCH   2   3
ENDBRANCH   1   2
BRANCH   1  20
ATOM     20  C   UNL     1       2.337  -4.733  -2.568  1.00  0.00     0.118 C 
BRANCH  20  21
ATOM     21  N   UNL     1       2.878  -5.983  -2.045  1.00  0.00    -0.352 N 
ATOM     22  C   UNL     1       2.401  -7.270  -2.146  1.00  0.00     0.251 C 
ATOM     23  H   UNL     1       3.718  -5.891  -1.540  1.00  0.00     0.163 HD
ATOM     24  O   UNL     1       2.943  -8.179  -1.530  1.00  0.00    -0.269 OA
BRANCH  22  25
ATOM     25  C   UNL     1       1.206  -7.546  -2.970  1.00  0.00     0.039 A 
ATOM     26  C   UNL     1       0.189  -8.347  -2.445  1.00  0.00     0.014 A 
ATOM     27  C   UNL     1       1.069  -6.978  -4.236  1.00  0.00     0.014 A 
ATOM     28  C   UNL     1      -1.011  -8.485  -3.147  1.00  0.00     0.010 A 
ATOM     29  C   UNL     1      -0.160  -7.029  -4.882  1.00  0.00     0.010 A 
ATOM     30  C   UNL     1      -1.217  -7.777  -4.341  1.00  0.00    -0.014 A 
BRANCH  30  31
ATOM     31  C   UNL     1      -2.525  -7.786  -5.046  1.00  0.00     0.031 A 
ATOM     32  C   UNL     1      -2.607  -8.277  -6.466  1.00  0.00     0.074 A 
ATOM     33  C   UNL     1      -3.614  -7.264  -4.448  1.00  0.00     0.049 A 
ATOM     34  N   UNL     1      -3.616  -8.232  -7.299  1.00  0.00    -0.248 NA
ATOM     35  C   UNL     1      -1.382  -8.860  -7.039  1.00  0.00     0.031 C 
ATOM     36  C   UNL     1      -3.661  -6.707  -3.093  1.00  0.00     0.029 A 
ATOM     37  N   UNL     1      -4.896  -7.105  -4.913  1.00  0.00    -0.354 N 
ATOM     38  C   UNL     1      -3.137  -8.745  -8.497  1.00  0.00     0.074 A 
ATOM     39  C   UNL     1      -1.737  -9.050  -8.300  1.00  0.00     0.031 C 
ATOM     40  C   UNL     1      -4.913  -6.300  -2.826  1.00  0.00     0.029 A 
ATOM     41  C   UNL     1      -5.745  -6.523  -4.003  1.00  0.00     0.049 A 
ATOM     42  H   UNL     1      -5.180  -7.382  -5.814  1.00  0.00     0.167 HD
ATOM     43  C   UNL     1      -3.805  -8.966  -9.654  1.00  0.00     0.031 A 
ATOM     44  C   UNL     1      -7.048  -6.199  -4.106  1.00  0.00     0.031 A 
ATOM     45  C   UNL     1      -5.205  -8.702  -9.840  1.00  0.00     0.049 A 
ATOM     46  C   UNL     1      -7.773  -6.479  -5.393  1.00  0.00     0.074 A 
ATOM     47  C   UNL     1      -5.987  -8.943 -10.957  1.00  0.00     0.029 A 
ATOM     48  N   UNL     1      -6.036  -8.152  -8.878  1.00  0.00    -0.354 N 
ATOM     49  N   UNL     1      -7.314  -7.005  -6.502  1.00  0.00    -0.248 NA
ATOM     50  C   UNL     1      -9.199  -6.126  -5.437  1.00  0.00     0.031 C 
ATOM     51  C   UNL     1      -7.289  -8.514 -10.677  1.00  0.00     0.029 A 
ATOM     52  C   UNL     1      -7.323  -8.044  -9.375  1.00  0.00     0.049 A 
ATOM     53  H   UNL     1      -5.753  -7.880  -7.975  1.00  0.00     0.167 HD
ATOM     54  C   UNL     1      -8.400  -7.075  -7.364  1.00  0.00     0.074 A 
ATOM     55  C   UNL     1      -9.542  -6.549  -6.646  1.00  0.00     0.031 C 
ATOM     56  C   UNL     1      -8.447  -7.531  -8.638  1.00  0.00     0.031 A 
BRANCH  43  57
ATOM     57  C   UNL     1      -3.024  -9.535 -10.804  1.00  0.00    -0.014 A 
ATOM     58  C   UNL     1      -2.587 -10.869 -10.791  1.00  0.00     0.009 A 
ATOM     59  C   UNL     1      -2.747  -8.739 -11.926  1.00  0.00     0.009 A 
ATOM     60  C   UNL     1      -1.857 -11.385 -11.863  1.00  0.00     0.001 A 
ATOM     61  C   UNL     1      -2.040  -9.266 -13.009  1.00  0.00     0.001 A 
ATOM     62  C   UNL     1      -1.588 -10.585 -12.972  1.00  0.00     0.000 A 
ENDBRANCH  43  57
BRANCH  44  63
ATOM     63  C   UNL     1      -7.766  -5.594  -2.955  1.00  0.00    -0.014 A 
ATOM     64  C   UNL     1      -8.717  -6.342  -2.243  1.00  0.00     0.009 A 
ATOM     65  C   UNL     1      -7.526  -4.264  -2.576  1.00  0.00     0.009 A 
ATOM     66  C   UNL     1      -9.436  -5.762  -1.196  1.00  0.00     0.001 A 
ATOM     67  C   UNL     1      -8.228  -3.695  -1.511  1.00  0.00     0.001 A 
ATOM     68  C   UNL     1      -9.190  -4.440  -0.829  1.00  0.00     0.000 A 
ENDBRANCH  44  63
BRANCH  56  69
ATOM     69  C   UNL     1      -9.785  -7.525  -9.318  1.00  0.00    -0.014 A 
ATOM     70  C   UNL     1     -10.358  -6.332  -9.783  1.00  0.00     0.009 A 
ATOM     71  C   UNL     1     -10.459  -8.737  -9.530  1.00  0.00     0.009 A 
ATOM     72  C   UNL     1     -11.598  -6.352 -10.424  1.00  0.00     0.001 A 
ATOM     73  C   UNL     1     -11.687  -8.756 -10.193  1.00  0.00     0.001 A 
ATOM     74  C   UNL     1     -12.258  -7.563 -10.632  1.00  0.00     0.000 A 
ENDBRANCH  56  69
ENDBRANCH  30  31
ENDBRANCH  22  25
ENDBRANCH  20  21
ENDBRANCH   1  20
TORSDOF 12
