REMARK SMILES CSCC[C@H](NC(=O)Nc1cccc(-c2nc3ccccc3o2)c1)C(=O)NCCCNC(=O)c1ccc(-c2c3nc(c(-c4ccccc4)c4ccc([nH]4)c(-c4ccccc4)c4nc(c(-c5ccccc5)c5ccc2[nH]5)C=C4)C=C3)cc1
REMARK SMILES IDX 28 1 27 2 25 3 26 4 5 6 4 7 3 8 2 9 1 10 6 11 7 12 8 14 9 15
REMARK SMILES IDX 10 17 11 18 24 19 12 20 14 21 13 22 15 23 16 24 23 25 17 26
REMARK SMILES IDX 22 27 18 28 21 29 19 30 20 31 29 32 30 33 31 34 32 35 33 37
REMARK SMILES IDX 34 38 35 39 81 40 36 41 80 42 37 43 38 44 39 45 74 46 40 47
REMARK SMILES IDX 79 48 73 49 75 50 41 51 78 52 72 53 71 54 42 56 64 57 49 58
REMARK SMILES IDX 63 59 50 60 53 61 62 62 76 63 51 64 52 65 61 67 77 68 54 69
REMARK SMILES IDX 43 70 44 71 48 72 45 73 47 74 46 75 65 76 66 77 70 78 67 79
REMARK SMILES IDX 69 80 68 81 55 82 56 83 60 84 57 85 59 86 58 87
REMARK H PARENT 27 5 6 13 9 16 31 36 75 55 53 66
REMARK Flexibility Score: inf
ROOT
ATOM      1  C   UNL     1       2.075  -0.735   5.847  1.00  0.00     0.117 C 
ENDROOT
BRANCH   1   2
ATOM      2  N   UNL     1       1.020  -1.591   5.369  1.00  0.00    -0.354 N 
ATOM      3  C   UNL     1       0.131  -1.324   4.381  1.00  0.00     0.242 C 
ATOM      4  O   UNL     1      -0.944  -1.934   4.417  1.00  0.00    -0.273 OA
ATOM      5  H   UNL     1       0.934  -2.467   5.809  1.00  0.00     0.163 HD
BRANCH   3   6
ATOM      6  C   UNL     1       0.568  -0.591   3.100  1.00  0.00     0.174 C 
BRANCH   6   7
ATOM      7  C   UNL     1       1.217  -1.685   2.261  1.00  0.00     0.046 C 
BRANCH   7   8
ATOM      8  C   UNL     1       0.461  -1.985   0.977  1.00  0.00     0.072 C 
BRANCH   8   9
ATOM      9  S   UNL     1       0.110  -0.506  -0.028  1.00  0.00    -0.165 SA
ATOM     10  C   UNL     1      -1.663  -0.715  -0.249  1.00  0.00     0.085 C 
ENDBRANCH   8   9
ENDBRANCH   7   8
ENDBRANCH   6   7
BRANCH   6  11
ATOM     11  N   UNL     1       1.166   0.764   3.158  1.00  0.00    -0.326 N 
ATOM     12  C   UNL     1       2.290   1.479   3.088  1.00  0.00     0.319 C 
ATOM     13  H   UNL     1       0.430   1.399   3.310  1.00  0.00     0.166 HD
ATOM     14  O   UNL     1       2.197   2.638   3.514  1.00  0.00    -0.248 OA
ATOM     15  N   UNL     1       3.516   1.062   2.754  1.00  0.00    -0.308 N 
ATOM     16  H   UNL     1       4.224   1.593   3.185  1.00  0.00     0.171 HD
BRANCH  15  17
ATOM     17  C   UNL     1       4.028   0.053   1.940  1.00  0.00     0.043 A 
ATOM     18  C   UNL     1       5.015  -0.766   2.490  1.00  0.00     0.026 A 
ATOM     19  C   UNL     1       3.605  -0.157   0.625  1.00  0.00     0.040 A 
ATOM     20  C   UNL     1       5.456  -1.891   1.793  1.00  0.00     0.003 A 
ATOM     21  C   UNL     1       4.031  -1.300  -0.084  1.00  0.00     0.039 A 
ATOM     22  C   UNL     1       4.944  -2.173   0.524  1.00  0.00     0.014 A 
BRANCH  21  23
ATOM     23  C   UNL     1       3.356  -1.650  -1.334  1.00  0.00     0.227 A 
ATOM     24  N   UNL     1       2.851  -0.848  -2.255  1.00  0.00    -0.209 NA
ATOM     25  O   UNL     1       2.873  -2.940  -1.378  1.00  0.00    -0.436 OA
ATOM     26  C   UNL     1       1.827  -1.587  -2.796  1.00  0.00     0.110 A 
ATOM     27  C   UNL     1       1.833  -2.865  -2.260  1.00  0.00     0.155 A 
ATOM     28  C   UNL     1       0.780  -1.218  -3.651  1.00  0.00     0.032 A 
ATOM     29  C   UNL     1       0.856  -3.828  -2.492  1.00  0.00     0.049 A 
ATOM     30  C   UNL     1      -0.254  -2.143  -3.868  1.00  0.00     0.003 A 
ATOM     31  C   UNL     1      -0.217  -3.421  -3.295  1.00  0.00     0.004 A 
ENDBRANCH  21  23
ENDBRANCH  15  17
ENDBRANCH   6  11
ENDBRANCH   3   6
ENDBRANCH   1   2
BRANCH   1  32
ATOM     32  C   UNL     1       1.507   0.213   6.895  1.00  0.00     0.042 C 
BRANCH  32  33
ATOM     33  C   UNL     1       0.827  -0.529   8.044  1.00  0.00     0.118 C 
BRANCH  33  34
ATOM     34  N   UNL     1       1.726  -1.480   8.690  1.00  0.00    -0.352 N 
ATOM     35  C   UNL     1       2.033  -1.596  10.016  1.00  0.00     0.251 C 
ATOM     36  H   UNL     1       2.171  -2.122   8.090  1.00  0.00     0.163 HD
ATOM     37  O   UNL     1       2.989  -2.279  10.382  1.00  0.00    -0.269 OA
BRANCH  35  38
ATOM     38  C   UNL     1       1.202  -0.886  10.998  1.00  0.00     0.039 A 
ATOM     39  C   UNL     1       1.821  -0.136  11.997  1.00  0.00     0.014 A 
ATOM     40  C   UNL     1      -0.192  -0.945  10.900  1.00  0.00     0.014 A 
ATOM     41  C   UNL     1       1.033   0.595  12.881  1.00  0.00     0.010 A 
ATOM     42  C   UNL     1      -0.970  -0.148  11.726  1.00  0.00     0.010 A 
ATOM     43  C   UNL     1      -0.365   0.614  12.735  1.00  0.00    -0.014 A 
BRANCH  43  44
ATOM     44  C   UNL     1      -1.204   1.429  13.639  1.00  0.00     0.031 A 
ATOM     45  C   UNL     1      -2.185   0.766  14.563  1.00  0.00     0.074 A 
ATOM     46  C   UNL     1      -1.110   2.771  13.589  1.00  0.00     0.049 A 
ATOM     47  N   UNL     1      -2.981   1.311  15.447  1.00  0.00    -0.248 NA
ATOM     48  C   UNL     1      -2.313  -0.697  14.461  1.00  0.00     0.031 C 
ATOM     49  C   UNL     1      -0.251   3.526  12.674  1.00  0.00     0.029 A 
ATOM     50  N   UNL     1      -1.743   3.737  14.326  1.00  0.00    -0.354 N 
ATOM     51  C   UNL     1      -3.713   0.263  15.990  1.00  0.00     0.074 A 
ATOM     52  C   UNL     1      -3.311  -0.940  15.297  1.00  0.00     0.031 C 
ATOM     53  C   UNL     1      -0.381   4.837  12.933  1.00  0.00     0.029 A 
ATOM     54  C   UNL     1      -1.350   5.013  14.008  1.00  0.00     0.049 A 
ATOM     55  H   UNL     1      -2.414   3.535  15.018  1.00  0.00     0.167 HD
ATOM     56  C   UNL     1      -4.622   0.297  16.992  1.00  0.00     0.031 A 
ATOM     57  C   UNL     1      -1.725   6.194  14.532  1.00  0.00     0.031 A 
ATOM     58  C   UNL     1      -5.008   1.497  17.683  1.00  0.00     0.049 A 
ATOM     59  C   UNL     1      -2.704   6.203  15.671  1.00  0.00     0.074 A 
ATOM     60  C   UNL     1      -5.859   1.636  18.765  1.00  0.00     0.029 A 
ATOM     61  N   UNL     1      -4.569   2.771  17.352  1.00  0.00    -0.354 N 
ATOM     62  N   UNL     1      -3.311   5.193  16.247  1.00  0.00    -0.248 NA
ATOM     63  C   UNL     1      -3.032   7.514  16.245  1.00  0.00     0.031 C 
ATOM     64  C   UNL     1      -5.977   3.000  19.054  1.00  0.00     0.029 A 
ATOM     65  C   UNL     1      -5.154   3.705  18.189  1.00  0.00     0.049 A 
ATOM     66  H   UNL     1      -3.936   2.979  16.627  1.00  0.00     0.167 HD
ATOM     67  C   UNL     1      -4.082   5.744  17.262  1.00  0.00     0.074 A 
ATOM     68  C   UNL     1      -3.840   7.173  17.239  1.00  0.00     0.031 C 
ATOM     69  C   UNL     1      -4.917   5.125  18.133  1.00  0.00     0.031 A 
BRANCH  56  70
ATOM     70  C   UNL     1      -5.265  -1.006  17.383  1.00  0.00    -0.014 A 
ATOM     71  C   UNL     1      -4.529  -2.027  18.007  1.00  0.00     0.009 A 
ATOM     72  C   UNL     1      -6.630  -1.213  17.132  1.00  0.00     0.009 A 
ATOM     73  C   UNL     1      -5.135  -3.244  18.327  1.00  0.00     0.001 A 
ATOM     74  C   UNL     1      -7.241  -2.418  17.482  1.00  0.00     0.001 A 
ATOM     75  C   UNL     1      -6.491  -3.437  18.068  1.00  0.00     0.000 A 
ENDBRANCH  56  70
BRANCH  57  76
ATOM     76  C   UNL     1      -1.144   7.454  14.004  1.00  0.00    -0.014 A 
ATOM     77  C   UNL     1      -0.216   8.187  14.760  1.00  0.00     0.009 A 
ATOM     78  C   UNL     1      -1.498   7.920  12.728  1.00  0.00     0.009 A 
ATOM     79  C   UNL     1       0.326   9.372  14.259  1.00  0.00     0.001 A 
ATOM     80  C   UNL     1      -0.932   9.090  12.218  1.00  0.00     0.001 A 
ATOM     81  C   UNL     1      -0.028   9.820  12.988  1.00  0.00     0.000 A 
ENDBRANCH  57  76
BRANCH  69  82
ATOM     82  C   UNL     1      -5.617   6.000  19.134  1.00  0.00    -0.014 A 
ATOM     83  C   UNL     1      -6.636   6.882  18.741  1.00  0.00     0.009 A 
ATOM     84  C   UNL     1      -5.262   5.929  20.489  1.00  0.00     0.009 A 
ATOM     85  C   UNL     1      -7.252   7.711  19.681  1.00  0.00     0.001 A 
ATOM     86  C   UNL     1      -5.902   6.736  21.431  1.00  0.00     0.001 A 
ATOM     87  C   UNL     1      -6.886   7.635  21.024  1.00  0.00     0.000 A 
ENDBRANCH  69  82
ENDBRANCH  43  44
ENDBRANCH  35  38
ENDBRANCH  33  34
ENDBRANCH  32  33
ENDBRANCH   1  32
TORSDOF 16
