REMARK SMILES O=C(NCCCNC(=O)[C@H]1CCC(=O)N(C2CCCCC2)[C@H]1c1ccccc1)c1ccc(-c2c3nc(c(-c4ccccc4)c4ccc([nH]4)c(-c4ccccc4)c4nc(c(-c5ccccc5)c5ccc2[nH]5)C=C4)C=C3)cc1
REMARK SMILES IDX 4 1 3 2 1 3 2 4 29 6 30 7 76 8 31 9 75 10 32 11 33 12 34 13
REMARK SMILES IDX 69 14 35 15 74 16 68 17 70 18 36 19 73 20 67 21 66 22 37 24
REMARK SMILES IDX 59 25 44 26 58 27 45 28 48 29 57 30 71 31 46 32 47 33 56 35
REMARK SMILES IDX 72 36 49 37 38 38 39 39 43 40 40 41 42 42 41 43 60 44 61 45
REMARK SMILES IDX 65 46 62 47 64 48 63 49 50 50 51 51 55 52 52 53 54 54 53 55
REMARK SMILES IDX 5 56 6 57 7 58 8 59 9 61 10 62 11 63 22 64 12 65 15 66 13 67
REMARK SMILES IDX 14 68 23 69 24 70 28 71 25 72 27 73 26 74 16 75 17 76 21 77
REMARK SMILES IDX 18 78 20 79 19 80
REMARK H PARENT 3 5 70 23 48 34 7 60
REMARK Flexibility Score: inf
ROOT
ATOM      1  C   UNL     1       6.446 -10.675   3.497  1.00  0.00     0.118 C 
ENDROOT
BRANCH   1   2
ATOM      2  N   UNL     1       7.267 -10.566   4.693  1.00  0.00    -0.352 N 
ATOM      3  O   UNL     1       8.030 -11.046   6.760  1.00  0.00    -0.269 OA
ATOM      4  C   UNL     1       7.367 -11.395   5.786  1.00  0.00     0.251 C 
ATOM      5  H   UNL     1       7.845  -9.769   4.726  1.00  0.00     0.163 HD
BRANCH   4   6
ATOM      6  C   UNL     1       6.647 -12.690   5.818  1.00  0.00     0.039 A 
ATOM      7  C   UNL     1       6.612 -13.525   4.702  1.00  0.00     0.014 A 
ATOM      8  C   UNL     1       6.003 -13.086   6.995  1.00  0.00     0.014 A 
ATOM      9  C   UNL     1       5.779 -14.637   4.692  1.00  0.00     0.010 A 
ATOM     10  C   UNL     1       5.262 -14.274   7.023  1.00  0.00     0.010 A 
ATOM     11  C   UNL     1       5.108 -15.040   5.858  1.00  0.00    -0.014 A 
BRANCH  11  12
ATOM     12  C   UNL     1       4.313 -16.296   5.838  1.00  0.00     0.031 A 
ATOM     13  C   UNL     1       2.830 -16.294   6.093  1.00  0.00     0.074 A 
ATOM     14  C   UNL     1       4.940 -17.452   5.541  1.00  0.00     0.049 A 
ATOM     15  N   UNL     1       1.993 -17.302   6.077  1.00  0.00    -0.248 NA
ATOM     16  C   UNL     1       2.205 -15.002   6.414  1.00  0.00     0.031 C 
ATOM     17  C   UNL     1       6.375 -17.589   5.275  1.00  0.00     0.029 A 
ATOM     18  N   UNL     1       4.451 -18.723   5.380  1.00  0.00    -0.354 N 
ATOM     19  C   UNL     1       0.752 -16.773   6.412  1.00  0.00     0.074 A 
ATOM     20  C   UNL     1       0.948 -15.358   6.644  1.00  0.00     0.031 C 
ATOM     21  C   UNL     1       6.638 -18.854   4.918  1.00  0.00     0.029 A 
ATOM     22  C   UNL     1       5.409 -19.633   5.003  1.00  0.00     0.049 A 
ATOM     23  H   UNL     1       3.506 -18.961   5.521  1.00  0.00     0.167 HD
ATOM     24  C   UNL     1      -0.441 -17.408   6.515  1.00  0.00     0.031 A 
ATOM     25  C   UNL     1       5.320 -20.954   4.766  1.00  0.00     0.031 A 
ATOM     26  C   UNL     1      -0.638 -18.815   6.277  1.00  0.00     0.049 A 
ATOM     27  C   UNL     1       3.995 -21.635   4.915  1.00  0.00     0.074 A 
ATOM     28  C   UNL     1      -1.817 -19.541   6.325  1.00  0.00     0.029 A 
ATOM     29  N   UNL     1       0.368 -19.710   5.951  1.00  0.00    -0.354 N 
ATOM     30  N   UNL     1       2.830 -21.113   5.212  1.00  0.00    -0.248 NA
ATOM     31  C   UNL     1       3.974 -23.088   4.704  1.00  0.00     0.031 C 
ATOM     32  C   UNL     1      -1.515 -20.884   6.075  1.00  0.00     0.029 A 
ATOM     33  C   UNL     1      -0.157 -20.986   5.822  1.00  0.00     0.049 A 
ATOM     34  H   UNL     1       1.317 -19.474   5.830  1.00  0.00     0.167 HD
ATOM     35  C   UNL     1       1.934 -22.172   5.217  1.00  0.00     0.074 A 
ATOM     36  C   UNL     1       2.687 -23.361   4.869  1.00  0.00     0.031 C 
ATOM     37  C   UNL     1       0.607 -22.161   5.490  1.00  0.00     0.031 A 
BRANCH  24  38
ATOM     38  C   UNL     1      -1.629 -16.588   6.937  1.00  0.00    -0.014 A 
ATOM     39  C   UNL     1      -2.230 -15.665   6.066  1.00  0.00     0.009 A 
ATOM     40  C   UNL     1      -2.182 -16.772   8.215  1.00  0.00     0.009 A 
ATOM     41  C   UNL     1      -3.338 -14.921   6.479  1.00  0.00     0.001 A 
ATOM     42  C   UNL     1      -3.304 -16.045   8.616  1.00  0.00     0.001 A 
ATOM     43  C   UNL     1      -3.876 -15.114   7.751  1.00  0.00     0.000 A 
ENDBRANCH  24  38
BRANCH  25  44
ATOM     44  C   UNL     1       6.537 -21.712   4.379  1.00  0.00    -0.014 A 
ATOM     45  C   UNL     1       6.689 -22.195   3.071  1.00  0.00     0.009 A 
ATOM     46  C   UNL     1       7.566 -21.926   5.309  1.00  0.00     0.009 A 
ATOM     47  C   UNL     1       7.846 -22.887   2.706  1.00  0.00     0.001 A 
ATOM     48  C   UNL     1       8.733 -22.592   4.933  1.00  0.00     0.001 A 
ATOM     49  C   UNL     1       8.870 -23.078   3.635  1.00  0.00     0.000 A 
ENDBRANCH  25  44
BRANCH  37  50
ATOM     50  C   UNL     1      -0.112 -23.475   5.406  1.00  0.00    -0.014 A 
ATOM     51  C   UNL     1       0.053 -24.456   6.396  1.00  0.00     0.009 A 
ATOM     52  C   UNL     1      -0.978 -23.728   4.332  1.00  0.00     0.009 A 
ATOM     53  C   UNL     1      -0.611 -25.680   6.294  1.00  0.00     0.001 A 
ATOM     54  C   UNL     1      -1.660 -24.943   4.245  1.00  0.00     0.001 A 
ATOM     55  C   UNL     1      -1.469 -25.920   5.221  1.00  0.00     0.000 A 
ENDBRANCH  37  50
ENDBRANCH  11  12
ENDBRANCH   4   6
ENDBRANCH   1   2
BRANCH   1  56
ATOM     56  C   UNL     1       5.240  -9.749   3.510  1.00  0.00     0.042 C 
BRANCH  56  57
ATOM     57  C   UNL     1       5.567  -8.327   3.088  1.00  0.00     0.117 C 
BRANCH  57  58
ATOM     58  N   UNL     1       6.030  -8.242   1.712  1.00  0.00    -0.356 N 
ATOM     59  C   UNL     1       6.367  -7.174   0.947  1.00  0.00     0.225 C 
ATOM     60  H   UNL     1       6.114  -9.111   1.256  1.00  0.00     0.163 HD
ATOM     61  O   UNL     1       6.926  -7.417  -0.128  1.00  0.00    -0.275 OA
BRANCH  59  62
ATOM     62  C   UNL     1       6.123  -5.729   1.354  1.00  0.00     0.106 C 
ATOM     63  C   UNL     1       4.931  -5.449   2.247  1.00  0.00     0.026 C 
ATOM     64  C   UNL     1       7.376  -5.001   1.871  1.00  0.00     0.128 C 
ATOM     65  C   UNL     1       4.624  -3.974   2.188  1.00  0.00     0.101 C 
ATOM     66  N   UNL     1       7.091  -3.584   2.244  1.00  0.00    -0.332 N 
ATOM     67  C   UNL     1       5.812  -3.095   2.506  1.00  0.00     0.223 C 
ATOM     68  O   UNL     1       5.590  -1.946   2.894  1.00  0.00    -0.275 OA
BRANCH  64  69
ATOM     69  C   UNL     1       8.118  -5.762   2.972  1.00  0.00    -0.025 A 
ATOM     70  C   UNL     1       7.880  -5.542   4.336  1.00  0.00     0.006 A 
ATOM     71  C   UNL     1       9.067  -6.740   2.615  1.00  0.00     0.006 A 
ATOM     72  C   UNL     1       8.580  -6.260   5.311  1.00  0.00     0.000 A 
ATOM     73  C   UNL     1       9.750  -7.472   3.590  1.00  0.00     0.000 A 
ATOM     74  C   UNL     1       9.510  -7.228   4.938  1.00  0.00     0.000 A 
ENDBRANCH  64  69
BRANCH  66  75
ATOM     75  C   UNL     1       8.246  -2.657   2.331  1.00  0.00     0.085 C 
ATOM     76  C   UNL     1       8.157  -1.559   1.253  1.00  0.00     0.025 C 
ATOM     77  C   UNL     1       8.458  -2.080   3.746  1.00  0.00     0.025 C 
ATOM     78  C   UNL     1       9.287  -0.540   1.358  1.00  0.00     0.002 C 
ATOM     79  C   UNL     1       9.584  -1.053   3.797  1.00  0.00     0.002 C 
ATOM     80  C   UNL     1       9.380   0.046   2.762  1.00  0.00     0.000 C 
ENDBRANCH  66  75
ENDBRANCH  59  62
ENDBRANCH  57  58
ENDBRANCH  56  57
ENDBRANCH   1  56
TORSDOF 12
