REMARK SMILES C[C@@H]1C[C@@H](C)CN(C(=O)CCn2cc(C(=O)NCCCNC(=O)c3ccc(-c4c5nc(c(-c6ccccc6)c6ccc([nH]6)c(-c6ccccc6)c6nc(c(-c7ccccc7)c7ccc4[nH]7)C=C6)C=C5)cc3)cn2)C1
REMARK SMILES IDX 18 1 17 2 15 3 16 4 14 6 12 7 13 8 73 9 72 10 11 11 10 12
REMARK SMILES IDX 8 13 1 14 2 15 3 16 74 17 4 18 7 19 6 20 5 21 9 22 19 23
REMARK SMILES IDX 20 24 21 25 22 26 23 28 24 29 25 30 71 31 26 32 70 33 27 34
REMARK SMILES IDX 28 35 29 36 64 37 30 38 69 39 63 40 65 41 31 42 68 43 62 44
REMARK SMILES IDX 61 45 32 47 54 48 39 49 53 50 40 51 43 52 52 53 66 54 41 55
REMARK SMILES IDX 42 56 51 58 67 59 44 60 33 61 34 62 38 63 35 64 37 65 36 66
REMARK SMILES IDX 55 67 56 68 60 69 57 70 59 71 58 72 45 73 46 74 50 75 47 76
REMARK SMILES IDX 49 77 48 78
REMARK H PARENT 17 5 21 27 65 46 43 57
REMARK Flexibility Score: inf
ROOT
ATOM      1  C   UNL     1       1.274  -6.853   2.558  1.00  0.00     0.118 C 
ENDROOT
BRANCH   1   2
ATOM      2  N   UNL     1       0.416  -6.133   3.488  1.00  0.00    -0.352 N 
ATOM      3  C   UNL     1       0.648  -5.021   4.265  1.00  0.00     0.254 C 
ATOM      4  O   UNL     1      -0.229  -4.692   5.062  1.00  0.00    -0.269 OA
ATOM      5  H   UNL     1      -0.490  -6.508   3.576  1.00  0.00     0.163 HD
BRANCH   3   6
ATOM      6  C   UNL     1       1.809  -4.184   4.023  1.00  0.00     0.077 A 
ATOM      7  N   UNL     1       3.533  -3.265   3.040  1.00  0.00    -0.271 N 
ATOM      8  C   UNL     1       3.037  -4.469   3.461  1.00  0.00     0.122 A 
ATOM      9  N   UNL     1       2.930  -2.222   3.628  1.00  0.00    -0.181 NA
ATOM     10  C   UNL     1       1.882  -2.783   4.240  1.00  0.00     0.149 A 
BRANCH   7  11
ATOM     11  C   UNL     1       4.457  -3.076   1.933  1.00  0.00     0.154 C 
BRANCH  11  12
ATOM     12  C   UNL     1       4.031  -3.834   0.674  1.00  0.00     0.124 C 
BRANCH  12  13
ATOM     13  C   UNL     1       3.365  -2.943  -0.354  1.00  0.00     0.224 C 
ATOM     14  C   UNL     1       1.332   0.154  -0.509  1.00  0.00     0.009 C 
ATOM     15  C   UNL     1       0.505  -0.995  -1.103  1.00  0.00     0.006 C 
ATOM     16  C   UNL     1      -0.548  -1.510  -0.114  1.00  0.00     0.010 C 
ATOM     17  C   UNL     1       1.391  -2.157  -1.568  1.00  0.00     0.122 C 
ATOM     18  C   UNL     1       0.091  -2.277   1.053  1.00  0.00     0.006 C 
ATOM     19  N   UNL     1       1.982  -2.872  -0.435  1.00  0.00    -0.342 N 
ATOM     20  C   UNL     1       0.999  -3.401   0.516  1.00  0.00     0.122 C 
ATOM     21  C   UNL     1      -1.013  -2.786   1.976  1.00  0.00     0.009 C 
ATOM     22  O   UNL     1       4.097  -2.331  -1.137  1.00  0.00    -0.275 OA
ENDBRANCH  12  13
ENDBRANCH  11  12
ENDBRANCH   7  11
ENDBRANCH   3   6
ENDBRANCH   1   2
BRANCH   1  23
ATOM     23  C   UNL     1       2.251  -7.769   3.303  1.00  0.00     0.042 C 
BRANCH  23  24
ATOM     24  C   UNL     1       1.554  -8.995   3.861  1.00  0.00     0.118 C 
BRANCH  24  25
ATOM     25  N   UNL     1       1.248  -9.983   2.823  1.00  0.00    -0.352 N 
ATOM     26  C   UNL     1       0.566 -11.176   2.958  1.00  0.00     0.251 C 
ATOM     27  H   UNL     1       1.569  -9.770   1.917  1.00  0.00     0.163 HD
ATOM     28  O   UNL     1       0.701 -12.075   2.131  1.00  0.00    -0.269 OA
BRANCH  26  29
ATOM     29  C   UNL     1      -0.338 -11.349   4.104  1.00  0.00     0.039 A 
ATOM     30  C   UNL     1      -0.483 -12.571   4.768  1.00  0.00     0.014 A 
ATOM     31  C   UNL     1      -1.042 -10.226   4.524  1.00  0.00     0.014 A 
ATOM     32  C   UNL     1      -1.308 -12.628   5.889  1.00  0.00     0.010 A 
ATOM     33  C   UNL     1      -1.647 -10.227   5.744  1.00  0.00     0.010 A 
ATOM     34  C   UNL     1      -1.883 -11.443   6.367  1.00  0.00    -0.014 A 
BRANCH  34  35
ATOM     35  C   UNL     1      -2.723 -11.401   7.551  1.00  0.00     0.031 A 
ATOM     36  C   UNL     1      -2.038 -11.768   8.812  1.00  0.00     0.074 A 
ATOM     37  C   UNL     1      -3.922 -10.776   7.539  1.00  0.00     0.049 A 
ATOM     38  N   UNL     1      -2.250 -12.799   9.559  1.00  0.00    -0.248 NA
ATOM     39  C   UNL     1      -0.883 -10.953   9.226  1.00  0.00     0.031 C 
ATOM     40  C   UNL     1      -4.541 -10.018   6.439  1.00  0.00     0.029 A 
ATOM     41  N   UNL     1      -4.776 -10.549   8.569  1.00  0.00    -0.354 N 
ATOM     42  C   UNL     1      -1.398 -12.654  10.649  1.00  0.00     0.074 A 
ATOM     43  C   UNL     1      -0.445 -11.638  10.284  1.00  0.00     0.031 C 
ATOM     44  C   UNL     1      -5.516  -9.223   6.931  1.00  0.00     0.029 A 
ATOM     45  C   UNL     1      -5.709  -9.547   8.331  1.00  0.00     0.049 A 
ATOM     46  H   UNL     1      -4.738 -11.052   9.414  1.00  0.00     0.167 HD
ATOM     47  C   UNL     1      -1.713 -13.171  11.870  1.00  0.00     0.031 A 
ATOM     48  C   UNL     1      -6.551  -8.995   9.237  1.00  0.00     0.031 A 
ATOM     49  C   UNL     1      -2.815 -14.097  11.784  1.00  0.00     0.049 A 
ATOM     50  C   UNL     1      -6.611  -9.913  10.398  1.00  0.00     0.074 A 
ATOM     51  C   UNL     1      -3.051 -15.271  11.095  1.00  0.00     0.029 A 
ATOM     52  N   UNL     1      -4.051 -13.628  12.166  1.00  0.00    -0.354 N 
ATOM     53  N   UNL     1      -7.130 -11.107  10.345  1.00  0.00    -0.248 NA
ATOM     54  C   UNL     1      -5.681  -9.687  11.493  1.00  0.00     0.031 C 
ATOM     55  C   UNL     1      -4.415 -15.185  10.685  1.00  0.00     0.029 A 
ATOM     56  C   UNL     1      -4.954 -14.008  11.209  1.00  0.00     0.049 A 
ATOM     57  H   UNL     1      -4.250 -13.113  12.981  1.00  0.00     0.167 HD
ATOM     58  C   UNL     1      -6.279 -11.897  11.105  1.00  0.00     0.074 A 
ATOM     59  C   UNL     1      -5.472 -10.950  11.874  1.00  0.00     0.031 C 
ATOM     60  C   UNL     1      -6.108 -13.223  10.823  1.00  0.00     0.031 A 
BRANCH  47  61
ATOM     61  C   UNL     1      -1.329 -12.523  13.180  1.00  0.00    -0.014 A 
ATOM     62  C   UNL     1      -1.691 -13.165  14.378  1.00  0.00     0.009 A 
ATOM     63  C   UNL     1      -0.881 -11.193  13.292  1.00  0.00     0.009 A 
ATOM     64  C   UNL     1      -1.683 -12.486  15.602  1.00  0.00     0.001 A 
ATOM     65  C   UNL     1      -0.827 -10.526  14.518  1.00  0.00     0.001 A 
ATOM     66  C   UNL     1      -1.258 -11.164  15.671  1.00  0.00     0.000 A 
ENDBRANCH  47  61
BRANCH  48  67
ATOM     67  C   UNL     1      -7.092  -7.620   9.284  1.00  0.00    -0.014 A 
ATOM     68  C   UNL     1      -8.235  -7.322  10.041  1.00  0.00     0.009 A 
ATOM     69  C   UNL     1      -6.331  -6.542   8.793  1.00  0.00     0.009 A 
ATOM     70  C   UNL     1      -8.583  -5.994  10.327  1.00  0.00     0.001 A 
ATOM     71  C   UNL     1      -6.678  -5.217   9.078  1.00  0.00     0.001 A 
ATOM     72  C   UNL     1      -7.797  -4.943   9.858  1.00  0.00     0.000 A 
ENDBRANCH  48  67
BRANCH  60  73
ATOM     73  C   UNL     1      -7.044 -13.865   9.826  1.00  0.00    -0.014 A 
ATOM     74  C   UNL     1      -7.124 -13.469   8.479  1.00  0.00     0.009 A 
ATOM     75  C   UNL     1      -7.737 -15.018  10.221  1.00  0.00     0.009 A 
ATOM     76  C   UNL     1      -7.893 -14.196   7.563  1.00  0.00     0.001 A 
ATOM     77  C   UNL     1      -8.488 -15.755   9.303  1.00  0.00     0.001 A 
ATOM     78  C   UNL     1      -8.569 -15.342   7.974  1.00  0.00     0.000 A 
ENDBRANCH  60  73
ENDBRANCH  34  35
ENDBRANCH  26  29
ENDBRANCH  24  25
ENDBRANCH  23  24
ENDBRANCH   1  23
TORSDOF 13
