REMARK SMILES NS(=O)(=O)c1ccc(/N=C/c2ccc(O)c(C(=O)NCCCNC(=O)c3ccc(-c4c5nc(c(-c6ccccc6)c6ccc([nH]6)c(-c6ccccc6)c6nc(c(-c7ccccc7)c7ccc4[nH]7)C=C6)C=C5)cc3)c2)cc1
REMARK SMILES IDX 20 1 19 2 17 3 18 4 16 6 11 7 12 8 74 9 13 10 14 11 10 12
REMARK SMILES IDX 9 13 8 14 5 15 6 16 76 17 7 18 75 19 2 20 3 21 4 22 1 23
REMARK SMILES IDX 15 26 21 28 22 29 23 30 24 31 25 33 26 34 27 35 73 36 28 37
REMARK SMILES IDX 72 38 29 39 30 40 31 41 66 42 32 43 71 44 65 45 67 46 33 47
REMARK SMILES IDX 70 48 64 49 63 50 34 52 56 53 41 54 55 55 42 56 45 57 54 58
REMARK SMILES IDX 68 59 43 60 44 61 53 63 69 64 46 65 35 66 36 67 40 68 37 69
REMARK SMILES IDX 39 70 38 71 57 72 58 73 62 74 59 75 61 76 60 77 47 78 48 79
REMARK SMILES IDX 52 80 49 81 51 82 50 83
REMARK H PARENT 19 5 1 24 1 25 15 27 23 32 67 51 45 62
REMARK Flexibility Score: inf
ROOT
ATOM      1  C   UNL     1       1.485   3.337  -9.832  1.00  0.00     0.118 C 
ENDROOT
BRANCH   1   2
ATOM      2  N   UNL     1       1.808   4.525 -10.616  1.00  0.00    -0.352 N 
ATOM      3  C   UNL     1       2.140   5.819 -10.293  1.00  0.00     0.255 C 
ATOM      4  O   UNL     1       2.333   6.607 -11.224  1.00  0.00    -0.269 OA
ATOM      5  H   UNL     1       1.782   4.364 -11.587  1.00  0.00     0.163 HD
BRANCH   3   6
ATOM      6  C   UNL     1       2.204   6.357  -8.906  1.00  0.00     0.082 A 
ATOM      7  C   UNL     1       2.179   6.035  -6.501  1.00  0.00    -0.006 A 
ATOM      8  C   UNL     1       1.952   7.393  -6.290  1.00  0.00     0.013 A 
ATOM      9  C   UNL     1       2.416   5.552  -7.792  1.00  0.00     0.027 A 
ATOM     10  C   UNL     1       1.916   8.250  -7.391  1.00  0.00     0.047 A 
ATOM     11  C   UNL     1       2.012   7.732  -8.686  1.00  0.00     0.128 A 
BRANCH   7  12
ATOM     12  C   UNL     1       2.020   5.062  -5.395  1.00  0.00     0.119 C 
ATOM     13  N   UNL     1       1.950   3.797  -5.660  1.00  0.00    -0.256 NA
BRANCH  13  14
ATOM     14  C   UNL     1       1.672   2.849  -4.666  1.00  0.00     0.063 A 
ATOM     15  C   UNL     1       1.034   0.770  -2.890  1.00  0.00     0.082 A 
ATOM     16  C   UNL     1       1.916   0.531  -3.943  1.00  0.00     0.024 A 
ATOM     17  C   UNL     1       0.457   2.031  -2.721  1.00  0.00     0.024 A 
ATOM     18  C   UNL     1       2.228   1.572  -4.823  1.00  0.00     0.030 A 
ATOM     19  C   UNL     1       0.773   3.063  -3.613  1.00  0.00     0.030 A 
BRANCH  15  20
ATOM     20  S   UNL     1       0.590  -0.543  -1.792  1.00  0.00     0.238 S 
ATOM     21  O   UNL     1       1.318  -1.736  -2.144  1.00  0.00    -0.207 OA
ATOM     22  O   UNL     1      -0.845  -0.529  -1.609  1.00  0.00    -0.207 OA
BRANCH  20  23
ATOM     23  N   UNL     1       1.251  -0.027  -0.336  1.00  0.00    -0.225 NA
ATOM     24  H   UNL     1       1.056  -0.717   0.389  1.00  0.00     0.137 HD
ATOM     25  H   UNL     1       0.838   0.868  -0.074  1.00  0.00     0.137 HD
ENDBRANCH  20  23
ENDBRANCH  15  20
ENDBRANCH  13  14
ENDBRANCH   7  12
BRANCH  11  26
ATOM     26  O   UNL     1       1.900   8.646  -9.702  1.00  0.00    -0.507 OA
ATOM     27  H   UNL     1       1.773   9.553  -9.504  1.00  0.00     0.293 HD
ENDBRANCH  11  26
ENDBRANCH   3   6
ENDBRANCH   1   2
BRANCH   1  28
ATOM     28  C   UNL     1       0.101   2.774 -10.102  1.00  0.00     0.042 C 
BRANCH  28  29
ATOM     29  C   UNL     1      -0.074   2.166 -11.482  1.00  0.00     0.118 C 
BRANCH  29  30
ATOM     30  N   UNL     1       0.826   1.043 -11.725  1.00  0.00    -0.352 N 
ATOM     31  C   UNL     1       0.587  -0.308 -11.786  1.00  0.00     0.251 C 
ATOM     32  H   UNL     1       1.765   1.298 -11.871  1.00  0.00     0.163 HD
ATOM     33  O   UNL     1       1.534  -1.090 -11.790  1.00  0.00    -0.269 OA
BRANCH  31  34
ATOM     34  C   UNL     1      -0.795  -0.832 -11.831  1.00  0.00     0.039 A 
ATOM     35  C   UNL     1      -1.102  -2.010 -11.142  1.00  0.00     0.014 A 
ATOM     36  C   UNL     1      -1.784  -0.186 -12.572  1.00  0.00     0.014 A 
ATOM     37  C   UNL     1      -2.414  -2.489 -11.137  1.00  0.00     0.010 A 
ATOM     38  C   UNL     1      -3.107  -0.595 -12.471  1.00  0.00     0.010 A 
ATOM     39  C   UNL     1      -3.437  -1.760 -11.764  1.00  0.00    -0.014 A 
BRANCH  39  40
ATOM     40  C   UNL     1      -4.854  -2.197 -11.708  1.00  0.00     0.031 A 
ATOM     41  C   UNL     1      -5.599  -2.511 -12.978  1.00  0.00     0.074 A 
ATOM     42  C   UNL     1      -5.493  -2.239 -10.523  1.00  0.00     0.049 A 
ATOM     43  N   UNL     1      -6.856  -2.841 -13.140  1.00  0.00    -0.248 NA
ATOM     44  C   UNL     1      -4.840  -2.411 -14.236  1.00  0.00     0.031 C 
ATOM     45  C   UNL     1      -4.896  -1.915  -9.225  1.00  0.00     0.029 A 
ATOM     46  N   UNL     1      -6.790  -2.567 -10.219  1.00  0.00    -0.354 N 
ATOM     47  C   UNL     1      -7.039  -2.964 -14.511  1.00  0.00     0.074 A 
ATOM     48  C   UNL     1      -5.786  -2.613 -15.140  1.00  0.00     0.031 C 
ATOM     49  C   UNL     1      -5.813  -2.099  -8.262  1.00  0.00     0.029 A 
ATOM     50  C   UNL     1      -7.073  -2.502  -8.876  1.00  0.00     0.049 A 
ATOM     51  H   UNL     1      -7.455  -2.824 -10.898  1.00  0.00     0.167 HD
ATOM     52  C   UNL     1      -8.145  -3.356 -15.188  1.00  0.00     0.031 A 
ATOM     53  C   UNL     1      -8.222  -2.734  -8.213  1.00  0.00     0.031 A 
ATOM     54  C   UNL     1      -9.389  -3.711 -14.560  1.00  0.00     0.049 A 
ATOM     55  C   UNL     1      -9.443  -3.144  -8.988  1.00  0.00     0.074 A 
ATOM     56  C   UNL     1     -10.550  -4.178 -15.149  1.00  0.00     0.029 A 
ATOM     57  N   UNL     1      -9.635  -3.630 -13.197  1.00  0.00    -0.354 N 
ATOM     58  N   UNL     1      -9.580  -3.329 -10.278  1.00  0.00    -0.248 NA
ATOM     59  C   UNL     1     -10.665  -3.389  -8.210  1.00  0.00     0.031 C 
ATOM     60  C   UNL     1     -11.520  -4.316 -14.151  1.00  0.00     0.029 A 
ATOM     61  C   UNL     1     -10.940  -4.006 -12.931  1.00  0.00     0.049 A 
ATOM     62  H   UNL     1      -8.978  -3.347 -12.520  1.00  0.00     0.167 HD
ATOM     63  C   UNL     1     -10.894  -3.740 -10.465  1.00  0.00     0.074 A 
ATOM     64  C   UNL     1     -11.505  -3.795  -9.152  1.00  0.00     0.031 C 
ATOM     65  C   UNL     1     -11.535  -4.048 -11.619  1.00  0.00     0.031 A 
BRANCH  52  66
ATOM     66  C   UNL     1      -8.055  -3.405 -16.691  1.00  0.00    -0.014 A 
ATOM     67  C   UNL     1      -7.233  -4.338 -17.346  1.00  0.00     0.009 A 
ATOM     68  C   UNL     1      -8.819  -2.517 -17.464  1.00  0.00     0.009 A 
ATOM     69  C   UNL     1      -7.141  -4.347 -18.740  1.00  0.00     0.001 A 
ATOM     70  C   UNL     1      -8.752  -2.552 -18.859  1.00  0.00     0.001 A 
ATOM     71  C   UNL     1      -7.904  -3.457 -19.495  1.00  0.00     0.000 A 
ENDBRANCH  52  66
BRANCH  53  72
ATOM     72  C   UNL     1      -8.266  -2.602  -6.732  1.00  0.00    -0.014 A 
ATOM     73  C   UNL     1      -8.418  -3.737  -5.921  1.00  0.00     0.009 A 
ATOM     74  C   UNL     1      -8.152  -1.344  -6.121  1.00  0.00     0.009 A 
ATOM     75  C   UNL     1      -8.482  -3.612  -4.531  1.00  0.00     0.001 A 
ATOM     76  C   UNL     1      -8.183  -1.225  -4.729  1.00  0.00     0.001 A 
ATOM     77  C   UNL     1      -8.358  -2.357  -3.937  1.00  0.00     0.000 A 
ENDBRANCH  53  72
BRANCH  65  78
ATOM     78  C   UNL     1     -12.963  -4.507 -11.510  1.00  0.00    -0.014 A 
ATOM     79  C   UNL     1     -13.993  -3.623 -11.155  1.00  0.00     0.009 A 
ATOM     80  C   UNL     1     -13.286  -5.840 -11.811  1.00  0.00     0.009 A 
ATOM     81  C   UNL     1     -15.312  -4.074 -11.066  1.00  0.00     0.001 A 
ATOM     82  C   UNL     1     -14.609  -6.280 -11.755  1.00  0.00     0.001 A 
ATOM     83  C   UNL     1     -15.619  -5.399 -11.372  1.00  0.00     0.000 A 
ENDBRANCH  65  78
ENDBRANCH  39  40
ENDBRANCH  31  34
ENDBRANCH  29  30
ENDBRANCH  28  29
ENDBRANCH   1  28
TORSDOF 15
