REMARK SMILES C=CCN(CC(=O)NCCCNC(=O)c1ccc(-c2c3nc(c(-c4ccccc4)c4ccc([nH]4)c(-c4ccccc4)c4nc(c(-c5ccccc5)c5ccc2[nH]5)C=C4)C=C3)cc1)C(=O)c1cc(OC)ccc1Br
REMARK SMILES IDX 9 1 8 2 6 3 7 4 5 6 4 7 3 8 2 9 1 10 63 11 64 12 65 13 66 14
REMARK SMILES IDX 72 15 67 16 71 17 73 18 70 19 68 20 69 21 10 22 11 23 12 24
REMARK SMILES IDX 13 25 14 27 15 28 16 29 62 30 17 31 61 32 18 33 19 34 20 35
REMARK SMILES IDX 55 36 21 37 60 38 54 39 56 40 22 41 59 42 53 43 52 44 23 46
REMARK SMILES IDX 45 47 30 48 44 49 31 50 34 51 43 52 57 53 32 54 33 55 42 57
REMARK SMILES IDX 58 58 35 59 24 60 25 61 29 62 26 63 28 64 27 65 46 66 47 67
REMARK SMILES IDX 51 68 48 69 50 70 49 71 36 72 37 73 41 74 38 75 40 76 39 77
REMARK H PARENT 8 5 12 26 56 45 34 56
REMARK Flexibility Score: inf
ROOT
ATOM      1  C   UNL     1      -4.436   0.675  -1.076  1.00  0.00     0.117 C 
ENDROOT
BRANCH   1   2
ATOM      2  N   UNL     1      -4.713   2.097  -1.040  1.00  0.00    -0.354 N 
ATOM      3  C   UNL     1      -3.897   3.186  -1.127  1.00  0.00     0.239 C 
ATOM      4  O   UNL     1      -4.448   4.270  -1.352  1.00  0.00    -0.273 OA
ATOM      5  H   UNL     1      -5.667   2.318  -0.933  1.00  0.00     0.163 HD
BRANCH   3   6
ATOM      6  C   UNL     1      -2.360   3.107  -1.088  1.00  0.00     0.220 C 
BRANCH   6   7
ATOM      7  N   UNL     1      -1.758   2.352   0.017  1.00  0.00    -0.326 N 
BRANCH   7   8
ATOM      8  C   UNL     1      -1.113   1.082  -0.307  1.00  0.00     0.147 C 
BRANCH   8   9
ATOM      9  C   UNL     1       0.359   1.265  -0.517  1.00  0.00    -0.014 C 
ATOM     10  C   UNL     1       1.281   0.481   0.060  1.00  0.00     0.006 C 
ENDBRANCH   8   9
ENDBRANCH   7   8
BRANCH   7  11
ATOM     11  C   UNL     1      -1.661   2.819   1.337  1.00  0.00     0.255 C 
ATOM     12  O   UNL     1      -1.181   2.153   2.252  1.00  0.00    -0.269 OA
BRANCH  11  13
ATOM     13  C   UNL     1      -2.087   4.199   1.672  1.00  0.00     0.057 A 
ATOM     14  C   UNL     1      -1.079   5.145   1.913  1.00  0.00     0.061 A 
ATOM     15  C   UNL     1      -3.416   4.556   1.917  1.00  0.00     0.031 A 
ATOM     16  C   UNL     1      -1.419   6.436   2.328  1.00  0.00     0.119 A 
ATOM     17  C   UNL     1      -3.754   5.889   2.168  1.00  0.00     0.020 A 
ATOM     18  Br  UNL     1      -4.801   3.299   2.166  1.00  0.00    -0.050 Br
ATOM     19  C   UNL     1      -2.754   6.835   2.357  1.00  0.00     0.047 A 
BRANCH  16  20
ATOM     20  O   UNL     1      -0.395   7.257   2.721  1.00  0.00    -0.497 OA
ATOM     21  C   UNL     1      -0.711   8.013   3.896  1.00  0.00     0.278 C 
ENDBRANCH  16  20
ENDBRANCH  11  13
ENDBRANCH   7  11
ENDBRANCH   6   7
ENDBRANCH   3   6
ENDBRANCH   1   2
BRANCH   1  22
ATOM     22  C   UNL     1      -4.303   0.011   0.292  1.00  0.00     0.042 C 
BRANCH  22  23
ATOM     23  C   UNL     1      -5.574  -0.058   1.135  1.00  0.00     0.118 C 
BRANCH  23  24
ATOM     24  N   UNL     1      -6.623  -0.882   0.569  1.00  0.00    -0.352 N 
ATOM     25  C   UNL     1      -7.396  -1.863   1.131  1.00  0.00     0.251 C 
ATOM     26  H   UNL     1      -6.812  -0.707  -0.382  1.00  0.00     0.163 HD
ATOM     27  O   UNL     1      -8.227  -2.432   0.418  1.00  0.00    -0.269 OA
BRANCH  25  28
ATOM     28  C   UNL     1      -7.245  -2.295   2.543  1.00  0.00     0.039 A 
ATOM     29  C   UNL     1      -7.384  -3.662   2.814  1.00  0.00     0.014 A 
ATOM     30  C   UNL     1      -7.038  -1.409   3.605  1.00  0.00     0.014 A 
ATOM     31  C   UNL     1      -7.272  -4.142   4.121  1.00  0.00     0.010 A 
ATOM     32  C   UNL     1      -6.860  -1.897   4.906  1.00  0.00     0.010 A 
ATOM     33  C   UNL     1      -6.982  -3.268   5.179  1.00  0.00    -0.014 A 
BRANCH  33  34
ATOM     34  C   UNL     1      -6.812  -3.795   6.560  1.00  0.00     0.031 A 
ATOM     35  C   UNL     1      -7.798  -3.453   7.644  1.00  0.00     0.074 A 
ATOM     36  C   UNL     1      -5.761  -4.588   6.845  1.00  0.00     0.049 A 
ATOM     37  N   UNL     1      -7.826  -3.856   8.892  1.00  0.00    -0.248 NA
ATOM     38  C   UNL     1      -8.886  -2.529   7.288  1.00  0.00     0.031 C 
ATOM     39  C   UNL     1      -4.713  -4.977   5.900  1.00  0.00     0.029 A 
ATOM     40  N   UNL     1      -5.406  -5.219   8.012  1.00  0.00    -0.354 N 
ATOM     41  C   UNL     1      -8.924  -3.229   9.468  1.00  0.00     0.074 A 
ATOM     42  C   UNL     1      -9.510  -2.386   8.449  1.00  0.00     0.031 C 
ATOM     43  C   UNL     1      -3.854  -5.807   6.513  1.00  0.00     0.029 A 
ATOM     44  C   UNL     1      -4.270  -5.984   7.901  1.00  0.00     0.049 A 
ATOM     45  H   UNL     1      -5.916  -5.131   8.850  1.00  0.00     0.167 HD
ATOM     46  C   UNL     1      -9.414  -3.355  10.726  1.00  0.00     0.031 A 
ATOM     47  C   UNL     1      -3.635  -6.749   8.809  1.00  0.00     0.031 A 
ATOM     48  C   UNL     1      -8.840  -4.195  11.745  1.00  0.00     0.049 A 
ATOM     49  C   UNL     1      -4.192  -6.864  10.200  1.00  0.00     0.074 A 
ATOM     50  C   UNL     1      -9.294  -4.420  13.034  1.00  0.00     0.029 A 
ATOM     51  N   UNL     1      -7.686  -4.946  11.592  1.00  0.00    -0.354 N 
ATOM     52  N   UNL     1      -5.267  -6.315  10.708  1.00  0.00    -0.248 NA
ATOM     53  C   UNL     1      -3.451  -7.721  11.139  1.00  0.00     0.031 C 
ATOM     54  C   UNL     1      -8.390  -5.274  13.675  1.00  0.00     0.029 A 
ATOM     55  C   UNL     1      -7.402  -5.620  12.768  1.00  0.00     0.049 A 
ATOM     56  H   UNL     1      -7.148  -4.994  10.769  1.00  0.00     0.167 HD
ATOM     57  C   UNL     1      -5.350  -6.782  12.014  1.00  0.00     0.074 A 
ATOM     58  C   UNL     1      -4.223  -7.669  12.215  1.00  0.00     0.031 C 
ATOM     59  C   UNL     1      -6.279  -6.501  12.959  1.00  0.00     0.031 A 
BRANCH  46  60
ATOM     60  C   UNL     1     -10.637  -2.553  11.073  1.00  0.00    -0.014 A 
ATOM     61  C   UNL     1     -11.895  -2.882  10.544  1.00  0.00     0.009 A 
ATOM     62  C   UNL     1     -10.538  -1.477  11.968  1.00  0.00     0.009 A 
ATOM     63  C   UNL     1     -13.022  -2.126  10.874  1.00  0.00     0.001 A 
ATOM     64  C   UNL     1     -11.671  -0.740  12.319  1.00  0.00     0.001 A 
ATOM     65  C   UNL     1     -12.910  -1.058  11.764  1.00  0.00     0.000 A 
ENDBRANCH  46  60
BRANCH  47  66
ATOM     66  C   UNL     1      -2.409  -7.494   8.424  1.00  0.00    -0.014 A 
ATOM     67  C   UNL     1      -2.441  -8.890   8.281  1.00  0.00     0.009 A 
ATOM     68  C   UNL     1      -1.201  -6.816   8.202  1.00  0.00     0.009 A 
ATOM     69  C   UNL     1      -1.282  -9.594   7.947  1.00  0.00     0.001 A 
ATOM     70  C   UNL     1      -0.050  -7.520   7.842  1.00  0.00     0.001 A 
ATOM     71  C   UNL     1      -0.089  -8.908   7.724  1.00  0.00     0.000 A 
ENDBRANCH  47  66
BRANCH  59  72
ATOM     72  C   UNL     1      -6.139  -7.192  14.286  1.00  0.00    -0.014 A 
ATOM     73  C   UNL     1      -5.138  -6.825  15.198  1.00  0.00     0.009 A 
ATOM     74  C   UNL     1      -7.043  -8.206  14.638  1.00  0.00     0.009 A 
ATOM     75  C   UNL     1      -5.024  -7.486  16.424  1.00  0.00     0.001 A 
ATOM     76  C   UNL     1      -6.944  -8.846  15.875  1.00  0.00     0.001 A 
ATOM     77  C   UNL     1      -5.929  -8.492  16.762  1.00  0.00     0.000 A 
ENDBRANCH  59  72
ENDBRANCH  33  34
ENDBRANCH  25  28
ENDBRANCH  23  24
ENDBRANCH  22  23
ENDBRANCH   1  22
TORSDOF 16
