REMARK SMILES CN(C(=O)N1Cc2nc[nH]c2C[C@@H]1C(=O)NCCCNC(=O)c1ccc(-c2c3nc(c(-c4ccccc4)c4ccc([nH]4)c(-c4ccccc4)c4nc(c(-c5ccccc5)c5ccc2[nH]5)C=C4)C=C3)cc1)C1CC1
REMARK SMILES IDX 17 1 16 2 14 3 15 4 13 6 5 7 6 8 7 9 12 10 8 11 11 12 9 13
REMARK SMILES IDX 10 14 3 16 4 17 2 18 1 19 71 20 72 21 73 22 18 23 19 24
REMARK SMILES IDX 20 25 21 26 22 28 23 29 24 30 70 31 25 32 69 33 26 34 27 35
REMARK SMILES IDX 28 36 63 37 29 38 68 39 62 40 64 41 30 42 67 43 61 44 60 45
REMARK SMILES IDX 31 47 53 48 38 49 52 50 39 51 42 52 51 53 65 54 40 55 41 56
REMARK SMILES IDX 50 58 66 59 43 60 32 61 33 62 37 63 34 64 36 65 35 66 54 67
REMARK SMILES IDX 55 68 59 69 56 70 58 71 57 72 44 73 45 74 49 75 46 76 48 77
REMARK SMILES IDX 47 78
REMARK H PARENT 16 5 10 15 20 27 64 46 42 57
REMARK Flexibility Score: inf
ROOT
ATOM      1  C   UNL     1      -2.800  -0.167  -0.829  1.00  0.00     0.117 C 
ENDROOT
BRANCH   1   2
ATOM      2  N   UNL     1      -1.960   0.709  -0.026  1.00  0.00    -0.354 N 
ATOM      3  C   UNL     1      -1.243   0.438   1.100  1.00  0.00     0.243 C 
ATOM      4  O   UNL     1      -0.677   1.384   1.657  1.00  0.00    -0.273 OA
ATOM      5  H   UNL     1      -1.900   1.639  -0.345  1.00  0.00     0.163 HD
BRANCH   3   6
ATOM      6  C   UNL     1      -1.213  -0.967   1.720  1.00  0.00     0.182 C 
ATOM      7  N   UNL     1      -0.690  -2.128   0.910  1.00  0.00    -0.306 N 
ATOM      8  C   UNL     1      -0.723  -3.458   1.564  1.00  0.00     0.180 C 
ATOM      9  C   UNL     1      -2.001  -3.642   2.302  1.00  0.00     0.081 A 
ATOM     10  C   UNL     1      -2.639  -1.194   2.335  1.00  0.00     0.091 C 
ATOM     11  N   UNL     1      -2.493  -4.839   2.750  1.00  0.00    -0.240 NA
ATOM     12  C   UNL     1      -2.842  -2.618   2.657  1.00  0.00     0.042 A 
ATOM     13  C   UNL     1      -3.638  -4.545   3.330  1.00  0.00     0.197 A 
ATOM     14  N   UNL     1      -3.899  -3.201   3.291  1.00  0.00    -0.348 N 
ATOM     15  H   UNL     1      -4.694  -2.745   3.650  1.00  0.00     0.167 HD
BRANCH   7  16
ATOM     16  C   UNL     1      -0.287  -2.131  -0.412  1.00  0.00     0.321 C 
ATOM     17  O   UNL     1      -0.584  -3.086  -1.137  1.00  0.00    -0.248 OA
BRANCH  16  18
ATOM     18  N   UNL     1       0.481  -1.084  -0.902  1.00  0.00    -0.325 N 
ATOM     19  C   UNL     1       1.375  -0.264  -0.085  1.00  0.00     0.149 C 
BRANCH  18  20
ATOM     20  C   UNL     1       0.785  -1.026  -2.327  1.00  0.00     0.086 C 
ATOM     21  C   UNL     1      -0.222  -1.233  -3.428  1.00  0.00     0.027 C 
ATOM     22  C   UNL     1       0.307   0.142  -3.157  1.00  0.00     0.027 C 
ENDBRANCH  18  20
ENDBRANCH  16  18
ENDBRANCH   7  16
ENDBRANCH   3   6
ENDBRANCH   1   2
BRANCH   1  23
ATOM     23  C   UNL     1      -4.250   0.311  -0.870  1.00  0.00     0.042 C 
BRANCH  23  24
ATOM     24  C   UNL     1      -4.413   1.569  -1.707  1.00  0.00     0.118 C 
BRANCH  24  25
ATOM     25  N   UNL     1      -4.198   1.332  -3.135  1.00  0.00    -0.352 N 
ATOM     26  C   UNL     1      -4.266   2.249  -4.161  1.00  0.00     0.251 C 
ATOM     27  H   UNL     1      -3.978   0.408  -3.393  1.00  0.00     0.163 HD
ATOM     28  O   UNL     1      -4.438   1.888  -5.326  1.00  0.00    -0.269 OA
BRANCH  26  29
ATOM     29  C   UNL     1      -4.118   3.676  -3.844  1.00  0.00     0.039 A 
ATOM     30  C   UNL     1      -4.917   4.649  -4.452  1.00  0.00     0.014 A 
ATOM     31  C   UNL     1      -3.167   4.026  -2.888  1.00  0.00     0.014 A 
ATOM     32  C   UNL     1      -4.799   5.970  -4.030  1.00  0.00     0.010 A 
ATOM     33  C   UNL     1      -3.168   5.289  -2.360  1.00  0.00     0.010 A 
ATOM     34  C   UNL     1      -3.933   6.276  -2.968  1.00  0.00    -0.014 A 
BRANCH  34  35
ATOM     35  C   UNL     1      -3.907   7.603  -2.371  1.00  0.00     0.031 A 
ATOM     36  C   UNL     1      -5.222   8.055  -1.848  1.00  0.00     0.074 A 
ATOM     37  C   UNL     1      -2.753   8.253  -2.101  1.00  0.00     0.049 A 
ATOM     38  N   UNL     1      -5.944   9.022  -2.303  1.00  0.00    -0.248 NA
ATOM     39  C   UNL     1      -5.888   7.255  -0.805  1.00  0.00     0.031 C 
ATOM     40  C   UNL     1      -1.378   7.780  -2.303  1.00  0.00     0.029 A 
ATOM     41  N   UNL     1      -2.562   9.437  -1.459  1.00  0.00    -0.354 N 
ATOM     42  C   UNL     1      -7.053   9.100  -1.469  1.00  0.00     0.074 A 
ATOM     43  C   UNL     1      -7.065   7.879  -0.704  1.00  0.00     0.031 C 
ATOM     44  C   UNL     1      -0.527   8.534  -1.572  1.00  0.00     0.029 A 
ATOM     45  C   UNL     1      -1.269   9.632  -0.980  1.00  0.00     0.049 A 
ATOM     46  H   UNL     1      -3.280  10.101  -1.342  1.00  0.00     0.167 HD
ATOM     47  C   UNL     1      -7.703  10.283  -1.283  1.00  0.00     0.031 A 
ATOM     48  C   UNL     1      -0.851  10.604  -0.129  1.00  0.00     0.031 A 
ATOM     49  C   UNL     1      -7.295  11.261  -2.263  1.00  0.00     0.049 A 
ATOM     50  C   UNL     1      -1.863  11.685  -0.169  1.00  0.00     0.074 A 
ATOM     51  C   UNL     1      -7.310  11.318  -3.643  1.00  0.00     0.029 A 
ATOM     52  N   UNL     1      -6.381  12.204  -1.852  1.00  0.00    -0.354 N 
ATOM     53  N   UNL     1      -2.056  12.435  -1.215  1.00  0.00    -0.248 NA
ATOM     54  C   UNL     1      -2.979  11.613   0.763  1.00  0.00     0.031 C 
ATOM     55  C   UNL     1      -6.070  11.927  -3.994  1.00  0.00     0.029 A 
ATOM     56  C   UNL     1      -5.416  12.299  -2.819  1.00  0.00     0.049 A 
ATOM     57  H   UNL     1      -6.415  12.718  -1.013  1.00  0.00     0.167 HD
ATOM     58  C   UNL     1      -3.436  12.523  -1.324  1.00  0.00     0.074 A 
ATOM     59  C   UNL     1      -3.949  12.095  -0.021  1.00  0.00     0.031 C 
ATOM     60  C   UNL     1      -4.036  12.632  -2.547  1.00  0.00     0.031 A 
BRANCH  47  61
ATOM     61  C   UNL     1      -8.335  10.701   0.023  1.00  0.00    -0.014 A 
ATOM     62  C   UNL     1      -8.953  11.964   0.087  1.00  0.00     0.009 A 
ATOM     63  C   UNL     1      -8.088  10.056   1.249  1.00  0.00     0.009 A 
ATOM     64  C   UNL     1      -9.209  12.589   1.312  1.00  0.00     0.001 A 
ATOM     65  C   UNL     1      -8.381  10.660   2.474  1.00  0.00     0.001 A 
ATOM     66  C   UNL     1      -8.911  11.941   2.506  1.00  0.00     0.000 A 
ENDBRANCH  47  61
BRANCH  48  67
ATOM     67  C   UNL     1       0.227  10.576   0.888  1.00  0.00    -0.014 A 
ATOM     68  C   UNL     1       0.664  11.762   1.506  1.00  0.00     0.009 A 
ATOM     69  C   UNL     1       0.638   9.359   1.460  1.00  0.00     0.009 A 
ATOM     70  C   UNL     1       1.433  11.727   2.679  1.00  0.00     0.001 A 
ATOM     71  C   UNL     1       1.410   9.324   2.628  1.00  0.00     0.001 A 
ATOM     72  C   UNL     1       1.791  10.508   3.248  1.00  0.00     0.000 A 
ENDBRANCH  48  67
BRANCH  60  73
ATOM     73  C   UNL     1      -3.158  12.876  -3.752  1.00  0.00    -0.014 A 
ATOM     74  C   UNL     1      -2.146  11.990  -4.166  1.00  0.00     0.009 A 
ATOM     75  C   UNL     1      -3.475  13.955  -4.588  1.00  0.00     0.009 A 
ATOM     76  C   UNL     1      -1.455  12.199  -5.365  1.00  0.00     0.001 A 
ATOM     77  C   UNL     1      -2.802  14.151  -5.795  1.00  0.00     0.001 A 
ATOM     78  C   UNL     1      -1.789  13.277  -6.181  1.00  0.00     0.000 A 
ENDBRANCH  60  73
ENDBRANCH  34  35
ENDBRANCH  26  29
ENDBRANCH  24  25
ENDBRANCH  23  24
ENDBRANCH   1  23
TORSDOF 13
