REMARK SMILES C=CCOc1ccccc1-c1cc(C(=O)NCCCNC(=O)c2ccc(-c3c4nc(c(-c5ccccc5)c5ccc([nH]5)c(-c5ccccc5)c5nc(c(-c6ccccc6)c6ccc3[nH]6)C=C5)C=C4)cc2)nc(N)n1
REMARK SMILES IDX 17 1 16 2 14 3 15 4 13 6 11 7 12 8 74 9 72 10 71 11 10 12
REMARK SMILES IDX 5 13 6 14 7 15 9 16 8 17 4 18 3 19 2 20 1 21 73 22 18 25
REMARK SMILES IDX 19 26 20 27 21 28 22 30 23 31 24 32 70 33 25 34 69 35 26 36
REMARK SMILES IDX 27 37 28 38 63 39 29 40 68 41 62 42 64 43 30 44 67 45 61 46
REMARK SMILES IDX 60 47 31 49 53 50 38 51 52 52 39 53 42 54 51 55 65 56 40 57
REMARK SMILES IDX 41 58 50 60 66 61 43 62 32 63 33 64 37 65 34 66 36 67 35 68
REMARK SMILES IDX 54 69 55 70 59 71 56 72 58 73 57 74 44 75 45 76 49 77 46 78
REMARK SMILES IDX 48 79 47 80
REMARK H PARENT 16 5 73 23 73 24 20 29 64 48 42 59
REMARK Flexibility Score: inf
ROOT
ATOM      1  C   UNL     1       3.858   2.846  -0.891  1.00  0.00     0.118 C 
ENDROOT
BRANCH   1   2
ATOM      2  N   UNL     1       3.344   3.337   0.377  1.00  0.00    -0.351 N 
ATOM      3  C   UNL     1       2.799   2.677   1.456  1.00  0.00     0.270 C 
ATOM      4  O   UNL     1       2.459   3.361   2.424  1.00  0.00    -0.268 OA
ATOM      5  H   UNL     1       3.393   4.314   0.483  1.00  0.00     0.163 HD
BRANCH   3   6
ATOM      6  C   UNL     1       2.558   1.202   1.472  1.00  0.00     0.134 A 
ATOM      7  C   UNL     1       1.270  -0.601   2.173  1.00  0.00     0.080 A 
ATOM      8  C   UNL     1       1.633   0.713   2.361  1.00  0.00     0.063 A 
ATOM      9  N   UNL     1       1.852  -1.385   1.238  1.00  0.00    -0.213 NA
ATOM     10  C   UNL     1       2.774  -0.824   0.461  1.00  0.00     0.221 A 
ATOM     11  N   UNL     1       3.168   0.440   0.546  1.00  0.00    -0.208 NA
BRANCH   7  12
ATOM     12  C   UNL     1       0.139  -1.209   2.882  1.00  0.00     0.042 A 
ATOM     13  C   UNL     1      -1.134  -0.606   2.931  1.00  0.00     0.129 A 
ATOM     14  C   UNL     1      -2.193  -1.206   3.616  1.00  0.00     0.047 A 
ATOM     15  C   UNL     1      -2.005  -2.436   4.245  1.00  0.00     0.004 A 
ATOM     16  C   UNL     1       0.299  -2.455   3.516  1.00  0.00     0.014 A 
ATOM     17  C   UNL     1      -0.761  -3.060   4.196  1.00  0.00     0.001 A 
BRANCH  13  18
ATOM     18  O   UNL     1      -1.354   0.634   2.379  1.00  0.00    -0.489 OA
BRANCH  18  19
ATOM     19  C   UNL     1      -1.824   0.553   1.026  1.00  0.00     0.257 C 
BRANCH  19  20
ATOM     20  C   UNL     1      -0.825   1.228   0.131  1.00  0.00     0.006 C 
ATOM     21  C   UNL     1      -0.220   0.643  -0.912  1.00  0.00     0.007 C 
ENDBRANCH  19  20
ENDBRANCH  18  19
ENDBRANCH  13  18
ENDBRANCH   7  12
BRANCH  10  22
ATOM     22  N   UNL     1       3.273  -1.564  -0.572  1.00  0.00    -0.368 N 
ATOM     23  H   UNL     1       3.957  -1.180  -1.167  1.00  0.00     0.159 HD
ATOM     24  H   UNL     1       2.949  -2.481  -0.722  1.00  0.00     0.159 HD
ENDBRANCH  10  22
ENDBRANCH   3   6
ENDBRANCH   1   2
BRANCH   1  25
ATOM     25  C   UNL     1       3.306   3.606  -2.089  1.00  0.00     0.042 C 
BRANCH  25  26
ATOM     26  C   UNL     1       3.653   5.086  -2.118  1.00  0.00     0.118 C 
BRANCH  26  27
ATOM     27  N   UNL     1       5.088   5.332  -2.178  1.00  0.00    -0.352 N 
ATOM     28  C   UNL     1       5.867   5.859  -3.179  1.00  0.00     0.251 C 
ATOM     29  H   UNL     1       5.581   5.078  -1.365  1.00  0.00     0.163 HD
ATOM     30  O   UNL     1       7.088   5.812  -3.088  1.00  0.00    -0.269 OA
BRANCH  28  31
ATOM     31  C   UNL     1       5.244   6.453  -4.383  1.00  0.00     0.039 A 
ATOM     32  C   UNL     1       5.803   6.177  -5.634  1.00  0.00     0.014 A 
ATOM     33  C   UNL     1       4.127   7.284  -4.288  1.00  0.00     0.014 A 
ATOM     34  C   UNL     1       5.187   6.658  -6.792  1.00  0.00     0.010 A 
ATOM     35  C   UNL     1       3.462   7.687  -5.443  1.00  0.00     0.010 A 
ATOM     36  C   UNL     1       3.981   7.372  -6.708  1.00  0.00    -0.014 A 
BRANCH  36  37
ATOM     37  C   UNL     1       3.229   7.768  -7.926  1.00  0.00     0.031 A 
ATOM     38  C   UNL     1       2.979   9.218  -8.231  1.00  0.00     0.074 A 
ATOM     39  C   UNL     1       2.696   6.814  -8.714  1.00  0.00     0.049 A 
ATOM     40  N   UNL     1       2.272   9.748  -9.198  1.00  0.00    -0.248 NA
ATOM     41  C   UNL     1       3.581  10.201  -7.317  1.00  0.00     0.031 C 
ATOM     42  C   UNL     1       2.828   5.370  -8.506  1.00  0.00     0.029 A 
ATOM     43  N   UNL     1       1.921   6.916  -9.843  1.00  0.00    -0.354 N 
ATOM     44  C   UNL     1       2.331  11.121  -8.999  1.00  0.00     0.074 A 
ATOM     45  C   UNL     1       3.099  11.340  -7.792  1.00  0.00     0.031 C 
ATOM     46  C   UNL     1       2.175   4.723  -9.484  1.00  0.00     0.029 A 
ATOM     47  C   UNL     1       1.536   5.701 -10.357  1.00  0.00     0.049 A 
ATOM     48  H   UNL     1       1.666   7.777 -10.246  1.00  0.00     0.167 HD
ATOM     49  C   UNL     1       1.807  12.112  -9.760  1.00  0.00     0.031 A 
ATOM     50  C   UNL     1       0.741   5.404 -11.403  1.00  0.00     0.031 A 
ATOM     51  C   UNL     1       1.039  11.894 -10.957  1.00  0.00     0.049 A 
ATOM     52  C   UNL     1       0.143   6.519 -12.213  1.00  0.00     0.074 A 
ATOM     53  C   UNL     1       0.514  12.833 -11.828  1.00  0.00     0.029 A 
ATOM     54  N   UNL     1       0.676  10.648 -11.446  1.00  0.00    -0.354 N 
ATOM     55  N   UNL     1       0.273   7.814 -12.056  1.00  0.00    -0.248 NA
ATOM     56  C   UNL     1      -0.705   6.131 -13.349  1.00  0.00     0.031 C 
ATOM     57  C   UNL     1      -0.222  12.159 -12.807  1.00  0.00     0.029 A 
ATOM     58  C   UNL     1      -0.098  10.796 -12.586  1.00  0.00     0.049 A 
ATOM     59  H   UNL     1       0.930   9.787 -11.043  1.00  0.00     0.167 HD
ATOM     60  C   UNL     1      -0.457   8.396 -13.085  1.00  0.00     0.074 A 
ATOM     61  C   UNL     1      -1.010   7.311 -13.871  1.00  0.00     0.031 C 
ATOM     62  C   UNL     1      -0.650   9.710 -13.354  1.00  0.00     0.031 A 
BRANCH  49  63
ATOM     63  C   UNL     1       2.035  13.528  -9.303  1.00  0.00    -0.014 A 
ATOM     64  C   UNL     1       3.314  14.108  -9.328  1.00  0.00     0.009 A 
ATOM     65  C   UNL     1       0.949  14.303  -8.866  1.00  0.00     0.009 A 
ATOM     66  C   UNL     1       3.507  15.418  -8.882  1.00  0.00     0.001 A 
ATOM     67  C   UNL     1       1.140  15.623  -8.452  1.00  0.00     0.001 A 
ATOM     68  C   UNL     1       2.420  16.175  -8.449  1.00  0.00     0.000 A 
ENDBRANCH  49  63
BRANCH  50  69
ATOM     69  C   UNL     1       0.459   3.982 -11.737  1.00  0.00    -0.014 A 
ATOM     70  C   UNL     1       0.984   3.403 -12.903  1.00  0.00     0.009 A 
ATOM     71  C   UNL     1      -0.333   3.195 -10.887  1.00  0.00     0.009 A 
ATOM     72  C   UNL     1       0.700   2.073 -13.221  1.00  0.00     0.001 A 
ATOM     73  C   UNL     1      -0.588   1.856 -11.191  1.00  0.00     0.001 A 
ATOM     74  C   UNL     1      -0.080   1.299 -12.363  1.00  0.00     0.000 A 
ENDBRANCH  50  69
BRANCH  62  75
ATOM     75  C   UNL     1      -1.475  10.052 -14.564  1.00  0.00    -0.014 A 
ATOM     76  C   UNL     1      -2.863   9.846 -14.584  1.00  0.00     0.009 A 
ATOM     77  C   UNL     1      -0.859  10.636 -15.682  1.00  0.00     0.009 A 
ATOM     78  C   UNL     1      -3.612  10.191 -15.712  1.00  0.00     0.001 A 
ATOM     79  C   UNL     1      -1.614  11.008 -16.795  1.00  0.00     0.001 A 
ATOM     80  C   UNL     1      -2.988  10.778 -16.812  1.00  0.00     0.000 A 
ENDBRANCH  62  75
ENDBRANCH  36  37
ENDBRANCH  28  31
ENDBRANCH  26  27
ENDBRANCH  25  26
ENDBRANCH   1  25
TORSDOF 15
