REMARK SMILES Cc1cc2c(=O)c3ccccc3oc2c(C(=O)NCCCNC(=O)c2ccc(-c3c4nc(c(-c5ccccc5)c5ccc([nH]5)c(-c5ccccc5)c5nc(c(-c6ccccc6)c6ccc3[nH]6)C=C5)C=C4)cc2)c1C
REMARK SMILES IDX 21 1 20 2 19 3 18 4 16 5 17 6 15 8 1 9 2 10 3 11 73 12 4 13
REMARK SMILES IDX 74 14 5 15 14 16 6 17 7 18 13 19 8 20 12 21 9 22 11 23 10 24
REMARK SMILES IDX 22 25 23 26 24 28 25 29 26 30 72 31 27 32 71 33 28 34 29 35
REMARK SMILES IDX 30 36 65 37 31 38 70 39 64 40 66 41 32 42 69 43 63 44 62 45
REMARK SMILES IDX 33 47 55 48 40 49 54 50 41 51 44 52 53 53 67 54 42 55 43 56
REMARK SMILES IDX 52 58 68 59 45 60 34 61 35 62 39 63 36 64 38 65 37 66 56 67
REMARK SMILES IDX 57 68 61 69 58 70 60 71 59 72 46 73 47 74 51 75 48 76 50 77
REMARK SMILES IDX 49 78
REMARK H PARENT 18 7 22 27 66 46 44 57
REMARK Flexibility Score: inf
ROOT
ATOM      1  C   UNL     1      -2.471  -1.219   5.663  1.00  0.00     0.118 C 
ENDROOT
BRANCH   1   2
ATOM      2  C   UNL     1      -1.868  -0.713   4.365  1.00  0.00     0.042 C 
BRANCH   2   3
ATOM      3  C   UNL     1      -2.726   0.341   3.667  1.00  0.00     0.118 C 
BRANCH   3   4
ATOM      4  N   UNL     1      -2.173   1.665   3.848  1.00  0.00    -0.352 N 
ATOM      5  C   UNL     1      -1.282   2.533   3.285  1.00  0.00     0.255 C 
ATOM      6  O   UNL     1      -1.147   3.524   4.019  1.00  0.00    -0.269 OA
ATOM      7  H   UNL     1      -2.574   2.080   4.646  1.00  0.00     0.163 HD
BRANCH   5   8
ATOM      8  C   UNL     1      -0.458   2.461   2.002  1.00  0.00     0.086 A 
ATOM      9  C   UNL     1       1.571   0.230  -0.454  1.00  0.00     0.044 C 
ATOM     10  C   UNL     1       0.982   1.419   0.270  1.00  0.00    -0.046 A 
ATOM     11  C   UNL     1       1.450   2.673  -0.113  1.00  0.00     0.019 A 
ATOM     12  C   UNL     1      -0.018   1.303   1.286  1.00  0.00    -0.032 A 
ATOM     13  C   UNL     1       0.965   3.814   0.505  1.00  0.00     0.066 A 
ATOM     14  C   UNL     1      -0.561  -0.071   1.509  1.00  0.00     0.045 C 
ATOM     15  C   UNL     1       1.469   5.122   0.058  1.00  0.00     0.200 A 
ATOM     16  C   UNL     1       0.038   3.729   1.548  1.00  0.00     0.151 A 
ATOM     17  O   UNL     1       2.251   5.225  -0.879  1.00  0.00    -0.288 OA
ATOM     18  C   UNL     1       1.006   6.297   0.794  1.00  0.00     0.065 A 
ATOM     19  O   UNL     1      -0.442   4.884   2.143  1.00  0.00    -0.455 OA
ATOM     20  C   UNL     1       1.480   7.574   0.483  1.00  0.00     0.016 A 
ATOM     21  C   UNL     1       0.091   6.103   1.818  1.00  0.00     0.138 A 
ATOM     22  C   UNL     1       1.035   8.669   1.221  1.00  0.00     0.001 A 
ATOM     23  C   UNL     1      -0.344   7.199   2.563  1.00  0.00     0.048 A 
ATOM     24  C   UNL     1       0.129   8.481   2.266  1.00  0.00     0.004 A 
ENDBRANCH   5   8
ENDBRANCH   3   4
ENDBRANCH   2   3
ENDBRANCH   1   2
BRANCH   1  25
ATOM     25  N   UNL     1      -3.654  -2.036   5.426  1.00  0.00    -0.352 N 
ATOM     26  C   UNL     1      -3.920  -3.341   5.769  1.00  0.00     0.251 C 
ATOM     27  H   UNL     1      -4.381  -1.579   4.943  1.00  0.00     0.163 HD
ATOM     28  O   UNL     1      -4.893  -3.905   5.286  1.00  0.00    -0.269 OA
BRANCH  26  29
ATOM     29  C   UNL     1      -3.024  -4.070   6.695  1.00  0.00     0.039 A 
ATOM     30  C   UNL     1      -2.416  -3.417   7.765  1.00  0.00     0.014 A 
ATOM     31  C   UNL     1      -2.797  -5.436   6.496  1.00  0.00     0.014 A 
ATOM     32  C   UNL     1      -1.441  -4.067   8.507  1.00  0.00     0.010 A 
ATOM     33  C   UNL     1      -1.911  -6.125   7.330  1.00  0.00     0.010 A 
ATOM     34  C   UNL     1      -1.191  -5.435   8.316  1.00  0.00    -0.014 A 
BRANCH  34  35
ATOM     35  C   UNL     1      -0.204  -6.112   9.196  1.00  0.00     0.031 A 
ATOM     36  C   UNL     1       1.038  -6.743   8.630  1.00  0.00     0.074 A 
ATOM     37  C   UNL     1      -0.406  -6.086  10.530  1.00  0.00     0.049 A 
ATOM     38  N   UNL     1       2.024  -7.323   9.268  1.00  0.00    -0.248 NA
ATOM     39  C   UNL     1       1.201  -6.729   7.167  1.00  0.00     0.031 C 
ATOM     40  C   UNL     1      -1.570  -5.487  11.191  1.00  0.00     0.029 A 
ATOM     41  N   UNL     1       0.372  -6.525  11.570  1.00  0.00    -0.354 N 
ATOM     42  C   UNL     1       2.910  -7.755   8.289  1.00  0.00     0.074 A 
ATOM     43  C   UNL     1       2.333  -7.403   7.011  1.00  0.00     0.031 C 
ATOM     44  C   UNL     1      -1.387  -5.517  12.517  1.00  0.00     0.029 A 
ATOM     45  C   UNL     1      -0.143  -6.220  12.807  1.00  0.00     0.049 A 
ATOM     46  H   UNL     1       1.218  -7.013  11.443  1.00  0.00     0.167 HD
ATOM     47  C   UNL     1       4.102  -8.377   8.447  1.00  0.00     0.031 A 
ATOM     48  C   UNL     1       0.321  -6.482  14.043  1.00  0.00     0.031 A 
ATOM     49  C   UNL     1       4.673  -8.710   9.726  1.00  0.00     0.049 A 
ATOM     50  C   UNL     1       1.621  -7.218  14.184  1.00  0.00     0.074 A 
ATOM     51  C   UNL     1       5.884  -9.328   9.987  1.00  0.00     0.029 A 
ATOM     52  N   UNL     1       4.082  -8.452  10.953  1.00  0.00    -0.354 N 
ATOM     53  N   UNL     1       2.449  -7.609  13.246  1.00  0.00    -0.248 NA
ATOM     54  C   UNL     1       2.050  -7.553  15.548  1.00  0.00     0.031 C 
ATOM     55  C   UNL     1       5.993  -9.507  11.367  1.00  0.00     0.029 A 
ATOM     56  C   UNL     1       4.890  -8.927  11.973  1.00  0.00     0.049 A 
ATOM     57  H   UNL     1       3.217  -7.999  11.080  1.00  0.00     0.167 HD
ATOM     58  C   UNL     1       3.503  -8.226  13.906  1.00  0.00     0.074 A 
ATOM     59  C   UNL     1       3.224  -8.128  15.324  1.00  0.00     0.031 C 
ATOM     60  C   UNL     1       4.598  -8.826  13.380  1.00  0.00     0.031 A 
BRANCH  47  61
ATOM     61  C   UNL     1       4.884  -8.752   7.216  1.00  0.00    -0.014 A 
ATOM     62  C   UNL     1       5.089 -10.107   6.907  1.00  0.00     0.009 A 
ATOM     63  C   UNL     1       5.521  -7.776   6.434  1.00  0.00     0.009 A 
ATOM     64  C   UNL     1       5.934 -10.478   5.860  1.00  0.00     0.001 A 
ATOM     65  C   UNL     1       6.342  -8.150   5.367  1.00  0.00     0.001 A 
ATOM     66  C   UNL     1       6.559  -9.499   5.090  1.00  0.00     0.000 A 
ENDBRANCH  47  61
BRANCH  48  67
ATOM     67  C   UNL     1      -0.460  -6.040  15.231  1.00  0.00    -0.014 A 
ATOM     68  C   UNL     1      -1.739  -6.565  15.482  1.00  0.00     0.009 A 
ATOM     69  C   UNL     1       0.043  -5.052  16.091  1.00  0.00     0.009 A 
ATOM     70  C   UNL     1      -2.510  -6.088  16.543  1.00  0.00     0.001 A 
ATOM     71  C   UNL     1      -0.715  -4.605  17.176  1.00  0.00     0.001 A 
ATOM     72  C   UNL     1      -1.995  -5.112  17.394  1.00  0.00     0.000 A 
ENDBRANCH  48  67
BRANCH  60  73
ATOM     73  C   UNL     1       5.594  -9.423  14.336  1.00  0.00    -0.014 A 
ATOM     74  C   UNL     1       6.882  -8.873  14.436  1.00  0.00     0.009 A 
ATOM     75  C   UNL     1       5.294 -10.586  15.062  1.00  0.00     0.009 A 
ATOM     76  C   UNL     1       7.855  -9.484  15.228  1.00  0.00     0.001 A 
ATOM     77  C   UNL     1       6.258 -11.175  15.882  1.00  0.00     0.001 A 
ATOM     78  C   UNL     1       7.540 -10.630  15.955  1.00  0.00     0.000 A 
ENDBRANCH  60  73
ENDBRANCH  34  35
ENDBRANCH  26  29
ENDBRANCH   1  25
TORSDOF 10
