REMARK SMILES O=C(NCCCNC(=O)c1ccc(-c2c3nc(c(-c4ccccc4)c4ccc([nH]4)c(-c4ccccc4)c4nc(c(-c5ccccc5)c5ccc2[nH]5)C=C4)C=C3)cc1)C1=Cc2cc(S(F)(F)(F)(F)F)cc(Br)c2O[C@@H]1C(F)(F)F
REMARK SMILES IDX 5 1 4 2 3 3 1 4 2 5 58 7 59 8 74 9 60 10 73 11 61 12 72 13
REMARK SMILES IDX 62 14 70 15 69 16 71 17 75 18 76 19 77 20 78 21 63 22 64 23
REMARK SMILES IDX 65 24 66 25 67 26 68 27 6 28 7 29 8 30 9 32 10 33 11 34
REMARK SMILES IDX 57 35 12 36 56 37 13 38 14 39 15 40 50 41 16 42 55 43 49 44
REMARK SMILES IDX 51 45 17 46 54 47 48 48 47 49 18 51 40 52 25 53 39 54 26 55
REMARK SMILES IDX 29 56 38 57 52 58 27 59 28 60 37 62 53 63 30 64 19 65 20 66
REMARK SMILES IDX 24 67 21 68 23 69 22 70 41 71 42 72 46 73 43 74 45 75 44 76
REMARK SMILES IDX 31 77 32 78 36 79 33 80 35 81 34 82
REMARK H PARENT 3 6 7 31 51 50 29 61
REMARK Flexibility Score: inf
ROOT
ATOM      1  C   UNL     1       4.988  -2.293   0.832  1.00  0.00     0.042 C 
ENDROOT
BRANCH   1   2
ATOM      2  C   UNL     1       4.481  -1.320  -0.220  1.00  0.00     0.118 C 
BRANCH   2   3
ATOM      3  N   UNL     1       3.011  -1.320  -0.220  1.00  0.00    -0.352 N 
ATOM      4  O   UNL     1       1.005  -0.079   0.061  1.00  0.00    -0.270 OA
ATOM      5  C   UNL     1       2.276  -0.079   0.061  1.00  0.00     0.251 C 
ATOM      6  H   UNL     1       2.519  -2.152  -0.409  1.00  0.00     0.163 HD
BRANCH   5   7
ATOM      7  C   UNL     1       3.036   1.205   0.353  1.00  0.00     0.067 C 
ATOM      8  C   UNL     1       4.397   1.205   0.353  1.00  0.00     0.025 C 
ATOM      9  C   UNL     1       2.276   2.489   0.644  1.00  0.00     0.314 C 
ATOM     10  C   UNL     1       5.157  -0.079   0.061  1.00  0.00     0.020 A 
ATOM     11  O   UNL     1       3.596  -0.582  -1.659  1.00  0.00    -0.474 OA
ATOM     12  C   UNL     1       6.229  -0.407   0.875  1.00  0.00     0.036 A 
ATOM     13  C   UNL     1       4.792  -0.862  -0.947  1.00  0.00     0.142 A 
ATOM     14  C   UNL     1       7.040  -1.447   0.363  1.00  0.00     0.109 A 
ATOM     15  C   UNL     1       5.561  -1.942  -1.307  1.00  0.00     0.062 A 
ATOM     16  C   UNL     1       6.668  -2.290  -0.583  1.00  0.00     0.044 A 
ATOM     17  Br  UNL     1       5.065  -2.999  -2.881  1.00  0.00    -0.047 Br
BRANCH   9  18
ATOM     18  C   UNL     1       2.643   3.541  -0.390  1.00  0.00     0.429 C 
ATOM     19  F   UNL     1       2.322   3.101  -1.603  1.00  0.00    -0.167 F 
ATOM     20  F   UNL     1       1.978   4.664  -0.135  1.00  0.00    -0.167 F 
ATOM     21  F   UNL     1       3.951   3.778  -0.336  1.00  0.00    -0.167 F 
ENDBRANCH   9  18
BRANCH  14  22
ATOM     22  S   UNL     1       8.703  -1.635   1.052  1.00  0.00     0.310 S 
ATOM     23  F   UNL     1       8.153  -1.606   2.540  1.00  0.00    -0.094 F 
ATOM     24  F   UNL     1       8.816  -0.066   1.137  1.00  0.00    -0.094 F 
ATOM     25  F   UNL     1      10.130  -1.798   1.648  1.00  0.00    -0.094 F 
ATOM     26  F   UNL     1       8.517  -3.203   1.091  1.00  0.00    -0.094 F 
ATOM     27  F   UNL     1       7.210  -1.485   0.554  1.00  0.00    -0.094 F 
ENDBRANCH  14  22
ENDBRANCH   5   7
ENDBRANCH   2   3
ENDBRANCH   1   2
BRANCH   1  28
ATOM     28  C   UNL     1       4.481  -3.691   0.515  1.00  0.00     0.118 C 
BRANCH  28  29
ATOM     29  N   UNL     1       4.971  -4.101  -0.809  1.00  0.00    -0.352 N 
ATOM     30  C   UNL     1       5.816  -5.297  -0.942  1.00  0.00     0.251 C 
ATOM     31  H   UNL     1       4.734  -3.576  -1.607  1.00  0.00     0.163 HD
ATOM     32  O   UNL     1       6.240  -5.652  -2.087  1.00  0.00    -0.269 OA
BRANCH  30  33
ATOM     33  C   UNL     1       6.184  -6.109   0.289  1.00  0.00     0.039 A 
ATOM     34  C   UNL     1       7.449  -6.666   0.377  1.00  0.00     0.014 A 
ATOM     35  C   UNL     1       5.240  -6.399   1.178  1.00  0.00     0.014 A 
ATOM     36  C   UNL     1       7.536  -7.751   1.281  1.00  0.00     0.010 A 
ATOM     37  C   UNL     1       5.444  -7.378   2.120  1.00  0.00     0.010 A 
ATOM     38  C   UNL     1       6.651  -8.012   2.225  1.00  0.00    -0.014 A 
BRANCH  38  39
ATOM     39  C   UNL     1       6.957  -8.966   3.368  1.00  0.00     0.031 A 
ATOM     40  C   UNL     1       6.169 -10.105   3.544  1.00  0.00     0.074 A 
ATOM     41  C   UNL     1       8.117  -8.710   4.078  1.00  0.00     0.049 A 
ATOM     42  N   UNL     1       6.394 -11.131   4.367  1.00  0.00    -0.248 NA
ATOM     43  C   UNL     1       4.918 -10.362   2.816  1.00  0.00     0.031 C 
ATOM     44  C   UNL     1       8.922  -7.568   3.901  1.00  0.00     0.029 A 
ATOM     45  N   UNL     1       8.696  -9.485   5.059  1.00  0.00    -0.354 N 
ATOM     46  C   UNL     1       5.428 -12.043   4.242  1.00  0.00     0.074 A 
ATOM     47  C   UNL     1       4.461 -11.559   3.247  1.00  0.00     0.031 C 
ATOM     48  C   UNL     1       9.964  -7.647   4.770  1.00  0.00     0.029 A 
ATOM     49  C   UNL     1       9.828  -8.839   5.505  1.00  0.00     0.049 A 
ATOM     50  H   UNL     1       8.358 -10.350   5.386  1.00  0.00     0.167 HD
ATOM     51  C   UNL     1       5.316 -13.259   4.916  1.00  0.00     0.031 A 
ATOM     52  C   UNL     1      10.705  -9.251   6.496  1.00  0.00     0.031 A 
ATOM     53  C   UNL     1       6.217 -13.691   5.877  1.00  0.00     0.049 A 
ATOM     54  C   UNL     1      10.562 -10.441   7.213  1.00  0.00     0.074 A 
ATOM     55  C   UNL     1       6.123 -14.918   6.561  1.00  0.00     0.029 A 
ATOM     56  N   UNL     1       7.336 -13.035   6.340  1.00  0.00    -0.354 N 
ATOM     57  N   UNL     1       9.618 -11.371   7.059  1.00  0.00    -0.248 NA
ATOM     58  C   UNL     1      11.466 -10.872   8.287  1.00  0.00     0.031 C 
ATOM     59  C   UNL     1       7.165 -14.997   7.431  1.00  0.00     0.029 A 
ATOM     60  C   UNL     1       7.927 -13.819   7.305  1.00  0.00     0.049 A 
ATOM     61  H   UNL     1       7.658 -12.156   6.033  1.00  0.00     0.167 HD
ATOM     62  C   UNL     1       9.820 -12.377   7.912  1.00  0.00     0.074 A 
ATOM     63  C   UNL     1      11.008 -12.067   8.719  1.00  0.00     0.031 C 
ATOM     64  C   UNL     1       9.065 -13.543   8.046  1.00  0.00     0.031 A 
BRANCH  51  65
ATOM     65  C   UNL     1       4.140 -14.162   4.579  1.00  0.00    -0.014 A 
ATOM     66  C   UNL     1       3.979 -14.638   3.288  1.00  0.00     0.009 A 
ATOM     67  C   UNL     1       3.286 -14.483   5.543  1.00  0.00     0.009 A 
ATOM     68  C   UNL     1       2.712 -15.219   3.045  1.00  0.00     0.001 A 
ATOM     69  C   UNL     1       2.132 -15.171   5.255  1.00  0.00     0.001 A 
ATOM     70  C   UNL     1       1.879 -15.620   3.988  1.00  0.00     0.000 A 
ENDBRANCH  51  65
BRANCH  52  71
ATOM     71  C   UNL     1      11.890  -8.356   6.822  1.00  0.00    -0.014 A 
ATOM     72  C   UNL     1      13.181  -8.840   6.683  1.00  0.00     0.009 A 
ATOM     73  C   UNL     1      11.660  -7.119   7.243  1.00  0.00     0.009 A 
ATOM     74  C   UNL     1      14.165  -8.029   7.295  1.00  0.00     0.001 A 
ATOM     75  C   UNL     1      12.690  -6.333   7.701  1.00  0.00     0.001 A 
ATOM     76  C   UNL     1      13.984  -6.769   7.649  1.00  0.00     0.000 A 
ENDBRANCH  52  71
BRANCH  64  77
ATOM     77  C   UNL     1       9.518 -14.573   9.069  1.00  0.00    -0.014 A 
ATOM     78  C   UNL     1       9.762 -14.147  10.364  1.00  0.00     0.009 A 
ATOM     79  C   UNL     1       9.832 -15.803   8.678  1.00  0.00     0.009 A 
ATOM     80  C   UNL     1      10.614 -15.006  11.099  1.00  0.00     0.001 A 
ATOM     81  C   UNL     1      10.549 -16.637   9.501  1.00  0.00     0.001 A 
ATOM     82  C   UNL     1      10.877 -16.258  10.773  1.00  0.00     0.000 A 
ENDBRANCH  64  77
ENDBRANCH  38  39
ENDBRANCH  30  33
ENDBRANCH  28  29
ENDBRANCH   1  28
TORSDOF 12
