REMARK SMILES CCn1nc(C)c(NS(=O)(=O)c2cc(C(=O)NCCCNC(=O)c3ccc(-c4c5nc(c(-c6ccccc6)c6ccc([nH]6)c(-c6ccccc6)c6nc(c(-c7ccccc7)c7ccc4[nH]7)C=C6)C=C5)cc3)cc(F)c2C)c1C
REMARK SMILES IDX 18 1 17 2 15 3 16 4 14 6 12 7 13 8 75 9 73 10 76 11 72 12
REMARK SMILES IDX 74 13 9 14 10 15 11 16 8 17 7 19 3 20 4 21 77 22 5 23 78 24
REMARK SMILES IDX 6 25 2 26 1 27 19 28 20 29 21 30 22 31 23 33 24 34 25 35
REMARK SMILES IDX 71 36 26 37 70 38 27 39 28 40 29 41 64 42 30 43 69 44 63 45
REMARK SMILES IDX 65 46 31 47 68 48 62 49 61 50 32 52 54 53 39 54 53 55 40 56
REMARK SMILES IDX 43 57 52 58 66 59 41 60 42 61 51 63 67 64 44 65 33 66 34 67
REMARK SMILES IDX 38 68 35 69 37 70 36 71 55 72 56 73 60 74 57 75 59 76 58 77
REMARK SMILES IDX 45 78 46 79 50 80 47 81 49 82 48 83
REMARK H PARENT 17 5 8 18 21 32 65 51 43 62
REMARK Flexibility Score: inf
ROOT
ATOM      1  C   UNL     1       4.384  -2.563  10.271  1.00  0.00     0.118 C 
ENDROOT
BRANCH   1   2
ATOM      2  N   UNL     1       4.646  -1.133  10.115  1.00  0.00    -0.352 N 
ATOM      3  C   UNL     1       4.167  -0.188   9.238  1.00  0.00     0.251 C 
ATOM      4  O   UNL     1       4.522   0.980   9.388  1.00  0.00    -0.269 OA
ATOM      5  H   UNL     1       5.293  -0.777  10.766  1.00  0.00     0.163 HD
BRANCH   3   6
ATOM      6  C   UNL     1       3.199  -0.511   8.158  1.00  0.00     0.044 A 
ATOM      7  C   UNL     1       2.125  -2.094   6.635  1.00  0.00     0.094 A 
ATOM      8  C   UNL     1       3.151  -1.752   7.537  1.00  0.00     0.036 A 
ATOM      9  C   UNL     1       1.154  -1.147   6.288  1.00  0.00     0.005 A 
ATOM     10  C   UNL     1       1.314   0.149   6.807  1.00  0.00     0.128 A 
ATOM     11  C   UNL     1      -0.009  -1.383   5.373  1.00  0.00     0.049 C 
ATOM     12  C   UNL     1       2.306   0.470   7.734  1.00  0.00     0.053 A 
ATOM     13  F   UNL     1       0.475   1.121   6.419  1.00  0.00    -0.207 F 
BRANCH   7  14
ATOM     14  S   UNL     1       2.157  -3.789   6.100  1.00  0.00     0.262 S 
ATOM     15  O   UNL     1       0.993  -4.410   6.689  1.00  0.00    -0.201 OA
ATOM     16  O   UNL     1       3.482  -4.312   6.389  1.00  0.00    -0.201 OA
BRANCH  14  17
ATOM     17  N   UNL     1       1.954  -3.904   4.454  1.00  0.00    -0.276 N 
ATOM     18  H   UNL     1       1.671  -4.792   4.136  1.00  0.00     0.180 HD
BRANCH  17  19
ATOM     19  C   UNL     1       2.118  -2.951   3.452  1.00  0.00     0.093 A 
ATOM     20  N   UNL     1       1.646  -1.847   1.616  1.00  0.00    -0.268 N 
ATOM     21  N   UNL     1       2.576  -1.091   2.222  1.00  0.00    -0.176 NA
ATOM     22  C   UNL     1       1.435  -3.041   2.253  1.00  0.00     0.060 A 
ATOM     23  C   UNL     1       2.909  -1.777   3.324  1.00  0.00     0.084 A 
ATOM     24  C   UNL     1       0.599  -4.143   1.708  1.00  0.00     0.069 C 
ATOM     25  C   UNL     1       3.982  -1.219   4.181  1.00  0.00     0.071 C 
BRANCH  20  26
ATOM     26  C   UNL     1       0.941  -1.363   0.441  1.00  0.00     0.141 C 
ATOM     27  C   UNL     1       1.250   0.064   0.020  1.00  0.00     0.029 C 
ENDBRANCH  20  26
ENDBRANCH  17  19
ENDBRANCH  14  17
ENDBRANCH   7  14
ENDBRANCH   3   6
ENDBRANCH   1   2
BRANCH   1  28
ATOM     28  C   UNL     1       5.515  -3.416   9.676  1.00  0.00     0.042 C 
BRANCH  28  29
ATOM     29  C   UNL     1       6.671  -3.584  10.650  1.00  0.00     0.118 C 
BRANCH  29  30
ATOM     30  N   UNL     1       6.318  -4.445  11.783  1.00  0.00    -0.352 N 
ATOM     31  C   UNL     1       7.063  -4.762  12.899  1.00  0.00     0.251 C 
ATOM     32  H   UNL     1       5.423  -4.854  11.740  1.00  0.00     0.163 HD
ATOM     33  O   UNL     1       6.792  -5.750  13.572  1.00  0.00    -0.269 OA
BRANCH  31  34
ATOM     34  C   UNL     1       8.191  -3.897  13.278  1.00  0.00     0.039 A 
ATOM     35  C   UNL     1       9.374  -4.430  13.799  1.00  0.00     0.014 A 
ATOM     36  C   UNL     1       8.055  -2.525  13.089  1.00  0.00     0.014 A 
ATOM     37  C   UNL     1      10.440  -3.571  14.049  1.00  0.00     0.010 A 
ATOM     38  C   UNL     1       9.154  -1.713  13.159  1.00  0.00     0.010 A 
ATOM     39  C   UNL     1      10.327  -2.214  13.702  1.00  0.00    -0.014 A 
BRANCH  39  40
ATOM     40  C   UNL     1      11.480  -1.327  13.759  1.00  0.00     0.031 A 
ATOM     41  C   UNL     1      12.648  -1.831  12.993  1.00  0.00     0.074 A 
ATOM     42  C   UNL     1      11.433  -0.072  14.257  1.00  0.00     0.049 A 
ATOM     43  N   UNL     1      13.761  -2.269  13.475  1.00  0.00    -0.248 NA
ATOM     44  C   UNL     1      12.505  -2.032  11.539  1.00  0.00     0.031 C 
ATOM     45  C   UNL     1      10.271   0.677  14.748  1.00  0.00     0.029 A 
ATOM     46  N   UNL     1      12.421   0.859  14.315  1.00  0.00    -0.354 N 
ATOM     47  C   UNL     1      14.551  -2.586  12.376  1.00  0.00     0.074 A 
ATOM     48  C   UNL     1      13.664  -2.622  11.241  1.00  0.00     0.031 C 
ATOM     49  C   UNL     1      10.569   1.996  14.796  1.00  0.00     0.029 A 
ATOM     50  C   UNL     1      11.980   2.165  14.504  1.00  0.00     0.049 A 
ATOM     51  H   UNL     1      13.375   0.628  14.229  1.00  0.00     0.167 HD
ATOM     52  C   UNL     1      15.908  -2.497  12.447  1.00  0.00     0.031 A 
ATOM     53  C   UNL     1      12.722   3.297  14.384  1.00  0.00     0.031 A 
ATOM     54  C   UNL     1      16.362  -2.424  13.816  1.00  0.00     0.049 A 
ATOM     55  C   UNL     1      14.146   2.896  14.487  1.00  0.00     0.074 A 
ATOM     56  C   UNL     1      16.177  -3.211  14.938  1.00  0.00     0.029 A 
ATOM     57  N   UNL     1      16.750  -1.190  14.288  1.00  0.00    -0.354 N 
ATOM     58  N   UNL     1      14.680   2.439  15.583  1.00  0.00    -0.248 NA
ATOM     59  C   UNL     1      14.837   2.544  13.256  1.00  0.00     0.031 C 
ATOM     60  C   UNL     1      15.952  -2.283  15.999  1.00  0.00     0.029 A 
ATOM     61  C   UNL     1      16.119  -0.995  15.489  1.00  0.00     0.049 A 
ATOM     62  H   UNL     1      17.367  -0.564  13.844  1.00  0.00     0.167 HD
ATOM     63  C   UNL     1      15.472   1.380  15.165  1.00  0.00     0.074 A 
ATOM     64  C   UNL     1      15.598   1.546  13.715  1.00  0.00     0.031 C 
ATOM     65  C   UNL     1      15.697   0.300  15.972  1.00  0.00     0.031 A 
BRANCH  52  66
ATOM     66  C   UNL     1      16.758  -2.008  11.299  1.00  0.00    -0.014 A 
ATOM     67  C   UNL     1      18.152  -1.949  11.474  1.00  0.00     0.009 A 
ATOM     68  C   UNL     1      16.234  -1.332  10.180  1.00  0.00     0.009 A 
ATOM     69  C   UNL     1      18.960  -1.181  10.627  1.00  0.00     0.001 A 
ATOM     70  C   UNL     1      17.042  -0.601   9.307  1.00  0.00     0.001 A 
ATOM     71  C   UNL     1      18.403  -0.500   9.550  1.00  0.00     0.000 A 
ENDBRANCH  52  66
BRANCH  53  72
ATOM     72  C   UNL     1      12.324   4.644  13.903  1.00  0.00    -0.014 A 
ATOM     73  C   UNL     1      13.204   5.734  14.028  1.00  0.00     0.009 A 
ATOM     74  C   UNL     1      11.209   4.807  13.063  1.00  0.00     0.009 A 
ATOM     75  C   UNL     1      13.008   6.914  13.296  1.00  0.00     0.001 A 
ATOM     76  C   UNL     1      11.009   5.987  12.336  1.00  0.00     0.001 A 
ATOM     77  C   UNL     1      11.919   7.034  12.437  1.00  0.00     0.000 A 
ENDBRANCH  53  72
BRANCH  65  78
ATOM     78  C   UNL     1      15.254   0.368  17.415  1.00  0.00    -0.014 A 
ATOM     79  C   UNL     1      13.924   0.588  17.815  1.00  0.00     0.009 A 
ATOM     80  C   UNL     1      16.193   0.028  18.401  1.00  0.00     0.009 A 
ATOM     81  C   UNL     1      13.555   0.496  19.163  1.00  0.00     0.001 A 
ATOM     82  C   UNL     1      15.821  -0.086  19.742  1.00  0.00     0.001 A 
ATOM     83  C   UNL     1      14.504   0.154  20.124  1.00  0.00     0.000 A 
ENDBRANCH  65  78
ENDBRANCH  39  40
ENDBRANCH  31  34
ENDBRANCH  29  30
ENDBRANCH  28  29
ENDBRANCH   1  28
TORSDOF 14
