REMARK SMILES O=C(COc1ccc2c(=O)c(-c3ccc4c(c3)OCCO4)coc2c1)NCCCNC(=O)c1ccc(-c2c3nc(c(-c4ccccc4)c4ccc([nH]4)c(-c4ccccc4)c4nc(c(-c5ccccc5)c5ccc2[nH]5)C=C4)C=C3)cc1
REMARK SMILES IDX 27 1 26 2 1 3 2 4 3 6 4 7 5 8 6 9 25 10 7 11 24 12 8 13
REMARK SMILES IDX 23 14 9 15 22 16 10 17 11 18 12 19 13 20 17 21 14 22 16 23
REMARK SMILES IDX 15 24 18 25 21 26 19 27 20 28 28 29 29 30 30 31 31 32 32 34
REMARK SMILES IDX 33 35 34 36 80 37 35 38 79 39 36 40 37 41 38 42 73 43 39 44
REMARK SMILES IDX 78 45 72 46 74 47 40 48 77 49 71 50 70 51 41 53 63 54 48 55
REMARK SMILES IDX 62 56 49 57 52 58 61 59 75 60 50 61 51 62 60 64 76 65 53 66
REMARK SMILES IDX 42 67 43 68 47 69 44 70 46 71 45 72 64 73 65 74 69 75 66 76
REMARK SMILES IDX 68 77 67 78 54 79 55 80 59 81 56 82 58 83 57 84
REMARK H PARENT 26 5 30 33 74 52 52 63
REMARK Flexibility Score: inf
ROOT
ATOM      1  C   UNL     1       2.121  -2.080  -1.145  1.00  0.00     0.117 C 
ENDROOT
BRANCH   1   2
ATOM      2  N   UNL     1       2.799  -0.953  -0.539  1.00  0.00    -0.353 N 
ATOM      3  O   UNL     1       1.045   0.525  -0.698  1.00  0.00    -0.271 OA
ATOM      4  C   UNL     1       2.149   0.232  -0.253  1.00  0.00     0.257 C 
ATOM      5  H   UNL     1       3.756  -1.035  -0.323  1.00  0.00     0.163 HD
BRANCH   4   6
ATOM      6  C   UNL     1       2.928   1.146   0.699  1.00  0.00     0.329 C 
BRANCH   6   7
ATOM      7  O   UNL     1       3.759   0.469   1.647  1.00  0.00    -0.484 OA
BRANCH   7   8
ATOM      8  C   UNL     1       3.075   0.020   2.747  1.00  0.00     0.123 A 
ATOM      9  C   UNL     1       2.093  -0.971   2.656  1.00  0.00     0.047 A 
ATOM     10  C   UNL     1       3.465   0.501   3.998  1.00  0.00     0.094 A 
ATOM     11  C   UNL     1       1.473  -1.455   3.803  1.00  0.00     0.020 A 
ATOM     12  C   UNL     1       2.841   0.015   5.151  1.00  0.00     0.141 A 
ATOM     13  C   UNL     1       1.849  -0.957   5.048  1.00  0.00     0.066 A 
ATOM     14  O   UNL     1       3.248   0.522   6.359  1.00  0.00    -0.463 OA
ATOM     15  C   UNL     1       1.207  -1.472   6.264  1.00  0.00     0.200 A 
ATOM     16  C   UNL     1       2.644   0.029   7.495  1.00  0.00     0.208 A 
ATOM     17  O   UNL     1       0.331  -2.326   6.194  1.00  0.00    -0.288 OA
ATOM     18  C   UNL     1       1.677  -0.901   7.552  1.00  0.00     0.065 A 
BRANCH  18  19
ATOM     19  C   UNL     1       1.125  -1.359   8.836  1.00  0.00    -0.007 A 
ATOM     20  C   UNL     1       0.532  -0.454   9.728  1.00  0.00     0.013 A 
ATOM     21  C   UNL     1       1.152  -2.723   9.165  1.00  0.00     0.059 A 
ATOM     22  C   UNL     1      -0.012  -0.902  10.935  1.00  0.00     0.051 A 
ATOM     23  C   UNL     1       0.601  -3.169  10.365  1.00  0.00     0.161 A 
ATOM     24  C   UNL     1       0.039  -2.256  11.260  1.00  0.00     0.161 A 
ATOM     25  O   UNL     1       0.655  -4.519  10.601  1.00  0.00    -0.486 OA
ATOM     26  O   UNL     1      -0.492  -2.620  12.470  1.00  0.00    -0.486 OA
ATOM     27  C   UNL     1      -0.227  -4.897  11.664  1.00  0.00     0.271 C 
ATOM     28  C   UNL     1      -0.085  -3.943  12.839  1.00  0.00     0.271 C 
ENDBRANCH  18  19
ENDBRANCH   7   8
ENDBRANCH   6   7
ENDBRANCH   4   6
ENDBRANCH   1   2
BRANCH   1  29
ATOM     29  C   UNL     1       2.455  -2.262  -2.615  1.00  0.00     0.042 C 
BRANCH  29  30
ATOM     30  C   UNL     1       3.935  -2.501  -2.889  1.00  0.00     0.118 C 
BRANCH  30  31
ATOM     31  N   UNL     1       4.440  -3.741  -2.313  1.00  0.00    -0.352 N 
ATOM     32  C   UNL     1       5.092  -4.792  -2.910  1.00  0.00     0.251 C 
ATOM     33  H   UNL     1       4.291  -3.840  -1.345  1.00  0.00     0.163 HD
ATOM     34  O   UNL     1       5.329  -5.810  -2.264  1.00  0.00    -0.269 OA
BRANCH  32  35
ATOM     35  C   UNL     1       5.481  -4.722  -4.335  1.00  0.00     0.039 A 
ATOM     36  C   UNL     1       5.258  -5.836  -5.150  1.00  0.00     0.014 A 
ATOM     37  C   UNL     1       6.061  -3.570  -4.872  1.00  0.00     0.014 A 
ATOM     38  C   UNL     1       5.537  -5.764  -6.517  1.00  0.00     0.010 A 
ATOM     39  C   UNL     1       6.261  -3.471  -6.247  1.00  0.00     0.010 A 
ATOM     40  C   UNL     1       5.997  -4.565  -7.085  1.00  0.00    -0.014 A 
BRANCH  40  41
ATOM     41  C   UNL     1       6.192  -4.427  -8.551  1.00  0.00     0.031 A 
ATOM     42  C   UNL     1       7.558  -4.139  -9.112  1.00  0.00     0.074 A 
ATOM     43  C   UNL     1       5.127  -4.487  -9.375  1.00  0.00     0.049 A 
ATOM     44  N   UNL     1       7.909  -3.905 -10.352  1.00  0.00    -0.248 NA
ATOM     45  C   UNL     1       8.671  -4.083  -8.152  1.00  0.00     0.031 C 
ATOM     46  C   UNL     1       3.743  -4.727  -8.958  1.00  0.00     0.029 A 
ATOM     47  N   UNL     1       5.041  -4.338 -10.737  1.00  0.00    -0.354 N 
ATOM     48  C   UNL     1       9.275  -3.658 -10.317  1.00  0.00     0.074 A 
ATOM     49  C   UNL     1       9.681  -3.721  -8.930  1.00  0.00     0.031 C 
ATOM     50  C   UNL     1       2.952  -4.735 -10.043  1.00  0.00     0.029 A 
ATOM     51  C   UNL     1       3.760  -4.451 -11.224  1.00  0.00     0.049 A 
ATOM     52  H   UNL     1       5.822  -4.167 -11.311  1.00  0.00     0.167 HD
ATOM     53  C   UNL     1      10.121  -3.417 -11.347  1.00  0.00     0.031 A 
ATOM     54  C   UNL     1       3.285  -4.325 -12.478  1.00  0.00     0.031 A 
ATOM     55  C   UNL     1       9.719  -3.357 -12.727  1.00  0.00     0.049 A 
ATOM     56  C   UNL     1       4.239  -4.021 -13.600  1.00  0.00     0.074 A 
ATOM     57  C   UNL     1      10.512  -3.171 -13.847  1.00  0.00     0.029 A 
ATOM     58  N   UNL     1       8.413  -3.475 -13.177  1.00  0.00    -0.354 N 
ATOM     59  N   UNL     1       5.539  -3.857 -13.558  1.00  0.00    -0.248 NA
ATOM     60  C   UNL     1       3.660  -3.893 -14.945  1.00  0.00     0.031 C 
ATOM     61  C   UNL     1       9.678  -3.115 -14.968  1.00  0.00     0.029 A 
ATOM     62  C   UNL     1       8.374  -3.335 -14.554  1.00  0.00     0.049 A 
ATOM     63  H   UNL     1       7.630  -3.635 -12.602  1.00  0.00     0.167 HD
ATOM     64  C   UNL     1       5.936  -3.638 -14.871  1.00  0.00     0.074 A 
ATOM     65  C   UNL     1       4.742  -3.705 -15.687  1.00  0.00     0.031 C 
ATOM     66  C   UNL     1       7.180  -3.406 -15.356  1.00  0.00     0.031 A 
BRANCH  53  67
ATOM     67  C   UNL     1      11.570  -3.186 -11.016  1.00  0.00    -0.014 A 
ATOM     68  C   UNL     1      12.384  -4.225 -10.537  1.00  0.00     0.009 A 
ATOM     69  C   UNL     1      12.140  -1.920 -11.224  1.00  0.00     0.009 A 
ATOM     70  C   UNL     1      13.728  -3.991 -10.237  1.00  0.00     0.001 A 
ATOM     71  C   UNL     1      13.492  -1.697 -10.954  1.00  0.00     0.001 A 
ATOM     72  C   UNL     1      14.281  -2.729 -10.451  1.00  0.00     0.000 A 
ENDBRANCH  53  67
BRANCH  54  73
ATOM     73  C   UNL     1       1.831  -4.490 -12.745  1.00  0.00    -0.014 A 
ATOM     74  C   UNL     1       1.360  -5.597 -13.468  1.00  0.00     0.009 A 
ATOM     75  C   UNL     1       0.907  -3.536 -12.290  1.00  0.00     0.009 A 
ATOM     76  C   UNL     1      -0.001  -5.730 -13.754  1.00  0.00     0.001 A 
ATOM     77  C   UNL     1      -0.456  -3.689 -12.549  1.00  0.00     0.001 A 
ATOM     78  C   UNL     1      -0.908  -4.779 -13.290  1.00  0.00     0.000 A 
ENDBRANCH  54  73
BRANCH  66  79
ATOM     79  C   UNL     1       7.324  -3.248 -16.845  1.00  0.00    -0.014 A 
ATOM     80  C   UNL     1       6.859  -2.102 -17.509  1.00  0.00     0.009 A 
ATOM     81  C   UNL     1       7.984  -4.242 -17.585  1.00  0.00     0.009 A 
ATOM     82  C   UNL     1       7.026  -1.971 -18.889  1.00  0.00     0.001 A 
ATOM     83  C   UNL     1       8.178  -4.093 -18.959  1.00  0.00     0.001 A 
ATOM     84  C   UNL     1       7.691  -2.962 -19.611  1.00  0.00     0.000 A 
ENDBRANCH  66  79
ENDBRANCH  40  41
ENDBRANCH  32  35
ENDBRANCH  30  31
ENDBRANCH  29  30
ENDBRANCH   1  29
TORSDOF 13
