REMARK SMILES Cc1c(I)c(C(=O)NCCCNC(=O)c2ccc(-c3c4nc(c(-c5ccccc5)c5ccc([nH]5)c(-c5ccccc5)c5nc(c(-c6ccccc6)c6ccc3[nH]6)C=C5)C=C4)cc2)nn1C(F)F
REMARK SMILES IDX 10 1 9 2 8 3 6 4 7 5 5 7 1 8 2 9 3 10 64 11 4 12 63 13 65 14
REMARK SMILES IDX 66 15 67 16 11 17 12 18 13 19 14 21 15 22 16 23 62 24 17 25
REMARK SMILES IDX 61 26 18 27 19 28 20 29 55 30 21 31 60 32 54 33 56 34 22 35
REMARK SMILES IDX 59 36 53 37 52 38 23 40 45 41 30 42 44 43 31 44 34 45 43 46
REMARK SMILES IDX 57 47 32 48 33 49 42 51 58 52 35 53 24 54 25 55 29 56 26 57
REMARK SMILES IDX 28 58 27 59 46 60 47 61 51 62 48 63 50 64 49 65 36 66 37 67
REMARK SMILES IDX 41 68 38 69 40 70 39 71
REMARK H PARENT 8 6 12 20 56 39 34 50
REMARK Flexibility Score: inf
ROOT
ATOM      1  C   UNL     1       0.228   7.080  -0.643  1.00  0.00     0.042 C 
ENDROOT
BRANCH   1   2
ATOM      2  C   UNL     1       0.174   6.486   0.768  1.00  0.00     0.118 C 
BRANCH   2   3
ATOM      3  N   UNL     1      -1.123   5.899   1.069  1.00  0.00    -0.351 N 
ATOM      4  C   UNL     1      -1.560   4.590   1.025  1.00  0.00     0.272 C 
ATOM      5  O   UNL     1      -2.726   4.400   1.378  1.00  0.00    -0.267 OA
ATOM      6  H   UNL     1      -1.808   6.547   1.353  1.00  0.00     0.163 HD
BRANCH   4   7
ATOM      7  C   UNL     1      -0.667   3.491   0.597  1.00  0.00     0.163 A 
ATOM      8  C   UNL     1       0.663   0.035   0.142  1.00  0.00     0.068 C 
ATOM      9  C   UNL     1       0.280   1.469   0.243  1.00  0.00     0.056 A 
ATOM     10  C   UNL     1      -0.859   2.087   0.727  1.00  0.00     0.067 A 
ATOM     11  N   UNL     1       1.086   2.506  -0.176  1.00  0.00    -0.207 N 
ATOM     12  I   UNL     1      -2.460   1.098   1.509  1.00  0.00    -0.040 I 
ATOM     13  N   UNL     1       0.505   3.717  -0.025  1.00  0.00    -0.161 NA
BRANCH  11  14
ATOM     14  C   UNL     1       2.450   2.438  -0.705  1.00  0.00     0.465 C 
ATOM     15  F   UNL     1       2.579   3.137  -1.865  1.00  0.00    -0.184 F 
ATOM     16  F   UNL     1       3.346   2.962   0.176  1.00  0.00    -0.184 F 
ENDBRANCH  11  14
ENDBRANCH   4   7
ENDBRANCH   2   3
ENDBRANCH   1   2
BRANCH   1  17
ATOM     17  C   UNL     1      -0.495   8.421  -0.720  1.00  0.00     0.118 C 
BRANCH  17  18
ATOM     18  N   UNL     1       0.225   9.483  -0.021  1.00  0.00    -0.352 N 
ATOM     19  C   UNL     1      -0.073  10.827   0.072  1.00  0.00     0.251 C 
ATOM     20  H   UNL     1       1.040   9.199   0.452  1.00  0.00     0.163 HD
ATOM     21  O   UNL     1       0.779  11.622   0.435  1.00  0.00    -0.269 OA
BRANCH  19  22
ATOM     22  C   UNL     1      -1.422  11.306  -0.292  1.00  0.00     0.039 A 
ATOM     23  C   UNL     1      -1.561  12.508  -0.989  1.00  0.00     0.014 A 
ATOM     24  C   UNL     1      -2.549  10.564   0.064  1.00  0.00     0.014 A 
ATOM     25  C   UNL     1      -2.827  12.907  -1.408  1.00  0.00     0.010 A 
ATOM     26  C   UNL     1      -3.791  10.907  -0.432  1.00  0.00     0.010 A 
ATOM     27  C   UNL     1      -3.939  12.084  -1.160  1.00  0.00    -0.014 A 
BRANCH  27  28
ATOM     28  C   UNL     1      -5.203  12.361  -1.846  1.00  0.00     0.031 A 
ATOM     29  C   UNL     1      -5.057  12.505  -3.321  1.00  0.00     0.074 A 
ATOM     30  C   UNL     1      -6.429  12.295  -1.284  1.00  0.00     0.049 A 
ATOM     31  N   UNL     1      -5.208  13.580  -4.019  1.00  0.00    -0.248 NA
ATOM     32  C   UNL     1      -4.545  11.358  -4.091  1.00  0.00     0.031 C 
ATOM     33  C   UNL     1      -6.766  11.868   0.077  1.00  0.00     0.029 A 
ATOM     34  N   UNL     1      -7.657  12.487  -1.854  1.00  0.00    -0.354 N 
ATOM     35  C   UNL     1      -5.031  13.199  -5.344  1.00  0.00     0.074 A 
ATOM     36  C   UNL     1      -4.444  11.884  -5.313  1.00  0.00     0.031 C 
ATOM     37  C   UNL     1      -8.090  11.603   0.152  1.00  0.00     0.029 A 
ATOM     38  C   UNL     1      -8.717  11.996  -1.097  1.00  0.00     0.049 A 
ATOM     39  H   UNL     1      -7.780  12.932  -2.723  1.00  0.00     0.167 HD
ATOM     40  C   UNL     1      -5.664  13.867  -6.348  1.00  0.00     0.031 A 
ATOM     41  C   UNL     1     -10.016  11.897  -1.470  1.00  0.00     0.031 A 
ATOM     42  C   UNL     1      -6.170  15.141  -5.896  1.00  0.00     0.049 A 
ATOM     43  C   UNL     1     -10.230  12.832  -2.591  1.00  0.00     0.074 A 
ATOM     44  C   UNL     1      -5.631  16.286  -5.349  1.00  0.00     0.029 A 
ATOM     45  N   UNL     1      -7.516  15.180  -5.634  1.00  0.00    -0.354 N 
ATOM     46  N   UNL     1     -10.221  14.126  -2.460  1.00  0.00    -0.248 NA
ATOM     47  C   UNL     1     -10.117  12.341  -3.954  1.00  0.00     0.031 C 
ATOM     48  C   UNL     1      -6.617  16.763  -4.433  1.00  0.00     0.029 A 
ATOM     49  C   UNL     1      -7.735  15.931  -4.515  1.00  0.00     0.049 A 
ATOM     50  H   UNL     1      -8.214  14.736  -6.168  1.00  0.00     0.167 HD
ATOM     51  C   UNL     1      -9.628  14.582  -3.624  1.00  0.00     0.074 A 
ATOM     52  C   UNL     1      -9.747  13.470  -4.563  1.00  0.00     0.031 C 
ATOM     53  C   UNL     1      -8.837  15.695  -3.607  1.00  0.00     0.031 A 
BRANCH  40  54
ATOM     54  C   UNL     1      -6.286  13.163  -7.540  1.00  0.00    -0.014 A 
ATOM     55  C   UNL     1      -6.974  13.942  -8.490  1.00  0.00     0.009 A 
ATOM     56  C   UNL     1      -6.513  11.774  -7.586  1.00  0.00     0.009 A 
ATOM     57  C   UNL     1      -7.914  13.374  -9.359  1.00  0.00     0.001 A 
ATOM     58  C   UNL     1      -7.418  11.198  -8.482  1.00  0.00     0.001 A 
ATOM     59  C   UNL     1      -8.144  12.003  -9.345  1.00  0.00     0.000 A 
ENDBRANCH  40  54
BRANCH  41  60
ATOM     60  C   UNL     1     -11.068  10.944  -1.056  1.00  0.00    -0.014 A 
ATOM     61  C   UNL     1     -12.422  11.217  -1.321  1.00  0.00     0.009 A 
ATOM     62  C   UNL     1     -10.728   9.636  -0.671  1.00  0.00     0.009 A 
ATOM     63  C   UNL     1     -13.388  10.204  -1.262  1.00  0.00     0.001 A 
ATOM     64  C   UNL     1     -11.695   8.626  -0.606  1.00  0.00     0.001 A 
ATOM     65  C   UNL     1     -13.021   8.905  -0.922  1.00  0.00     0.000 A 
ENDBRANCH  41  60
BRANCH  53  66
ATOM     66  C   UNL     1      -8.971  16.636  -2.436  1.00  0.00    -0.014 A 
ATOM     67  C   UNL     1      -8.762  16.263  -1.097  1.00  0.00     0.009 A 
ATOM     68  C   UNL     1      -9.230  17.986  -2.717  1.00  0.00     0.009 A 
ATOM     69  C   UNL     1      -8.857  17.208  -0.070  1.00  0.00     0.001 A 
ATOM     70  C   UNL     1      -9.297  18.934  -1.695  1.00  0.00     0.001 A 
ATOM     71  C   UNL     1      -9.121  18.542  -0.370  1.00  0.00     0.000 A 
ENDBRANCH  53  66
ENDBRANCH  27  28
ENDBRANCH  19  22
ENDBRANCH  17  18
ENDBRANCH   1  17
TORSDOF 11
