REMARK SMILES CC[C@@H]1CC[C@](C[C@@H]2CCCc3ccccc32)(C(=O)NCCCNC(=O)c2ccc(-c3c4nc(c(-c5ccccc5)c5ccc([nH]5)c(-c5ccccc5)c5nc(c(-c6ccccc6)c6ccc3[nH]6)C=C5)C=C4)cc2)C1
REMARK SMILES IDX 22 1 21 2 20 3 18 4 19 5 6 7 3 8 4 9 75 10 5 11 2 12 1 13
REMARK SMILES IDX 7 14 8 15 9 16 17 17 10 18 12 19 16 20 11 21 13 22 15 23
REMARK SMILES IDX 14 24 23 25 24 26 25 27 26 29 27 30 28 31 74 32 29 33 73 34
REMARK SMILES IDX 30 35 31 36 32 37 67 38 33 39 72 40 66 41 68 42 34 43 71 44
REMARK SMILES IDX 65 45 64 46 35 48 57 49 42 50 56 51 43 52 46 53 55 54 69 55
REMARK SMILES IDX 44 56 45 57 54 59 70 60 47 61 36 62 37 63 41 64 38 65 40 66
REMARK SMILES IDX 39 67 58 68 59 69 63 70 60 71 62 72 61 73 48 74 49 75 53 76
REMARK SMILES IDX 50 77 52 78 51 79
REMARK H PARENT 20 6 24 28 68 47 46 58
REMARK Flexibility Score: inf
ROOT
ATOM      1  C   UNL     1       4.510  -2.943   6.698  1.00  0.00     0.042 C 
ENDROOT
BRANCH   1   2
ATOM      2  C   UNL     1       4.407  -2.482   5.260  1.00  0.00     0.117 C 
BRANCH   2   3
ATOM      3  N   UNL     1       4.396  -3.578   4.301  1.00  0.00    -0.356 N 
ATOM      4  C   UNL     1       3.579  -3.752   3.209  1.00  0.00     0.226 C 
ATOM      5  O   UNL     1       3.776  -4.742   2.505  1.00  0.00    -0.274 OA
ATOM      6  H   UNL     1       5.060  -4.287   4.456  1.00  0.00     0.163 HD
BRANCH   4   7
ATOM      7  C   UNL     1       2.417  -2.749   2.965  1.00  0.00     0.050 C 
ATOM      8  C   UNL     1       1.701  -1.559   0.947  1.00  0.00    -0.010 C 
ATOM      9  C   UNL     1       3.014  -0.945   1.358  1.00  0.00     0.005 C 
ATOM     10  C   UNL     1       1.785  -2.961   1.556  1.00  0.00     0.020 C 
ATOM     11  C   UNL     1       3.089  -1.345   2.827  1.00  0.00     0.017 C 
BRANCH   8  12
ATOM     12  C   UNL     1       1.366  -1.514  -0.535  1.00  0.00     0.000 C 
ATOM     13  C   UNL     1       1.228  -0.078  -1.029  1.00  0.00     0.004 C 
ENDBRANCH   8  12
BRANCH   7  14
ATOM     14  C   UNL     1       1.372  -3.107   4.104  1.00  0.00     0.025 C 
BRANCH  14  15
ATOM     15  C   UNL     1       0.248  -2.219   4.719  1.00  0.00     0.020 C 
ATOM     16  C   UNL     1      -1.127  -2.274   4.045  1.00  0.00     0.009 C 
ATOM     17  C   UNL     1       0.646  -0.809   5.056  1.00  0.00    -0.042 A 
ATOM     18  C   UNL     1      -1.272  -1.333   2.868  1.00  0.00     0.005 C 
ATOM     19  C   UNL     1       0.258   0.257   4.231  1.00  0.00    -0.045 A 
ATOM     20  C   UNL     1       1.441  -0.559   6.188  1.00  0.00     0.004 A 
ATOM     21  C   UNL     1      -0.788   0.094   3.154  1.00  0.00     0.036 C 
ATOM     22  C   UNL     1       0.808   1.526   4.467  1.00  0.00     0.004 A 
ATOM     23  C   UNL     1       1.948   0.714   6.433  1.00  0.00     0.000 A 
ATOM     24  C   UNL     1       1.663   1.748   5.549  1.00  0.00     0.000 A 
ENDBRANCH  14  15
ENDBRANCH   7  14
ENDBRANCH   4   7
ENDBRANCH   2   3
ENDBRANCH   1   2
BRANCH   1  25
ATOM     25  C   UNL     1       5.890  -3.471   7.034  1.00  0.00     0.118 C 
BRANCH  25  26
ATOM     26  N   UNL     1       6.921  -2.445   6.910  1.00  0.00    -0.352 N 
ATOM     27  C   UNL     1       7.744  -1.909   7.866  1.00  0.00     0.251 C 
ATOM     28  H   UNL     1       7.044  -2.084   6.002  1.00  0.00     0.163 HD
ATOM     29  O   UNL     1       8.398  -0.897   7.624  1.00  0.00    -0.269 OA
BRANCH  27  30
ATOM     30  C   UNL     1       7.824  -2.545   9.193  1.00  0.00     0.039 A 
ATOM     31  C   UNL     1       7.851  -1.744  10.335  1.00  0.00     0.014 A 
ATOM     32  C   UNL     1       7.851  -3.937   9.304  1.00  0.00     0.014 A 
ATOM     33  C   UNL     1       7.832  -2.346  11.593  1.00  0.00     0.010 A 
ATOM     34  C   UNL     1       7.714  -4.530  10.549  1.00  0.00     0.010 A 
ATOM     35  C   UNL     1       7.720  -3.742  11.707  1.00  0.00    -0.014 A 
BRANCH  35  36
ATOM     36  C   UNL     1       7.627  -4.405  13.028  1.00  0.00     0.031 A 
ATOM     37  C   UNL     1       8.683  -5.389  13.448  1.00  0.00     0.074 A 
ATOM     38  C   UNL     1       6.558  -4.176  13.813  1.00  0.00     0.049 A 
ATOM     39  N   UNL     1       8.750  -6.114  14.536  1.00  0.00    -0.248 NA
ATOM     40  C   UNL     1       9.795  -5.616  12.508  1.00  0.00     0.031 C 
ATOM     41  C   UNL     1       5.441  -3.283  13.490  1.00  0.00     0.029 A 
ATOM     42  N   UNL     1       6.233  -4.680  15.047  1.00  0.00    -0.354 N 
ATOM     43  C   UNL     1       9.892  -6.892  14.399  1.00  0.00     0.074 A 
ATOM     44  C   UNL     1      10.453  -6.600  13.100  1.00  0.00     0.031 C 
ATOM     45  C   UNL     1       4.575  -3.274  14.516  1.00  0.00     0.029 A 
ATOM     46  C   UNL     1       5.050  -4.192  15.546  1.00  0.00     0.049 A 
ATOM     47  H   UNL     1       6.795  -5.329  15.528  1.00  0.00     0.167 HD
ATOM     48  C   UNL     1      10.440  -7.755  15.286  1.00  0.00     0.031 A 
ATOM     49  C   UNL     1       4.417  -4.459  16.703  1.00  0.00     0.031 A 
ATOM     50  C   UNL     1       9.885  -8.033  16.582  1.00  0.00     0.049 A 
ATOM     51  C   UNL     1       5.041  -5.427  17.668  1.00  0.00     0.074 A 
ATOM     52  C   UNL     1      10.395  -8.839  17.583  1.00  0.00     0.029 A 
ATOM     53  N   UNL     1       8.690  -7.513  17.054  1.00  0.00    -0.354 N 
ATOM     54  N   UNL     1       6.165  -6.095  17.560  1.00  0.00    -0.248 NA
ATOM     55  C   UNL     1       4.314  -5.669  18.922  1.00  0.00     0.031 C 
ATOM     56  C   UNL     1       9.477  -8.855  18.638  1.00  0.00     0.029 A 
ATOM     57  C   UNL     1       8.429  -8.006  18.321  1.00  0.00     0.049 A 
ATOM     58  H   UNL     1       8.112  -6.886  16.562  1.00  0.00     0.167 HD
ATOM     59  C   UNL     1       6.293  -6.816  18.740  1.00  0.00     0.074 A 
ATOM     60  C   UNL     1       5.142  -6.486  19.557  1.00  0.00     0.031 C 
ATOM     61  C   UNL     1       7.274  -7.673  19.114  1.00  0.00     0.031 A 
BRANCH  48  62
ATOM     62  C   UNL     1      11.700  -8.464  14.871  1.00  0.00    -0.014 A 
ATOM     63  C   UNL     1      12.910  -7.770  14.704  1.00  0.00     0.009 A 
ATOM     64  C   UNL     1      11.683  -9.852  14.662  1.00  0.00     0.009 A 
ATOM     65  C   UNL     1      14.063  -8.442  14.293  1.00  0.00     0.001 A 
ATOM     66  C   UNL     1      12.845 -10.527  14.284  1.00  0.00     0.001 A 
ATOM     67  C   UNL     1      14.031  -9.821  14.089  1.00  0.00     0.000 A 
ENDBRANCH  48  62
BRANCH  49  68
ATOM     68  C   UNL     1       3.130  -3.787  17.018  1.00  0.00    -0.014 A 
ATOM     69  C   UNL     1       3.061  -2.821  18.035  1.00  0.00     0.009 A 
ATOM     70  C   UNL     1       1.964  -4.102  16.303  1.00  0.00     0.009 A 
ATOM     71  C   UNL     1       1.846  -2.207  18.346  1.00  0.00     0.001 A 
ATOM     72  C   UNL     1       0.757  -3.463  16.596  1.00  0.00     0.001 A 
ATOM     73  C   UNL     1       0.697  -2.524  17.623  1.00  0.00     0.000 A 
ENDBRANCH  49  68
BRANCH  61  74
ATOM     74  C   UNL     1       7.158  -8.292  20.479  1.00  0.00    -0.014 A 
ATOM     75  C   UNL     1       6.187  -9.265  20.760  1.00  0.00     0.009 A 
ATOM     76  C   UNL     1       8.062  -7.922  21.487  1.00  0.00     0.009 A 
ATOM     77  C   UNL     1       6.101  -9.828  22.035  1.00  0.00     0.001 A 
ATOM     78  C   UNL     1       7.995  -8.510  22.750  1.00  0.00     0.001 A 
ATOM     79  C   UNL     1       7.008  -9.454  23.026  1.00  0.00     0.000 A 
ENDBRANCH  61  74
ENDBRANCH  35  36
ENDBRANCH  27  30
ENDBRANCH  25  26
ENDBRANCH   1  25
TORSDOF 13
