REMARK SMILES O=C(NCCCNC(=O)c1ccn(Cc2c(Cl)cccc2Cl)c1)c1ccc(-c2c3nc(c(-c4ccccc4)c4ccc([nH]4)c(-c4ccccc4)c4nc(c(-c5ccccc5)c5ccc2[nH]5)C=C4)C=C3)cc1
REMARK SMILES IDX 5 1 4 2 3 3 1 4 2 5 24 7 25 8 71 9 26 10 70 11 27 12 28 13
REMARK SMILES IDX 29 14 64 15 30 16 69 17 63 18 65 19 31 20 68 21 62 22 61 23
REMARK SMILES IDX 32 25 54 26 39 27 53 28 40 29 43 30 52 31 66 32 41 33 42 34
REMARK SMILES IDX 51 36 67 37 44 38 33 39 34 40 38 41 35 42 37 43 36 44 55 45
REMARK SMILES IDX 56 46 60 47 57 48 59 49 58 50 45 51 46 52 50 53 47 54 49 55
REMARK SMILES IDX 48 56 6 57 7 58 8 59 9 61 10 62 11 63 23 64 12 65 13 66
REMARK SMILES IDX 14 67 15 68 16 69 21 70 17 71 18 72 20 73 22 74 19 75
REMARK H PARENT 3 6 65 24 43 35 7 60
REMARK Flexibility Score: inf
ROOT
ATOM      1  C   UNL     1       4.879  -1.074   1.905  1.00  0.00     0.042 C 
ENDROOT
BRANCH   1   2
ATOM      2  C   UNL     1       4.581  -1.057   0.406  1.00  0.00     0.118 C 
BRANCH   2   3
ATOM      3  N   UNL     1       3.184  -0.891   0.038  1.00  0.00    -0.352 N 
ATOM      4  O   UNL     1       1.201   0.040  -0.393  1.00  0.00    -0.269 OA
ATOM      5  C   UNL     1       2.305   0.155   0.138  1.00  0.00     0.251 C 
ATOM      6  H   UNL     1       2.789  -1.697  -0.366  1.00  0.00     0.163 HD
BRANCH   5   7
ATOM      7  C   UNL     1       2.593   1.378   0.924  1.00  0.00     0.039 A 
ATOM      8  C   UNL     1       3.856   1.963   1.015  1.00  0.00     0.014 A 
ATOM      9  C   UNL     1       1.505   1.982   1.580  1.00  0.00     0.014 A 
ATOM     10  C   UNL     1       4.052   3.081   1.818  1.00  0.00     0.010 A 
ATOM     11  C   UNL     1       1.687   3.122   2.362  1.00  0.00     0.010 A 
ATOM     12  C   UNL     1       2.966   3.672   2.477  1.00  0.00    -0.014 A 
BRANCH  12  13
ATOM     13  C   UNL     1       3.181   5.027   3.035  1.00  0.00     0.031 A 
ATOM     14  C   UNL     1       3.146   6.091   1.919  1.00  0.00     0.074 A 
ATOM     15  C   UNL     1       3.474   5.125   4.368  1.00  0.00     0.049 A 
ATOM     16  N   UNL     1       3.739   7.242   1.857  1.00  0.00    -0.248 NA
ATOM     17  C   UNL     1       2.397   5.811   0.660  1.00  0.00     0.031 C 
ATOM     18  C   UNL     1       3.410   4.003   5.331  1.00  0.00     0.029 A 
ATOM     19  N   UNL     1       3.891   6.159   5.187  1.00  0.00    -0.354 N 
ATOM     20  C   UNL     1       3.326   7.878   0.663  1.00  0.00     0.074 A 
ATOM     21  C   UNL     1       2.566   6.916  -0.070  1.00  0.00     0.031 C 
ATOM     22  C   UNL     1       3.845   4.386   6.554  1.00  0.00     0.029 A 
ATOM     23  C   UNL     1       4.228   5.785   6.517  1.00  0.00     0.049 A 
ATOM     24  H   UNL     1       3.950   7.090   4.872  1.00  0.00     0.167 HD
ATOM     25  C   UNL     1       3.541   9.203   0.413  1.00  0.00     0.031 A 
ATOM     26  C   UNL     1       4.818   6.529   7.505  1.00  0.00     0.031 A 
ATOM     27  C   UNL     1       4.352   9.768   1.433  1.00  0.00     0.049 A 
ATOM     28  C   UNL     1       4.905   7.898   6.983  1.00  0.00     0.074 A 
ATOM     29  C   UNL     1       5.675   9.623   1.757  1.00  0.00     0.029 A 
ATOM     30  N   UNL     1       3.682  10.323   2.494  1.00  0.00    -0.354 N 
ATOM     31  N   UNL     1       3.907   8.719   6.883  1.00  0.00    -0.248 NA
ATOM     32  C   UNL     1       6.202   8.391   6.499  1.00  0.00     0.031 C 
ATOM     33  C   UNL     1       5.658   9.622   3.167  1.00  0.00     0.029 A 
ATOM     34  C   UNL     1       4.383   9.982   3.619  1.00  0.00     0.049 A 
ATOM     35  H   UNL     1       2.858  10.862   2.453  1.00  0.00     0.167 HD
ATOM     36  C   UNL     1       4.379   9.627   5.971  1.00  0.00     0.074 A 
ATOM     37  C   UNL     1       5.823   9.588   6.059  1.00  0.00     0.031 C 
ATOM     38  C   UNL     1       3.651   9.883   4.855  1.00  0.00     0.031 A 
BRANCH  25  39
ATOM     39  C   UNL     1       2.878  10.160  -0.539  1.00  0.00    -0.014 A 
ATOM     40  C   UNL     1       3.441  11.457  -0.649  1.00  0.00     0.009 A 
ATOM     41  C   UNL     1       1.580   9.985  -1.027  1.00  0.00     0.009 A 
ATOM     42  C   UNL     1       2.694  12.554  -1.082  1.00  0.00     0.001 A 
ATOM     43  C   UNL     1       0.843  11.080  -1.504  1.00  0.00     0.001 A 
ATOM     44  C   UNL     1       1.383  12.366  -1.490  1.00  0.00     0.000 A 
ENDBRANCH  25  39
BRANCH  26  45
ATOM     45  C   UNL     1       5.425   6.340   8.879  1.00  0.00    -0.014 A 
ATOM     46  C   UNL     1       5.346   5.194   9.671  1.00  0.00     0.009 A 
ATOM     47  C   UNL     1       6.197   7.404   9.432  1.00  0.00     0.009 A 
ATOM     48  C   UNL     1       6.068   5.098  10.886  1.00  0.00     0.001 A 
ATOM     49  C   UNL     1       6.948   7.300  10.605  1.00  0.00     0.001 A 
ATOM     50  C   UNL     1       6.893   6.131  11.332  1.00  0.00     0.000 A 
ENDBRANCH  26  45
BRANCH  38  51
ATOM     51  C   UNL     1       2.163   9.592   4.974  1.00  0.00    -0.014 A 
ATOM     52  C   UNL     1       1.395  10.270   5.934  1.00  0.00     0.009 A 
ATOM     53  C   UNL     1       1.520   8.578   4.241  1.00  0.00     0.009 A 
ATOM     54  C   UNL     1       0.054   9.936   6.166  1.00  0.00     0.001 A 
ATOM     55  C   UNL     1       0.177   8.239   4.470  1.00  0.00     0.001 A 
ATOM     56  C   UNL     1      -0.555   8.919   5.437  1.00  0.00     0.000 A 
ENDBRANCH  38  51
ENDBRANCH  12  13
ENDBRANCH   5   7
ENDBRANCH   2   3
ENDBRANCH   1   2
BRANCH   1  57
ATOM     57  C   UNL     1       4.323  -2.291   2.640  1.00  0.00     0.118 C 
BRANCH  57  58
ATOM     58  N   UNL     1       4.945  -3.522   2.184  1.00  0.00    -0.352 N 
ATOM     59  C   UNL     1       5.892  -4.304   2.799  1.00  0.00     0.252 C 
ATOM     60  H   UNL     1       4.642  -3.844   1.304  1.00  0.00     0.163 HD
ATOM     61  O   UNL     1       6.523  -5.107   2.116  1.00  0.00    -0.269 OA
BRANCH  59  62
ATOM     62  C   UNL     1       6.094  -4.173   4.234  1.00  0.00     0.057 A 
ATOM     63  C   UNL     1       5.111  -4.064   5.257  1.00  0.00     0.033 A 
ATOM     64  C   UNL     1       7.317  -4.249   4.884  1.00  0.00     0.099 A 
ATOM     65  C   UNL     1       5.760  -4.055   6.469  1.00  0.00     0.087 A 
ATOM     66  N   UNL     1       7.109  -4.125   6.236  1.00  0.00    -0.349 N 
BRANCH  66  67
ATOM     67  C   UNL     1       8.142  -4.187   7.272  1.00  0.00     0.160 C 
BRANCH  67  68
ATOM     68  C   UNL     1       8.543  -2.811   7.757  1.00  0.00     0.009 A 
ATOM     69  C   UNL     1       7.819  -2.141   8.765  1.00  0.00     0.047 A 
ATOM     70  C   UNL     1       9.643  -2.128   7.200  1.00  0.00     0.047 A 
ATOM     71  Cl  UNL     1       6.546  -2.895   9.662  1.00  0.00    -0.084 Cl
ATOM     72  C   UNL     1       8.131  -0.828   9.140  1.00  0.00     0.021 A 
ATOM     73  C   UNL     1       9.973  -0.826   7.604  1.00  0.00     0.021 A 
ATOM     74  Cl  UNL     1      10.678  -2.849   6.016  1.00  0.00    -0.084 Cl
ATOM     75  C   UNL     1       9.205  -0.167   8.557  1.00  0.00     0.003 A 
ENDBRANCH  67  68
ENDBRANCH  66  67
ENDBRANCH  59  62
ENDBRANCH  57  58
ENDBRANCH   1  57
TORSDOF 12
