REMARK SMILES CC(C)C[C@H](CNC(=O)N[C@@H](C)c1nccs1)C(=O)NCCCNC(=O)c1ccc(-c2c3nc(c(-c4ccccc4)c4ccc([nH]4)c(-c4ccccc4)c4nc(c(-c5ccccc5)c5ccc2[nH]5)C=C4)C=C3)cc1
REMARK SMILES IDX 21 1 20 2 18 3 19 4 5 6 4 7 2 8 1 9 3 10 6 11 7 12 8 13 9 15
REMARK SMILES IDX 10 16 11 18 12 19 13 20 14 21 17 22 15 23 16 24 22 25 23 26
REMARK SMILES IDX 24 27 25 28 26 30 27 31 28 32 74 33 29 34 73 35 30 36 31 37
REMARK SMILES IDX 32 38 67 39 33 40 72 41 66 42 68 43 34 44 71 45 65 46 64 47
REMARK SMILES IDX 35 49 57 50 42 51 56 52 43 53 46 54 55 55 69 56 44 57 45 58
REMARK SMILES IDX 54 60 70 61 47 62 36 63 37 64 41 65 38 66 40 67 39 68 58 69
REMARK SMILES IDX 59 70 63 71 60 72 62 73 61 74 48 75 49 76 53 77 50 78 52 79
REMARK SMILES IDX 51 80
REMARK H PARENT 20 5 7 14 10 17 24 29 68 48 46 59
REMARK Flexibility Score: inf
ROOT
ATOM      1  C   UNL     1      -3.345  -3.566  -0.684  1.00  0.00     0.117 C 
ENDROOT
BRANCH   1   2
ATOM      2  N   UNL     1      -3.864  -2.219  -0.820  1.00  0.00    -0.356 N 
ATOM      3  C   UNL     1      -3.201  -1.047  -0.968  1.00  0.00     0.224 C 
ATOM      4  O   UNL     1      -3.869  -0.011  -1.007  1.00  0.00    -0.275 OA
ATOM      5  H   UNL     1      -4.846  -2.146  -0.804  1.00  0.00     0.163 HD
BRANCH   3   6
ATOM      6  C   UNL     1      -1.683  -0.996  -1.023  1.00  0.00     0.098 C 
BRANCH   6   7
ATOM      7  C   UNL     1      -0.996  -1.795  -2.162  1.00  0.00     0.018 C 
BRANCH   7   8
ATOM      8  C   UNL     1      -1.871  -2.265  -3.359  1.00  0.00    -0.017 C 
ATOM      9  C   UNL     1      -2.523  -1.139  -4.159  1.00  0.00     0.007 C 
ATOM     10  C   UNL     1      -1.067  -3.171  -4.297  1.00  0.00     0.007 C 
ENDBRANCH   7   8
ENDBRANCH   6   7
BRANCH   6  11
ATOM     11  C   UNL     1      -1.149  -1.143   0.427  1.00  0.00     0.131 C 
BRANCH  11  12
ATOM     12  N   UNL     1      -0.721  -2.468   0.866  1.00  0.00    -0.337 N 
ATOM     13  C   UNL     1       0.373  -3.226   0.781  1.00  0.00     0.315 C 
ATOM     14  H   UNL     1      -1.437  -2.929   1.360  1.00  0.00     0.165 HD
ATOM     15  O   UNL     1       0.247  -4.432   1.006  1.00  0.00    -0.249 OA
ATOM     16  N   UNL     1       1.581  -2.763   0.469  1.00  0.00    -0.329 N 
ATOM     17  H   UNL     1       2.198  -3.442   0.112  1.00  0.00     0.166 HD
BRANCH  16  18
ATOM     18  C   UNL     1       2.144  -1.430   0.563  1.00  0.00     0.140 C 
ATOM     19  C   UNL     1       2.757  -1.193   1.937  1.00  0.00     0.039 C 
BRANCH  18  20
ATOM     20  C   UNL     1       3.090  -1.148  -0.574  1.00  0.00     0.115 A 
ATOM     21  N   UNL     1       3.166   0.037  -1.149  1.00  0.00    -0.247 NA
ATOM     22  S   UNL     1       4.089  -2.364  -1.275  1.00  0.00    -0.125 S 
ATOM     23  C   UNL     1       4.004  -0.021  -2.240  1.00  0.00     0.123 A 
ATOM     24  C   UNL     1       4.578  -1.249  -2.481  1.00  0.00     0.087 A 
ENDBRANCH  18  20
ENDBRANCH  16  18
ENDBRANCH  11  12
ENDBRANCH   6  11
ENDBRANCH   3   6
ENDBRANCH   1   2
BRANCH   1  25
ATOM     25  C   UNL     1      -3.679  -4.142   0.674  1.00  0.00     0.042 C 
BRANCH  25  26
ATOM     26  C   UNL     1      -5.164  -4.374   0.842  1.00  0.00     0.118 C 
BRANCH  26  27
ATOM     27  N   UNL     1      -5.682  -5.348  -0.108  1.00  0.00    -0.352 N 
ATOM     28  C   UNL     1      -6.202  -6.595   0.122  1.00  0.00     0.251 C 
ATOM     29  H   UNL     1      -5.655  -5.070  -1.052  1.00  0.00     0.163 HD
ATOM     30  O   UNL     1      -6.370  -7.376  -0.805  1.00  0.00    -0.269 OA
BRANCH  28  31
ATOM     31  C   UNL     1      -6.546  -6.986   1.502  1.00  0.00     0.039 A 
ATOM     32  C   UNL     1      -6.278  -8.286   1.929  1.00  0.00     0.014 A 
ATOM     33  C   UNL     1      -7.121  -6.059   2.375  1.00  0.00     0.014 A 
ATOM     34  C   UNL     1      -6.548  -8.637   3.251  1.00  0.00     0.010 A 
ATOM     35  C   UNL     1      -7.252  -6.366   3.718  1.00  0.00     0.010 A 
ATOM     36  C   UNL     1      -7.009  -7.671   4.161  1.00  0.00    -0.014 A 
BRANCH  36  37
ATOM     37  C   UNL     1      -7.301  -8.017   5.570  1.00  0.00     0.031 A 
ATOM     38  C   UNL     1      -8.699  -7.847   6.104  1.00  0.00     0.074 A 
ATOM     39  C   UNL     1      -6.308  -8.442   6.372  1.00  0.00     0.049 A 
ATOM     40  N   UNL     1      -9.155  -8.077   7.309  1.00  0.00    -0.248 NA
ATOM     41  C   UNL     1      -9.712  -7.315   5.175  1.00  0.00     0.031 C 
ATOM     42  C   UNL     1      -4.904  -8.594   5.981  1.00  0.00     0.029 A 
ATOM     43  N   UNL     1      -6.330  -8.833   7.685  1.00  0.00    -0.354 N 
ATOM     44  C   UNL     1     -10.492  -7.701   7.282  1.00  0.00     0.074 A 
ATOM     45  C   UNL     1     -10.758  -7.159   5.970  1.00  0.00     0.031 C 
ATOM     46  C   UNL     1      -4.211  -9.094   7.016  1.00  0.00     0.029 A 
ATOM     47  C   UNL     1      -5.110  -9.255   8.153  1.00  0.00     0.049 A 
ATOM     48  H   UNL     1      -7.144  -8.813   8.240  1.00  0.00     0.167 HD
ATOM     49  C   UNL     1     -11.428  -7.826   8.251  1.00  0.00     0.031 A 
ATOM     50  C   UNL     1      -4.760  -9.723   9.365  1.00  0.00     0.031 A 
ATOM     51  C   UNL     1     -11.163  -8.383   9.549  1.00  0.00     0.049 A 
ATOM     52  C   UNL     1      -5.817  -9.852  10.426  1.00  0.00     0.074 A 
ATOM     53  C   UNL     1     -12.047  -8.607  10.588  1.00  0.00     0.029 A 
ATOM     54  N   UNL     1      -9.915  -8.803   9.983  1.00  0.00    -0.354 N 
ATOM     55  N   UNL     1      -7.095  -9.561  10.362  1.00  0.00    -0.248 NA
ATOM     56  C   UNL     1      -5.385 -10.392  11.721  1.00  0.00     0.031 C 
ATOM     57  C   UNL     1     -11.323  -9.111  11.673  1.00  0.00     0.029 A 
ATOM     58  C   UNL     1     -10.001  -9.265  11.285  1.00  0.00     0.049 A 
ATOM     59  H   UNL     1      -9.091  -8.777   9.445  1.00  0.00     0.167 HD
ATOM     60  C   UNL     1      -7.625  -9.914  11.596  1.00  0.00     0.074 A 
ATOM     61  C   UNL     1      -6.534 -10.458  12.378  1.00  0.00     0.031 C 
ATOM     62  C   UNL     1      -8.900  -9.799  12.044  1.00  0.00     0.031 A 
BRANCH  49  63
ATOM     63  C   UNL     1     -12.820  -7.348   7.936  1.00  0.00    -0.014 A 
ATOM     64  C   UNL     1     -13.620  -8.002   6.985  1.00  0.00     0.009 A 
ATOM     65  C   UNL     1     -13.346  -6.237   8.613  1.00  0.00     0.009 A 
ATOM     66  C   UNL     1     -14.900  -7.529   6.688  1.00  0.00     0.001 A 
ATOM     67  C   UNL     1     -14.639  -5.787   8.340  1.00  0.00     0.001 A 
ATOM     68  C   UNL     1     -15.411  -6.426   7.371  1.00  0.00     0.000 A 
ENDBRANCH  49  63
BRANCH  50  69
ATOM     69  C   UNL     1      -3.356 -10.133   9.631  1.00  0.00    -0.014 A 
ATOM     70  C   UNL     1      -3.031 -11.483   9.831  1.00  0.00     0.009 A 
ATOM     71  C   UNL     1      -2.332  -9.174   9.694  1.00  0.00     0.009 A 
ATOM     72  C   UNL     1      -1.719 -11.862  10.123  1.00  0.00     0.001 A 
ATOM     73  C   UNL     1      -1.015  -9.559   9.954  1.00  0.00     0.001 A 
ATOM     74  C   UNL     1      -0.712 -10.900  10.180  1.00  0.00     0.000 A 
ENDBRANCH  50  69
BRANCH  62  75
ATOM     75  C   UNL     1      -9.185 -10.315  13.428  1.00  0.00    -0.014 A 
ATOM     76  C   UNL     1      -8.690  -9.666  14.570  1.00  0.00     0.009 A 
ATOM     77  C   UNL     1      -9.983 -11.459  13.587  1.00  0.00     0.009 A 
ATOM     78  C   UNL     1      -8.948 -10.183  15.841  1.00  0.00     0.001 A 
ATOM     79  C   UNL     1     -10.270 -11.951  14.860  1.00  0.00     0.001 A 
ATOM     80  C   UNL     1      -9.741 -11.322  15.984  1.00  0.00     0.000 A 
ENDBRANCH  62  75
ENDBRANCH  36  37
ENDBRANCH  28  31
ENDBRANCH  26  27
ENDBRANCH  25  26
ENDBRANCH   1  25
TORSDOF 16
