REMARK SMILES C[NH2+][C@]1(C(=O)NCCCNC(=O)c2ccc(-c3c4nc(c(-c5ccccc5)c5ccc([nH]5)c(-c5ccccc5)c5nc(c(-c6ccccc6)c6ccc3[nH]6)C=C5)C=C4)cc2)CCC[C@@H]([N@H+]2CC[C@@H](C)C2)C1
REMARK SMILES IDX 8 1 7 2 6 3 4 4 5 5 3 7 61 8 71 9 62 10 64 11 63 12 2 13
REMARK SMILES IDX 1 14 65 17 66 18 70 19 67 21 68 22 69 23 9 24 10 25 11 26
REMARK SMILES IDX 12 28 13 29 14 30 60 31 15 32 59 33 16 34 17 35 18 36 53 37
REMARK SMILES IDX 19 38 58 39 52 40 54 41 20 42 57 43 51 44 50 45 21 47 43 48
REMARK SMILES IDX 28 49 42 50 29 51 32 52 41 53 55 54 30 55 31 56 40 58 56 59
REMARK SMILES IDX 33 60 22 61 23 62 27 63 24 64 26 65 25 66 44 67 45 68 49 69
REMARK SMILES IDX 46 70 48 71 47 72 34 73 35 74 39 75 36 76 38 77 37 78
REMARK H PARENT 6 6 2 15 2 16 65 20 10 27 54 46 32 57
REMARK Flexibility Score: inf
ROOT
ATOM      1  C   UNL     1       1.030  -1.971   2.310  1.00  0.00     0.042 C 
ENDROOT
BRANCH   1   2
ATOM      2  C   UNL     1       0.590  -0.867   1.365  1.00  0.00     0.118 C 
BRANCH   2   3
ATOM      3  N   UNL     1       1.090  -1.078   0.015  1.00  0.00    -0.351 N 
ATOM      4  C   UNL     1       0.454  -1.315  -1.169  1.00  0.00     0.281 C 
ATOM      5  O   UNL     1       1.185  -1.582  -2.132  1.00  0.00    -0.268 OA
ATOM      6  H   UNL     1       2.071  -1.043  -0.059  1.00  0.00     0.163 HD
BRANCH   4   7
ATOM      7  C   UNL     1      -1.119  -1.266  -1.329  1.00  0.00     0.181 C 
ATOM      8  C   UNL     1      -1.724  -2.447  -0.542  1.00  0.00     0.079 C 
ATOM      9  C   UNL     1      -1.579   0.122  -0.848  1.00  0.00     0.144 C 
ATOM     10  C   UNL     1      -3.190  -2.283  -0.154  1.00  0.00     0.013 C 
ATOM     11  C   UNL     1      -3.014   0.269  -0.327  1.00  0.00     0.190 C 
ATOM     12  C   UNL     1      -3.467  -0.942   0.515  1.00  0.00     0.065 C 
BRANCH   7  13
ATOM     13  N   UNL     1      -1.365  -1.300  -2.800  1.00  0.00    -0.336 N 
ATOM     14  C   UNL     1      -2.589  -1.885  -3.297  1.00  0.00     0.331 C 
ATOM     15  H   UNL     1      -1.341  -0.335  -3.128  1.00  0.00     0.346 HD
ATOM     16  H   UNL     1      -0.638  -1.923  -3.153  1.00  0.00     0.346 HD
ENDBRANCH   7  13
BRANCH  11  17
ATOM     17  N   UNL     1      -3.223   1.544   0.406  1.00  0.00    -0.332 N 
ATOM     18  C   UNL     1      -2.664   1.626   1.760  1.00  0.00     0.262 C 
ATOM     19  C   UNL     1      -2.836   2.763  -0.319  1.00  0.00     0.265 C 
ATOM     20  H   UNL     1      -4.239   1.508   0.487  1.00  0.00     0.348 HD
ATOM     21  C   UNL     1      -2.095   3.031   1.923  1.00  0.00     0.070 C 
ATOM     22  C   UNL     1      -1.754   3.467   0.505  1.00  0.00     0.047 C 
ATOM     23  C   UNL     1      -0.317   3.102   0.128  1.00  0.00     0.014 C 
ENDBRANCH  11  17
ENDBRANCH   4   7
ENDBRANCH   2   3
ENDBRANCH   1   2
BRANCH   1  24
ATOM     24  C   UNL     1       2.532  -2.007   2.535  1.00  0.00     0.118 C 
BRANCH  24  25
ATOM     25  N   UNL     1       3.016  -0.859   3.290  1.00  0.00    -0.352 N 
ATOM     26  C   UNL     1       3.596  -0.802   4.536  1.00  0.00     0.251 C 
ATOM     27  H   UNL     1       2.912   0.010   2.839  1.00  0.00     0.163 HD
ATOM     28  O   UNL     1       3.770   0.282   5.080  1.00  0.00    -0.269 OA
BRANCH  26  29
ATOM     29  C   UNL     1       3.979  -2.050   5.232  1.00  0.00     0.039 A 
ATOM     30  C   UNL     1       3.719  -2.170   6.599  1.00  0.00     0.014 A 
ATOM     31  C   UNL     1       4.585  -3.101   4.542  1.00  0.00     0.014 A 
ATOM     32  C   UNL     1       3.991  -3.374   7.252  1.00  0.00     0.010 A 
ATOM     33  C   UNL     1       4.754  -4.332   5.165  1.00  0.00     0.010 A 
ATOM     34  C   UNL     1       4.466  -4.481   6.529  1.00  0.00    -0.014 A 
BRANCH  34  35
ATOM     35  C   UNL     1       4.675  -5.801   7.178  1.00  0.00     0.031 A 
ATOM     36  C   UNL     1       6.047  -6.421   7.203  1.00  0.00     0.074 A 
ATOM     37  C   UNL     1       3.622  -6.473   7.682  1.00  0.00     0.049 A 
ATOM     38  N   UNL     1       6.414  -7.592   7.659  1.00  0.00    -0.248 NA
ATOM     39  C   UNL     1       7.144  -5.637   6.613  1.00  0.00     0.031 C 
ATOM     40  C   UNL     1       2.234  -6.003   7.683  1.00  0.00     0.029 A 
ATOM     41  N   UNL     1       3.553  -7.703   8.288  1.00  0.00    -0.354 N 
ATOM     42  C   UNL     1       7.775  -7.689   7.394  1.00  0.00     0.074 A 
ATOM     43  C   UNL     1       8.156  -6.488   6.688  1.00  0.00     0.031 C 
ATOM     44  C   UNL     1       1.460  -6.916   8.290  1.00  0.00     0.029 A 
ATOM     45  C   UNL     1       2.284  -8.056   8.678  1.00  0.00     0.049 A 
ATOM     46  H   UNL     1       4.340  -8.277   8.430  1.00  0.00     0.167 HD
ATOM     47  C   UNL     1       8.636  -8.679   7.729  1.00  0.00     0.031 A 
ATOM     48  C   UNL     1       1.831  -9.176   9.272  1.00  0.00     0.031 A 
ATOM     49  C   UNL     1       8.259  -9.870   8.441  1.00  0.00     0.049 A 
ATOM     50  C   UNL     1       2.804 -10.270   9.613  1.00  0.00     0.074 A 
ATOM     51  C   UNL     1       9.068 -10.905   8.876  1.00  0.00     0.029 A 
ATOM     52  N   UNL     1       6.965 -10.186   8.821  1.00  0.00    -0.354 N 
ATOM     53  N   UNL     1       4.100 -10.314   9.419  1.00  0.00    -0.248 NA
ATOM     54  C   UNL     1       2.252 -11.465  10.267  1.00  0.00     0.031 C 
ATOM     55  C   UNL     1       8.254 -11.876   9.467  1.00  0.00     0.029 A 
ATOM     56  C   UNL     1       6.948 -11.414   9.462  1.00  0.00     0.049 A 
ATOM     57  H   UNL     1       6.174  -9.621   8.660  1.00  0.00     0.167 HD
ATOM     58  C   UNL     1       4.522 -11.524   9.956  1.00  0.00     0.074 A 
ATOM     59  C   UNL     1       3.348 -12.175  10.498  1.00  0.00     0.031 C 
ATOM     60  C   UNL     1       5.772 -12.047   9.998  1.00  0.00     0.031 A 
BRANCH  47  61
ATOM     61  C   UNL     1      10.075  -8.517   7.319  1.00  0.00    -0.014 A 
ATOM     62  C   UNL     1      10.896  -7.542   7.909  1.00  0.00     0.009 A 
ATOM     63  C   UNL     1      10.628  -9.377   6.357  1.00  0.00     0.009 A 
ATOM     64  C   UNL     1      12.230  -7.408   7.517  1.00  0.00     0.001 A 
ATOM     65  C   UNL     1      11.970  -9.262   5.992  1.00  0.00     0.001 A 
ATOM     66  C   UNL     1      12.767  -8.272   6.564  1.00  0.00     0.000 A 
ENDBRANCH  47  61
BRANCH  48  67
ATOM     67  C   UNL     1       0.386  -9.320   9.596  1.00  0.00    -0.014 A 
ATOM     68  C   UNL     1      -0.049  -9.326  10.930  1.00  0.00     0.009 A 
ATOM     69  C   UNL     1      -0.565  -9.469   8.573  1.00  0.00     0.009 A 
ATOM     70  C   UNL     1      -1.400  -9.512  11.235  1.00  0.00     0.001 A 
ATOM     71  C   UNL     1      -1.919  -9.620   8.880  1.00  0.00     0.001 A 
ATOM     72  C   UNL     1      -2.334  -9.654  10.210  1.00  0.00     0.000 A 
ENDBRANCH  48  67
BRANCH  60  73
ATOM     73  C   UNL     1       5.943 -13.369  10.694  1.00  0.00    -0.014 A 
ATOM     74  C   UNL     1       5.459 -14.561  10.133  1.00  0.00     0.009 A 
ATOM     75  C   UNL     1       6.640 -13.424  11.911  1.00  0.00     0.009 A 
ATOM     76  C   UNL     1       5.640 -15.777  10.796  1.00  0.00     0.001 A 
ATOM     77  C   UNL     1       6.849 -14.644  12.555  1.00  0.00     0.001 A 
ATOM     78  C   UNL     1       6.339 -15.818  12.002  1.00  0.00     0.000 A 
ENDBRANCH  60  73
ENDBRANCH  34  35
ENDBRANCH  26  29
ENDBRANCH  24  25
ENDBRANCH   1  24
TORSDOF 12
