REMARK SMILES CC(C)=C1[C@H]2CC[C@@H]1[C@H](C(=O)NNC(=O)c1ccoc1C)[C@H]2C(=O)NCCCNC(=O)c1ccc(-c2c3nc(c(-c4ccccc4)c4ccc([nH]4)c(-c4ccccc4)c4nc(c(-c5ccccc5)c5ccc2[nH]5)C=C4)C=C3)cc1
REMARK SMILES IDX 26 1 25 2 23 3 24 4 22 6 1 7 2 8 3 9 4 10 5 11 8 12 6 13
REMARK SMILES IDX 7 14 9 15 10 16 11 17 12 18 13 20 14 21 15 23 16 24 17 25
REMARK SMILES IDX 20 26 18 27 19 28 21 29 27 30 28 31 29 32 30 33 31 35 32 36
REMARK SMILES IDX 33 37 79 38 34 39 78 40 35 41 36 42 37 43 72 44 38 45 77 46
REMARK SMILES IDX 71 47 73 48 39 49 76 50 70 51 69 52 40 54 62 55 47 56 61 57
REMARK SMILES IDX 48 58 51 59 60 60 74 61 49 62 50 63 59 65 75 66 52 67 41 68
REMARK SMILES IDX 42 69 46 70 43 71 45 72 44 73 63 74 64 75 68 76 65 77 67 78
REMARK SMILES IDX 66 79 53 80 54 81 58 82 55 83 57 84 56 85
REMARK H PARENT 25 5 12 19 13 22 29 34 73 53 51 64
REMARK Flexibility Score: inf
ROOT
ATOM      1  C   UNL     1       3.413  -2.260   0.894  1.00  0.00     0.117 C 
ENDROOT
BRANCH   1   2
ATOM      2  N   UNL     1       3.490  -3.705   0.990  1.00  0.00    -0.356 N 
ATOM      3  C   UNL     1       2.679  -4.711   0.592  1.00  0.00     0.224 C 
ATOM      4  O   UNL     1       2.988  -5.833   1.014  1.00  0.00    -0.275 OA
ATOM      5  H   UNL     1       4.307  -4.020   1.441  1.00  0.00     0.163 HD
BRANCH   3   6
ATOM      6  C   UNL     1       1.435  -4.566  -0.277  1.00  0.00     0.098 C 
ATOM      7  C   UNL     1      -0.088  -0.106  -0.148  1.00  0.00     0.039 C 
ATOM      8  C   UNL     1      -0.109  -1.418   0.588  1.00  0.00    -0.077 C 
ATOM      9  C   UNL     1      -0.522  -1.334   2.033  1.00  0.00     0.039 C 
ATOM     10  C   UNL     1       0.154  -2.580  -0.035  1.00  0.00    -0.064 C 
ATOM     11  C   UNL     1       0.191  -4.000   0.448  1.00  0.00     0.028 C 
ATOM     12  C   UNL     1       0.275  -2.864  -1.510  1.00  0.00     0.028 C 
ATOM     13  C   UNL     1      -1.061  -4.492  -0.302  1.00  0.00     0.009 C 
ATOM     14  C   UNL     1      -0.999  -3.716  -1.635  1.00  0.00     0.009 C 
ATOM     15  C   UNL     1       1.552  -3.727  -1.578  1.00  0.00     0.100 C 
BRANCH  15  16
ATOM     16  C   UNL     1       1.750  -4.623  -2.812  1.00  0.00     0.242 C 
ATOM     17  O   UNL     1       2.203  -5.765  -2.715  1.00  0.00    -0.273 OA
ATOM     18  N   UNL     1       1.554  -4.130  -4.078  1.00  0.00    -0.267 N 
ATOM     19  H   UNL     1       1.869  -4.673  -4.836  1.00  0.00     0.191 HD
BRANCH  18  20
ATOM     20  N   UNL     1       0.946  -2.930  -4.356  1.00  0.00    -0.263 N 
ATOM     21  C   UNL     1      -0.103  -2.724  -5.232  1.00  0.00     0.273 C 
ATOM     22  H   UNL     1       1.292  -2.138  -3.885  1.00  0.00     0.191 HD
ATOM     23  O   UNL     1      -0.604  -1.603  -5.258  1.00  0.00    -0.267 OA
BRANCH  21  24
ATOM     24  C   UNL     1      -0.495  -3.742  -6.200  1.00  0.00     0.082 A 
ATOM     25  C   UNL     1      -0.855  -3.420  -7.551  1.00  0.00     0.056 A 
ATOM     26  C   UNL     1      -0.668  -5.117  -6.106  1.00  0.00     0.113 A 
ATOM     27  C   UNL     1      -1.141  -4.598  -8.188  1.00  0.00     0.196 A 
ATOM     28  O   UNL     1      -1.026  -5.629  -7.322  1.00  0.00    -0.469 OA
ATOM     29  C   UNL     1      -0.601  -6.144  -5.043  1.00  0.00     0.088 C 
ENDBRANCH  21  24
ENDBRANCH  18  20
ENDBRANCH  15  16
ENDBRANCH   3   6
ENDBRANCH   1   2
BRANCH   1  30
ATOM     30  C   UNL     1       2.863  -1.643   2.172  1.00  0.00     0.042 C 
BRANCH  30  31
ATOM     31  C   UNL     1       3.852  -1.595   3.329  1.00  0.00     0.118 C 
BRANCH  31  32
ATOM     32  N   UNL     1       4.887  -0.593   3.126  1.00  0.00    -0.352 N 
ATOM     33  C   UNL     1       5.089   0.634   3.706  1.00  0.00     0.251 C 
ATOM     34  H   UNL     1       5.562  -0.840   2.454  1.00  0.00     0.163 HD
ATOM     35  O   UNL     1       5.907   1.397   3.194  1.00  0.00    -0.269 OA
BRANCH  33  36
ATOM     36  C   UNL     1       4.355   1.071   4.920  1.00  0.00     0.039 A 
ATOM     37  C   UNL     1       4.068   2.434   5.068  1.00  0.00     0.014 A 
ATOM     38  C   UNL     1       4.030   0.192   5.955  1.00  0.00     0.014 A 
ATOM     39  C   UNL     1       3.431   2.902   6.222  1.00  0.00     0.010 A 
ATOM     40  C   UNL     1       3.318   0.644   7.068  1.00  0.00     0.010 A 
ATOM     41  C   UNL     1       3.030   2.007   7.225  1.00  0.00    -0.014 A 
BRANCH  41  42
ATOM     42  C   UNL     1       2.346   2.485   8.455  1.00  0.00     0.031 A 
ATOM     43  C   UNL     1       3.004   2.330   9.802  1.00  0.00     0.074 A 
ATOM     44  C   UNL     1       1.114   3.022   8.374  1.00  0.00     0.049 A 
ATOM     45  N   UNL     1       2.544   2.643  10.988  1.00  0.00    -0.248 NA
ATOM     46  C   UNL     1       4.344   1.721   9.821  1.00  0.00     0.031 C 
ATOM     47  C   UNL     1       0.344   3.200   7.141  1.00  0.00     0.029 A 
ATOM     48  N   UNL     1       0.291   3.518   9.355  1.00  0.00    -0.354 N 
ATOM     49  C   UNL     1       3.522   2.244  11.891  1.00  0.00     0.074 A 
ATOM     50  C   UNL     1       4.583   1.631  11.121  1.00  0.00     0.031 C 
ATOM     51  C   UNL     1      -0.824   3.794   7.436  1.00  0.00     0.029 A 
ATOM     52  C   UNL     1      -0.900   4.009   8.877  1.00  0.00     0.049 A 
ATOM     53  H   UNL     1       0.531   3.521  10.309  1.00  0.00     0.167 HD
ATOM     54  C   UNL     1       3.549   2.387  13.238  1.00  0.00     0.031 A 
ATOM     55  C   UNL     1      -1.936   4.572   9.525  1.00  0.00     0.031 A 
ATOM     56  C   UNL     1       2.514   3.021  14.010  1.00  0.00     0.049 A 
ATOM     57  C   UNL     1      -1.874   4.743  11.016  1.00  0.00     0.074 A 
ATOM     58  C   UNL     1       2.477   3.262  15.373  1.00  0.00     0.029 A 
ATOM     59  N   UNL     1       1.334   3.520  13.483  1.00  0.00    -0.354 N 
ATOM     60  N   UNL     1      -0.920   4.401  11.847  1.00  0.00    -0.248 NA
ATOM     61  C   UNL     1      -3.030   5.390  11.654  1.00  0.00     0.031 C 
ATOM     62  C   UNL     1       1.259   3.881  15.675  1.00  0.00     0.029 A 
ATOM     63  C   UNL     1       0.557   4.060  14.494  1.00  0.00     0.049 A 
ATOM     64  H   UNL     1       1.085   3.496  12.531  1.00  0.00     0.167 HD
ATOM     65  C   UNL     1      -1.350   4.810  13.102  1.00  0.00     0.074 A 
ATOM     66  C   UNL     1      -2.643   5.438  12.921  1.00  0.00     0.031 C 
ATOM     67  C   UNL     1      -0.728   4.677  14.299  1.00  0.00     0.031 A 
BRANCH  54  68
ATOM     68  C   UNL     1       4.745   1.838  13.963  1.00  0.00    -0.014 A 
ATOM     69  C   UNL     1       5.998   2.467  13.878  1.00  0.00     0.009 A 
ATOM     70  C   UNL     1       4.615   0.688  14.757  1.00  0.00     0.009 A 
ATOM     71  C   UNL     1       7.104   1.931  14.541  1.00  0.00     0.001 A 
ATOM     72  C   UNL     1       5.717   0.170  15.440  1.00  0.00     0.001 A 
ATOM     73  C   UNL     1       6.963   0.786  15.322  1.00  0.00     0.000 A 
ENDBRANCH  54  68
BRANCH  55  74
ATOM     74  C   UNL     1      -3.114   5.051   8.759  1.00  0.00    -0.014 A 
ATOM     75  C   UNL     1      -3.312   6.425   8.554  1.00  0.00     0.009 A 
ATOM     76  C   UNL     1      -4.040   4.141   8.227  1.00  0.00     0.009 A 
ATOM     77  C   UNL     1      -4.427   6.880   7.848  1.00  0.00     0.001 A 
ATOM     78  C   UNL     1      -5.142   4.599   7.502  1.00  0.00     0.001 A 
ATOM     79  C   UNL     1      -5.338   5.967   7.319  1.00  0.00     0.000 A 
ENDBRANCH  55  74
BRANCH  67  80
ATOM     80  C   UNL     1      -1.429   5.247  15.497  1.00  0.00    -0.014 A 
ATOM     81  C   UNL     1      -2.543   4.604  16.060  1.00  0.00     0.009 A 
ATOM     82  C   UNL     1      -0.956   6.431  16.082  1.00  0.00     0.009 A 
ATOM     83  C   UNL     1      -3.189   5.156  17.167  1.00  0.00     0.001 A 
ATOM     84  C   UNL     1      -1.591   6.968  17.203  1.00  0.00     0.001 A 
ATOM     85  C   UNL     1      -2.712   6.336  17.738  1.00  0.00     0.000 A 
ENDBRANCH  67  80
ENDBRANCH  41  42
ENDBRANCH  33  36
ENDBRANCH  31  32
ENDBRANCH  30  31
ENDBRANCH   1  30
TORSDOF 13
