REMARK SMILES Cc1cc(F)cc(N[C@H](C(=O)NCCCNC(=O)c2ccc(-c3c4nc(c(-c5ccccc5)c5ccc([nH]5)c(-c5ccccc5)c5nc(c(-c6ccccc6)c6ccc3[nH]6)C=C5)C=C4)cc2)c2cc(C)cc(C)c2)c1
REMARK SMILES IDX 14 1 13 2 12 3 10 4 11 5 9 7 8 8 7 10 1 11 2 12 3 13 75 14
REMARK SMILES IDX 4 15 5 16 6 17 67 18 68 19 74 20 69 21 72 22 70 23 71 24
REMARK SMILES IDX 73 25 15 26 16 27 17 28 18 30 19 31 20 32 66 33 21 34 65 35
REMARK SMILES IDX 22 36 23 37 24 38 59 39 25 40 64 41 58 42 60 43 26 44 63 45
REMARK SMILES IDX 57 46 56 47 27 49 49 50 34 51 48 52 35 53 38 54 47 55 61 56
REMARK SMILES IDX 36 57 37 58 46 60 62 61 39 62 28 63 29 64 33 65 30 66 32 67
REMARK SMILES IDX 31 68 50 69 51 70 55 71 52 72 54 73 53 74 40 75 41 76 45 77
REMARK SMILES IDX 42 78 44 79 43 80
REMARK H PARENT 12 6 8 9 16 29 60 48 38 59
REMARK Flexibility Score: inf
ROOT
ATOM      1  C   UNL     1       0.941  -3.407  -3.717  1.00  0.00     0.042 C 
ENDROOT
BRANCH   1   2
ATOM      2  C   UNL     1       0.620  -4.202  -2.468  1.00  0.00     0.117 C 
BRANCH   2   3
ATOM      3  N   UNL     1       0.968  -3.515  -1.243  1.00  0.00    -0.354 N 
ATOM      4  C   UNL     1       0.447  -3.643   0.012  1.00  0.00     0.247 C 
ATOM      5  O   UNL     1       1.001  -2.947   0.874  1.00  0.00    -0.272 OA
ATOM      6  H   UNL     1       1.691  -2.852  -1.329  1.00  0.00     0.163 HD
BRANCH   4   7
ATOM      7  C   UNL     1      -0.824  -4.484   0.327  1.00  0.00     0.200 C 
BRANCH   7   8
ATOM      8  N   UNL     1      -1.135  -5.591  -0.617  1.00  0.00    -0.370 N 
ATOM      9  H   UNL     1      -1.965  -5.458  -1.130  1.00  0.00     0.161 HD
BRANCH   8  10
ATOM     10  C   UNL     1      -0.478  -6.771  -0.909  1.00  0.00     0.038 A 
ATOM     11  C   UNL     1      -0.348  -9.221  -3.870  1.00  0.00     0.044 C 
ATOM     12  C   UNL     1      -0.066  -8.574  -2.549  1.00  0.00    -0.046 A 
ATOM     13  C   UNL     1       0.894  -9.136  -1.710  1.00  0.00     0.042 A 
ATOM     14  C   UNL     1      -0.763  -7.422  -2.126  1.00  0.00     0.029 A 
ATOM     15  C   UNL     1       1.183  -8.512  -0.515  1.00  0.00     0.125 A 
ATOM     16  F   UNL     1       2.111  -9.032   0.300  1.00  0.00    -0.207 F 
ATOM     17  C   UNL     1       0.536  -7.337  -0.146  1.00  0.00     0.065 A 
ENDBRANCH   8  10
ENDBRANCH   7   8
BRANCH   7  18
ATOM     18  C   UNL     1      -0.935  -4.959   1.772  1.00  0.00    -0.016 A 
ATOM     19  C   UNL     1       0.183  -5.473   2.441  1.00  0.00     0.009 A 
ATOM     20  C   UNL     1      -2.188  -5.064   2.393  1.00  0.00     0.009 A 
ATOM     21  C   UNL     1       0.029  -6.342   3.520  1.00  0.00    -0.051 A 
ATOM     22  C   UNL     1      -2.329  -5.769   3.595  1.00  0.00    -0.051 A 
ATOM     23  C   UNL     1       1.144  -7.288   3.858  1.00  0.00     0.044 C 
ATOM     24  C   UNL     1      -1.230  -6.470   4.108  1.00  0.00     0.006 A 
ATOM     25  C   UNL     1      -3.664  -5.883   4.266  1.00  0.00     0.044 C 
ENDBRANCH   7  18
ENDBRANCH   4   7
ENDBRANCH   2   3
ENDBRANCH   1   2
BRANCH   1  26
ATOM     26  C   UNL     1       2.412  -3.069  -3.881  1.00  0.00     0.118 C 
BRANCH  26  27
ATOM     27  N   UNL     1       3.255  -4.238  -4.100  1.00  0.00    -0.352 N 
ATOM     28  C   UNL     1       3.945  -4.635  -5.220  1.00  0.00     0.251 C 
ATOM     29  H   UNL     1       3.343  -4.837  -3.324  1.00  0.00     0.163 HD
ATOM     30  O   UNL     1       4.479  -5.740  -5.257  1.00  0.00    -0.269 OA
BRANCH  28  31
ATOM     31  C   UNL     1       4.012  -3.748  -6.401  1.00  0.00     0.039 A 
ATOM     32  C   UNL     1       3.834  -4.295  -7.674  1.00  0.00     0.014 A 
ATOM     33  C   UNL     1       4.221  -2.376  -6.255  1.00  0.00     0.014 A 
ATOM     34  C   UNL     1       3.772  -3.451  -8.786  1.00  0.00     0.010 A 
ATOM     35  C   UNL     1       4.036  -1.530  -7.341  1.00  0.00     0.010 A 
ATOM     36  C   UNL     1       3.820  -2.057  -8.622  1.00  0.00    -0.014 A 
BRANCH  36  37
ATOM     37  C   UNL     1       3.666  -1.129  -9.771  1.00  0.00     0.031 A 
ATOM     38  C   UNL     1       4.771  -0.161 -10.107  1.00  0.00     0.074 A 
ATOM     39  C   UNL     1       2.509  -1.102 -10.464  1.00  0.00     0.049 A 
ATOM     40  N   UNL     1       4.795   0.780 -11.017  1.00  0.00    -0.248 NA
ATOM     41  C   UNL     1       5.997  -0.235  -9.293  1.00  0.00     0.031 C 
ATOM     42  C   UNL     1       1.344  -1.956 -10.213  1.00  0.00     0.029 A 
ATOM     43  N   UNL     1       2.119  -0.319 -11.523  1.00  0.00    -0.354 N 
ATOM     44  C   UNL     1       6.017   1.424 -10.860  1.00  0.00     0.074 A 
ATOM     45  C   UNL     1       6.686   0.804  -9.740  1.00  0.00     0.031 C 
ATOM     46  C   UNL     1       0.390  -1.678 -11.116  1.00  0.00     0.029 A 
ATOM     47  C   UNL     1       0.851  -0.595 -11.977  1.00  0.00     0.049 A 
ATOM     48  H   UNL     1       2.694   0.374 -11.919  1.00  0.00     0.167 HD
ATOM     49  C   UNL     1       6.547   2.427 -11.597  1.00  0.00     0.031 A 
ATOM     50  C   UNL     1       0.138  -0.032 -12.972  1.00  0.00     0.031 A 
ATOM     51  C   UNL     1       5.899   3.019 -12.735  1.00  0.00     0.049 A 
ATOM     52  C   UNL     1       0.752   1.087 -13.768  1.00  0.00     0.074 A 
ATOM     53  C   UNL     1       6.389   3.983 -13.598  1.00  0.00     0.029 A 
ATOM     54  N   UNL     1       4.621   2.703 -13.167  1.00  0.00    -0.354 N 
ATOM     55  N   UNL     1       1.944   1.622 -13.662  1.00  0.00    -0.248 NA
ATOM     56  C   UNL     1      -0.078   1.674 -14.831  1.00  0.00     0.031 C 
ATOM     57  C   UNL     1       5.383   4.296 -14.516  1.00  0.00     0.029 A 
ATOM     58  C   UNL     1       4.293   3.479 -14.265  1.00  0.00     0.049 A 
ATOM     59  H   UNL     1       4.035   2.029 -12.755  1.00  0.00     0.167 HD
ATOM     60  C   UNL     1       2.020   2.579 -14.666  1.00  0.00     0.074 A 
ATOM     61  C   UNL     1       0.761   2.539 -15.380  1.00  0.00     0.031 C 
ATOM     62  C   UNL     1       3.041   3.416 -14.972  1.00  0.00     0.031 A 
BRANCH  49  63
ATOM     63  C   UNL     1       7.896   2.957 -11.197  1.00  0.00    -0.014 A 
ATOM     64  C   UNL     1       9.063   2.195 -11.369  1.00  0.00     0.009 A 
ATOM     65  C   UNL     1       8.008   4.264 -10.697  1.00  0.00     0.009 A 
ATOM     66  C   UNL     1      10.309   2.721 -11.023  1.00  0.00     0.001 A 
ATOM     67  C   UNL     1       9.257   4.798 -10.380  1.00  0.00     0.001 A 
ATOM     68  C   UNL     1      10.406   4.024 -10.537  1.00  0.00     0.000 A 
ENDBRANCH  49  63
BRANCH  50  69
ATOM     69  C   UNL     1      -1.234  -0.513 -13.289  1.00  0.00    -0.014 A 
ATOM     70  C   UNL     1      -1.497  -1.157 -14.509  1.00  0.00     0.009 A 
ATOM     71  C   UNL     1      -2.296  -0.292 -12.399  1.00  0.00     0.009 A 
ATOM     72  C   UNL     1      -2.800  -1.529 -14.849  1.00  0.00     0.001 A 
ATOM     73  C   UNL     1      -3.593  -0.697 -12.727  1.00  0.00     0.001 A 
ATOM     74  C   UNL     1      -3.846  -1.301 -13.957  1.00  0.00     0.000 A 
ENDBRANCH  50  69
BRANCH  62  75
ATOM     75  C   UNL     1       2.861   4.320 -16.158  1.00  0.00    -0.014 A 
ATOM     76  C   UNL     1       1.977   5.409 -16.123  1.00  0.00     0.009 A 
ATOM     77  C   UNL     1       3.627   4.101 -17.315  1.00  0.00     0.009 A 
ATOM     78  C   UNL     1       1.838   6.239 -17.237  1.00  0.00     0.001 A 
ATOM     79  C   UNL     1       3.510   4.952 -18.413  1.00  0.00     0.001 A 
ATOM     80  C   UNL     1       2.609   6.014 -18.378  1.00  0.00     0.000 A 
ENDBRANCH  62  75
ENDBRANCH  36  37
ENDBRANCH  28  31
ENDBRANCH  26  27
ENDBRANCH   1  26
TORSDOF 13
