REMARK SMILES C[C@@H](C(=O)NCCCNC(=O)c1ccc(-c2c3nc(c(-c4ccccc4)c4ccc([nH]4)c(-c4ccccc4)c4nc(c(-c5ccccc5)c5ccc2[nH]5)C=C4)C=C3)cc1)n1ccc(C(=O)N2CC[NH+](Cc3cccc(F)c3)CC2)n1
REMARK SMILES IDX 6 1 5 2 3 3 4 4 2 6 1 7 60 8 61 9 80 10 62 11 63 12 64 13
REMARK SMILES IDX 65 14 66 15 67 16 79 17 68 18 78 19 69 20 70 22 71 23 72 24
REMARK SMILES IDX 77 25 73 26 75 27 74 28 76 29 7 30 8 31 9 32 10 33 11 35
REMARK SMILES IDX 12 36 13 37 59 38 14 39 58 40 15 41 16 42 17 43 52 44 18 45
REMARK SMILES IDX 57 46 51 47 53 48 19 49 56 50 50 51 49 52 20 54 42 55 27 56
REMARK SMILES IDX 41 57 28 58 31 59 40 60 54 61 29 62 30 63 39 65 55 66 32 67
REMARK SMILES IDX 21 68 22 69 26 70 23 71 25 72 24 73 43 74 44 75 48 76 45 77
REMARK SMILES IDX 47 78 46 79 33 80 34 81 38 82 35 83 37 84 36 85
REMARK H PARENT 5 5 69 21 9 34 53 53 31 64
REMARK Flexibility Score: inf
ROOT
ATOM      1  C   UNL     1       3.450   1.144  -1.888  1.00  0.00     0.117 C 
ENDROOT
BRANCH   1   2
ATOM      2  N   UNL     1       2.440   0.439  -2.659  1.00  0.00    -0.354 N 
ATOM      3  C   UNL     1       1.149   0.107  -2.348  1.00  0.00     0.244 C 
ATOM      4  O   UNL     1       0.523  -0.525  -3.202  1.00  0.00    -0.273 OA
ATOM      5  H   UNL     1       2.734   0.152  -3.554  1.00  0.00     0.163 HD
BRANCH   3   6
ATOM      6  C   UNL     1       0.569   0.471  -0.986  1.00  0.00     0.193 C 
ATOM      7  C   UNL     1       0.958  -0.560   0.070  1.00  0.00     0.044 C 
BRANCH   6   8
ATOM      8  N   UNL     1      -0.887   0.635  -1.036  1.00  0.00    -0.260 N 
ATOM      9  C   UNL     1      -1.828  -0.333  -1.244  1.00  0.00     0.110 A 
ATOM     10  N   UNL     1      -1.421   1.816  -0.651  1.00  0.00    -0.167 NA
ATOM     11  C   UNL     1      -3.038   0.240  -0.942  1.00  0.00     0.056 A 
ATOM     12  C   UNL     1      -2.747   1.583  -0.588  1.00  0.00     0.150 A 
BRANCH  12  13
ATOM     13  C   UNL     1      -3.724   2.575  -0.104  1.00  0.00     0.274 C 
ATOM     14  O   UNL     1      -4.630   2.223   0.654  1.00  0.00    -0.267 OA
ATOM     15  N   UNL     1      -3.615   3.904  -0.538  1.00  0.00    -0.326 N 
ATOM     16  C   UNL     1      -4.586   4.854  -0.006  1.00  0.00     0.181 C 
ATOM     17  C   UNL     1      -2.978   4.279  -1.803  1.00  0.00     0.181 C 
ATOM     18  C   UNL     1      -4.144   6.323  -0.118  1.00  0.00     0.284 C 
ATOM     19  C   UNL     1      -2.574   5.763  -1.877  1.00  0.00     0.284 C 
ATOM     20  N   UNL     1      -3.567   6.730  -1.402  1.00  0.00    -0.328 N 
ATOM     21  H   UNL     1      -3.044   7.584  -1.210  1.00  0.00     0.348 HD
BRANCH  20  22
ATOM     22  C   UNL     1      -4.497   7.260  -2.398  1.00  0.00     0.299 C 
BRANCH  22  23
ATOM     23  C   UNL     1      -5.484   6.306  -3.028  1.00  0.00     0.009 A 
ATOM     24  C   UNL     1      -5.171   5.630  -4.220  1.00  0.00     0.010 A 
ATOM     25  C   UNL     1      -6.745   6.097  -2.452  1.00  0.00     0.048 A 
ATOM     26  C   UNL     1      -6.077   4.735  -4.796  1.00  0.00     0.004 A 
ATOM     27  C   UNL     1      -7.639   5.202  -3.032  1.00  0.00     0.123 A 
ATOM     28  C   UNL     1      -7.314   4.515  -4.195  1.00  0.00     0.039 A 
ATOM     29  F   UNL     1      -8.831   4.997  -2.456  1.00  0.00    -0.207 F 
ENDBRANCH  22  23
ENDBRANCH  20  22
ENDBRANCH  12  13
ENDBRANCH   6   8
ENDBRANCH   3   6
ENDBRANCH   1   2
BRANCH   1  30
ATOM     30  C   UNL     1       4.494   0.207  -1.282  1.00  0.00     0.042 C 
BRANCH  30  31
ATOM     31  C   UNL     1       5.276  -0.632  -2.290  1.00  0.00     0.118 C 
BRANCH  31  32
ATOM     32  N   UNL     1       6.148   0.161  -3.138  1.00  0.00    -0.352 N 
ATOM     33  C   UNL     1       7.449  -0.074  -3.518  1.00  0.00     0.251 C 
ATOM     34  H   UNL     1       5.749   0.988  -3.492  1.00  0.00     0.163 HD
ATOM     35  O   UNL     1       8.059   0.780  -4.144  1.00  0.00    -0.269 OA
BRANCH  33  36
ATOM     36  C   UNL     1       8.128  -1.340  -3.151  1.00  0.00     0.039 A 
ATOM     37  C   UNL     1       9.437  -1.270  -2.661  1.00  0.00     0.014 A 
ATOM     38  C   UNL     1       7.515  -2.584  -3.329  1.00  0.00     0.014 A 
ATOM     39  C   UNL     1      10.111  -2.439  -2.298  1.00  0.00     0.010 A 
ATOM     40  C   UNL     1       8.176  -3.750  -2.935  1.00  0.00     0.010 A 
ATOM     41  C   UNL     1       9.477  -3.685  -2.414  1.00  0.00    -0.014 A 
BRANCH  41  42
ATOM     42  C   UNL     1      10.166  -4.927  -1.987  1.00  0.00     0.031 A 
ATOM     43  C   UNL     1      10.680  -5.903  -3.005  1.00  0.00     0.074 A 
ATOM     44  C   UNL     1      10.295  -5.198  -0.674  1.00  0.00     0.049 A 
ATOM     45  N   UNL     1      11.255  -7.064  -2.814  1.00  0.00    -0.248 NA
ATOM     46  C   UNL     1      10.514  -5.534  -4.419  1.00  0.00     0.031 C 
ATOM     47  C   UNL     1       9.819  -4.349   0.419  1.00  0.00     0.029 A 
ATOM     48  N   UNL     1      10.863  -6.274  -0.041  1.00  0.00    -0.354 N 
ATOM     49  C   UNL     1      11.497  -7.576  -4.081  1.00  0.00     0.074 A 
ATOM     50  C   UNL     1      11.002  -6.604  -5.033  1.00  0.00     0.031 C 
ATOM     51  C   UNL     1      10.126  -4.932   1.590  1.00  0.00     0.029 A 
ATOM     52  C   UNL     1      10.803  -6.198   1.328  1.00  0.00     0.049 A 
ATOM     53  H   UNL     1      11.275  -7.027  -0.522  1.00  0.00     0.167 HD
ATOM     54  C   UNL     1      12.081  -8.749  -4.424  1.00  0.00     0.031 A 
ATOM     55  C   UNL     1      11.243  -7.053   2.269  1.00  0.00     0.031 A 
ATOM     56  C   UNL     1      12.600  -9.712  -3.493  1.00  0.00     0.049 A 
ATOM     57  C   UNL     1      11.923  -8.326   1.863  1.00  0.00     0.074 A 
ATOM     58  C   UNL     1      13.237 -10.914  -3.757  1.00  0.00     0.029 A 
ATOM     59  N   UNL     1      12.550  -9.580  -2.116  1.00  0.00    -0.354 N 
ATOM     60  N   UNL     1      12.159  -8.786   0.660  1.00  0.00    -0.248 NA
ATOM     61  C   UNL     1      12.401  -9.195   2.949  1.00  0.00     0.031 C 
ATOM     62  C   UNL     1      13.564 -11.514  -2.535  1.00  0.00     0.029 A 
ATOM     63  C   UNL     1      13.143 -10.678  -1.515  1.00  0.00     0.049 A 
ATOM     64  H   UNL     1      12.152  -8.819  -1.635  1.00  0.00     0.167 HD
ATOM     65  C   UNL     1      12.818  -9.993   0.841  1.00  0.00     0.074 A 
ATOM     66  C   UNL     1      12.953 -10.192   2.270  1.00  0.00     0.031 C 
ATOM     67  C   UNL     1      13.270 -10.860  -0.095  1.00  0.00     0.031 A 
BRANCH  54  68
ATOM     68  C   UNL     1      12.177  -9.056  -5.887  1.00  0.00    -0.014 A 
ATOM     69  C   UNL     1      13.207  -8.511  -6.668  1.00  0.00     0.009 A 
ATOM     70  C   UNL     1      11.242  -9.915  -6.483  1.00  0.00     0.009 A 
ATOM     71  C   UNL     1      13.285  -8.806  -8.031  1.00  0.00     0.001 A 
ATOM     72  C   UNL     1      11.330 -10.216  -7.843  1.00  0.00     0.001 A 
ATOM     73  C   UNL     1      12.348  -9.657  -8.616  1.00  0.00     0.000 A 
ENDBRANCH  54  68
BRANCH  55  74
ATOM     74  C   UNL     1      11.061  -6.725   3.701  1.00  0.00    -0.014 A 
ATOM     75  C   UNL     1      12.111  -6.149   4.431  1.00  0.00     0.009 A 
ATOM     76  C   UNL     1       9.840  -6.982   4.339  1.00  0.00     0.009 A 
ATOM     77  C   UNL     1      11.943  -5.847   5.783  1.00  0.00     0.001 A 
ATOM     78  C   UNL     1       9.673  -6.670   5.689  1.00  0.00     0.001 A 
ATOM     79  C   UNL     1      10.725  -6.106   6.411  1.00  0.00     0.000 A 
ENDBRANCH  55  74
BRANCH  67  80
ATOM     80  C   UNL     1      13.961 -12.092   0.400  1.00  0.00    -0.014 A 
ATOM     81  C   UNL     1      13.222 -13.216   0.799  1.00  0.00     0.009 A 
ATOM     82  C   UNL     1      15.362 -12.138   0.449  1.00  0.00     0.009 A 
ATOM     83  C   UNL     1      13.876 -14.361   1.256  1.00  0.00     0.001 A 
ATOM     84  C   UNL     1      16.013 -13.288   0.899  1.00  0.00     0.001 A 
ATOM     85  C   UNL     1      15.270 -14.396   1.305  1.00  0.00     0.000 A 
ENDBRANCH  67  80
ENDBRANCH  41  42
ENDBRANCH  33  36
ENDBRANCH  31  32
ENDBRANCH  30  31
ENDBRANCH   1  30
TORSDOF 14
