REMARK SMILES CN(Cc1csc(Br)c1)c1cccc(F)c1C(=O)NCCCNC(=O)c1ccc(-c2c3nc(c(-c4ccccc4)c4ccc([nH]4)c(-c4ccccc4)c4nc(c(-c5ccccc5)c5ccc2[nH]5)C=C4)C=C3)cc1
REMARK SMILES IDX 20 1 19 2 17 3 18 4 16 6 10 7 11 8 12 9 14 10 13 11 15 12
REMARK SMILES IDX 2 13 1 14 3 15 4 16 5 17 9 18 6 19 7 20 8 21 21 22 22 23
REMARK SMILES IDX 23 24 24 25 25 27 26 28 27 29 73 30 28 31 72 32 29 33 30 34
REMARK SMILES IDX 31 35 66 36 32 37 71 38 65 39 67 40 33 41 70 42 64 43 63 44
REMARK SMILES IDX 34 46 56 47 41 48 55 49 42 50 45 51 54 52 68 53 43 54 44 55
REMARK SMILES IDX 53 57 69 58 46 59 35 60 36 61 40 62 37 63 39 64 38 65 57 66
REMARK SMILES IDX 58 67 62 68 59 69 61 70 60 71 47 72 48 73 52 74 49 75 51 76
REMARK SMILES IDX 50 77
REMARK H PARENT 19 5 23 26 67 45 45 56
REMARK Flexibility Score: inf
ROOT
ATOM      1  C   UNL     1      -2.303  -5.675  -0.681  1.00  0.00     0.118 C 
ENDROOT
BRANCH   1   2
ATOM      2  N   UNL     1      -2.490  -4.233  -0.667  1.00  0.00    -0.352 N 
ATOM      3  C   UNL     1      -1.603  -3.209  -0.953  1.00  0.00     0.256 C 
ATOM      4  O   UNL     1      -2.069  -2.107  -1.243  1.00  0.00    -0.269 OA
ATOM      5  H   UNL     1      -3.394  -3.937  -0.414  1.00  0.00     0.163 HD
BRANCH   3   6
ATOM      6  C   UNL     1      -0.132  -3.405  -0.870  1.00  0.00     0.098 A 
ATOM      7  C   UNL     1       0.688  -2.526  -0.121  1.00  0.00     0.053 A 
ATOM      8  C   UNL     1       2.062  -2.833  -0.011  1.00  0.00     0.027 A 
ATOM      9  C   UNL     1       2.625  -3.934  -0.656  1.00  0.00     0.005 A 
ATOM     10  C   UNL     1       0.471  -4.437  -1.596  1.00  0.00     0.138 A 
ATOM     11  C   UNL     1       1.828  -4.724  -1.472  1.00  0.00     0.040 A 
ATOM     12  F   UNL     1      -0.237  -5.179  -2.463  1.00  0.00    -0.206 F 
BRANCH   7  13
ATOM     13  N   UNL     1       0.229  -1.330   0.432  1.00  0.00    -0.370 N 
ATOM     14  C   UNL     1       0.732  -0.110  -0.187  1.00  0.00     0.144 C 
BRANCH  13  15
ATOM     15  C   UNL     1      -0.181  -1.286   1.832  1.00  0.00     0.152 C 
BRANCH  15  16
ATOM     16  C   UNL     1      -1.579  -1.749   2.142  1.00  0.00    -0.017 A 
ATOM     17  C   UNL     1      -2.731  -1.054   1.807  1.00  0.00     0.071 A 
ATOM     18  C   UNL     1      -1.904  -2.965   2.833  1.00  0.00     0.033 A 
ATOM     19  S   UNL     1      -4.155  -1.836   2.345  1.00  0.00    -0.136 S 
ATOM     20  C   UNL     1      -3.255  -3.095   3.027  1.00  0.00     0.070 A 
ATOM     21  Br  UNL     1      -4.031  -4.515   3.972  1.00  0.00    -0.039 Br
ENDBRANCH  15  16
ENDBRANCH  13  15
ENDBRANCH   7  13
ENDBRANCH   3   6
ENDBRANCH   1   2
BRANCH   1  22
ATOM     22  C   UNL     1      -2.936  -6.441   0.469  1.00  0.00     0.042 C 
BRANCH  22  23
ATOM     23  C   UNL     1      -4.428  -6.249   0.682  1.00  0.00     0.118 C 
BRANCH  23  24
ATOM     24  N   UNL     1      -5.262  -6.660  -0.435  1.00  0.00    -0.352 N 
ATOM     25  C   UNL     1      -6.200  -7.652  -0.574  1.00  0.00     0.251 C 
ATOM     26  H   UNL     1      -5.128  -6.123  -1.249  1.00  0.00     0.163 HD
ATOM     27  O   UNL     1      -6.749  -7.791  -1.669  1.00  0.00    -0.269 OA
BRANCH  25  28
ATOM     28  C   UNL     1      -6.543  -8.594   0.522  1.00  0.00     0.039 A 
ATOM     29  C   UNL     1      -6.846  -9.917   0.175  1.00  0.00     0.014 A 
ATOM     30  C   UNL     1      -6.624  -8.213   1.862  1.00  0.00     0.014 A 
ATOM     31  C   UNL     1      -7.163 -10.853   1.164  1.00  0.00     0.010 A 
ATOM     32  C   UNL     1      -6.828  -9.171   2.857  1.00  0.00     0.010 A 
ATOM     33  C   UNL     1      -7.120 -10.500   2.522  1.00  0.00    -0.014 A 
BRANCH  33  34
ATOM     34  C   UNL     1      -7.415 -11.508   3.576  1.00  0.00     0.031 A 
ATOM     35  C   UNL     1      -8.594 -11.334   4.499  1.00  0.00     0.074 A 
ATOM     36  C   UNL     1      -6.618 -12.588   3.711  1.00  0.00     0.049 A 
ATOM     37  N   UNL     1      -9.039 -12.140   5.433  1.00  0.00    -0.248 NA
ATOM     38  C   UNL     1      -9.362 -10.086   4.375  1.00  0.00     0.031 C 
ATOM     39  C   UNL     1      -5.417 -12.861   2.917  1.00  0.00     0.029 A 
ATOM     40  N   UNL     1      -6.710 -13.670   4.553  1.00  0.00    -0.354 N 
ATOM     41  C   UNL     1     -10.128 -11.493   6.004  1.00  0.00     0.074 A 
ATOM     42  C   UNL     1     -10.235 -10.202   5.364  1.00  0.00     0.031 C 
ATOM     43  C   UNL     1      -4.918 -14.056   3.271  1.00  0.00     0.029 A 
ATOM     44  C   UNL     1      -5.738 -14.618   4.339  1.00  0.00     0.049 A 
ATOM     45  H   UNL     1      -7.405 -13.757   5.244  1.00  0.00     0.167 HD
ATOM     46  C   UNL     1     -10.985 -11.939   6.955  1.00  0.00     0.031 A 
ATOM     47  C   UNL     1      -5.537 -15.814   4.925  1.00  0.00     0.031 A 
ATOM     48  C   UNL     1     -10.884 -13.223   7.598  1.00  0.00     0.049 A 
ATOM     49  C   UNL     1      -6.493 -16.282   5.986  1.00  0.00     0.074 A 
ATOM     50  C   UNL     1     -11.724 -13.783   8.545  1.00  0.00     0.029 A 
ATOM     51  N   UNL     1      -9.878 -14.146   7.360  1.00  0.00    -0.354 N 
ATOM     52  N   UNL     1      -7.560 -15.688   6.462  1.00  0.00    -0.248 NA
ATOM     53  C   UNL     1      -6.227 -17.603   6.574  1.00  0.00     0.031 C 
ATOM     54  C   UNL     1     -11.195 -15.022   8.921  1.00  0.00     0.029 A 
ATOM     55  C   UNL     1     -10.064 -15.264   8.157  1.00  0.00     0.049 A 
ATOM     56  H   UNL     1      -9.140 -14.025   6.720  1.00  0.00     0.167 HD
ATOM     57  C   UNL     1      -8.113 -16.576   7.377  1.00  0.00     0.074 A 
ATOM     58  C   UNL     1      -7.273 -17.756   7.372  1.00  0.00     0.031 C 
ATOM     59  C   UNL     1      -9.219 -16.430   8.147  1.00  0.00     0.031 A 
BRANCH  46  60
ATOM     60  C   UNL     1     -12.107 -11.018   7.357  1.00  0.00    -0.014 A 
ATOM     61  C   UNL     1     -13.150 -10.707   6.468  1.00  0.00     0.009 A 
ATOM     62  C   UNL     1     -12.134 -10.467   8.648  1.00  0.00     0.009 A 
ATOM     63  C   UNL     1     -14.167  -9.829   6.846  1.00  0.00     0.001 A 
ATOM     64  C   UNL     1     -13.171  -9.616   9.035  1.00  0.00     0.001 A 
ATOM     65  C   UNL     1     -14.179  -9.287   8.130  1.00  0.00     0.000 A 
ENDBRANCH  46  60
BRANCH  47  66
ATOM     66  C   UNL     1      -4.403 -16.677   4.496  1.00  0.00    -0.014 A 
ATOM     67  C   UNL     1      -4.641 -17.879   3.811  1.00  0.00     0.009 A 
ATOM     68  C   UNL     1      -3.079 -16.314   4.785  1.00  0.00     0.009 A 
ATOM     69  C   UNL     1      -3.579 -18.716   3.456  1.00  0.00     0.001 A 
ATOM     70  C   UNL     1      -2.017 -17.136   4.400  1.00  0.00     0.001 A 
ATOM     71  C   UNL     1      -2.269 -18.341   3.747  1.00  0.00     0.000 A 
ENDBRANCH  47  66
BRANCH  59  72
ATOM     72  C   UNL     1      -9.610 -17.599   9.012  1.00  0.00    -0.014 A 
ATOM     73  C   UNL     1      -8.837 -17.991  10.116  1.00  0.00     0.009 A 
ATOM     74  C   UNL     1     -10.780 -18.316   8.715  1.00  0.00     0.009 A 
ATOM     75  C   UNL     1      -9.198 -19.110  10.870  1.00  0.00     0.001 A 
ATOM     76  C   UNL     1     -11.159 -19.411   9.492  1.00  0.00     0.001 A 
ATOM     77  C   UNL     1     -10.360 -19.817  10.559  1.00  0.00     0.000 A 
ENDBRANCH  59  72
ENDBRANCH  33  34
ENDBRANCH  25  28
ENDBRANCH  23  24
ENDBRANCH  22  23
ENDBRANCH   1  22
TORSDOF 13
