REMARK SMILES Cc1nc(NC(=O)[C@@H]2CCC[C@@H](C(=O)NCCCNC(=O)c3ccc(-c4c5nc(c(-c6ccccc6)c6ccc([nH]6)c(-c6ccccc6)c6nc(c(-c7ccccc7)c7ccc4[nH]7)C=C6)C=C5)cc3)C2)ccc1Br
REMARK SMILES IDX 17 1 16 2 15 3 13 4 14 5 12 7 8 8 9 9 70 10 10 11 11 12 6 13
REMARK SMILES IDX 5 14 7 16 4 17 1 18 2 19 3 20 73 21 72 22 74 23 71 24 18 25
REMARK SMILES IDX 19 26 20 27 21 29 22 30 23 31 69 32 24 33 68 34 25 35 26 36
REMARK SMILES IDX 27 37 62 38 28 39 67 40 61 41 63 42 29 43 66 44 60 45 59 46
REMARK SMILES IDX 30 48 52 49 37 50 51 51 38 52 41 53 50 54 64 55 39 56 40 57
REMARK SMILES IDX 49 59 65 60 42 61 31 62 32 63 36 64 33 65 35 66 34 67 53 68
REMARK SMILES IDX 54 69 58 70 55 71 57 72 56 73 43 74 44 75 48 76 45 77 47 78
REMARK SMILES IDX 46 79
REMARK H PARENT 15 6 5 15 19 28 63 47 41 58
REMARK Flexibility Score: inf
ROOT
ATOM      1  C   UNL     1      -3.970  -5.288   6.850  1.00  0.00     0.042 C 
ENDROOT
BRANCH   1   2
ATOM      2  C   UNL     1      -3.438  -4.094   6.077  1.00  0.00     0.117 C 
BRANCH   2   3
ATOM      3  N   UNL     1      -3.869  -2.835   6.664  1.00  0.00    -0.356 N 
ATOM      4  C   UNL     1      -3.296  -1.882   7.434  1.00  0.00     0.223 C 
ATOM      5  O   UNL     1      -4.051  -0.951   7.741  1.00  0.00    -0.275 OA
ATOM      6  H   UNL     1      -4.806  -2.625   6.448  1.00  0.00     0.163 HD
BRANCH   4   7
ATOM      7  C   UNL     1      -1.851  -1.912   7.973  1.00  0.00     0.079 C 
ATOM      8  C   UNL     1      -0.635  -2.148   5.798  1.00  0.00     0.079 C 
ATOM      9  C   UNL     1       0.042  -0.784   5.972  1.00  0.00     0.013 C 
ATOM     10  C   UNL     1      -0.801  -2.730   7.214  1.00  0.00     0.027 C 
ATOM     11  C   UNL     1      -0.908   0.144   6.733  1.00  0.00     0.002 C 
ATOM     12  C   UNL     1      -1.326  -0.453   8.086  1.00  0.00     0.013 C 
BRANCH   8  13
ATOM     13  C   UNL     1       0.033  -3.087   4.803  1.00  0.00     0.228 C 
ATOM     14  N   UNL     1       0.141  -2.761   3.482  1.00  0.00    -0.310 N 
ATOM     15  H   UNL     1       0.576  -3.463   2.946  1.00  0.00     0.171 HD
ATOM     16  O   UNL     1       0.473  -4.180   5.171  1.00  0.00    -0.274 OA
BRANCH  14  17
ATOM     17  C   UNL     1      -0.233  -1.648   2.727  1.00  0.00     0.132 A 
ATOM     18  C   UNL     1       1.428  -0.133  -0.166  1.00  0.00     0.068 C 
ATOM     19  C   UNL     1       0.472  -0.269   0.980  1.00  0.00     0.054 A 
ATOM     20  N   UNL     1       0.551  -1.456   1.648  1.00  0.00    -0.235 NA
ATOM     21  C   UNL     1      -0.388   0.748   1.384  1.00  0.00     0.039 A 
ATOM     22  C   UNL     1      -1.290   0.474   2.405  1.00  0.00     0.021 A 
ATOM     23  Br  UNL     1      -0.382   2.491   0.649  1.00  0.00    -0.049 Br
ATOM     24  C   UNL     1      -1.239  -0.757   3.055  1.00  0.00     0.048 A 
ENDBRANCH  14  17
ENDBRANCH   8  13
ENDBRANCH   4   7
ENDBRANCH   2   3
ENDBRANCH   1   2
BRANCH   1  25
ATOM     25  C   UNL     1      -5.463  -5.484   6.615  1.00  0.00     0.118 C 
BRANCH  25  26
ATOM     26  N   UNL     1      -5.741  -5.866   5.233  1.00  0.00    -0.352 N 
ATOM     27  C   UNL     1      -5.976  -7.113   4.713  1.00  0.00     0.251 C 
ATOM     28  H   UNL     1      -5.763  -5.125   4.584  1.00  0.00     0.163 HD
ATOM     29  O   UNL     1      -5.905  -7.311   3.503  1.00  0.00    -0.269 OA
BRANCH  27  30
ATOM     30  C   UNL     1      -6.324  -8.214   5.626  1.00  0.00     0.039 A 
ATOM     31  C   UNL     1      -5.688  -9.449   5.496  1.00  0.00     0.014 A 
ATOM     32  C   UNL     1      -7.300  -8.011   6.606  1.00  0.00     0.014 A 
ATOM     33  C   UNL     1      -6.000 -10.475   6.388  1.00  0.00     0.010 A 
ATOM     34  C   UNL     1      -7.554  -9.005   7.540  1.00  0.00     0.010 A 
ATOM     35  C   UNL     1      -6.923 -10.251   7.423  1.00  0.00    -0.014 A 
BRANCH  35  36
ATOM     36  C   UNL     1      -7.311 -11.334   8.352  1.00  0.00     0.031 A 
ATOM     37  C   UNL     1      -8.706 -11.887   8.284  1.00  0.00     0.074 A 
ATOM     38  C   UNL     1      -6.436 -11.782   9.270  1.00  0.00     0.049 A 
ATOM     39  N   UNL     1      -9.266 -12.796   9.039  1.00  0.00    -0.248 NA
ATOM     40  C   UNL     1      -9.596 -11.337   7.245  1.00  0.00     0.031 C 
ATOM     41  C   UNL     1      -5.065 -11.299   9.445  1.00  0.00     0.029 A 
ATOM     42  N   UNL     1      -6.574 -12.749  10.233  1.00  0.00    -0.354 N 
ATOM     43  C   UNL     1     -10.566 -12.919   8.570  1.00  0.00     0.074 A 
ATOM     44  C   UNL     1     -10.736 -11.960   7.504  1.00  0.00     0.031 C 
ATOM     45  C   UNL     1      -4.480 -11.990  10.437  1.00  0.00     0.029 A 
ATOM     46  C   UNL     1      -5.442 -12.943  10.986  1.00  0.00     0.049 A 
ATOM     47  H   UNL     1      -7.406 -13.257  10.371  1.00  0.00     0.167 HD
ATOM     48  C   UNL     1     -11.525 -13.781   8.973  1.00  0.00     0.031 A 
ATOM     49  C   UNL     1      -5.208 -13.794  12.003  1.00  0.00     0.031 A 
ATOM     50  C   UNL     1     -11.344 -14.759  10.006  1.00  0.00     0.049 A 
ATOM     51  C   UNL     1      -6.300 -14.728  12.445  1.00  0.00     0.074 A 
ATOM     52  C   UNL     1     -12.242 -15.712  10.447  1.00  0.00     0.029 A 
ATOM     53  N   UNL     1     -10.185 -14.914  10.747  1.00  0.00    -0.354 N 
ATOM     54  N   UNL     1      -7.510 -14.864  11.960  1.00  0.00    -0.248 NA
ATOM     55  C   UNL     1      -5.997 -15.627  13.569  1.00  0.00     0.031 C 
ATOM     56  C   UNL     1     -11.639 -16.425  11.484  1.00  0.00     0.029 A 
ATOM     57  C   UNL     1     -10.352 -15.939  11.658  1.00  0.00     0.049 A 
ATOM     58  H   UNL     1      -9.367 -14.377  10.641  1.00  0.00     0.167 HD
ATOM     59  C   UNL     1      -8.106 -15.871  12.706  1.00  0.00     0.074 A 
ATOM     60  C   UNL     1      -7.124 -16.321  13.670  1.00  0.00     0.031 C 
ATOM     61  C   UNL     1      -9.358 -16.375  12.601  1.00  0.00     0.031 A 
BRANCH  48  62
ATOM     62  C   UNL     1     -12.849 -13.741   8.273  1.00  0.00    -0.014 A 
ATOM     63  C   UNL     1     -12.997 -14.309   6.999  1.00  0.00     0.009 A 
ATOM     64  C   UNL     1     -13.977 -13.234   8.934  1.00  0.00     0.009 A 
ATOM     65  C   UNL     1     -14.254 -14.371   6.398  1.00  0.00     0.001 A 
ATOM     66  C   UNL     1     -15.236 -13.315   8.338  1.00  0.00     0.001 A 
ATOM     67  C   UNL     1     -15.374 -13.883   7.072  1.00  0.00     0.000 A 
ENDBRANCH  48  62
BRANCH  49  68
ATOM     68  C   UNL     1      -3.875 -13.814  12.656  1.00  0.00    -0.014 A 
ATOM     69  C   UNL     1      -2.985 -14.872  12.418  1.00  0.00     0.009 A 
ATOM     70  C   UNL     1      -3.475 -12.766  13.500  1.00  0.00     0.009 A 
ATOM     71  C   UNL     1      -1.726 -14.886  13.023  1.00  0.00     0.001 A 
ATOM     72  C   UNL     1      -2.208 -12.773  14.087  1.00  0.00     0.001 A 
ATOM     73  C   UNL     1      -1.336 -13.835  13.852  1.00  0.00     0.000 A 
ENDBRANCH  49  68
BRANCH  61  74
ATOM     74  C   UNL     1      -9.760 -17.475  13.538  1.00  0.00    -0.014 A 
ATOM     75  C   UNL     1     -10.148 -17.182  14.853  1.00  0.00     0.009 A 
ATOM     76  C   UNL     1      -9.903 -18.784  13.052  1.00  0.00     0.009 A 
ATOM     77  C   UNL     1     -10.679 -18.184  15.666  1.00  0.00     0.001 A 
ATOM     78  C   UNL     1     -10.454 -19.778  13.861  1.00  0.00     0.001 A 
ATOM     79  C   UNL     1     -10.842 -19.477  15.166  1.00  0.00     0.000 A 
ENDBRANCH  61  74
ENDBRANCH  35  36
ENDBRANCH  27  30
ENDBRANCH  25  26
ENDBRANCH   1  25
TORSDOF 12
