REMARK SMILES O=C(NCCCNC(=O)[C@H]1CSCN1C(=O)c1cnc2ccccn2c1=O)c1ccc(-c2c3nc(c(-c4ccccc4)c4ccc([nH]4)c(-c4ccccc4)c4nc(c(-c5ccccc5)c5ccc2[nH]5)C=C4)C=C3)cc1
REMARK SMILES IDX 5 1 4 2 3 3 1 4 2 5 28 7 29 8 75 9 30 10 74 11 31 12 32 13
REMARK SMILES IDX 33 14 68 15 34 16 73 17 67 18 69 19 35 20 72 21 66 22 65 23
REMARK SMILES IDX 36 25 58 26 43 27 57 28 44 29 47 30 56 31 70 32 45 33 46 34
REMARK SMILES IDX 55 36 71 37 48 38 37 39 38 40 42 41 39 42 41 43 40 44 59 45
REMARK SMILES IDX 60 46 64 47 61 48 63 49 62 50 49 51 50 52 54 53 51 54 53 55
REMARK SMILES IDX 52 56 6 57 7 58 8 59 9 61 10 62 11 63 14 64 12 65 13 66
REMARK SMILES IDX 15 67 16 68 17 69 18 70 26 71 19 72 25 73 27 74 20 75 24 76
REMARK SMILES IDX 21 77 23 78 22 79
REMARK H PARENT 3 6 69 24 47 35 7 60
REMARK Flexibility Score: inf
ROOT
ATOM      1  C   UNL     1       4.805   2.639  -0.556  1.00  0.00     0.042 C 
ENDROOT
BRANCH   1   2
ATOM      2  C   UNL     1       4.477   1.468   0.361  1.00  0.00     0.118 C 
BRANCH   2   3
ATOM      3  N   UNL     1       3.048   1.182   0.421  1.00  0.00    -0.352 N 
ATOM      4  O   UNL     1       1.129   0.070   0.035  1.00  0.00    -0.269 OA
ATOM      5  C   UNL     1       2.357   0.049   0.071  1.00  0.00     0.251 C 
ATOM      6  H   UNL     1       2.492   1.917   0.766  1.00  0.00     0.163 HD
BRANCH   5   7
ATOM      7  C   UNL     1       3.081  -1.192  -0.275  1.00  0.00     0.039 A 
ATOM      8  C   UNL     1       4.192  -1.600   0.464  1.00  0.00     0.014 A 
ATOM      9  C   UNL     1       2.619  -1.980  -1.334  1.00  0.00     0.014 A 
ATOM     10  C   UNL     1       4.926  -2.708   0.058  1.00  0.00     0.010 A 
ATOM     11  C   UNL     1       3.301  -3.150  -1.681  1.00  0.00     0.010 A 
ATOM     12  C   UNL     1       4.474  -3.511  -1.002  1.00  0.00    -0.014 A 
BRANCH  12  13
ATOM     13  C   UNL     1       5.197  -4.769  -1.309  1.00  0.00     0.031 A 
ATOM     14  C   UNL     1       5.895  -4.973  -2.624  1.00  0.00     0.074 A 
ATOM     15  C   UNL     1       5.237  -5.729  -0.363  1.00  0.00     0.049 A 
ATOM     16  N   UNL     1       6.591  -6.005  -3.030  1.00  0.00    -0.248 NA
ATOM     17  C   UNL     1       5.799  -3.888  -3.613  1.00  0.00     0.031 C 
ATOM     18  C   UNL     1       4.589  -5.647   0.950  1.00  0.00     0.029 A 
ATOM     19  N   UNL     1       5.863  -6.948  -0.347  1.00  0.00    -0.354 N 
ATOM     20  C   UNL     1       7.001  -5.704  -4.323  1.00  0.00     0.074 A 
ATOM     21  C   UNL     1       6.459  -4.401  -4.644  1.00  0.00     0.031 C 
ATOM     22  C   UNL     1       4.891  -6.744   1.659  1.00  0.00     0.029 A 
ATOM     23  C   UNL     1       5.692  -7.635   0.831  1.00  0.00     0.049 A 
ATOM     24  H   UNL     1       6.384  -7.298  -1.105  1.00  0.00     0.167 HD
ATOM     25  C   UNL     1       7.762  -6.448  -5.161  1.00  0.00     0.031 A 
ATOM     26  C   UNL     1       6.112  -8.858   1.200  1.00  0.00     0.031 A 
ATOM     27  C   UNL     1       8.301  -7.744  -4.835  1.00  0.00     0.049 A 
ATOM     28  C   UNL     1       6.919  -9.671   0.232  1.00  0.00     0.074 A 
ATOM     29  C   UNL     1       9.118  -8.554  -5.606  1.00  0.00     0.029 A 
ATOM     30  N   UNL     1       8.073  -8.421  -3.647  1.00  0.00    -0.354 N 
ATOM     31  N   UNL     1       7.339  -9.348  -0.968  1.00  0.00    -0.248 NA
ATOM     32  C   UNL     1       7.311 -11.017   0.668  1.00  0.00     0.031 C 
ATOM     33  C   UNL     1       9.334  -9.747  -4.909  1.00  0.00     0.029 A 
ATOM     34  C   UNL     1       8.705  -9.653  -3.679  1.00  0.00     0.049 A 
ATOM     35  H   UNL     1       7.541  -8.077  -2.894  1.00  0.00     0.167 HD
ATOM     36  C   UNL     1       8.060 -10.443  -1.421  1.00  0.00     0.074 A 
ATOM     37  C   UNL     1       8.044 -11.427  -0.357  1.00  0.00     0.031 C 
ATOM     38  C   UNL     1       8.676 -10.622  -2.614  1.00  0.00     0.031 A 
BRANCH  25  39
ATOM     39  C   UNL     1       8.046  -5.898  -6.532  1.00  0.00    -0.014 A 
ATOM     40  C   UNL     1       8.947  -4.840  -6.723  1.00  0.00     0.009 A 
ATOM     41  C   UNL     1       7.466  -6.508  -7.657  1.00  0.00     0.009 A 
ATOM     42  C   UNL     1       9.249  -4.393  -8.012  1.00  0.00     0.001 A 
ATOM     43  C   UNL     1       7.789  -6.075  -8.945  1.00  0.00     0.001 A 
ATOM     44  C   UNL     1       8.676  -5.016  -9.121  1.00  0.00     0.000 A 
ENDBRANCH  25  39
BRANCH  26  45
ATOM     45  C   UNL     1       5.746  -9.402   2.534  1.00  0.00    -0.014 A 
ATOM     46  C   UNL     1       6.727  -9.628   3.511  1.00  0.00     0.009 A 
ATOM     47  C   UNL     1       4.409  -9.712   2.830  1.00  0.00     0.009 A 
ATOM     48  C   UNL     1       6.379 -10.185   4.744  1.00  0.00     0.001 A 
ATOM     49  C   UNL     1       4.060 -10.235   4.075  1.00  0.00     0.001 A 
ATOM     50  C   UNL     1       5.047 -10.484   5.026  1.00  0.00     0.000 A 
ENDBRANCH  26  45
BRANCH  38  51
ATOM     51  C   UNL     1       9.408 -11.918  -2.814  1.00  0.00    -0.014 A 
ATOM     52  C   UNL     1       8.716 -13.127  -2.985  1.00  0.00     0.009 A 
ATOM     53  C   UNL     1      10.811 -11.925  -2.853  1.00  0.00     0.009 A 
ATOM     54  C   UNL     1       9.416 -14.323  -3.151  1.00  0.00     0.001 A 
ATOM     55  C   UNL     1      11.508 -13.117  -3.052  1.00  0.00     0.001 A 
ATOM     56  C   UNL     1      10.810 -14.316  -3.189  1.00  0.00     0.000 A 
ENDBRANCH  38  51
ENDBRANCH  12  13
ENDBRANCH   5   7
ENDBRANCH   2   3
ENDBRANCH   1   2
BRANCH   1  57
ATOM     57  C   UNL     1       4.209   3.959  -0.096  1.00  0.00     0.117 C 
BRANCH  57  58
ATOM     58  N   UNL     1       4.739   4.393   1.185  1.00  0.00    -0.354 N 
ATOM     59  C   UNL     1       5.646   5.384   1.458  1.00  0.00     0.243 C 
ATOM     60  H   UNL     1       4.398   3.905   1.969  1.00  0.00     0.163 HD
ATOM     61  O   UNL     1       5.922   5.605   2.637  1.00  0.00    -0.273 OA
BRANCH  59  62
ATOM     62  C   UNL     1       6.202   6.212   0.281  1.00  0.00     0.185 C 
ATOM     63  C   UNL     1       5.096   7.165  -0.189  1.00  0.00     0.106 C 
ATOM     64  N   UNL     1       7.420   6.962   0.610  1.00  0.00    -0.316 N 
ATOM     65  S   UNL     1       5.702   8.851  -0.016  1.00  0.00    -0.138 SA
ATOM     66  C   UNL     1       7.406   8.345   0.192  1.00  0.00     0.190 C 
BRANCH  64  67
ATOM     67  C   UNL     1       8.559   6.257   0.963  1.00  0.00     0.262 C 
ATOM     68  O   UNL     1       8.599   5.026   0.902  1.00  0.00    -0.269 OA
BRANCH  67  69
ATOM     69  C   UNL     1       9.783   7.016   1.318  1.00  0.00     0.124 A 
ATOM     70  C   UNL     1      10.931   6.663   0.726  1.00  0.00     0.133 A 
ATOM     71  C   UNL     1       9.839   8.123   2.295  1.00  0.00     0.270 A 
ATOM     72  N   UNL     1      12.128   7.312   0.869  1.00  0.00    -0.237 NA
ATOM     73  N   UNL     1      11.037   8.832   2.331  1.00  0.00    -0.267 N 
ATOM     74  O   UNL     1       8.863   8.390   2.995  1.00  0.00    -0.268 OA
ATOM     75  C   UNL     1      12.141   8.367   1.625  1.00  0.00     0.139 A 
ATOM     76  C   UNL     1      11.114   9.991   3.096  1.00  0.00     0.096 A 
ATOM     77  C   UNL     1      13.401   9.151   1.750  1.00  0.00     0.048 A 
ATOM     78  C   UNL     1      12.240  10.710   3.176  1.00  0.00     0.019 A 
ATOM     79  C   UNL     1      13.422  10.271   2.483  1.00  0.00     0.005 A 
ENDBRANCH  67  69
ENDBRANCH  64  67
ENDBRANCH  59  62
ENDBRANCH  57  58
ENDBRANCH   1  57
TORSDOF 12
