REMARK SMILES Cc1onc(-c2ccccc2Cl)c1C(=O)N1CCCC[C@@H]1C(=O)NCCCNC(=O)c1ccc(-c2c3nc(c(-c4ccccc4)c4ccc([nH]4)c(-c4ccccc4)c4nc(c(-c5ccccc5)c5ccc2[nH]5)C=C4)C=C3)cc1
REMARK SMILES IDX 25 1 24 2 22 3 23 4 21 6 16 7 17 8 18 9 20 10 19 11 14 12
REMARK SMILES IDX 15 13 13 14 1 15 2 16 3 17 4 18 5 19 6 20 7 21 11 22 8 23
REMARK SMILES IDX 10 24 12 25 9 26 26 27 27 28 28 29 29 30 30 32 31 33 32 34
REMARK SMILES IDX 78 35 33 36 77 37 34 38 35 39 36 40 71 41 37 42 76 43 70 44
REMARK SMILES IDX 72 45 38 46 75 47 69 48 68 49 39 51 61 52 46 53 60 54 47 55
REMARK SMILES IDX 50 56 59 57 73 58 48 59 49 60 58 62 74 63 51 64 40 65 41 66
REMARK SMILES IDX 45 67 42 68 44 69 43 70 62 71 63 72 67 73 64 74 66 75 65 76
REMARK SMILES IDX 52 77 53 78 57 79 54 80 56 81 55 82
REMARK H PARENT 24 5 28 31 72 50 50 61
REMARK Flexibility Score: inf
ROOT
ATOM      1  C   UNL     1       0.309  -3.965   2.448  1.00  0.00     0.117 C 
ENDROOT
BRANCH   1   2
ATOM      2  N   UNL     1       0.816  -2.628   2.714  1.00  0.00    -0.354 N 
ATOM      3  C   UNL     1       1.889  -1.981   2.183  1.00  0.00     0.242 C 
ATOM      4  O   UNL     1       2.289  -0.954   2.737  1.00  0.00    -0.273 OA
ATOM      5  H   UNL     1       0.304  -2.112   3.378  1.00  0.00     0.163 HD
BRANCH   3   6
ATOM      6  C   UNL     1       2.656  -2.580   0.994  1.00  0.00     0.174 C 
ATOM      7  N   UNL     1       1.792  -3.028  -0.129  1.00  0.00    -0.326 N 
ATOM      8  C   UNL     1       2.427  -3.911  -1.105  1.00  0.00     0.120 C 
ATOM      9  C   UNL     1       3.081  -5.117  -0.457  1.00  0.00     0.022 C 
ATOM     10  C   UNL     1       3.531  -3.726   1.579  1.00  0.00     0.035 C 
ATOM     11  C   UNL     1       4.134  -4.661   0.539  1.00  0.00     0.004 C 
BRANCH   7  12
ATOM     12  C   UNL     1       0.533  -2.520  -0.510  1.00  0.00     0.260 C 
ATOM     13  O   UNL     1      -0.229  -3.250  -1.147  1.00  0.00    -0.269 OA
BRANCH  12  14
ATOM     14  C   UNL     1       0.100  -1.165  -0.201  1.00  0.00     0.110 A 
ATOM     15  C   UNL     1       2.228   0.399  -0.451  1.00  0.00     0.092 C 
ATOM     16  C   UNL     1       0.828   0.010  -0.206  1.00  0.00     0.147 A 
ATOM     17  O   UNL     1      -0.003   1.062   0.016  1.00  0.00    -0.360 OA
ATOM     18  N   UNL     1      -1.300   0.626   0.119  1.00  0.00    -0.079 NA
ATOM     19  C   UNL     1      -1.256  -0.706  -0.019  1.00  0.00     0.128 A 
BRANCH  19  20
ATOM     20  C   UNL     1      -2.501  -1.468   0.011  1.00  0.00     0.023 A 
ATOM     21  C   UNL     1      -3.221  -1.658  -1.179  1.00  0.00     0.012 A 
ATOM     22  C   UNL     1      -3.026  -1.983   1.205  1.00  0.00     0.050 A 
ATOM     23  C   UNL     1      -4.402  -2.410  -1.183  1.00  0.00     0.001 A 
ATOM     24  C   UNL     1      -4.175  -2.782   1.190  1.00  0.00     0.021 A 
ATOM     25  Cl  UNL     1      -2.346  -1.585   2.744  1.00  0.00    -0.084 Cl
ATOM     26  C   UNL     1      -4.859  -2.999  -0.005  1.00  0.00     0.002 A 
ENDBRANCH  19  20
ENDBRANCH  12  14
ENDBRANCH   7  12
ENDBRANCH   3   6
ENDBRANCH   1   2
BRANCH   1  27
ATOM     27  C   UNL     1       0.388  -4.836   3.693  1.00  0.00     0.042 C 
BRANCH  27  28
ATOM     28  C   UNL     1      -0.449  -4.320   4.853  1.00  0.00     0.118 C 
BRANCH  28  29
ATOM     29  N   UNL     1      -1.860  -4.214   4.519  1.00  0.00    -0.352 N 
ATOM     30  C   UNL     1      -2.962  -4.710   5.159  1.00  0.00     0.251 C 
ATOM     31  H   UNL     1      -2.054  -3.703   3.701  1.00  0.00     0.163 HD
ATOM     32  O   UNL     1      -4.066  -4.650   4.620  1.00  0.00    -0.269 OA
BRANCH  30  33
ATOM     33  C   UNL     1      -2.818  -5.336   6.486  1.00  0.00     0.039 A 
ATOM     34  C   UNL     1      -3.544  -6.494   6.766  1.00  0.00     0.014 A 
ATOM     35  C   UNL     1      -1.969  -4.784   7.450  1.00  0.00     0.014 A 
ATOM     36  C   UNL     1      -3.376  -7.127   7.995  1.00  0.00     0.010 A 
ATOM     37  C   UNL     1      -1.721  -5.474   8.629  1.00  0.00     0.010 A 
ATOM     38  C   UNL     1      -2.438  -6.641   8.922  1.00  0.00    -0.014 A 
BRANCH  38  39
ATOM     39  C   UNL     1      -2.215  -7.339  10.209  1.00  0.00     0.031 A 
ATOM     40  C   UNL     1      -2.528  -6.652  11.508  1.00  0.00     0.074 A 
ATOM     41  C   UNL     1      -1.708  -8.586  10.204  1.00  0.00     0.049 A 
ATOM     42  N   UNL     1      -2.449  -7.120  12.728  1.00  0.00    -0.248 NA
ATOM     43  C   UNL     1      -2.961  -5.247  11.432  1.00  0.00     0.031 C 
ATOM     44  C   UNL     1      -1.322  -9.339   9.007  1.00  0.00     0.029 A 
ATOM     45  N   UNL     1      -1.448  -9.448  11.237  1.00  0.00    -0.354 N 
ATOM     46  C   UNL     1      -2.814  -6.067  13.558  1.00  0.00     0.074 A 
ATOM     47  C   UNL     1      -3.040  -4.918  12.712  1.00  0.00     0.031 C 
ATOM     48  C   UNL     1      -0.942 -10.573   9.371  1.00  0.00     0.029 A 
ATOM     49  C   UNL     1      -1.014 -10.683  10.823  1.00  0.00     0.049 A 
ATOM     50  H   UNL     1      -1.563  -9.206  12.185  1.00  0.00     0.167 HD
ATOM     51  C   UNL     1      -2.975  -6.062  14.903  1.00  0.00     0.031 A 
ATOM     52  C   UNL     1      -0.724 -11.787  11.536  1.00  0.00     0.031 A 
ATOM     53  C   UNL     1      -2.739  -7.207  15.742  1.00  0.00     0.049 A 
ATOM     54  C   UNL     1      -0.878 -11.751  13.030  1.00  0.00     0.074 A 
ATOM     55  C   UNL     1      -2.913  -7.327  17.109  1.00  0.00     0.029 A 
ATOM     56  N   UNL     1      -2.265  -8.430  15.288  1.00  0.00    -0.354 N 
ATOM     57  N   UNL     1      -1.300 -10.773  13.795  1.00  0.00    -0.248 NA
ATOM     58  C   UNL     1      -0.528 -12.979  13.755  1.00  0.00     0.031 C 
ATOM     59  C   UNL     1      -2.484  -8.603  17.491  1.00  0.00     0.029 A 
ATOM     60  C   UNL     1      -2.112  -9.302  16.352  1.00  0.00     0.049 A 
ATOM     61  H   UNL     1      -2.068  -8.645  14.348  1.00  0.00     0.167 HD
ATOM     62  C   UNL     1      -1.301 -11.279  15.089  1.00  0.00     0.074 A 
ATOM     63  C   UNL     1      -0.849 -12.653  14.999  1.00  0.00     0.031 C 
ATOM     64  C   UNL     1      -1.653 -10.664  16.245  1.00  0.00     0.031 A 
BRANCH  51  65
ATOM     65  C   UNL     1      -3.409  -4.766  15.536  1.00  0.00    -0.014 A 
ATOM     66  C   UNL     1      -4.677  -4.216  15.282  1.00  0.00     0.009 A 
ATOM     67  C   UNL     1      -2.533  -4.077  16.389  1.00  0.00     0.009 A 
ATOM     68  C   UNL     1      -5.034  -2.976  15.818  1.00  0.00     0.001 A 
ATOM     69  C   UNL     1      -2.907  -2.857  16.955  1.00  0.00     0.001 A 
ATOM     70  C   UNL     1      -4.149  -2.299  16.656  1.00  0.00     0.000 A 
ENDBRANCH  51  65
BRANCH  52  71
ATOM     71  C   UNL     1      -0.316 -13.035  10.838  1.00  0.00    -0.014 A 
ATOM     72  C   UNL     1      -1.183 -14.138  10.801  1.00  0.00     0.009 A 
ATOM     73  C   UNL     1       0.927 -13.127  10.194  1.00  0.00     0.009 A 
ATOM     74  C   UNL     1      -0.804 -15.316  10.153  1.00  0.00     0.001 A 
ATOM     75  C   UNL     1       1.291 -14.296   9.522  1.00  0.00     0.001 A 
ATOM     76  C   UNL     1       0.430 -15.391   9.509  1.00  0.00     0.000 A 
ENDBRANCH  52  71
BRANCH  64  77
ATOM     77  C   UNL     1      -1.602 -11.489  17.502  1.00  0.00    -0.014 A 
ATOM     78  C   UNL     1      -0.383 -11.898  18.065  1.00  0.00     0.009 A 
ATOM     79  C   UNL     1      -2.799 -11.835  18.149  1.00  0.00     0.009 A 
ATOM     80  C   UNL     1      -0.367 -12.671  19.227  1.00  0.00     0.001 A 
ATOM     81  C   UNL     1      -2.779 -12.578  19.329  1.00  0.00     0.001 A 
ATOM     82  C   UNL     1      -1.564 -13.006  19.861  1.00  0.00     0.000 A 
ENDBRANCH  64  77
ENDBRANCH  38  39
ENDBRANCH  30  33
ENDBRANCH  28  29
ENDBRANCH  27  28
ENDBRANCH   1  27
TORSDOF 13
