REMARK SMILES CC(C)c1cc2c(cc1Cl)C=C(C(=O)NCCCNC(=O)c1ccc(-c3c4nc(c(-c5ccccc5)c5ccc([nH]5)c(-c5ccccc5)c5nc(c(-c6ccccc6)c6ccc3[nH]6)C=C5)C=C4)cc1)[C@@H](C(F)(F)F)O2
REMARK SMILES IDX 17 1 16 2 15 3 13 4 14 5 12 7 4 8 5 9 9 10 6 11 8 12 10 13
REMARK SMILES IDX 7 14 75 15 11 16 70 17 2 18 1 19 3 20 71 21 72 22 73 23
REMARK SMILES IDX 74 24 18 25 19 26 20 27 21 29 22 30 23 31 69 32 24 33 68 34
REMARK SMILES IDX 25 35 26 36 27 37 62 38 28 39 67 40 61 41 63 42 29 43 66 44
REMARK SMILES IDX 60 45 59 46 30 48 52 49 37 50 51 51 38 52 41 53 50 54 64 55
REMARK SMILES IDX 39 56 40 57 49 59 65 60 42 61 31 62 32 63 36 64 33 65 35 66
REMARK SMILES IDX 34 67 53 68 54 69 58 70 55 71 57 72 56 73 43 74 44 75 48 76
REMARK SMILES IDX 45 77 47 78 46 79
REMARK H PARENT 15 6 19 28 63 47 41 58
REMARK Flexibility Score: inf
ROOT
ATOM      1  C   UNL     1      -8.046  -5.887   0.921  1.00  0.00     0.042 C 
ENDROOT
BRANCH   1   2
ATOM      2  C   UNL     1      -7.802  -5.099  -0.356  1.00  0.00     0.118 C 
BRANCH   2   3
ATOM      3  N   UNL     1      -8.031  -3.676  -0.167  1.00  0.00    -0.352 N 
ATOM      4  C   UNL     1      -7.280  -2.558  -0.043  1.00  0.00     0.251 C 
ATOM      5  O   UNL     1      -7.919  -1.514   0.122  1.00  0.00    -0.270 OA
ATOM      6  H   UNL     1      -8.992  -3.470  -0.115  1.00  0.00     0.163 HD
BRANCH   4   7
ATOM      7  C   UNL     1      -5.790  -2.514  -0.088  1.00  0.00     0.067 C 
ATOM      8  C   UNL     1      -0.934  -1.034   0.118  1.00  0.00    -0.023 A 
ATOM      9  C   UNL     1      -1.620  -2.270   0.055  1.00  0.00     0.052 A 
ATOM     10  C   UNL     1      -1.729   0.126   0.165  1.00  0.00     0.045 A 
ATOM     11  C   UNL     1      -3.010  -2.346   0.059  1.00  0.00     0.128 A 
ATOM     12  C   UNL     1      -3.136   0.040   0.150  1.00  0.00     0.032 A 
ATOM     13  Cl  UNL     1      -1.112   1.735   0.269  1.00  0.00    -0.084 Cl
ATOM     14  C   UNL     1      -3.780  -1.195   0.102  1.00  0.00     0.019 A 
ATOM     15  O   UNL     1      -3.548  -3.599   0.074  1.00  0.00    -0.475 OA
ATOM     16  C   UNL     1      -5.232  -1.310   0.141  1.00  0.00     0.025 C 
ATOM     17  C   UNL     1      -4.921  -3.703  -0.389  1.00  0.00     0.314 C 
BRANCH   8  18
ATOM     18  C   UNL     1       0.591  -1.150   0.139  1.00  0.00     0.014 C 
ATOM     19  C   UNL     1       1.448   0.099  -0.060  1.00  0.00     0.012 C 
ATOM     20  C   UNL     1       1.057  -1.860   1.423  1.00  0.00     0.012 C 
ENDBRANCH   8  18
BRANCH  17  21
ATOM     21  C   UNL     1      -4.912  -4.080  -1.883  1.00  0.00     0.429 C 
ATOM     22  F   UNL     1      -4.468  -5.353  -2.041  1.00  0.00    -0.167 F 
ATOM     23  F   UNL     1      -6.144  -4.032  -2.442  1.00  0.00    -0.167 F 
ATOM     24  F   UNL     1      -4.115  -3.277  -2.621  1.00  0.00    -0.167 F 
ENDBRANCH  17  21
ENDBRANCH   4   7
ENDBRANCH   2   3
ENDBRANCH   1   2
BRANCH   1  25
ATOM     25  C   UNL     1      -9.527  -6.095   1.199  1.00  0.00     0.118 C 
BRANCH  25  26
ATOM     26  N   UNL     1     -10.166  -6.946   0.196  1.00  0.00    -0.352 N 
ATOM     27  C   UNL     1     -10.752  -8.183   0.319  1.00  0.00     0.251 C 
ATOM     28  H   UNL     1     -10.178  -6.572  -0.714  1.00  0.00     0.163 HD
ATOM     29  O   UNL     1     -11.043  -8.824  -0.687  1.00  0.00    -0.269 OA
BRANCH  27  30
ATOM     30  C   UNL     1     -11.014  -8.747   1.657  1.00  0.00     0.039 A 
ATOM     31  C   UNL     1     -11.467  -7.925   2.687  1.00  0.00     0.014 A 
ATOM     32  C   UNL     1     -10.800 -10.109   1.889  1.00  0.00     0.014 A 
ATOM     33  C   UNL     1     -11.502  -8.410   3.984  1.00  0.00     0.010 A 
ATOM     34  C   UNL     1     -10.958 -10.625   3.179  1.00  0.00     0.010 A 
ATOM     35  C   UNL     1     -11.260  -9.768   4.247  1.00  0.00    -0.014 A 
BRANCH  35  36
ATOM     36  C   UNL     1     -11.351 -10.248   5.650  1.00  0.00     0.031 A 
ATOM     37  C   UNL     1     -10.149 -10.813   6.356  1.00  0.00     0.074 A 
ATOM     38  C   UNL     1     -12.511 -10.080   6.314  1.00  0.00     0.049 A 
ATOM     39  N   UNL     1     -10.040 -11.200   7.603  1.00  0.00    -0.248 NA
ATOM     40  C   UNL     1      -8.913 -10.970   5.573  1.00  0.00     0.031 C 
ATOM     41  C   UNL     1     -13.739  -9.527   5.733  1.00  0.00     0.029 A 
ATOM     42  N   UNL     1     -12.838 -10.302   7.627  1.00  0.00    -0.354 N 
ATOM     43  C   UNL     1      -8.739 -11.665   7.744  1.00  0.00     0.074 A 
ATOM     44  C   UNL     1      -8.100 -11.538   6.454  1.00  0.00     0.031 C 
ATOM     45  C   UNL     1     -14.649  -9.364   6.702  1.00  0.00     0.029 A 
ATOM     46  C   UNL     1     -14.105  -9.880   7.953  1.00  0.00     0.049 A 
ATOM     47  H   UNL     1     -12.226 -10.722   8.273  1.00  0.00     0.167 HD
ATOM     48  C   UNL     1      -8.131 -12.146   8.855  1.00  0.00     0.031 A 
ATOM     49  C   UNL     1     -14.766  -9.906   9.126  1.00  0.00     0.031 A 
ATOM     50  C   UNL     1      -8.768 -12.254  10.141  1.00  0.00     0.049 A 
ATOM     51  C   UNL     1     -14.078 -10.470  10.333  1.00  0.00     0.074 A 
ATOM     52  C   UNL     1      -8.231 -12.721  11.327  1.00  0.00     0.029 A 
ATOM     53  N   UNL     1     -10.077 -11.885  10.410  1.00  0.00    -0.354 N 
ATOM     54  N   UNL     1     -12.849 -10.910  10.446  1.00  0.00    -0.248 NA
ATOM     55  C   UNL     1     -14.866 -10.550  11.570  1.00  0.00     0.031 C 
ATOM     56  C   UNL     1      -9.231 -12.687  12.302  1.00  0.00     0.029 A 
ATOM     57  C   UNL     1     -10.371 -12.135  11.740  1.00  0.00     0.049 A 
ATOM     58  H   UNL     1     -10.704 -11.502   9.755  1.00  0.00     0.167 HD
ATOM     59  C   UNL     1     -12.711 -11.312  11.767  1.00  0.00     0.074 A 
ATOM     60  C   UNL     1     -13.974 -11.040  12.422  1.00  0.00     0.031 C 
ATOM     61  C   UNL     1     -11.634 -11.863  12.377  1.00  0.00     0.031 A 
BRANCH  48  62
ATOM     62  C   UNL     1      -6.706 -12.613   8.738  1.00  0.00    -0.014 A 
ATOM     63  C   UNL     1      -6.410 -13.979   8.867  1.00  0.00     0.009 A 
ATOM     64  C   UNL     1      -5.649 -11.700   8.598  1.00  0.00     0.009 A 
ATOM     65  C   UNL     1      -5.085 -14.422   8.871  1.00  0.00     0.001 A 
ATOM     66  C   UNL     1      -4.326 -12.149   8.575  1.00  0.00     0.001 A 
ATOM     67  C   UNL     1      -4.045 -13.508   8.721  1.00  0.00     0.000 A 
ENDBRANCH  48  62
BRANCH  49  68
ATOM     68  C   UNL     1     -16.152  -9.372   9.193  1.00  0.00    -0.014 A 
ATOM     69  C   UNL     1     -17.196 -10.011   8.502  1.00  0.00     0.009 A 
ATOM     70  C   UNL     1     -16.427  -8.185   9.886  1.00  0.00     0.009 A 
ATOM     71  C   UNL     1     -18.476  -9.454   8.473  1.00  0.00     0.001 A 
ATOM     72  C   UNL     1     -17.718  -7.648   9.884  1.00  0.00     0.001 A 
ATOM     73  C   UNL     1     -18.736  -8.275   9.168  1.00  0.00     0.000 A 
ENDBRANCH  49  68
BRANCH  61  74
ATOM     74  C   UNL     1     -11.758 -12.207  13.834  1.00  0.00    -0.014 A 
ATOM     75  C   UNL     1     -11.027 -11.477  14.785  1.00  0.00     0.009 A 
ATOM     76  C   UNL     1     -12.513 -13.312  14.254  1.00  0.00     0.009 A 
ATOM     77  C   UNL     1     -11.036 -11.857  16.127  1.00  0.00     0.001 A 
ATOM     78  C   UNL     1     -12.543 -13.671  15.603  1.00  0.00     0.001 A 
ATOM     79  C   UNL     1     -11.797 -12.950  16.535  1.00  0.00     0.000 A 
ENDBRANCH  61  74
ENDBRANCH  35  36
ENDBRANCH  27  30
ENDBRANCH  25  26
ENDBRANCH   1  25
TORSDOF 12
