REMARK SMILES C[NH+]1CCN(c2nc3c(cc2F)c(=O)c(C(=O)NCCCNC(=O)c2ccc(-c4c5nc(c(-c6ccccc6)c6ccc([nH]6)c(-c6ccccc6)c6nc(c(-c7ccccc7)c7ccc4[nH]7)C=C6)C=C5)cc2)cn3-c2ccc(F)cc2F)CC1
REMARK SMILES IDX 20 1 19 2 18 3 16 4 17 5 15 7 6 8 7 9 11 10 8 11 10 12 12 13
REMARK SMILES IDX 9 14 74 15 13 16 73 17 14 18 5 19 1 20 2 21 3 22 84 23 4 25
REMARK SMILES IDX 83 26 75 27 76 28 81 29 77 30 80 31 82 32 78 33 79 34 21 35
REMARK SMILES IDX 22 36 23 37 24 39 25 40 26 41 72 42 27 43 71 44 28 45 29 46
REMARK SMILES IDX 30 47 65 48 31 49 70 50 64 51 66 52 32 53 69 54 63 55 62 56
REMARK SMILES IDX 33 58 55 59 40 60 54 61 41 62 44 63 53 64 67 65 42 66 43 67
REMARK SMILES IDX 52 69 68 70 45 71 34 72 35 73 39 74 36 75 38 76 37 77 56 78
REMARK SMILES IDX 57 79 61 80 58 81 60 82 59 83 46 84 47 85 51 86 48 87 50 88
REMARK SMILES IDX 49 89
REMARK H PARENT 18 6 2 24 22 38 66 57 44 68
REMARK Flexibility Score: inf
ROOT
ATOM      1  C   UNL     1      -8.490  -0.603   5.732  1.00  0.00     0.042 C 
ENDROOT
BRANCH   1   2
ATOM      2  C   UNL     1      -8.899  -1.168   4.374  1.00  0.00     0.118 C 
BRANCH   2   3
ATOM      3  N   UNL     1      -9.569  -0.163   3.565  1.00  0.00    -0.352 N 
ATOM      4  C   UNL     1      -9.120   0.676   2.594  1.00  0.00     0.256 C 
ATOM      5  O   UNL     1      -9.962   1.417   2.077  1.00  0.00    -0.269 OA
ATOM      6  H   UNL     1     -10.530  -0.072   3.757  1.00  0.00     0.163 HD
BRANCH   4   7
ATOM      7  C   UNL     1      -7.719   0.675   2.094  1.00  0.00     0.104 A 
ATOM      8  C   UNL     1      -2.918  -0.112   0.639  1.00  0.00     0.167 A 
ATOM      9  N   UNL     1      -3.970   0.543   0.086  1.00  0.00    -0.209 NA
ATOM     10  C   UNL     1      -3.027  -0.729   1.889  1.00  0.00     0.166 A 
ATOM     11  C   UNL     1      -5.154   0.595   0.750  1.00  0.00     0.151 A 
ATOM     12  C   UNL     1      -4.198  -0.620   2.611  1.00  0.00     0.059 A 
ATOM     13  F   UNL     1      -1.985  -1.370   2.441  1.00  0.00    -0.203 F 
ATOM     14  C   UNL     1      -5.265   0.064   2.034  1.00  0.00     0.069 A 
ATOM     15  N   UNL     1      -6.310   1.198   0.154  1.00  0.00    -0.297 N 
ATOM     16  C   UNL     1      -6.489   0.288   2.813  1.00  0.00     0.203 A 
ATOM     17  C   UNL     1      -7.518   1.139   0.847  1.00  0.00     0.111 A 
ATOM     18  O   UNL     1      -6.409   0.191   4.030  1.00  0.00    -0.288 OA
BRANCH   8  19
ATOM     19  N   UNL     1      -1.736  -0.110  -0.051  1.00  0.00    -0.343 N 
ATOM     20  C   UNL     1       2.495   0.105   0.109  1.00  0.00     0.332 C 
ATOM     21  N   UNL     1       1.125   0.018  -0.391  1.00  0.00    -0.334 N 
ATOM     22  C   UNL     1       0.338   1.210   0.009  1.00  0.00     0.283 C 
ATOM     23  C   UNL     1       0.465  -1.204   0.125  1.00  0.00     0.283 C 
ATOM     24  H   UNL     1       1.166  -0.023  -1.409  1.00  0.00     0.347 HD
ATOM     25  C   UNL     1      -1.137   1.152  -0.471  1.00  0.00     0.179 C 
ATOM     26  C   UNL     1      -0.998  -1.331  -0.347  1.00  0.00     0.179 C 
ENDBRANCH   8  19
BRANCH  15  27
ATOM     27  C   UNL     1      -6.278   1.782  -1.149  1.00  0.00     0.083 A 
ATOM     28  C   UNL     1      -5.874   1.031  -2.266  1.00  0.00     0.033 A 
ATOM     29  C   UNL     1      -6.656   3.122  -1.353  1.00  0.00     0.150 A 
ATOM     30  C   UNL     1      -5.856   1.606  -3.539  1.00  0.00     0.041 A 
ATOM     31  C   UNL     1      -6.625   3.705  -2.615  1.00  0.00     0.080 A 
ATOM     32  F   UNL     1      -7.034   3.878  -0.311  1.00  0.00    -0.205 F 
ATOM     33  C   UNL     1      -6.227   2.937  -3.699  1.00  0.00     0.126 A 
ATOM     34  F   UNL     1      -6.197   3.485  -4.920  1.00  0.00    -0.207 F 
ENDBRANCH  15  27
ENDBRANCH   4   7
ENDBRANCH   2   3
ENDBRANCH   1   2
BRANCH   1  35
ATOM     35  C   UNL     1      -9.650  -0.488   6.708  1.00  0.00     0.118 C 
BRANCH  35  36
ATOM     36  N   UNL     1     -10.018  -1.778   7.271  1.00  0.00    -0.352 N 
ATOM     37  C   UNL     1      -9.833  -2.247   8.547  1.00  0.00     0.251 C 
ATOM     38  H   UNL     1     -10.461  -2.401   6.650  1.00  0.00     0.163 HD
ATOM     39  O   UNL     1      -9.993  -3.439   8.798  1.00  0.00    -0.269 OA
BRANCH  37  40
ATOM     40  C   UNL     1      -9.431  -1.317   9.621  1.00  0.00     0.039 A 
ATOM     41  C   UNL     1      -8.402  -1.687  10.490  1.00  0.00     0.014 A 
ATOM     42  C   UNL     1     -10.086  -0.092   9.783  1.00  0.00     0.014 A 
ATOM     43  C   UNL     1      -8.001  -0.807  11.497  1.00  0.00     0.010 A 
ATOM     44  C   UNL     1      -9.640   0.813  10.741  1.00  0.00     0.010 A 
ATOM     45  C   UNL     1      -8.608   0.454  11.619  1.00  0.00    -0.014 A 
BRANCH  45  46
ATOM     46  C   UNL     1      -8.218   1.378  12.708  1.00  0.00     0.031 A 
ATOM     47  C   UNL     1      -9.179   1.649  13.830  1.00  0.00     0.074 A 
ATOM     48  C   UNL     1      -7.012   1.977  12.685  1.00  0.00     0.049 A 
ATOM     49  N   UNL     1      -9.015   2.397  14.890  1.00  0.00    -0.248 NA
ATOM     50  C   UNL     1     -10.503   1.006  13.748  1.00  0.00     0.031 C 
ATOM     51  C   UNL     1      -6.007   1.815  11.633  1.00  0.00     0.029 A 
ATOM     52  N   UNL     1      -6.424   2.833  13.581  1.00  0.00    -0.354 N 
ATOM     53  C   UNL     1     -10.207   2.313  15.596  1.00  0.00     0.074 A 
ATOM     54  C   UNL     1     -11.108   1.490  14.823  1.00  0.00     0.031 C 
ATOM     55  C   UNL     1      -4.911   2.518  11.964  1.00  0.00     0.029 A 
ATOM     56  C   UNL     1      -5.144   3.195  13.238  1.00  0.00     0.049 A 
ATOM     57  H   UNL     1      -6.876   3.158  14.393  1.00  0.00     0.167 HD
ATOM     58  C   UNL     1     -10.511   2.845  16.800  1.00  0.00     0.031 A 
ATOM     59  C   UNL     1      -4.253   3.973  13.883  1.00  0.00     0.031 A 
ATOM     60  C   UNL     1      -9.608   3.639  17.581  1.00  0.00     0.049 A 
ATOM     61  C   UNL     1      -4.624   4.577  15.208  1.00  0.00     0.074 A 
ATOM     62  C   UNL     1      -9.809   4.175  18.840  1.00  0.00     0.029 A 
ATOM     63  N   UNL     1      -8.334   4.005  17.180  1.00  0.00    -0.354 N 
ATOM     64  N   UNL     1      -5.734   4.437  15.891  1.00  0.00    -0.248 NA
ATOM     65  C   UNL     1      -3.623   5.439  15.856  1.00  0.00     0.031 C 
ATOM     66  C   UNL     1      -8.668   4.900  19.186  1.00  0.00     0.029 A 
ATOM     67  C   UNL     1      -7.744   4.781  18.159  1.00  0.00     0.049 A 
ATOM     68  H   UNL     1      -7.913   3.751  16.327  1.00  0.00     0.167 HD
ATOM     69  C   UNL     1      -5.561   5.176  17.053  1.00  0.00     0.074 A 
ATOM     70  C   UNL     1      -4.238   5.761  16.988  1.00  0.00     0.031 C 
ATOM     71  C   UNL     1      -6.424   5.349  18.081  1.00  0.00     0.031 A 
BRANCH  58  72
ATOM     72  C   UNL     1     -11.870   2.562  17.367  1.00  0.00    -0.014 A 
ATOM     73  C   UNL     1     -12.168   1.303  17.911  1.00  0.00     0.009 A 
ATOM     74  C   UNL     1     -12.830   3.582  17.435  1.00  0.00     0.009 A 
ATOM     75  C   UNL     1     -13.409   1.067  18.502  1.00  0.00     0.001 A 
ATOM     76  C   UNL     1     -14.064   3.348  18.045  1.00  0.00     0.001 A 
ATOM     77  C   UNL     1     -14.353   2.091  18.575  1.00  0.00     0.000 A 
ENDBRANCH  58  72
BRANCH  59  78
ATOM     78  C   UNL     1      -2.905   4.178  13.296  1.00  0.00    -0.014 A 
ATOM     79  C   UNL     1      -1.796   3.497  13.821  1.00  0.00     0.009 A 
ATOM     80  C   UNL     1      -2.727   5.011  12.181  1.00  0.00     0.009 A 
ATOM     81  C   UNL     1      -0.534   3.649  13.241  1.00  0.00     0.001 A 
ATOM     82  C   UNL     1      -1.467   5.147  11.593  1.00  0.00     0.001 A 
ATOM     83  C   UNL     1      -0.372   4.468  12.124  1.00  0.00     0.000 A 
ENDBRANCH  59  78
BRANCH  71  84
ATOM     84  C   UNL     1      -5.995   6.196  19.240  1.00  0.00    -0.014 A 
ATOM     85  C   UNL     1      -6.094   7.593  19.174  1.00  0.00     0.009 A 
ATOM     86  C   UNL     1      -5.668   5.586  20.462  1.00  0.00     0.009 A 
ATOM     87  C   UNL     1      -5.886   8.365  20.317  1.00  0.00     0.001 A 
ATOM     88  C   UNL     1      -5.478   6.361  21.607  1.00  0.00     0.001 A 
ATOM     89  C   UNL     1      -5.592   7.749  21.534  1.00  0.00     0.000 A 
ENDBRANCH  71  84
ENDBRANCH  45  46
ENDBRANCH  37  40
ENDBRANCH  35  36
ENDBRANCH   1  35
TORSDOF 12
