REMARK SMILES C[C@@H]1CN(C(=O)N2CCC(CC(=O)NCCCNC(=O)c3ccc(-c4c5nc(c(-c6ccccc6)c6ccc([nH]6)c(-c6ccccc6)c6nc(c(-c7ccccc7)c7ccc4[nH]7)C=C6)C=C5)cc3)CC2)C[C@@H](C)S1
REMARK SMILES IDX 16 1 15 2 14 3 12 4 13 5 11 7 10 8 1 9 2 10 3 11 74 12 4 13
REMARK SMILES IDX 72 14 5 15 71 16 73 17 6 18 7 19 8 20 70 21 9 22 69 23 17 24
REMARK SMILES IDX 18 25 19 26 20 28 21 29 22 30 68 31 23 32 67 33 24 34 25 35
REMARK SMILES IDX 26 36 61 37 27 38 66 39 60 40 62 41 28 42 65 43 59 44 58 45
REMARK SMILES IDX 29 47 51 48 36 49 50 50 37 51 40 52 49 53 63 54 38 55 39 56
REMARK SMILES IDX 48 58 64 59 41 60 30 61 31 62 35 63 32 64 34 65 33 66 52 67
REMARK SMILES IDX 53 68 57 69 54 70 56 71 55 72 42 73 43 74 47 75 44 76 46 77
REMARK SMILES IDX 45 78
REMARK H PARENT 14 6 18 27 62 46 40 57
REMARK Flexibility Score: inf
ROOT
ATOM      1  C   UNL     1      -0.987  -6.444  -0.401  1.00  0.00     0.042 C 
ENDROOT
BRANCH   1   2
ATOM      2  C   UNL     1       0.203  -6.798   0.498  1.00  0.00     0.117 C 
BRANCH   2   3
ATOM      3  N   UNL     1       1.039  -7.852  -0.065  1.00  0.00    -0.356 N 
ATOM      4  C   UNL     1       2.296  -7.835  -0.597  1.00  0.00     0.220 C 
ATOM      5  O   UNL     1       2.753  -8.896  -1.028  1.00  0.00    -0.275 OA
ATOM      6  H   UNL     1       0.619  -8.742  -0.061  1.00  0.00     0.163 HD
BRANCH   4   7
ATOM      7  C   UNL     1       3.109  -6.554  -0.678  1.00  0.00     0.103 C 
BRANCH   7   8
ATOM      8  C   UNL     1       3.051  -5.863  -2.061  1.00  0.00     0.002 C 
ATOM      9  C   UNL     1       1.864  -0.912   0.331  1.00  0.00     0.021 C 
ATOM     10  C   UNL     1       0.446  -1.370  -0.009  1.00  0.00     0.063 C 
ATOM     11  C   UNL     1       0.399  -2.342  -1.206  1.00  0.00     0.135 C 
ATOM     12  S   UNL     1      -0.643   0.080  -0.247  1.00  0.00    -0.152 SA
ATOM     13  N   UNL     1       0.684  -1.731  -2.508  1.00  0.00    -0.322 N 
ATOM     14  C   UNL     1      -0.075   0.584  -1.921  1.00  0.00     0.063 C 
ATOM     15  C   UNL     1       1.835  -2.008  -3.233  1.00  0.00     0.320 C 
ATOM     16  C   UNL     1      -0.155  -0.598  -2.895  1.00  0.00     0.135 C 
ATOM     17  C   UNL     1      -0.949   1.742  -2.389  1.00  0.00     0.021 C 
ATOM     18  O   UNL     1       2.430  -1.145  -3.873  1.00  0.00    -0.248 OA
ATOM     19  N   UNL     1       2.275  -3.315  -3.175  1.00  0.00    -0.325 N 
ATOM     20  C   UNL     1       3.687  -3.641  -3.204  1.00  0.00     0.121 C 
ATOM     21  C   UNL     1       1.399  -4.438  -3.448  1.00  0.00     0.121 C 
ATOM     22  C   UNL     1       3.978  -4.622  -2.065  1.00  0.00     0.026 C 
ATOM     23  C   UNL     1       1.597  -5.513  -2.400  1.00  0.00     0.026 C 
ENDBRANCH   7   8
ENDBRANCH   4   7
ENDBRANCH   2   3
ENDBRANCH   1   2
BRANCH   1  24
ATOM     24  C   UNL     1      -2.049  -7.532  -0.506  1.00  0.00     0.118 C 
BRANCH  24  25
ATOM     25  N   UNL     1      -3.105  -7.347   0.471  1.00  0.00    -0.352 N 
ATOM     26  C   UNL     1      -4.406  -6.933   0.306  1.00  0.00     0.251 C 
ATOM     27  H   UNL     1      -2.850  -7.549   1.400  1.00  0.00     0.163 HD
ATOM     28  O   UNL     1      -5.050  -6.599   1.296  1.00  0.00    -0.269 OA
BRANCH  26  29
ATOM     29  C   UNL     1      -5.047  -6.874  -1.033  1.00  0.00     0.039 A 
ATOM     30  C   UNL     1      -5.972  -5.853  -1.285  1.00  0.00     0.014 A 
ATOM     31  C   UNL     1      -4.832  -7.853  -2.007  1.00  0.00     0.014 A 
ATOM     32  C   UNL     1      -6.649  -5.796  -2.509  1.00  0.00     0.010 A 
ATOM     33  C   UNL     1      -5.450  -7.754  -3.257  1.00  0.00     0.010 A 
ATOM     34  C   UNL     1      -6.383  -6.739  -3.514  1.00  0.00    -0.014 A 
BRANCH  34  35
ATOM     35  C   UNL     1      -7.101  -6.701  -4.817  1.00  0.00     0.031 A 
ATOM     36  C   UNL     1      -8.019  -7.829  -5.213  1.00  0.00     0.074 A 
ATOM     37  C   UNL     1      -6.899  -5.680  -5.672  1.00  0.00     0.049 A 
ATOM     38  N   UNL     1      -8.688  -8.000  -6.327  1.00  0.00    -0.248 NA
ATOM     39  C   UNL     1      -8.190  -8.920  -4.240  1.00  0.00     0.031 C 
ATOM     40  C   UNL     1      -6.013  -4.539  -5.437  1.00  0.00     0.029 A 
ATOM     41  N   UNL     1      -7.422  -5.443  -6.920  1.00  0.00    -0.354 N 
ATOM     42  C   UNL     1      -9.332  -9.225  -6.199  1.00  0.00     0.074 A 
ATOM     43  C   UNL     1      -8.944  -9.773  -4.917  1.00  0.00     0.031 C 
ATOM     44  C   UNL     1      -6.069  -3.715  -6.496  1.00  0.00     0.029 A 
ATOM     45  C   UNL     1      -6.966  -4.283  -7.497  1.00  0.00     0.049 A 
ATOM     46  H   UNL     1      -8.063  -6.048  -7.359  1.00  0.00     0.167 HD
ATOM     47  C   UNL     1     -10.181  -9.836  -7.060  1.00  0.00     0.031 A 
ATOM     48  C   UNL     1      -7.234  -3.737  -8.699  1.00  0.00     0.031 A 
ATOM     49  C   UNL     1     -10.596  -9.287  -8.323  1.00  0.00     0.049 A 
ATOM     50  C   UNL     1      -8.189  -4.426  -9.632  1.00  0.00     0.074 A 
ATOM     51  C   UNL     1     -11.509  -9.800  -9.228  1.00  0.00     0.029 A 
ATOM     52  N   UNL     1     -10.124  -8.099  -8.859  1.00  0.00    -0.354 N 
ATOM     53  N   UNL     1      -8.839  -5.552  -9.465  1.00  0.00    -0.248 NA
ATOM     54  C   UNL     1      -8.456  -3.761 -10.916  1.00  0.00     0.031 C 
ATOM     55  C   UNL     1     -11.558  -8.943 -10.333  1.00  0.00     0.029 A 
ATOM     56  C   UNL     1     -10.710  -7.874 -10.093  1.00  0.00     0.049 A 
ATOM     57  H   UNL     1      -9.470  -7.504  -8.427  1.00  0.00     0.167 HD
ATOM     58  C   UNL     1      -9.608  -5.718 -10.610  1.00  0.00     0.074 A 
ATOM     59  C   UNL     1      -9.355  -4.572 -11.457  1.00  0.00     0.031 C 
ATOM     60  C   UNL     1     -10.449  -6.732 -10.928  1.00  0.00     0.031 A 
BRANCH  47  61
ATOM     61  C   UNL     1     -10.717 -11.184  -6.662  1.00  0.00    -0.014 A 
ATOM     62  C   UNL     1     -11.663 -11.318  -5.634  1.00  0.00     0.009 A 
ATOM     63  C   UNL     1     -10.294 -12.332  -7.350  1.00  0.00     0.009 A 
ATOM     64  C   UNL     1     -12.144 -12.579  -5.275  1.00  0.00     0.001 A 
ATOM     65  C   UNL     1     -10.796 -13.589  -7.007  1.00  0.00     0.001 A 
ATOM     66  C   UNL     1     -11.713 -13.712  -5.964  1.00  0.00     0.000 A 
ENDBRANCH  47  61
BRANCH  48  67
ATOM     67  C   UNL     1      -6.595  -2.454  -9.086  1.00  0.00    -0.014 A 
ATOM     68  C   UNL     1      -7.345  -1.268  -9.124  1.00  0.00     0.009 A 
ATOM     69  C   UNL     1      -5.232  -2.407  -9.418  1.00  0.00     0.009 A 
ATOM     70  C   UNL     1      -6.747  -0.065  -9.506  1.00  0.00     0.001 A 
ATOM     71  C   UNL     1      -4.631  -1.198  -9.775  1.00  0.00     0.001 A 
ATOM     72  C   UNL     1      -5.391  -0.030  -9.826  1.00  0.00     0.000 A 
ENDBRANCH  48  67
BRANCH  60  73
ATOM     73  C   UNL     1     -11.178  -6.634 -12.238  1.00  0.00    -0.014 A 
ATOM     74  C   UNL     1     -10.518  -6.858 -13.456  1.00  0.00     0.009 A 
ATOM     75  C   UNL     1     -12.553  -6.353 -12.249  1.00  0.00     0.009 A 
ATOM     76  C   UNL     1     -11.217  -6.774 -14.662  1.00  0.00     0.001 A 
ATOM     77  C   UNL     1     -13.254  -6.294 -13.455  1.00  0.00     0.001 A 
ATOM     78  C   UNL     1     -12.584  -6.497 -14.660  1.00  0.00     0.000 A 
ENDBRANCH  60  73
ENDBRANCH  34  35
ENDBRANCH  26  29
ENDBRANCH  24  25
ENDBRANCH   1  24
TORSDOF 11
