REMARK SMILES CC1(C)S[C@@H]2[C@H]([NH2+]Cn3nnc4ccccc43)C(=O)N2[C@@H]1C(=O)NCCCNC(=O)c1ccc(-c2c3nc(c(-c4ccccc4)c4ccc([nH]4)c(-c4ccccc4)c4nc(c(-c5ccccc5)c5ccc2[nH]5)C=C4)C=C3)cc1
REMARK SMILES IDX 25 1 24 2 22 3 23 4 21 6 1 7 2 8 3 9 4 10 5 11 20 12 6 13
REMARK SMILES IDX 18 14 19 15 7 16 8 19 9 20 10 21 17 22 11 23 12 24 16 25
REMARK SMILES IDX 13 26 15 27 14 28 26 29 27 30 28 31 29 32 30 34 31 35 32 36
REMARK SMILES IDX 78 37 33 38 77 39 34 40 35 41 36 42 71 43 37 44 76 45 70 46
REMARK SMILES IDX 72 47 38 48 75 49 69 50 68 51 39 53 61 54 46 55 60 56 47 57
REMARK SMILES IDX 50 58 59 59 73 60 48 61 49 62 58 64 74 65 51 66 40 67 41 68
REMARK SMILES IDX 45 69 42 70 44 71 43 72 62 73 63 74 67 75 64 76 66 77 65 78
REMARK SMILES IDX 52 79 53 80 57 81 54 82 56 83 55 84
REMARK H PARENT 24 5 7 17 7 18 28 33 72 52 50 63
REMARK Flexibility Score: inf
ROOT
ATOM      1  C   UNL     1      -0.522   0.060  -2.838  1.00  0.00     0.117 C 
ENDROOT
BRANCH   1   2
ATOM      2  N   UNL     1      -0.542   1.444  -2.375  1.00  0.00    -0.354 N 
ATOM      3  C   UNL     1      -0.152   2.018  -1.194  1.00  0.00     0.244 C 
ATOM      4  O   UNL     1       0.083   3.234  -1.234  1.00  0.00    -0.273 OA
ATOM      5  H   UNL     1      -0.903   2.083  -3.031  1.00  0.00     0.163 HD
BRANCH   3   6
ATOM      6  C   UNL     1       0.146   1.253   0.123  1.00  0.00     0.191 C 
ATOM      7  C   UNL     1       2.540   0.948  -0.905  1.00  0.00     0.026 C 
ATOM      8  C   UNL     1       1.617   0.742   0.298  1.00  0.00     0.042 C 
ATOM      9  C   UNL     1       2.293   1.307   1.558  1.00  0.00     0.026 C 
ATOM     10  S   UNL     1       1.530  -1.096   0.671  1.00  0.00    -0.121 SA
ATOM     11  C   UNL     1      -0.215  -1.026   1.109  1.00  0.00     0.213 C 
ATOM     12  N   UNL     1      -0.676   0.086   0.309  1.00  0.00    -0.306 N 
ATOM     13  C   UNL     1      -1.413  -1.828   0.505  1.00  0.00     0.307 C 
ATOM     14  C   UNL     1      -1.945  -0.304   0.281  1.00  0.00     0.285 C 
ATOM     15  O   UNL     1      -2.975   0.304   0.019  1.00  0.00    -0.268 OA
BRANCH  13  16
ATOM     16  N   UNL     1      -1.269  -2.525  -0.802  1.00  0.00    -0.315 N 
ATOM     17  H   UNL     1      -1.290  -1.822  -1.541  1.00  0.00     0.348 HD
ATOM     18  H   UNL     1      -2.040  -3.191  -0.860  1.00  0.00     0.348 HD
BRANCH  16  19
ATOM     19  C   UNL     1      -0.045  -3.299  -0.947  1.00  0.00     0.415 C 
BRANCH  19  20
ATOM     20  N   UNL     1       0.016  -3.897  -2.274  1.00  0.00    -0.194 N 
ATOM     21  N   UNL     1      -0.855  -4.855  -2.620  1.00  0.00    -0.061 NA
ATOM     22  C   UNL     1       0.994  -3.716  -3.225  1.00  0.00     0.095 A 
ATOM     23  N   UNL     1      -0.475  -5.307  -3.806  1.00  0.00    -0.130 NA
ATOM     24  C   UNL     1       0.615  -4.597  -4.223  1.00  0.00     0.113 A 
ATOM     25  C   UNL     1       2.148  -2.927  -3.318  1.00  0.00     0.030 A 
ATOM     26  C   UNL     1       1.355  -4.655  -5.413  1.00  0.00     0.032 A 
ATOM     27  C   UNL     1       2.913  -3.054  -4.485  1.00  0.00     0.002 A 
ATOM     28  C   UNL     1       2.515  -3.889  -5.527  1.00  0.00     0.002 A 
ENDBRANCH  19  20
ENDBRANCH  16  19
ENDBRANCH  13  16
ENDBRANCH   3   6
ENDBRANCH   1   2
BRANCH   1  29
ATOM     29  C   UNL     1      -1.894  -0.533  -3.205  1.00  0.00     0.042 C 
BRANCH  29  30
ATOM     30  C   UNL     1      -2.350  -0.414  -4.659  1.00  0.00     0.118 C 
BRANCH  30  31
ATOM     31  N   UNL     1      -1.402  -0.921  -5.635  1.00  0.00    -0.352 N 
ATOM     32  C   UNL     1      -1.422  -1.939  -6.553  1.00  0.00     0.251 C 
ATOM     33  H   UNL     1      -0.554  -0.421  -5.638  1.00  0.00     0.163 HD
ATOM     34  O   UNL     1      -0.743  -1.741  -7.567  1.00  0.00    -0.269 OA
BRANCH  32  35
ATOM     35  C   UNL     1      -2.037  -3.289  -6.373  1.00  0.00     0.039 A 
ATOM     36  C   UNL     1      -2.815  -3.708  -5.298  1.00  0.00     0.014 A 
ATOM     37  C   UNL     1      -1.613  -4.263  -7.308  1.00  0.00     0.014 A 
ATOM     38  C   UNL     1      -3.021  -5.082  -5.090  1.00  0.00     0.010 A 
ATOM     39  C   UNL     1      -1.778  -5.628  -7.078  1.00  0.00     0.010 A 
ATOM     40  C   UNL     1      -2.406  -6.045  -5.915  1.00  0.00    -0.014 A 
BRANCH  40  41
ATOM     41  C   UNL     1      -2.518  -7.474  -5.566  1.00  0.00     0.031 A 
ATOM     42  C   UNL     1      -3.918  -7.969  -5.561  1.00  0.00     0.074 A 
ATOM     43  C   UNL     1      -1.504  -8.357  -5.395  1.00  0.00     0.049 A 
ATOM     44  N   UNL     1      -4.564  -8.546  -4.601  1.00  0.00    -0.248 NA
ATOM     45  C   UNL     1      -4.727  -7.690  -6.758  1.00  0.00     0.031 C 
ATOM     46  C   UNL     1      -0.073  -8.158  -5.619  1.00  0.00     0.029 A 
ATOM     47  N   UNL     1      -1.558  -9.689  -5.072  1.00  0.00    -0.354 N 
ATOM     48  C   UNL     1      -5.828  -8.820  -5.108  1.00  0.00     0.074 A 
ATOM     49  C   UNL     1      -5.915  -8.161  -6.386  1.00  0.00     0.031 C 
ATOM     50  C   UNL     1       0.560  -9.351  -5.670  1.00  0.00     0.029 A 
ATOM     51  C   UNL     1      -0.394 -10.398  -5.362  1.00  0.00     0.049 A 
ATOM     52  H   UNL     1      -2.352 -10.109  -4.669  1.00  0.00     0.167 HD
ATOM     53  C   UNL     1      -6.669  -9.720  -4.532  1.00  0.00     0.031 A 
ATOM     54  C   UNL     1      -0.240 -11.747  -5.429  1.00  0.00     0.031 A 
ATOM     55  C   UNL     1      -6.328  -9.994  -3.164  1.00  0.00     0.049 A 
ATOM     56  C   UNL     1      -1.352 -12.364  -4.675  1.00  0.00     0.074 A 
ATOM     57  C   UNL     1      -6.223  -9.208  -2.032  1.00  0.00     0.029 A 
ATOM     58  N   UNL     1      -5.659 -11.158  -2.872  1.00  0.00    -0.354 N 
ATOM     59  N   UNL     1      -1.477 -12.301  -3.381  1.00  0.00    -0.248 NA
ATOM     60  C   UNL     1      -2.563 -12.682  -5.413  1.00  0.00     0.031 C 
ATOM     61  C   UNL     1      -5.084  -9.711  -1.343  1.00  0.00     0.029 A 
ATOM     62  C   UNL     1      -4.613 -10.817  -2.051  1.00  0.00     0.049 A 
ATOM     63  H   UNL     1      -5.886 -12.062  -3.191  1.00  0.00     0.167 HD
ATOM     64  C   UNL     1      -2.835 -12.117  -3.177  1.00  0.00     0.074 A 
ATOM     65  C   UNL     1      -3.462 -12.441  -4.457  1.00  0.00     0.031 C 
ATOM     66  C   UNL     1      -3.312 -11.447  -2.087  1.00  0.00     0.031 A 
BRANCH  53  67
ATOM     67  C   UNL     1      -7.618 -10.562  -5.336  1.00  0.00    -0.014 A 
ATOM     68  C   UNL     1      -7.454 -10.777  -6.720  1.00  0.00     0.009 A 
ATOM     69  C   UNL     1      -8.569 -11.359  -4.681  1.00  0.00     0.009 A 
ATOM     70  C   UNL     1      -8.212 -11.712  -7.424  1.00  0.00     0.001 A 
ATOM     71  C   UNL     1      -9.300 -12.331  -5.375  1.00  0.00     0.001 A 
ATOM     72  C   UNL     1      -9.124 -12.504  -6.746  1.00  0.00     0.000 A 
ENDBRANCH  53  67
BRANCH  54  73
ATOM     73  C   UNL     1       0.526 -12.522  -6.443  1.00  0.00    -0.014 A 
ATOM     74  C   UNL     1       0.837 -11.950  -7.691  1.00  0.00     0.009 A 
ATOM     75  C   UNL     1       0.680 -13.915  -6.316  1.00  0.00     0.009 A 
ATOM     76  C   UNL     1       1.227 -12.737  -8.780  1.00  0.00     0.001 A 
ATOM     77  C   UNL     1       1.064 -14.705  -7.410  1.00  0.00     0.001 A 
ATOM     78  C   UNL     1       1.319 -14.117  -8.647  1.00  0.00     0.000 A 
ENDBRANCH  54  73
BRANCH  66  79
ATOM     79  C   UNL     1      -2.357 -11.074  -0.973  1.00  0.00    -0.014 A 
ATOM     80  C   UNL     1      -2.759 -11.318   0.352  1.00  0.00     0.009 A 
ATOM     81  C   UNL     1      -1.190 -10.316  -1.177  1.00  0.00     0.009 A 
ATOM     82  C   UNL     1      -2.037 -10.804   1.433  1.00  0.00     0.001 A 
ATOM     83  C   UNL     1      -0.450  -9.827  -0.094  1.00  0.00     0.001 A 
ATOM     84  C   UNL     1      -0.882 -10.060   1.210  1.00  0.00     0.000 A 
ENDBRANCH  66  79
ENDBRANCH  40  41
ENDBRANCH  32  35
ENDBRANCH  30  31
ENDBRANCH  29  30
ENDBRANCH   1  29
TORSDOF 13
