REMARK SMILES COc1ccc(C(C)(C)C)cc1CC(=O)NCCCNC(=O)c1ccc(-c2c3nc(c(-c4ccccc4)c4ccc([nH]4)c(-c4ccccc4)c4nc(c(-c5ccccc5)c5ccc2[nH]5)C=C4)C=C3)cc1
REMARK SMILES IDX 18 1 17 2 16 3 14 4 15 5 13 7 12 8 3 9 4 10 5 11 11 12 6 13
REMARK SMILES IDX 2 14 1 15 7 16 8 17 9 18 10 19 19 20 20 21 21 22 22 24 23 25
REMARK SMILES IDX 24 26 70 27 25 28 69 29 26 30 27 31 28 32 63 33 29 34 68 35
REMARK SMILES IDX 62 36 64 37 30 38 67 39 61 40 60 41 31 43 53 44 38 45 52 46
REMARK SMILES IDX 39 47 42 48 51 49 65 50 40 51 41 52 50 54 66 55 43 56 32 57
REMARK SMILES IDX 33 58 37 59 34 60 36 61 35 62 54 63 55 64 59 65 56 66 58 67
REMARK SMILES IDX 57 68 44 69 45 70 49 71 46 72 48 73 47 74
REMARK H PARENT 16 6 20 23 64 42 42 53
REMARK Flexibility Score: inf
ROOT
ATOM      1  C   UNL     1       2.323   4.046  -0.765  1.00  0.00     0.042 C 
ENDROOT
BRANCH   1   2
ATOM      2  C   UNL     1       2.975   2.708  -1.104  1.00  0.00     0.117 C 
BRANCH   2   3
ATOM      3  N   UNL     1       4.181   2.477  -0.333  1.00  0.00    -0.356 N 
ATOM      4  C   UNL     1       4.337   1.720   0.793  1.00  0.00     0.224 C 
ATOM      5  O   UNL     1       5.436   1.710   1.350  1.00  0.00    -0.275 OA
ATOM      6  H   UNL     1       4.994   2.923  -0.664  1.00  0.00     0.163 HD
BRANCH   4   7
ATOM      7  C   UNL     1       3.178   0.883   1.308  1.00  0.00     0.139 C 
BRANCH   7   8
ATOM      8  C   UNL     1       2.106   1.685   2.009  1.00  0.00     0.004 A 
ATOM      9  C   UNL     1       0.780   1.790   1.570  1.00  0.00     0.122 A 
ATOM     10  C   UNL     1      -0.102   2.642   2.237  1.00  0.00     0.047 A 
ATOM     11  C   UNL     1       0.310   3.373   3.354  1.00  0.00     0.008 A 
ATOM     12  C   UNL     1       2.497   2.419   3.155  1.00  0.00     0.012 A 
ATOM     13  C   UNL     1       1.624   3.284   3.838  1.00  0.00    -0.042 A 
BRANCH   9  14
ATOM     14  O   UNL     1       0.280   1.250   0.416  1.00  0.00    -0.496 OA
ATOM     15  C   UNL     1       0.350  -0.168   0.313  1.00  0.00     0.278 C 
ENDBRANCH   9  14
BRANCH  13  16
ATOM     16  C   UNL     1       2.068   4.129   5.045  1.00  0.00    -0.013 C 
ATOM     17  C   UNL     1       1.890   5.630   4.724  1.00  0.00     0.016 C 
ATOM     18  C   UNL     1       1.210   3.768   6.275  1.00  0.00     0.016 C 
ATOM     19  C   UNL     1       3.549   3.926   5.443  1.00  0.00     0.016 C 
ENDBRANCH  13  16
ENDBRANCH   7   8
ENDBRANCH   4   7
ENDBRANCH   2   3
ENDBRANCH   1   2
BRANCH   1  20
ATOM     20  C   UNL     1       3.112   5.257  -1.255  1.00  0.00     0.118 C 
BRANCH  20  21
ATOM     21  N   UNL     1       3.218   5.301  -2.705  1.00  0.00    -0.352 N 
ATOM     22  C   UNL     1       2.990   6.323  -3.588  1.00  0.00     0.251 C 
ATOM     23  H   UNL     1       3.501   4.455  -3.122  1.00  0.00     0.163 HD
ATOM     24  O   UNL     1       2.981   6.081  -4.792  1.00  0.00    -0.269 OA
BRANCH  22  25
ATOM     25  C   UNL     1       2.744   7.705  -3.119  1.00  0.00     0.039 A 
ATOM     26  C   UNL     1       1.816   8.482  -3.822  1.00  0.00     0.014 A 
ATOM     27  C   UNL     1       3.453   8.265  -2.054  1.00  0.00     0.014 A 
ATOM     28  C   UNL     1       1.573   9.801  -3.433  1.00  0.00     0.010 A 
ATOM     29  C   UNL     1       3.164   9.561  -1.626  1.00  0.00     0.010 A 
ATOM     30  C   UNL     1       2.229  10.344  -2.318  1.00  0.00    -0.014 A 
BRANCH  30  31
ATOM     31  C   UNL     1       1.941  11.730  -1.874  1.00  0.00     0.031 A 
ATOM     32  C   UNL     1       2.995  12.798  -1.964  1.00  0.00     0.074 A 
ATOM     33  C   UNL     1       0.732  12.020  -1.355  1.00  0.00     0.049 A 
ATOM     34  N   UNL     1       2.920  14.061  -1.625  1.00  0.00    -0.248 NA
ATOM     35  C   UNL     1       4.310  12.393  -2.485  1.00  0.00     0.031 C 
ATOM     36  C   UNL     1      -0.363  11.065  -1.172  1.00  0.00     0.029 A 
ATOM     37  N   UNL     1       0.223  13.205  -0.887  1.00  0.00    -0.354 N 
ATOM     38  C   UNL     1       4.178  14.595  -1.874  1.00  0.00     0.074 A 
ATOM     39  C   UNL     1       5.009  13.511  -2.354  1.00  0.00     0.031 C 
ATOM     40  C   UNL     1      -1.425  11.708  -0.661  1.00  0.00     0.029 A 
ATOM     41  C   UNL     1      -1.077  13.110  -0.453  1.00  0.00     0.049 A 
ATOM     42  H   UNL     1       0.739  14.043  -0.865  1.00  0.00     0.167 HD
ATOM     43  C   UNL     1       4.601  15.874  -1.733  1.00  0.00     0.031 A 
ATOM     44  C   UNL     1      -1.899  14.048   0.051  1.00  0.00     0.031 A 
ATOM     45  C   UNL     1       3.774  16.956  -1.270  1.00  0.00     0.049 A 
ATOM     46  C   UNL     1      -1.411  15.462   0.184  1.00  0.00     0.074 A 
ATOM     47  C   UNL     1       4.096  18.297  -1.148  1.00  0.00     0.029 A 
ATOM     48  N   UNL     1       2.460  16.821  -0.852  1.00  0.00    -0.354 N 
ATOM     49  N   UNL     1      -0.240  15.963  -0.121  1.00  0.00    -0.248 NA
ATOM     50  C   UNL     1      -2.368  16.442   0.718  1.00  0.00     0.031 C 
ATOM     51  C   UNL     1       2.987  18.967  -0.619  1.00  0.00     0.029 A 
ATOM     52  C   UNL     1       1.962  18.050  -0.454  1.00  0.00     0.049 A 
ATOM     53  H   UNL     1       1.955  15.976  -0.839  1.00  0.00     0.167 HD
ATOM     54  C   UNL     1      -0.325  17.320   0.161  1.00  0.00     0.074 A 
ATOM     55  C   UNL     1      -1.668  17.565   0.644  1.00  0.00     0.031 C 
ATOM     56  C   UNL     1       0.625  18.277   0.029  1.00  0.00     0.031 A 
BRANCH  43  57
ATOM     57  C   UNL     1       6.032  16.170  -2.083  1.00  0.00    -0.014 A 
ATOM     58  C   UNL     1       6.468  16.175  -3.417  1.00  0.00     0.009 A 
ATOM     59  C   UNL     1       6.950  16.481  -1.067  1.00  0.00     0.009 A 
ATOM     60  C   UNL     1       7.801  16.451  -3.725  1.00  0.00     0.001 A 
ATOM     61  C   UNL     1       8.277  16.782  -1.381  1.00  0.00     0.001 A 
ATOM     62  C   UNL     1       8.704  16.758  -2.708  1.00  0.00     0.000 A 
ENDBRANCH  43  57
BRANCH  44  63
ATOM     63  C   UNL     1      -3.285  13.684   0.442  1.00  0.00    -0.014 A 
ATOM     64  C   UNL     1      -4.374  14.098  -0.341  1.00  0.00     0.009 A 
ATOM     65  C   UNL     1      -3.526  12.923   1.595  1.00  0.00     0.009 A 
ATOM     66  C   UNL     1      -5.679  13.777   0.038  1.00  0.00     0.001 A 
ATOM     67  C   UNL     1      -4.830  12.581   1.957  1.00  0.00     0.001 A 
ATOM     68  C   UNL     1      -5.905  13.015   1.183  1.00  0.00     0.000 A 
ENDBRANCH  44  63
BRANCH  56  69
ATOM     69  C   UNL     1       0.232  19.681   0.390  1.00  0.00    -0.014 A 
ATOM     70  C   UNL     1       0.068  20.068   1.729  1.00  0.00     0.009 A 
ATOM     71  C   UNL     1       0.047  20.633  -0.624  1.00  0.00     0.009 A 
ATOM     72  C   UNL     1      -0.309  21.375   2.042  1.00  0.00     0.001 A 
ATOM     73  C   UNL     1      -0.305  21.945  -0.306  1.00  0.00     0.001 A 
ATOM     74  C   UNL     1      -0.492  22.313   1.026  1.00  0.00     0.000 A 
ENDBRANCH  56  69
ENDBRANCH  30  31
ENDBRANCH  22  25
ENDBRANCH  20  21
ENDBRANCH   1  20
TORSDOF 13
