REMARK SMILES NS(=O)(=O)c1ccc(-n2nc(C(=O)NCCCNC(=O)c3ccc(-c4c5nc(c(-c6ccccc6)c6ccc([nH]6)c(-c6ccccc6)c6nc(c(-c7ccccc7)c7ccc4[nH]7)C=C6)C=C5)cc3)c(Cl)c2-c2ccc(Cl)cc2)cc1
REMARK SMILES IDX 15 1 14 2 12 3 13 4 11 6 9 7 10 8 71 9 69 10 70 11 8 12 5 13
REMARK SMILES IDX 6 14 80 15 7 16 79 17 2 18 3 19 4 20 1 21 72 24 73 25 78 26
REMARK SMILES IDX 74 27 77 28 75 29 76 30 16 31 17 32 18 33 19 34 20 36 21 37
REMARK SMILES IDX 22 38 68 39 23 40 67 41 24 42 25 43 26 44 61 45 27 46 66 47
REMARK SMILES IDX 60 48 62 49 28 50 65 51 59 52 58 53 29 55 51 56 36 57 50 58
REMARK SMILES IDX 37 59 40 60 49 61 63 62 38 63 39 64 48 66 64 67 41 68 30 69
REMARK SMILES IDX 31 70 35 71 32 72 34 73 33 74 52 75 53 76 57 77 54 78 56 79
REMARK SMILES IDX 55 80 42 81 43 82 47 83 44 84 46 85 45 86
REMARK H PARENT 14 5 1 22 1 23 18 35 62 54 40 65
REMARK Flexibility Score: inf
ROOT
ATOM      1  C   UNL     1       4.074   3.411 -10.637  1.00  0.00     0.118 C 
ENDROOT
BRANCH   1   2
ATOM      2  N   UNL     1       3.655   2.029 -10.857  1.00  0.00    -0.351 N 
ATOM      3  C   UNL     1       3.218   1.049  -9.982  1.00  0.00     0.273 C 
ATOM      4  O   UNL     1       2.840  -0.008 -10.492  1.00  0.00    -0.267 OA
ATOM      5  H   UNL     1       3.691   1.742 -11.797  1.00  0.00     0.163 HD
BRANCH   3   6
ATOM      6  C   UNL     1       3.135   1.298  -8.532  1.00  0.00     0.169 A 
ATOM      7  N   UNL     1       2.311   1.262  -6.541  1.00  0.00    -0.231 N 
ATOM      8  N   UNL     1       2.151   0.742  -7.786  1.00  0.00    -0.160 NA
ATOM      9  C   UNL     1       3.273   2.253  -6.523  1.00  0.00     0.094 A 
ATOM     10  C   UNL     1       4.003   1.988  -7.664  1.00  0.00     0.100 A 
ATOM     11  Cl  UNL     1       5.646   2.377  -7.823  1.00  0.00    -0.079 Cl
BRANCH   7  12
ATOM     12  C   UNL     1       1.718   0.662  -5.405  1.00  0.00     0.065 A 
ATOM     13  C   UNL     1       0.960  -0.492  -2.995  1.00  0.00     0.082 A 
ATOM     14  C   UNL     1       1.481  -1.301  -4.012  1.00  0.00     0.024 A 
ATOM     15  C   UNL     1       0.783   0.881  -3.190  1.00  0.00     0.024 A 
ATOM     16  C   UNL     1       1.835  -0.726  -5.236  1.00  0.00     0.030 A 
ATOM     17  C   UNL     1       1.182   1.464  -4.391  1.00  0.00     0.030 A 
BRANCH  13  18
ATOM     18  S   UNL     1       0.580  -1.198  -1.419  1.00  0.00     0.238 S 
ATOM     19  O   UNL     1       1.310  -2.424  -1.254  1.00  0.00    -0.207 OA
ATOM     20  O   UNL     1      -0.851  -1.092  -1.205  1.00  0.00    -0.207 OA
BRANCH  18  21
ATOM     21  N   UNL     1       1.291  -0.114  -0.344  1.00  0.00    -0.225 NA
ATOM     22  H   UNL     1       1.131  -0.429   0.612  1.00  0.00     0.137 HD
ATOM     23  H   UNL     1       0.880   0.811  -0.472  1.00  0.00     0.137 HD
ENDBRANCH  18  21
ENDBRANCH  13  18
ENDBRANCH   7  12
BRANCH   9  24
ATOM     24  C   UNL     1       3.749   3.075  -5.417  1.00  0.00     0.002 A 
ATOM     25  C   UNL     1       3.623   4.468  -5.531  1.00  0.00     0.012 A 
ATOM     26  C   UNL     1       4.611   2.527  -4.461  1.00  0.00     0.012 A 
ATOM     27  C   UNL     1       4.412   5.306  -4.744  1.00  0.00     0.021 A 
ATOM     28  C   UNL     1       5.400   3.369  -3.678  1.00  0.00     0.021 A 
ATOM     29  C   UNL     1       5.315   4.752  -3.840  1.00  0.00     0.041 A 
ATOM     30  Cl  UNL     1       6.381   5.778  -2.965  1.00  0.00    -0.084 Cl
ENDBRANCH   9  24
ENDBRANCH   3   6
ENDBRANCH   1   2
BRANCH   1  31
ATOM     31  C   UNL     1       5.601   3.549 -10.591  1.00  0.00     0.042 C 
BRANCH  31  32
ATOM     32  C   UNL     1       6.242   3.827 -11.924  1.00  0.00     0.118 C 
BRANCH  32  33
ATOM     33  N   UNL     1       6.169   5.226 -12.356  1.00  0.00    -0.352 N 
ATOM     34  C   UNL     1       6.829   5.811 -13.435  1.00  0.00     0.251 C 
ATOM     35  H   UNL     1       5.590   5.819 -11.824  1.00  0.00     0.163 HD
ATOM     36  O   UNL     1       6.978   7.023 -13.509  1.00  0.00    -0.269 OA
BRANCH  34  37
ATOM     37  C   UNL     1       7.347   4.920 -14.492  1.00  0.00     0.039 A 
ATOM     38  C   UNL     1       8.544   5.112 -15.184  1.00  0.00     0.014 A 
ATOM     39  C   UNL     1       6.615   3.766 -14.695  1.00  0.00     0.014 A 
ATOM     40  C   UNL     1       8.969   4.096 -16.042  1.00  0.00     0.010 A 
ATOM     41  C   UNL     1       7.284   2.660 -15.094  1.00  0.00     0.010 A 
ATOM     42  C   UNL     1       8.306   2.862 -15.987  1.00  0.00    -0.014 A 
BRANCH  42  43
ATOM     43  C   UNL     1       8.637   1.693 -16.777  1.00  0.00     0.031 A 
ATOM     44  C   UNL     1      10.017   1.224 -16.582  1.00  0.00     0.074 A 
ATOM     45  C   UNL     1       7.709   0.956 -17.432  1.00  0.00     0.049 A 
ATOM     46  N   UNL     1      11.010   1.435 -17.372  1.00  0.00    -0.248 NA
ATOM     47  C   UNL     1      10.381   0.625 -15.291  1.00  0.00     0.031 C 
ATOM     48  C   UNL     1       6.243   1.101 -17.463  1.00  0.00     0.029 A 
ATOM     49  N   UNL     1       7.900  -0.169 -18.169  1.00  0.00    -0.354 N 
ATOM     50  C   UNL     1      12.088   0.786 -16.794  1.00  0.00     0.074 A 
ATOM     51  C   UNL     1      11.703   0.507 -15.433  1.00  0.00     0.031 C 
ATOM     52  C   UNL     1       5.681  -0.002 -18.013  1.00  0.00     0.029 A 
ATOM     53  C   UNL     1       6.741  -0.845 -18.531  1.00  0.00     0.049 A 
ATOM     54  H   UNL     1       8.797  -0.483 -18.429  1.00  0.00     0.167 HD
ATOM     55  C   UNL     1      13.088   0.286 -17.570  1.00  0.00     0.031 A 
ATOM     56  C   UNL     1       6.666  -2.007 -19.226  1.00  0.00     0.031 A 
ATOM     57  C   UNL     1      12.975   0.754 -18.933  1.00  0.00     0.049 A 
ATOM     58  C   UNL     1       7.941  -2.142 -19.971  1.00  0.00     0.074 A 
ATOM     59  C   UNL     1      13.000   1.993 -19.542  1.00  0.00     0.029 A 
ATOM     60  N   UNL     1      12.354  -0.094 -19.823  1.00  0.00    -0.354 N 
ATOM     61  N   UNL     1       8.287  -1.325 -20.925  1.00  0.00    -0.248 NA
ATOM     62  C   UNL     1       9.036  -2.857 -19.335  1.00  0.00     0.031 C 
ATOM     63  C   UNL     1      11.983   1.930 -20.543  1.00  0.00     0.029 A 
ATOM     64  C   UNL     1      11.451   0.638 -20.551  1.00  0.00     0.049 A 
ATOM     65  H   UNL     1      12.528  -1.058 -19.919  1.00  0.00     0.167 HD
ATOM     66  C   UNL     1       9.636  -1.078 -20.707  1.00  0.00     0.074 A 
ATOM     67  C   UNL     1      10.065  -2.129 -19.783  1.00  0.00     0.031 C 
ATOM     68  C   UNL     1      10.200   0.115 -21.061  1.00  0.00     0.031 A 
BRANCH  55  69
ATOM     69  C   UNL     1      13.878  -0.948 -17.224  1.00  0.00    -0.014 A 
ATOM     70  C   UNL     1      14.910  -1.341 -18.095  1.00  0.00     0.009 A 
ATOM     71  C   UNL     1      13.483  -1.881 -16.248  1.00  0.00     0.009 A 
ATOM     72  C   UNL     1      15.455  -2.628 -18.043  1.00  0.00     0.001 A 
ATOM     73  C   UNL     1      14.052  -3.154 -16.168  1.00  0.00     0.001 A 
ATOM     74  C   UNL     1      15.017  -3.538 -17.086  1.00  0.00     0.000 A 
ENDBRANCH  55  69
BRANCH  56  75
ATOM     75  C   UNL     1       5.698  -3.117 -19.090  1.00  0.00    -0.014 A 
ATOM     76  C   UNL     1       5.506  -4.057 -20.114  1.00  0.00     0.009 A 
ATOM     77  C   UNL     1       5.164  -3.415 -17.822  1.00  0.00     0.009 A 
ATOM     78  C   UNL     1       4.833  -5.264 -19.869  1.00  0.00     0.001 A 
ATOM     79  C   UNL     1       4.498  -4.621 -17.576  1.00  0.00     0.001 A 
ATOM     80  C   UNL     1       4.343  -5.552 -18.597  1.00  0.00     0.000 A 
ENDBRANCH  56  75
BRANCH  68  81
ATOM     81  C   UNL     1       9.350   1.077 -21.864  1.00  0.00    -0.014 A 
ATOM     82  C   UNL     1       8.192   1.691 -21.350  1.00  0.00     0.009 A 
ATOM     83  C   UNL     1       9.821   1.500 -23.114  1.00  0.00     0.009 A 
ATOM     84  C   UNL     1       7.517   2.681 -22.075  1.00  0.00     0.001 A 
ATOM     85  C   UNL     1       9.158   2.501 -23.830  1.00  0.00     0.001 A 
ATOM     86  C   UNL     1       8.006   3.089 -23.313  1.00  0.00     0.000 A 
ENDBRANCH  68  81
ENDBRANCH  42  43
ENDBRANCH  34  37
ENDBRANCH  32  33
ENDBRANCH  31  32
ENDBRANCH   1  31
TORSDOF 14
