REMARK SMILES NC(=O)[C@@H]1CCCCN1C(=O)N[C@H]1C=C[C@@H](C(=O)NCCCNC(=O)c2ccc(-c3c4nc(c(-c5ccccc5)c5ccc([nH]5)c(-c5ccccc5)c5nc(c(-c6ccccc6)c6ccc3[nH]6)C=C5)C=C4)cc2)C1
REMARK SMILES IDX 20 1 19 2 17 3 18 4 16 6 13 7 14 8 74 9 15 10 12 11 10 12
REMARK SMILES IDX 11 13 9 15 4 16 5 17 6 18 8 19 7 20 2 21 1 22 3 25 21 26
REMARK SMILES IDX 22 27 23 28 24 29 25 31 26 32 27 33 73 34 28 35 72 36 29 37
REMARK SMILES IDX 30 38 31 39 66 40 32 41 71 42 65 43 67 44 33 45 70 46 64 47
REMARK SMILES IDX 63 48 34 50 56 51 41 52 55 53 42 54 45 55 54 56 68 57 43 58
REMARK SMILES IDX 44 59 53 61 69 62 46 63 35 64 36 65 40 66 37 67 39 68 38 69
REMARK SMILES IDX 57 70 58 71 62 72 59 73 61 74 60 75 47 76 48 77 52 78 49 79
REMARK SMILES IDX 51 80 50 81
REMARK H PARENT 19 5 12 14 1 23 1 24 23 30 67 49 45 60
REMARK Flexibility Score: inf
ROOT
ATOM      1  C   UNL     1      -3.671   6.527   3.473  1.00  0.00     0.117 C 
ENDROOT
BRANCH   1   2
ATOM      2  N   UNL     1      -3.619   6.699   4.914  1.00  0.00    -0.356 N 
ATOM      3  C   UNL     1      -2.556   6.743   5.763  1.00  0.00     0.227 C 
ATOM      4  O   UNL     1      -2.794   6.912   6.963  1.00  0.00    -0.274 OA
ATOM      5  H   UNL     1      -4.497   6.801   5.348  1.00  0.00     0.163 HD
BRANCH   3   6
ATOM      6  C   UNL     1      -1.116   6.573   5.279  1.00  0.00     0.103 C 
ATOM      7  C   UNL     1       0.135   5.391   3.541  1.00  0.00     0.107 C 
ATOM      8  C   UNL     1      -0.091   6.829   3.184  1.00  0.00    -0.006 C 
ATOM      9  C   UNL     1      -0.817   5.176   4.728  1.00  0.00     0.047 C 
ATOM     10  C   UNL     1      -0.733   7.488   4.156  1.00  0.00    -0.016 C 
BRANCH   7  11
ATOM     11  N   UNL     1      -0.156   4.545   2.406  1.00  0.00    -0.332 N 
ATOM     12  C   UNL     1       0.091   3.268   2.049  1.00  0.00     0.318 C 
ATOM     13  O   UNL     1      -0.264   2.998   0.899  1.00  0.00    -0.249 OA
ATOM     14  H   UNL     1      -0.667   5.024   1.715  1.00  0.00     0.165 HD
BRANCH  12  15
ATOM     15  N   UNL     1       0.669   2.337   2.876  1.00  0.00    -0.313 N 
ATOM     16  C   UNL     1       0.944   0.975   2.331  1.00  0.00     0.176 C 
ATOM     17  C   UNL     1       0.795  -0.102   3.437  1.00  0.00     0.035 C 
ATOM     18  C   UNL     1       1.565   0.220   4.707  1.00  0.00     0.004 C 
ATOM     19  C   UNL     1       1.441   2.621   4.084  1.00  0.00     0.122 C 
ATOM     20  C   UNL     1       1.199   1.608   5.189  1.00  0.00     0.022 C 
BRANCH  16  21
ATOM     21  C   UNL     1       0.095   0.406   1.161  1.00  0.00     0.240 C 
ATOM     22  N   UNL     1       0.798   0.164   0.008  1.00  0.00    -0.368 N 
ATOM     23  H   UNL     1       0.337  -0.197  -0.783  1.00  0.00     0.159 HD
ATOM     24  H   UNL     1       1.764   0.352  -0.028  1.00  0.00     0.159 HD
ATOM     25  O   UNL     1      -1.098   0.125   1.234  1.00  0.00    -0.273 OA
ENDBRANCH  16  21
ENDBRANCH  12  15
ENDBRANCH   7  11
ENDBRANCH   3   6
ENDBRANCH   1   2
BRANCH   1  26
ATOM     26  C   UNL     1      -4.460   5.293   3.070  1.00  0.00     0.042 C 
BRANCH  26  27
ATOM     27  C   UNL     1      -5.947   5.401   3.367  1.00  0.00     0.118 C 
BRANCH  27  28
ATOM     28  N   UNL     1      -6.592   6.463   2.604  1.00  0.00    -0.352 N 
ATOM     29  C   UNL     1      -7.576   6.392   1.649  1.00  0.00     0.251 C 
ATOM     30  H   UNL     1      -6.272   7.372   2.805  1.00  0.00     0.163 HD
ATOM     31  O   UNL     1      -7.842   7.379   0.972  1.00  0.00    -0.269 OA
BRANCH  29  32
ATOM     32  C   UNL     1      -8.305   5.126   1.428  1.00  0.00     0.039 A 
ATOM     33  C   UNL     1      -8.599   4.732   0.120  1.00  0.00     0.014 A 
ATOM     34  C   UNL     1      -8.714   4.339   2.507  1.00  0.00     0.014 A 
ATOM     35  C   UNL     1      -9.246   3.515  -0.105  1.00  0.00     0.010 A 
ATOM     36  C   UNL     1      -9.271   3.086   2.277  1.00  0.00     0.010 A 
ATOM     37  C   UNL     1      -9.554   2.667   0.970  1.00  0.00    -0.014 A 
BRANCH  37  38
ATOM     38  C   UNL     1     -10.188   1.343   0.757  1.00  0.00     0.031 A 
ATOM     39  C   UNL     1     -11.549   1.060   1.329  1.00  0.00     0.074 A 
ATOM     40  C   UNL     1      -9.510   0.374   0.111  1.00  0.00     0.049 A 
ATOM     41  N   UNL     1     -12.236  -0.055   1.318  1.00  0.00    -0.248 NA
ATOM     42  C   UNL     1     -12.216   2.168   2.033  1.00  0.00     0.031 C 
ATOM     43  C   UNL     1      -8.166   0.509  -0.455  1.00  0.00     0.029 A 
ATOM     44  N   UNL     1      -9.861  -0.923  -0.170  1.00  0.00    -0.354 N 
ATOM     45  C   UNL     1     -13.399   0.212   2.029  1.00  0.00     0.074 A 
ATOM     46  C   UNL     1     -13.303   1.575   2.504  1.00  0.00     0.031 C 
ATOM     47  C   UNL     1      -7.820  -0.648  -1.042  1.00  0.00     0.029 A 
ATOM     48  C   UNL     1      -8.894  -1.617  -0.856  1.00  0.00     0.049 A 
ATOM     49  H   UNL     1     -10.723  -1.318   0.095  1.00  0.00     0.167 HD
ATOM     50  C   UNL     1     -14.462  -0.596   2.250  1.00  0.00     0.031 A 
ATOM     51  C   UNL     1      -8.873  -2.894  -1.280  1.00  0.00     0.031 A 
ATOM     52  C   UNL     1     -14.563  -1.947   1.767  1.00  0.00     0.049 A 
ATOM     53  C   UNL     1     -10.059  -3.777  -1.008  1.00  0.00     0.074 A 
ATOM     54  C   UNL     1     -15.621  -2.830   1.890  1.00  0.00     0.029 A 
ATOM     55  N   UNL     1     -13.565  -2.610   1.071  1.00  0.00    -0.354 N 
ATOM     56  N   UNL     1     -11.179  -3.490  -0.392  1.00  0.00    -0.248 NA
ATOM     57  C   UNL     1      -9.978  -5.159  -1.501  1.00  0.00     0.031 C 
ATOM     58  C   UNL     1     -15.243  -4.046   1.310  1.00  0.00     0.029 A 
ATOM     59  C   UNL     1     -13.973  -3.900   0.777  1.00  0.00     0.049 A 
ATOM     60  H   UNL     1     -12.695  -2.222   0.822  1.00  0.00     0.167 HD
ATOM     61  C   UNL     1     -11.949  -4.644  -0.447  1.00  0.00     0.074 A 
ATOM     62  C   UNL     1     -11.173  -5.630  -1.172  1.00  0.00     0.031 C 
ATOM     63  C   UNL     1     -13.188  -4.868   0.054  1.00  0.00     0.031 A 
BRANCH  50  64
ATOM     64  C   UNL     1     -15.599  -0.034   3.058  1.00  0.00    -0.014 A 
ATOM     65  C   UNL     1     -16.422   0.985   2.549  1.00  0.00     0.009 A 
ATOM     66  C   UNL     1     -15.866  -0.543   4.338  1.00  0.00     0.009 A 
ATOM     67  C   UNL     1     -17.459   1.511   3.322  1.00  0.00     0.001 A 
ATOM     68  C   UNL     1     -16.923  -0.037   5.097  1.00  0.00     0.001 A 
ATOM     69  C   UNL     1     -17.711   0.996   4.593  1.00  0.00     0.000 A 
ENDBRANCH  50  64
BRANCH  51  70
ATOM     70  C   UNL     1      -7.696  -3.410  -2.026  1.00  0.00    -0.014 A 
ATOM     71  C   UNL     1      -7.796  -3.698  -3.397  1.00  0.00     0.009 A 
ATOM     72  C   UNL     1      -6.469  -3.619  -1.377  1.00  0.00     0.009 A 
ATOM     73  C   UNL     1      -6.699  -4.208  -4.095  1.00  0.00     0.001 A 
ATOM     74  C   UNL     1      -5.366  -4.101  -2.085  1.00  0.00     0.001 A 
ATOM     75  C   UNL     1      -5.484  -4.404  -3.440  1.00  0.00     0.000 A 
ENDBRANCH  51  70
BRANCH  63  76
ATOM     76  C   UNL     1     -13.797  -6.219  -0.197  1.00  0.00    -0.014 A 
ATOM     77  C   UNL     1     -13.335  -7.364   0.470  1.00  0.00     0.009 A 
ATOM     78  C   UNL     1     -14.877  -6.337  -1.085  1.00  0.00     0.009 A 
ATOM     79  C   UNL     1     -13.922  -8.607   0.226  1.00  0.00     0.001 A 
ATOM     80  C   UNL     1     -15.482  -7.575  -1.304  1.00  0.00     0.001 A 
ATOM     81  C   UNL     1     -14.998  -8.710  -0.656  1.00  0.00     0.000 A 
ENDBRANCH  63  76
ENDBRANCH  37  38
ENDBRANCH  29  32
ENDBRANCH  27  28
ENDBRANCH  26  27
ENDBRANCH   1  26
TORSDOF 13
