REMARK SMILES O=C(NCCCNC(=O)[C@@H]1C[C@@H](O)CN1C(=O)c1ccccc1)c1ccc(-c2c3nc(c(-c4ccccc4)c4ccc([nH]4)c(-c4ccccc4)c4nc(c(-c5ccccc5)c5ccc2[nH]5)C=C4)C=C3)cc1
REMARK SMILES IDX 5 1 4 2 3 3 1 4 2 5 24 7 25 8 71 9 26 10 70 11 27 12 28 13
REMARK SMILES IDX 29 14 64 15 30 16 69 17 63 18 65 19 31 20 68 21 62 22 61 23
REMARK SMILES IDX 32 25 54 26 39 27 53 28 40 29 43 30 52 31 66 32 41 33 42 34
REMARK SMILES IDX 51 36 67 37 44 38 33 39 34 40 38 41 35 42 37 43 36 44 55 45
REMARK SMILES IDX 56 46 60 47 57 48 59 49 58 50 45 51 46 52 50 53 47 54 49 55
REMARK SMILES IDX 48 56 6 57 7 58 8 59 9 61 10 62 11 63 15 64 12 65 14 66
REMARK SMILES IDX 16 67 17 68 18 69 19 70 23 71 20 72 22 73 21 74 13 75
REMARK H PARENT 3 6 65 24 43 35 7 60 13 76
REMARK Flexibility Score: inf
ROOT
ATOM      1  C   UNL     1       5.891  -1.867   5.271  1.00  0.00     0.042 C 
ENDROOT
BRANCH   1   2
ATOM      2  C   UNL     1       7.023  -1.088   5.946  1.00  0.00     0.118 C 
BRANCH   2   3
ATOM      3  N   UNL     1       7.220   0.238   5.384  1.00  0.00    -0.352 N 
ATOM      4  O   UNL     1       7.401   2.480   5.356  1.00  0.00    -0.269 OA
ATOM      5  C   UNL     1       7.376   1.446   6.019  1.00  0.00     0.251 C 
ATOM      6  H   UNL     1       7.245   0.276   4.401  1.00  0.00     0.163 HD
BRANCH   5   7
ATOM      7  C   UNL     1       7.482   1.519   7.494  1.00  0.00     0.039 A 
ATOM      8  C   UNL     1       8.296   0.641   8.214  1.00  0.00     0.014 A 
ATOM      9  C   UNL     1       6.777   2.524   8.165  1.00  0.00     0.014 A 
ATOM     10  C   UNL     1       8.312   0.692   9.607  1.00  0.00     0.010 A 
ATOM     11  C   UNL     1       6.841   2.612   9.558  1.00  0.00     0.010 A 
ATOM     12  C   UNL     1       7.584   1.677  10.294  1.00  0.00    -0.014 A 
BRANCH  12  13
ATOM     13  C   UNL     1       7.631   1.739  11.778  1.00  0.00     0.031 A 
ATOM     14  C   UNL     1       6.408   1.446  12.603  1.00  0.00     0.074 A 
ATOM     15  C   UNL     1       8.789   2.056  12.389  1.00  0.00     0.049 A 
ATOM     16  N   UNL     1       6.274   1.443  13.906  1.00  0.00    -0.248 NA
ATOM     17  C   UNL     1       5.174   1.119  11.873  1.00  0.00     0.031 C 
ATOM     18  C   UNL     1      10.046   2.370  11.706  1.00  0.00     0.029 A 
ATOM     19  N   UNL     1       9.098   2.159  13.721  1.00  0.00    -0.354 N 
ATOM     20  C   UNL     1       4.943   1.131  14.152  1.00  0.00     0.074 A 
ATOM     21  C   UNL     1       4.303   0.977  12.863  1.00  0.00     0.031 C 
ATOM     22  C   UNL     1      10.998   2.597  12.624  1.00  0.00     0.029 A 
ATOM     23  C   UNL     1      10.409   2.494  13.955  1.00  0.00     0.049 A 
ATOM     24  H   UNL     1       8.444   2.006  14.441  1.00  0.00     0.167 HD
ATOM     25  C   UNL     1       4.311   0.979  15.341  1.00  0.00     0.031 A 
ATOM     26  C   UNL     1      11.066   2.707  15.110  1.00  0.00     0.031 A 
ATOM     27  C   UNL     1       4.943   1.134  16.626  1.00  0.00     0.049 A 
ATOM     28  C   UNL     1      10.335   2.567  16.413  1.00  0.00     0.074 A 
ATOM     29  C   UNL     1       4.390   0.963  17.884  1.00  0.00     0.029 A 
ATOM     30  N   UNL     1       6.264   1.503  16.817  1.00  0.00    -0.354 N 
ATOM     31  N   UNL     1       9.087   2.228  16.626  1.00  0.00    -0.248 NA
ATOM     32  C   UNL     1      11.105   2.837  17.635  1.00  0.00     0.031 C 
ATOM     33  C   UNL     1       5.365   1.276  18.837  1.00  0.00     0.029 A 
ATOM     34  C   UNL     1       6.539   1.591  18.173  1.00  0.00     0.049 A 
ATOM     35  H   UNL     1       6.913   1.677  16.097  1.00  0.00     0.167 HD
ATOM     36  C   UNL     1       8.927   2.225  18.005  1.00  0.00     0.074 A 
ATOM     37  C   UNL     1      10.210   2.579  18.578  1.00  0.00     0.031 C 
ATOM     38  C   UNL     1       7.816   1.951  18.731  1.00  0.00     0.031 A 
BRANCH  25  39
ATOM     39  C   UNL     1       2.845   0.649  15.309  1.00  0.00    -0.014 A 
ATOM     40  C   UNL     1       2.394  -0.627  14.934  1.00  0.00     0.009 A 
ATOM     41  C   UNL     1       1.905   1.614  15.701  1.00  0.00     0.009 A 
ATOM     42  C   UNL     1       1.027  -0.917  14.922  1.00  0.00     0.001 A 
ATOM     43  C   UNL     1       0.541   1.313  15.711  1.00  0.00     0.001 A 
ATOM     44  C   UNL     1       0.103   0.051  15.314  1.00  0.00     0.000 A 
ENDBRANCH  25  39
BRANCH  26  45
ATOM     45  C   UNL     1      12.503   3.080  15.080  1.00  0.00    -0.014 A 
ATOM     46  C   UNL     1      13.486   2.167  15.488  1.00  0.00     0.009 A 
ATOM     47  C   UNL     1      12.898   4.349  14.628  1.00  0.00     0.009 A 
ATOM     48  C   UNL     1      14.836   2.523  15.460  1.00  0.00     0.001 A 
ATOM     49  C   UNL     1      14.249   4.692  14.575  1.00  0.00     0.001 A 
ATOM     50  C   UNL     1      15.216   3.782  14.997  1.00  0.00     0.000 A 
ENDBRANCH  26  45
BRANCH  38  51
ATOM     51  C   UNL     1       7.947   1.998  20.226  1.00  0.00    -0.014 A 
ATOM     52  C   UNL     1       8.048   3.220  20.910  1.00  0.00     0.009 A 
ATOM     53  C   UNL     1       7.937   0.804  20.963  1.00  0.00     0.009 A 
ATOM     54  C   UNL     1       8.169   3.242  22.300  1.00  0.00     0.001 A 
ATOM     55  C   UNL     1       8.033   0.830  22.355  1.00  0.00     0.001 A 
ATOM     56  C   UNL     1       8.157   2.048  23.022  1.00  0.00     0.000 A 
ENDBRANCH  38  51
ENDBRANCH  12  13
ENDBRANCH   5   7
ENDBRANCH   2   3
ENDBRANCH   1   2
BRANCH   1  57
ATOM     57  C   UNL     1       6.146  -2.212   3.800  1.00  0.00     0.117 C 
BRANCH  57  58
ATOM     58  N   UNL     1       7.360  -2.990   3.662  1.00  0.00    -0.354 N 
ATOM     59  C   UNL     1       7.554  -4.338   3.617  1.00  0.00     0.242 C 
ATOM     60  H   UNL     1       8.183  -2.455   3.587  1.00  0.00     0.163 HD
ATOM     61  O   UNL     1       8.664  -4.734   3.989  1.00  0.00    -0.273 OA
BRANCH  59  62
ATOM     62  C   UNL     1       6.456  -5.290   3.072  1.00  0.00     0.177 C 
ATOM     63  C   UNL     1       5.188  -5.325   3.936  1.00  0.00     0.069 C 
ATOM     64  N   UNL     1       6.949  -6.677   3.112  1.00  0.00    -0.324 N 
ATOM     65  C   UNL     1       4.841  -6.807   4.048  1.00  0.00     0.136 C 
ATOM     66  C   UNL     1       6.208  -7.478   4.074  1.00  0.00     0.152 C 
BRANCH  64  67
ATOM     67  C   UNL     1       7.972  -7.094   2.285  1.00  0.00     0.254 C 
ATOM     68  O   UNL     1       8.376  -6.444   1.327  1.00  0.00    -0.269 OA
BRANCH  67  69
ATOM     69  C   UNL     1       8.646  -8.361   2.629  1.00  0.00     0.040 A 
ATOM     70  C   UNL     1       9.822  -8.304   3.384  1.00  0.00     0.014 A 
ATOM     71  C   UNL     1       8.134  -9.584   2.192  1.00  0.00     0.014 A 
ATOM     72  C   UNL     1      10.482  -9.487   3.718  1.00  0.00     0.001 A 
ATOM     73  C   UNL     1       8.794 -10.764   2.538  1.00  0.00     0.001 A 
ATOM     74  C   UNL     1       9.966 -10.715   3.299  1.00  0.00     0.000 A 
ENDBRANCH  67  69
ENDBRANCH  64  67
BRANCH  65  75
ATOM     75  O   UNL     1       4.107  -7.209   2.888  1.00  0.00    -0.391 OA
ATOM     76  H   UNL     1       4.622  -7.002   2.092  1.00  0.00     0.211 HD
ENDBRANCH  65  75
ENDBRANCH  59  62
ENDBRANCH  57  58
ENDBRANCH   1  57
TORSDOF 13
