REMARK SMILES Cc1ccc(S(=O)(=O)n2cc(C(=O)C(=O)N[C@@H](Cc3c[nH]c4ccccc34)C(=O)NCC(=O)NCCCNC(=O)c3ccc(-c4c5nc(c(-c6ccccc6)c6ccc([nH]6)c(-c6ccccc6)c6nc(c(-c7ccccc7)c7ccc4[nH]7)C=C6)C=C5)cc3)c3ccccc32)cc1
REMARK SMILES IDX 32 1 33 2 34 3 31 5 30 6 28 7 29 8 17 10 16 11 14 12 15 13
REMARK SMILES IDX 12 15 13 16 11 17 9 18 10 19 94 20 89 21 93 22 90 23 92 24
REMARK SMILES IDX 91 25 6 26 7 27 8 28 5 29 1 30 2 31 3 32 96 33 4 34 95 35
REMARK SMILES IDX 18 36 19 37 20 38 27 39 21 40 22 41 26 42 23 44 25 45 24 46
REMARK SMILES IDX 35 47 36 48 37 49 38 50 39 51 40 53 41 54 42 55 88 56 43 57
REMARK SMILES IDX 87 58 44 59 45 60 46 61 81 62 47 63 86 64 80 65 82 66 48 67
REMARK SMILES IDX 85 68 79 69 78 70 49 72 71 73 56 74 70 75 57 76 60 77 69 78
REMARK SMILES IDX 83 79 58 80 59 81 68 83 84 84 61 85 50 86 51 87 55 88 52 89
REMARK SMILES IDX 54 90 53 91 72 92 73 93 77 94 74 95 76 96 75 97 62 98 63 99
REMARK SMILES IDX 67 100 64 101 66 102 65 103
REMARK H PARENT 34 4 30 9 16 14 21 43 38 52 82 71 60 82
REMARK Flexibility Score: inf
ROOT
ATOM      1  C   UNL     1     -12.268   5.241  -2.391  1.00  0.00     0.239 C 
ATOM      2  O   UNL     1     -13.221   5.853  -2.872  1.00  0.00    -0.273 OA
ATOM      3  N   UNL     1     -10.993   5.576  -2.764  1.00  0.00    -0.355 N 
ATOM      4  H   UNL     1     -10.892   6.351  -3.363  1.00  0.00     0.163 HD
ENDROOT
BRANCH   1   5
ATOM      5  C   UNL     1     -12.456   4.132  -1.349  1.00  0.00     0.216 C 
BRANCH   5   6
ATOM      6  N   UNL     1     -12.250   2.759  -1.775  1.00  0.00    -0.345 N 
ATOM      7  C   UNL     1     -11.712   1.684  -1.133  1.00  0.00     0.243 C 
ATOM      8  O   UNL     1     -11.998   0.581  -1.617  1.00  0.00    -0.273 OA
ATOM      9  H   UNL     1     -12.553   2.572  -2.693  1.00  0.00     0.164 HD
BRANCH   7  10
ATOM     10  C   UNL     1     -10.877   1.740   0.188  1.00  0.00     0.176 C 
BRANCH  10  11
ATOM     11  N   UNL     1      -9.707   2.646   0.224  1.00  0.00    -0.337 N 
ATOM     12  C   UNL     1      -8.355   2.436  -0.044  1.00  0.00     0.293 C 
ATOM     13  O   UNL     1      -7.548   3.337   0.170  1.00  0.00    -0.265 OA
ATOM     14  H   UNL     1      -9.924   3.570   0.486  1.00  0.00     0.164 HD
BRANCH  12  15
ATOM     15  C   UNL     1      -7.862   1.141  -0.704  1.00  0.00     0.252 C 
ATOM     16  O   UNL     1      -8.561   0.718  -1.624  1.00  0.00    -0.283 OA
BRANCH  15  17
ATOM     17  C   UNL     1      -6.684   0.385  -0.239  1.00  0.00     0.054 A 
ATOM     18  N   UNL     1      -4.683  -0.363   0.529  1.00  0.00    -0.240 N 
ATOM     19  C   UNL     1      -5.364   0.764   0.058  1.00  0.00     0.117 A 
ATOM     20  C   UNL     1      -5.625  -1.398   0.661  1.00  0.00     0.065 A 
ATOM     21  C   UNL     1      -6.704  -1.039  -0.137  1.00  0.00     0.012 A 
ATOM     22  C   UNL     1      -5.503  -2.704   1.178  1.00  0.00     0.028 A 
ATOM     23  C   UNL     1      -7.565  -2.054  -0.608  1.00  0.00     0.011 A 
ATOM     24  C   UNL     1      -6.331  -3.697   0.660  1.00  0.00     0.002 A 
ATOM     25  C   UNL     1      -7.320  -3.385  -0.261  1.00  0.00     0.001 A 
BRANCH  18  26
ATOM     26  S   UNL     1      -3.130  -0.976   0.015  1.00  0.00     0.268 S 
ATOM     27  O   UNL     1      -3.390  -1.419  -1.344  1.00  0.00    -0.201 OA
ATOM     28  O   UNL     1      -2.827  -1.936   1.071  1.00  0.00    -0.201 OA
BRANCH  26  29
ATOM     29  C   UNL     1      -1.603  -0.111  -0.072  1.00  0.00     0.088 A 
ATOM     30  C   UNL     1       2.573   1.020  -0.043  1.00  0.00     0.044 C 
ATOM     31  C   UNL     1       1.112   0.674  -0.100  1.00  0.00    -0.051 A 
ATOM     32  C   UNL     1       0.781  -0.647  -0.364  1.00  0.00     0.005 A 
ATOM     33  C   UNL     1       0.074   1.599   0.154  1.00  0.00     0.005 A 
ATOM     34  C   UNL     1      -0.551  -1.020  -0.362  1.00  0.00     0.022 A 
ATOM     35  C   UNL     1      -1.295   1.215   0.175  1.00  0.00     0.022 A 
ENDBRANCH  26  29
ENDBRANCH  18  26
ENDBRANCH  15  17
ENDBRANCH  12  15
ENDBRANCH  10  11
BRANCH  10  36
ATOM     36  C   UNL     1     -11.773   1.853   1.465  1.00  0.00     0.072 C 
BRANCH  36  37
ATOM     37  C   UNL     1     -12.546   3.134   1.683  1.00  0.00    -0.020 A 
ATOM     38  C   UNL     1     -13.923   3.265   1.591  1.00  0.00     0.087 A 
ATOM     39  C   UNL     1     -12.041   4.454   1.965  1.00  0.00     0.003 A 
ATOM     40  N   UNL     1     -14.245   4.595   1.667  1.00  0.00    -0.361 N 
ATOM     41  C   UNL     1     -13.098   5.347   1.768  1.00  0.00     0.046 A 
ATOM     42  C   UNL     1     -10.764   4.993   2.226  1.00  0.00     0.010 A 
ATOM     43  H   UNL     1     -15.160   4.958   1.651  1.00  0.00     0.166 HD
ATOM     44  C   UNL     1     -12.917   6.732   1.670  1.00  0.00     0.026 A 
ATOM     45  C   UNL     1     -10.558   6.373   2.105  1.00  0.00     0.001 A 
ATOM     46  C   UNL     1     -11.616   7.224   1.800  1.00  0.00     0.002 A 
ENDBRANCH  36  37
ENDBRANCH  10  36
ENDBRANCH   7  10
ENDBRANCH   5   6
ENDBRANCH   1   5
BRANCH   3  47
ATOM     47  C   UNL     1      -9.781   4.894  -2.359  1.00  0.00     0.117 C 
BRANCH  47  48
ATOM     48  C   UNL     1      -9.602   3.596  -3.141  1.00  0.00     0.042 C 
BRANCH  48  49
ATOM     49  C   UNL     1      -8.632   3.744  -4.286  1.00  0.00     0.118 C 
BRANCH  49  50
ATOM     50  N   UNL     1      -7.273   3.300  -4.006  1.00  0.00    -0.352 N 
ATOM     51  C   UNL     1      -6.112   3.601  -4.710  1.00  0.00     0.251 C 
ATOM     52  H   UNL     1      -7.163   2.714  -3.222  1.00  0.00     0.163 HD
ATOM     53  O   UNL     1      -5.039   3.149  -4.381  1.00  0.00    -0.269 OA
BRANCH  51  54
ATOM     54  C   UNL     1      -6.214   4.618  -5.792  1.00  0.00     0.039 A 
ATOM     55  C   UNL     1      -5.429   5.763  -5.647  1.00  0.00     0.014 A 
ATOM     56  C   UNL     1      -7.302   4.602  -6.661  1.00  0.00     0.014 A 
ATOM     57  C   UNL     1      -5.916   6.971  -6.131  1.00  0.00     0.010 A 
ATOM     58  C   UNL     1      -7.849   5.816  -7.029  1.00  0.00     0.010 A 
ATOM     59  C   UNL     1      -7.192   7.004  -6.692  1.00  0.00    -0.014 A 
BRANCH  59  60
ATOM     60  C   UNL     1      -7.951   8.242  -6.838  1.00  0.00     0.031 A 
ATOM     61  C   UNL     1      -8.163   8.814  -8.179  1.00  0.00     0.074 A 
ATOM     62  C   UNL     1      -8.440   8.886  -5.754  1.00  0.00     0.049 A 
ATOM     63  N   UNL     1      -8.304  10.075  -8.418  1.00  0.00    -0.248 NA
ATOM     64  C   UNL     1      -8.162   7.993  -9.383  1.00  0.00     0.031 C 
ATOM     65  C   UNL     1      -9.359  10.021  -5.729  1.00  0.00     0.029 A 
ATOM     66  N   UNL     1      -8.012   8.776  -4.440  1.00  0.00    -0.354 N 
ATOM     67  C   UNL     1      -8.705  10.199  -9.727  1.00  0.00     0.074 A 
ATOM     68  C   UNL     1      -8.508   8.891 -10.307  1.00  0.00     0.031 C 
ATOM     69  C   UNL     1      -9.244  10.648  -4.546  1.00  0.00     0.029 A 
ATOM     70  C   UNL     1      -8.155  10.020  -3.817  1.00  0.00     0.049 A 
ATOM     71  H   UNL     1      -7.666   7.958  -4.016  1.00  0.00     0.167 HD
ATOM     72  C   UNL     1      -9.304  11.350 -10.142  1.00  0.00     0.031 A 
ATOM     73  C   UNL     1      -7.070  10.679  -3.314  1.00  0.00     0.031 A 
ATOM     74  C   UNL     1      -9.309  12.370  -9.093  1.00  0.00     0.049 A 
ATOM     75  C   UNL     1      -6.778  11.989  -4.020  1.00  0.00     0.074 A 
ATOM     76  C   UNL     1     -10.280  12.809  -8.208  1.00  0.00     0.029 A 
ATOM     77  N   UNL     1      -8.099  12.881  -8.632  1.00  0.00    -0.354 N 
ATOM     78  N   UNL     1      -7.298  12.337  -5.165  1.00  0.00    -0.248 NA
ATOM     79  C   UNL     1      -5.842  12.991  -3.511  1.00  0.00     0.031 C 
ATOM     80  C   UNL     1      -9.633  13.520  -7.163  1.00  0.00     0.029 A 
ATOM     81  C   UNL     1      -8.276  13.540  -7.430  1.00  0.00     0.049 A 
ATOM     82  H   UNL     1      -7.237  12.786  -9.098  1.00  0.00     0.167 HD
ATOM     83  C   UNL     1      -6.789  13.548  -5.555  1.00  0.00     0.074 A 
ATOM     84  C   UNL     1      -5.893  13.926  -4.477  1.00  0.00     0.031 C 
ATOM     85  C   UNL     1      -7.138  14.132  -6.739  1.00  0.00     0.031 A 
BRANCH  72  86
ATOM     86  C   UNL     1     -10.163  11.413 -11.385  1.00  0.00    -0.014 A 
ATOM     87  C   UNL     1     -11.244  12.312 -11.439  1.00  0.00     0.009 A 
ATOM     88  C   UNL     1     -10.015  10.568 -12.498  1.00  0.00     0.009 A 
ATOM     89  C   UNL     1     -12.181  12.286 -12.482  1.00  0.00     0.001 A 
ATOM     90  C   UNL     1     -10.972  10.503 -13.521  1.00  0.00     0.001 A 
ATOM     91  C   UNL     1     -12.065  11.355 -13.506  1.00  0.00     0.000 A 
ENDBRANCH  72  86
BRANCH  73  92
ATOM     92  C   UNL     1      -6.036   9.768  -2.745  1.00  0.00    -0.014 A 
ATOM     93  C   UNL     1      -6.380   9.005  -1.610  1.00  0.00     0.009 A 
ATOM     94  C   UNL     1      -4.916   9.383  -3.494  1.00  0.00     0.009 A 
ATOM     95  C   UNL     1      -5.705   7.818  -1.311  1.00  0.00     0.001 A 
ATOM     96  C   UNL     1      -4.231   8.201  -3.179  1.00  0.00     0.001 A 
ATOM     97  C   UNL     1      -4.650   7.401  -2.116  1.00  0.00     0.000 A 
ENDBRANCH  73  92
BRANCH  85  98
ATOM     98  C   UNL     1      -6.501  15.361  -7.341  1.00  0.00    -0.014 A 
ATOM     99  C   UNL     1      -5.195  15.790  -7.068  1.00  0.00     0.009 A 
ATOM    100  C   UNL     1      -7.203  16.070  -8.342  1.00  0.00     0.009 A 
ATOM    101  C   UNL     1      -4.641  16.899  -7.724  1.00  0.00     0.001 A 
ATOM    102  C   UNL     1      -6.639  17.146  -9.030  1.00  0.00     0.001 A 
ATOM    103  C   UNL     1      -5.358  17.570  -8.710  1.00  0.00     0.000 A 
ENDBRANCH  85  98
ENDBRANCH  59  60
ENDBRANCH  51  54
ENDBRANCH  49  50
ENDBRANCH  48  49
ENDBRANCH  47  48
ENDBRANCH   3  47
TORSDOF 19
