REMARK SMILES CC(C)[C@@H](NC(=O)[C@@](C)([NH3+])C(F)(F)F)C(=O)NCCCNC(=O)c1ccc(-c2c3nc(c(-c4ccccc4)c4ccc([nH]4)c(-c4ccccc4)c4nc(c(-c5ccccc5)c5ccc2[nH]5)C=C4)C=C3)cc1
REMARK SMILES IDX 18 1 17 2 15 3 16 4 4 6 2 7 1 8 3 9 5 10 6 11 7 13 8 14 9 15
REMARK SMILES IDX 10 16 11 20 12 21 13 22 14 23 19 24 20 25 21 26 22 27 23 29
REMARK SMILES IDX 24 30 25 31 71 32 26 33 70 34 27 35 28 36 29 37 64 38 30 39
REMARK SMILES IDX 69 40 63 41 65 42 31 43 68 44 62 45 61 46 32 48 54 49 39 50
REMARK SMILES IDX 53 51 40 52 43 53 52 54 66 55 41 56 42 57 51 59 67 60 44 61
REMARK SMILES IDX 33 62 34 63 38 64 35 65 37 66 36 67 55 68 56 69 60 70 57 71
REMARK SMILES IDX 59 72 58 73 45 74 46 75 50 76 47 77 49 78 48 79
REMARK H PARENT 17 5 5 12 10 17 10 18 10 19 21 28 65 47 43 58
REMARK Flexibility Score: inf
ROOT
ATOM      1  C   UNL     1       0.666  -1.482   3.707  1.00  0.00     0.117 C 
ENDROOT
BRANCH   1   2
ATOM      2  N   UNL     1       0.125  -0.145   3.892  1.00  0.00    -0.354 N 
ATOM      3  C   UNL     1      -0.736   0.536   3.082  1.00  0.00     0.242 C 
ATOM      4  O   UNL     1      -1.308   1.526   3.545  1.00  0.00    -0.273 OA
ATOM      5  H   UNL     1       0.416   0.329   4.704  1.00  0.00     0.163 HD
BRANCH   3   6
ATOM      6  C   UNL     1      -0.906   0.134   1.613  1.00  0.00     0.174 C 
BRANCH   6   7
ATOM      7  C   UNL     1       0.443   0.439   0.876  1.00  0.00     0.015 C 
ATOM      8  C   UNL     1       0.372   0.202  -0.634  1.00  0.00     0.010 C 
ATOM      9  C   UNL     1       0.955   1.867   1.128  1.00  0.00     0.010 C 
ENDBRANCH   6   7
BRANCH   6  10
ATOM     10  N   UNL     1      -1.290  -1.284   1.501  1.00  0.00    -0.338 N 
ATOM     11  C   UNL     1      -2.399  -1.993   1.870  1.00  0.00     0.291 C 
ATOM     12  H   UNL     1      -0.602  -1.838   1.068  1.00  0.00     0.164 HD
ATOM     13  O   UNL     1      -2.455  -3.112   1.345  1.00  0.00    -0.267 OA
BRANCH  11  14
ATOM     14  C   UNL     1      -3.434  -1.558   2.945  1.00  0.00     0.267 C 
ATOM     15  C   UNL     1      -2.876  -1.691   4.373  1.00  0.00     0.100 C 
BRANCH  14  16
ATOM     16  N   UNL     1      -3.871  -0.139   2.724  1.00  0.00    -0.337 N 
ATOM     17  H   UNL     1      -3.063   0.480   2.789  1.00  0.00     0.345 HD
ATOM     18  H   UNL     1      -4.557   0.120   3.433  1.00  0.00     0.345 HD
ATOM     19  H   UNL     1      -4.291  -0.053   1.798  1.00  0.00     0.345 HD
ENDBRANCH  14  16
BRANCH  14  20
ATOM     20  C   UNL     1      -4.606  -2.591   2.864  1.00  0.00     0.453 C 
ATOM     21  F   UNL     1      -5.215  -2.618   1.661  1.00  0.00    -0.164 F 
ATOM     22  F   UNL     1      -4.222  -3.848   3.186  1.00  0.00    -0.164 F 
ATOM     23  F   UNL     1      -5.567  -2.250   3.772  1.00  0.00    -0.164 F 
ENDBRANCH  14  20
ENDBRANCH  11  14
ENDBRANCH   6  10
ENDBRANCH   3   6
ENDBRANCH   1   2
BRANCH   1  24
ATOM     24  C   UNL     1       1.729  -1.811   4.731  1.00  0.00     0.042 C 
BRANCH  24  25
ATOM     25  C   UNL     1       1.192  -1.829   6.152  1.00  0.00     0.118 C 
BRANCH  25  26
ATOM     26  N   UNL     1       0.337  -2.971   6.444  1.00  0.00    -0.352 N 
ATOM     27  C   UNL     1       0.470  -3.908   7.447  1.00  0.00     0.251 C 
ATOM     28  H   UNL     1      -0.438  -3.089   5.848  1.00  0.00     0.163 HD
ATOM     29  O   UNL     1      -0.282  -4.866   7.522  1.00  0.00    -0.269 OA
BRANCH  27  30
ATOM     30  C   UNL     1       1.588  -3.752   8.398  1.00  0.00     0.039 A 
ATOM     31  C   UNL     1       2.492  -4.803   8.552  1.00  0.00     0.014 A 
ATOM     32  C   UNL     1       1.813  -2.518   9.011  1.00  0.00     0.014 A 
ATOM     33  C   UNL     1       3.684  -4.579   9.242  1.00  0.00     0.010 A 
ATOM     34  C   UNL     1       3.050  -2.265   9.586  1.00  0.00     0.010 A 
ATOM     35  C   UNL     1       3.998  -3.292   9.710  1.00  0.00    -0.014 A 
BRANCH  35  36
ATOM     36  C   UNL     1       5.309  -2.994  10.340  1.00  0.00     0.031 A 
ATOM     37  C   UNL     1       5.355  -2.466  11.748  1.00  0.00     0.074 A 
ATOM     38  C   UNL     1       6.446  -3.119   9.628  1.00  0.00     0.049 A 
ATOM     39  N   UNL     1       6.387  -2.070  12.448  1.00  0.00    -0.248 NA
ATOM     40  C   UNL     1       4.066  -2.324  12.446  1.00  0.00     0.031 C 
ATOM     41  C   UNL     1       6.537  -3.561   8.233  1.00  0.00     0.029 A 
ATOM     42  N   UNL     1       7.751  -2.884   9.984  1.00  0.00    -0.354 N 
ATOM     43  C   UNL     1       5.867  -1.603  13.648  1.00  0.00     0.074 A 
ATOM     44  C   UNL     1       4.428  -1.702  13.556  1.00  0.00     0.031 C 
ATOM     45  C   UNL     1       7.829  -3.611   7.870  1.00  0.00     0.029 A 
ATOM     46  C   UNL     1       8.654  -3.168   8.988  1.00  0.00     0.049 A 
ATOM     47  H   UNL     1       8.014  -2.544  10.869  1.00  0.00     0.167 HD
ATOM     48  C   UNL     1       6.525  -1.158  14.744  1.00  0.00     0.031 A 
ATOM     49  C   UNL     1       9.998  -3.086   8.980  1.00  0.00     0.031 A 
ATOM     50  C   UNL     1       7.955  -1.096  14.852  1.00  0.00     0.049 A 
ATOM     51  C   UNL     1      10.711  -2.617  10.217  1.00  0.00     0.074 A 
ATOM     52  C   UNL     1       8.723  -0.732  15.943  1.00  0.00     0.029 A 
ATOM     53  N   UNL     1       8.834  -1.418  13.829  1.00  0.00    -0.354 N 
ATOM     54  N   UNL     1      10.207  -2.242  11.368  1.00  0.00    -0.248 NA
ATOM     55  C   UNL     1      12.178  -2.571  10.156  1.00  0.00     0.031 C 
ATOM     56  C   UNL     1      10.070  -0.797  15.568  1.00  0.00     0.029 A 
ATOM     57  C   UNL     1      10.138  -1.246  14.258  1.00  0.00     0.049 A 
ATOM     58  H   UNL     1       8.570  -1.723  12.932  1.00  0.00     0.167 HD
ATOM     59  C   UNL     1      11.295  -1.941  12.177  1.00  0.00     0.074 A 
ATOM     60  C   UNL     1      12.485  -2.190  11.389  1.00  0.00     0.031 C 
ATOM     61  C   UNL     1      11.308  -1.500  13.458  1.00  0.00     0.031 A 
BRANCH  48  62
ATOM     62  C   UNL     1       5.687  -0.711  15.909  1.00  0.00    -0.014 A 
ATOM     63  C   UNL     1       4.942  -1.632  16.665  1.00  0.00     0.009 A 
ATOM     64  C   UNL     1       5.637   0.648  16.253  1.00  0.00     0.009 A 
ATOM     65  C   UNL     1       4.125  -1.194  17.708  1.00  0.00     0.001 A 
ATOM     66  C   UNL     1       4.843   1.079  17.317  1.00  0.00     0.001 A 
ATOM     67  C   UNL     1       4.078   0.161  18.035  1.00  0.00     0.000 A 
ENDBRANCH  48  62
BRANCH  49  68
ATOM     68  C   UNL     1      10.762  -3.498   7.774  1.00  0.00    -0.014 A 
ATOM     69  C   UNL     1      11.492  -4.697   7.776  1.00  0.00     0.009 A 
ATOM     70  C   UNL     1      10.766  -2.704   6.617  1.00  0.00     0.009 A 
ATOM     71  C   UNL     1      12.227  -5.082   6.653  1.00  0.00     0.001 A 
ATOM     72  C   UNL     1      11.482  -3.103   5.487  1.00  0.00     0.001 A 
ATOM     73  C   UNL     1      12.219  -4.287   5.508  1.00  0.00     0.000 A 
ENDBRANCH  49  68
BRANCH  61  74
ATOM     74  C   UNL     1      12.650  -1.289  14.096  1.00  0.00    -0.014 A 
ATOM     75  C   UNL     1      13.454  -0.192  13.754  1.00  0.00     0.009 A 
ATOM     76  C   UNL     1      13.093  -2.179  15.088  1.00  0.00     0.009 A 
ATOM     77  C   UNL     1      14.691  -0.006  14.372  1.00  0.00     0.001 A 
ATOM     78  C   UNL     1      14.318  -1.975  15.723  1.00  0.00     0.001 A 
ATOM     79  C   UNL     1      15.120  -0.894  15.359  1.00  0.00     0.000 A 
ENDBRANCH  61  74
ENDBRANCH  35  36
ENDBRANCH  27  30
ENDBRANCH  25  26
ENDBRANCH  24  25
ENDBRANCH   1  24
TORSDOF 15
