REMARK SMILES COc1cccc(CC2(CO)CCN(c3nc(C)ccc3C(=O)NCCCNC(=O)c3ccc(-c4c5nc(c(-c6ccccc6)c6ccc([nH]6)c(-c6ccccc6)c6nc(c(-c7ccccc7)c7ccc4[nH]7)C=C6)C=C5)cc3)CC2)c1
REMARK SMILES IDX 25 1 24 2 22 3 23 4 21 6 15 7 16 8 17 9 20 10 18 11 19 12
REMARK SMILES IDX 14 13 9 14 12 15 80 16 13 17 79 18 8 19 7 20 3 21 4 22 81 23
REMARK SMILES IDX 5 24 6 25 2 26 1 27 10 28 11 29 26 31 27 32 28 33 29 34
REMARK SMILES IDX 30 36 31 37 32 38 78 39 33 40 77 41 34 42 35 43 36 44 71 45
REMARK SMILES IDX 37 46 76 47 70 48 72 49 38 50 75 51 69 52 68 53 39 55 61 56
REMARK SMILES IDX 46 57 60 58 47 59 50 60 59 61 73 62 48 63 49 64 58 66 74 67
REMARK SMILES IDX 51 68 40 69 41 70 45 71 42 72 44 73 43 74 62 75 63 76 67 77
REMARK SMILES IDX 64 78 66 79 65 80 52 81 53 82 57 83 54 84 56 85 55 86
REMARK H PARENT 24 5 11 30 28 35 72 54 50 65
REMARK Flexibility Score: inf
ROOT
ATOM      1  C   UNL     1      -2.020   1.138  -7.253  1.00  0.00     0.118 C 
ENDROOT
BRANCH   1   2
ATOM      2  N   UNL     1      -1.039   1.261  -6.194  1.00  0.00    -0.352 N 
ATOM      3  C   UNL     1       0.244   1.735  -6.063  1.00  0.00     0.255 C 
ATOM      4  O   UNL     1       0.735   1.419  -4.984  1.00  0.00    -0.269 OA
ATOM      5  H   UNL     1      -1.383   0.912  -5.340  1.00  0.00     0.163 HD
BRANCH   3   6
ATOM      6  C   UNL     1       0.982   2.559  -7.082  1.00  0.00     0.082 A 
ATOM      7  C   UNL     1       2.010   3.475  -6.751  1.00  0.00     0.141 A 
ATOM      8  N   UNL     1       2.469   4.362  -7.685  1.00  0.00    -0.235 NA
ATOM      9  C   UNL     1       2.017   4.330  -8.954  1.00  0.00     0.040 A 
ATOM     10  C   UNL     1       0.611   2.486  -8.433  1.00  0.00     0.019 A 
ATOM     11  C   UNL     1       2.578   5.353  -9.893  1.00  0.00     0.067 C 
ATOM     12  C   UNL     1       1.117   3.377  -9.376  1.00  0.00     0.024 A 
BRANCH   7  13
ATOM     13  N   UNL     1       2.692   3.592  -5.559  1.00  0.00    -0.356 N 
ATOM     14  C   UNL     1       4.574   4.037  -3.336  1.00  0.00     0.001 C 
ATOM     15  C   UNL     1       3.942   5.196  -4.153  1.00  0.00     0.031 C 
ATOM     16  C   UNL     1       4.520   2.734  -4.170  1.00  0.00     0.031 C 
ATOM     17  C   UNL     1       2.641   4.885  -4.898  1.00  0.00     0.119 C 
ATOM     18  C   UNL     1       3.163   2.448  -4.803  1.00  0.00     0.119 C 
BRANCH  14  19
ATOM     19  C   UNL     1       3.973   3.894  -1.890  1.00  0.00     0.045 C 
BRANCH  19  20
ATOM     20  C   UNL     1       2.527   3.501  -1.697  1.00  0.00    -0.044 A 
ATOM     21  C   UNL     1       0.827   1.798  -1.353  1.00  0.00     0.119 A 
ATOM     22  C   UNL     1      -0.174   2.748  -1.530  1.00  0.00     0.046 A 
ATOM     23  C   UNL     1       2.172   2.164  -1.447  1.00  0.00     0.050 A 
ATOM     24  C   UNL     1       0.167   4.086  -1.711  1.00  0.00     0.004 A 
ATOM     25  C   UNL     1       1.511   4.463  -1.763  1.00  0.00     0.004 A 
BRANCH  21  26
ATOM     26  O   UNL     1       0.425   0.500  -1.177  1.00  0.00    -0.497 OA
ATOM     27  C   UNL     1       0.943  -0.057   0.029  1.00  0.00     0.278 C 
ENDBRANCH  21  26
ENDBRANCH  19  20
ENDBRANCH  14  19
BRANCH  14  28
ATOM     28  C   UNL     1       6.089   4.354  -3.136  1.00  0.00     0.163 C 
BRANCH  28  29
ATOM     29  O   UNL     1       6.297   5.549  -2.394  1.00  0.00    -0.396 OA
ATOM     30  H   UNL     1       5.912   6.299  -2.875  1.00  0.00     0.210 HD
ENDBRANCH  28  29
ENDBRANCH  14  28
ENDBRANCH   7  13
ENDBRANCH   3   6
ENDBRANCH   1   2
BRANCH   1  31
ATOM     31  C   UNL     1      -1.912  -0.236  -7.921  1.00  0.00     0.042 C 
BRANCH  31  32
ATOM     32  C   UNL     1      -2.312  -1.397  -7.004  1.00  0.00     0.118 C 
BRANCH  32  33
ATOM     33  N   UNL     1      -3.736  -1.389  -6.696  1.00  0.00    -0.352 N 
ATOM     34  C   UNL     1      -4.730  -2.261  -7.065  1.00  0.00     0.251 C 
ATOM     35  H   UNL     1      -4.033  -0.638  -6.134  1.00  0.00     0.163 HD
ATOM     36  O   UNL     1      -5.905  -1.942  -6.911  1.00  0.00    -0.269 OA
BRANCH  34  37
ATOM     37  C   UNL     1      -4.404  -3.578  -7.653  1.00  0.00     0.039 A 
ATOM     38  C   UNL     1      -5.151  -4.032  -8.745  1.00  0.00     0.014 A 
ATOM     39  C   UNL     1      -3.406  -4.387  -7.105  1.00  0.00     0.014 A 
ATOM     40  C   UNL     1      -4.850  -5.263  -9.331  1.00  0.00     0.010 A 
ATOM     41  C   UNL     1      -3.068  -5.588  -7.724  1.00  0.00     0.010 A 
ATOM     42  C   UNL     1      -3.780  -6.033  -8.849  1.00  0.00    -0.014 A 
BRANCH  42  43
ATOM     43  C   UNL     1      -3.353  -7.277  -9.538  1.00  0.00     0.031 A 
ATOM     44  C   UNL     1      -3.458  -8.610  -8.855  1.00  0.00     0.074 A 
ATOM     45  C   UNL     1      -2.775  -7.187 -10.751  1.00  0.00     0.049 A 
ATOM     46  N   UNL     1      -3.046  -9.782  -9.268  1.00  0.00    -0.248 NA
ATOM     47  C   UNL     1      -4.083  -8.623  -7.525  1.00  0.00     0.031 C 
ATOM     48  C   UNL     1      -2.572  -5.946 -11.501  1.00  0.00     0.029 A 
ATOM     49  N   UNL     1      -2.231  -8.156 -11.556  1.00  0.00    -0.354 N 
ATOM     50  C   UNL     1      -3.344 -10.669  -8.242  1.00  0.00     0.074 A 
ATOM     51  C   UNL     1      -3.936  -9.892  -7.173  1.00  0.00     0.031 C 
ATOM     52  C   UNL     1      -1.954  -6.229 -12.658  1.00  0.00     0.029 A 
ATOM     53  C   UNL     1      -1.681  -7.661 -12.713  1.00  0.00     0.049 A 
ATOM     54  H   UNL     1      -2.235  -9.114 -11.327  1.00  0.00     0.167 HD
ATOM     55  C   UNL     1      -3.148 -12.010  -8.196  1.00  0.00     0.031 A 
ATOM     56  C   UNL     1      -1.010  -8.283 -13.700  1.00  0.00     0.031 A 
ATOM     57  C   UNL     1      -2.558 -12.780  -9.259  1.00  0.00     0.049 A 
ATOM     58  C   UNL     1      -0.786  -9.764 -13.621  1.00  0.00     0.074 A 
ATOM     59  C   UNL     1      -2.395 -14.152  -9.343  1.00  0.00     0.029 A 
ATOM     60  N   UNL     1      -2.016 -12.242 -10.416  1.00  0.00    -0.354 N 
ATOM     61  N   UNL     1      -1.151 -10.602 -12.682  1.00  0.00    -0.248 NA
ATOM     62  C   UNL     1      -0.060 -10.384 -14.738  1.00  0.00     0.031 C 
ATOM     63  C   UNL     1      -1.701 -14.439 -10.525  1.00  0.00     0.029 A 
ATOM     64  C   UNL     1      -1.479 -13.250 -11.201  1.00  0.00     0.049 A 
ATOM     65  H   UNL     1      -2.014 -11.285 -10.647  1.00  0.00     0.167 HD
ATOM     66  C   UNL     1      -0.705 -11.850 -13.095  1.00  0.00     0.074 A 
ATOM     67  C   UNL     1      -0.063 -11.661 -14.381  1.00  0.00     0.031 C 
ATOM     68  C   UNL     1      -0.816 -13.044 -12.464  1.00  0.00     0.031 A 
BRANCH  55  69
ATOM     69  C   UNL     1      -3.558 -12.721  -6.936  1.00  0.00    -0.014 A 
ATOM     70  C   UNL     1      -4.910 -12.874  -6.588  1.00  0.00     0.009 A 
ATOM     71  C   UNL     1      -2.576 -13.258  -6.089  1.00  0.00     0.009 A 
ATOM     72  C   UNL     1      -5.268 -13.506  -5.395  1.00  0.00     0.001 A 
ATOM     73  C   UNL     1      -2.937 -13.915  -4.910  1.00  0.00     0.001 A 
ATOM     74  C   UNL     1      -4.281 -14.027  -4.558  1.00  0.00     0.000 A 
ENDBRANCH  55  69
BRANCH  56  75
ATOM     75  C   UNL     1      -0.497  -7.487 -14.844  1.00  0.00    -0.014 A 
ATOM     76  C   UNL     1      -1.130  -7.548 -16.093  1.00  0.00     0.009 A 
ATOM     77  C   UNL     1       0.599  -6.625 -14.676  1.00  0.00     0.009 A 
ATOM     78  C   UNL     1      -0.671  -6.767 -17.156  1.00  0.00     0.001 A 
ATOM     79  C   UNL     1       1.040  -5.827 -15.733  1.00  0.00     0.001 A 
ATOM     80  C   UNL     1       0.407  -5.902 -16.973  1.00  0.00     0.000 A 
ENDBRANCH  56  75
BRANCH  68  81
ATOM     81  C   UNL     1      -0.221 -14.239 -13.153  1.00  0.00    -0.014 A 
ATOM     82  C   UNL     1       1.169 -14.427 -13.199  1.00  0.00     0.009 A 
ATOM     83  C   UNL     1      -1.058 -15.206 -13.730  1.00  0.00     0.009 A 
ATOM     84  C   UNL     1       1.710 -15.547 -13.832  1.00  0.00     0.001 A 
ATOM     85  C   UNL     1      -0.516 -16.338 -14.340  1.00  0.00     0.001 A 
ATOM     86  C   UNL     1       0.868 -16.504 -14.397  1.00  0.00     0.000 A 
ENDBRANCH  68  81
ENDBRANCH  42  43
ENDBRANCH  34  37
ENDBRANCH  32  33
ENDBRANCH  31  32
ENDBRANCH   1  31
TORSDOF 16
