REMARK SMILES O=C(NCCCNC(=O)[C@@H](Cc1c[nH]c2ccccc12)NC(=O)c1ccc(F)cc1F)c1ccc(-c2c3nc(c(-c4ccccc4)c4ccc([nH]4)c(-c4ccccc4)c4nc(c(-c5ccccc5)c5ccc2[nH]5)C=C4)C=C3)cc1
REMARK SMILES IDX 5 1 4 2 3 3 1 4 2 5 32 7 33 8 79 9 34 10 78 11 35 12 36 13
REMARK SMILES IDX 37 14 72 15 38 16 77 17 71 18 73 19 39 20 76 21 70 22 69 23
REMARK SMILES IDX 40 25 62 26 47 27 61 28 48 29 51 30 60 31 74 32 49 33 50 34
REMARK SMILES IDX 59 36 75 37 52 38 41 39 42 40 46 41 43 42 45 43 44 44 63 45
REMARK SMILES IDX 64 46 68 47 65 48 67 49 66 50 53 51 54 52 58 53 55 54 57 55
REMARK SMILES IDX 56 56 6 57 7 58 8 59 9 61 10 62 11 63 12 64 13 65 20 66
REMARK SMILES IDX 14 67 15 68 19 69 16 71 18 72 17 73 21 74 22 75 23 77 24 78
REMARK SMILES IDX 25 79 30 80 26 81 29 82 31 83 27 84 28 85
REMARK H PARENT 3 6 73 24 51 35 7 60 14 70 21 76
REMARK Flexibility Score: inf
ROOT
ATOM      1  C   UNL     1       4.239   2.143   1.153  1.00  0.00     0.042 C 
ENDROOT
BRANCH   1   2
ATOM      2  C   UNL     1       3.841   0.763   1.657  1.00  0.00     0.118 C 
BRANCH   2   3
ATOM      3  N   UNL     1       2.521   0.382   1.192  1.00  0.00    -0.352 N 
ATOM      4  O   UNL     1       0.915  -0.228  -0.235  1.00  0.00    -0.269 OA
ATOM      5  C   UNL     1       2.111  -0.262   0.052  1.00  0.00     0.251 C 
ATOM      6  H   UNL     1       1.789   0.628   1.803  1.00  0.00     0.163 HD
BRANCH   5   7
ATOM      7  C   UNL     1       3.042  -1.003  -0.843  1.00  0.00     0.039 A 
ATOM      8  C   UNL     1       4.138  -1.725  -0.365  1.00  0.00     0.014 A 
ATOM      9  C   UNL     1       2.700  -1.119  -2.199  1.00  0.00     0.014 A 
ATOM     10  C   UNL     1       4.916  -2.495  -1.233  1.00  0.00     0.010 A 
ATOM     11  C   UNL     1       3.420  -1.967  -3.050  1.00  0.00     0.010 A 
ATOM     12  C   UNL     1       4.527  -2.678  -2.569  1.00  0.00    -0.014 A 
BRANCH  12  13
ATOM     13  C   UNL     1       5.164  -3.753  -3.377  1.00  0.00     0.031 A 
ATOM     14  C   UNL     1       5.944  -3.457  -4.625  1.00  0.00     0.074 A 
ATOM     15  C   UNL     1       4.998  -5.033  -2.978  1.00  0.00     0.049 A 
ATOM     16  N   UNL     1       6.546  -4.296  -5.432  1.00  0.00    -0.248 NA
ATOM     17  C   UNL     1       6.061  -2.048  -5.028  1.00  0.00     0.031 C 
ATOM     18  C   UNL     1       4.226  -5.459  -1.806  1.00  0.00     0.029 A 
ATOM     19  N   UNL     1       5.466  -6.210  -3.506  1.00  0.00    -0.354 N 
ATOM     20  C   UNL     1       7.095  -3.523  -6.447  1.00  0.00     0.074 A 
ATOM     21  C   UNL     1       6.746  -2.147  -6.161  1.00  0.00     0.031 C 
ATOM     22  C   UNL     1       4.306  -6.791  -1.683  1.00  0.00     0.029 A 
ATOM     23  C   UNL     1       5.077  -7.323  -2.799  1.00  0.00     0.049 A 
ATOM     24  H   UNL     1       6.028  -6.253  -4.314  1.00  0.00     0.167 HD
ATOM     25  C   UNL     1       7.822  -3.926  -7.516  1.00  0.00     0.031 A 
ATOM     26  C   UNL     1       5.287  -8.632  -3.031  1.00  0.00     0.031 A 
ATOM     27  C   UNL     1       8.176  -5.294  -7.796  1.00  0.00     0.049 A 
ATOM     28  C   UNL     1       6.071  -9.044  -4.241  1.00  0.00     0.074 A 
ATOM     29  C   UNL     1       8.979  -5.783  -8.814  1.00  0.00     0.029 A 
ATOM     30  N   UNL     1       7.737  -6.390  -7.073  1.00  0.00    -0.354 N 
ATOM     31  N   UNL     1       6.652  -8.290  -5.140  1.00  0.00    -0.248 NA
ATOM     32  C   UNL     1       6.217 -10.488  -4.473  1.00  0.00     0.031 C 
ATOM     33  C   UNL     1       8.979  -7.179  -8.740  1.00  0.00     0.029 A 
ATOM     34  C   UNL     1       8.214  -7.557  -7.649  1.00  0.00     0.049 A 
ATOM     35  H   UNL     1       7.170  -6.347  -6.269  1.00  0.00     0.167 HD
ATOM     36  C   UNL     1       7.233  -9.166  -6.045  1.00  0.00     0.074 A 
ATOM     37  C   UNL     1       6.962 -10.507  -5.569  1.00  0.00     0.031 C 
ATOM     38  C   UNL     1       7.922  -8.883  -7.176  1.00  0.00     0.031 A 
BRANCH  25  39
ATOM     39  C   UNL     1       8.278  -2.880  -8.493  1.00  0.00    -0.014 A 
ATOM     40  C   UNL     1       9.359  -2.035  -8.202  1.00  0.00     0.009 A 
ATOM     41  C   UNL     1       7.678  -2.807  -9.760  1.00  0.00     0.009 A 
ATOM     42  C   UNL     1       9.821  -1.127  -9.158  1.00  0.00     0.001 A 
ATOM     43  C   UNL     1       8.153  -1.911 -10.719  1.00  0.00     0.001 A 
ATOM     44  C   UNL     1       9.222  -1.069 -10.416  1.00  0.00     0.000 A 
ENDBRANCH  25  39
BRANCH  26  45
ATOM     45  C   UNL     1       4.703  -9.650  -2.121  1.00  0.00    -0.014 A 
ATOM     46  C   UNL     1       5.524 -10.422  -1.287  1.00  0.00     0.009 A 
ATOM     47  C   UNL     1       3.314  -9.858  -2.091  1.00  0.00     0.009 A 
ATOM     48  C   UNL     1       4.967 -11.398  -0.456  1.00  0.00     0.001 A 
ATOM     49  C   UNL     1       2.758 -10.813  -1.238  1.00  0.00     0.001 A 
ATOM     50  C   UNL     1       3.585 -11.588  -0.429  1.00  0.00     0.000 A 
ENDBRANCH  26  45
BRANCH  38  51
ATOM     51  C   UNL     1       8.425 -10.050  -7.974  1.00  0.00    -0.014 A 
ATOM     52  C   UNL     1       7.546 -10.818  -8.754  1.00  0.00     0.009 A 
ATOM     53  C   UNL     1       9.791 -10.368  -7.968  1.00  0.00     0.009 A 
ATOM     54  C   UNL     1       8.024 -11.902  -9.492  1.00  0.00     0.001 A 
ATOM     55  C   UNL     1      10.268 -11.438  -8.726  1.00  0.00     0.001 A 
ATOM     56  C   UNL     1       9.384 -12.208  -9.480  1.00  0.00     0.000 A 
ENDBRANCH  38  51
ENDBRANCH  12  13
ENDBRANCH   5   7
ENDBRANCH   2   3
ENDBRANCH   1   2
BRANCH   1  57
ATOM     57  C   UNL     1       3.895   3.272   2.120  1.00  0.00     0.117 C 
BRANCH  57  58
ATOM     58  N   UNL     1       4.815   3.267   3.245  1.00  0.00    -0.354 N 
ATOM     59  C   UNL     1       5.954   3.970   3.481  1.00  0.00     0.242 C 
ATOM     60  H   UNL     1       4.569   2.642   3.965  1.00  0.00     0.163 HD
ATOM     61  O   UNL     1       6.774   3.434   4.237  1.00  0.00    -0.273 OA
BRANCH  59  62
ATOM     62  C   UNL     1       6.298   5.323   2.824  1.00  0.00     0.176 C 
BRANCH  62  63
ATOM     63  C   UNL     1       7.213   5.249   1.587  1.00  0.00     0.072 C 
BRANCH  63  64
ATOM     64  C   UNL     1       6.666   4.649   0.326  1.00  0.00    -0.020 A 
ATOM     65  C   UNL     1       7.141   3.493  -0.268  1.00  0.00     0.087 A 
ATOM     66  C   UNL     1       5.637   5.155  -0.539  1.00  0.00     0.003 A 
ATOM     67  N   UNL     1       6.393   3.235  -1.384  1.00  0.00    -0.361 N 
ATOM     68  C   UNL     1       5.436   4.207  -1.546  1.00  0.00     0.046 A 
ATOM     69  C   UNL     1       4.831   6.313  -0.556  1.00  0.00     0.010 A 
ATOM     70  H   UNL     1       6.521   2.464  -1.983  1.00  0.00     0.166 HD
ATOM     71  C   UNL     1       4.422   4.315  -2.505  1.00  0.00     0.026 A 
ATOM     72  C   UNL     1       3.810   6.437  -1.506  1.00  0.00     0.001 A 
ATOM     73  C   UNL     1       3.600   5.443  -2.456  1.00  0.00     0.002 A 
ENDBRANCH  63  64
ENDBRANCH  62  63
BRANCH  62  74
ATOM     74  N   UNL     1       5.179   6.259   2.680  1.00  0.00    -0.340 N 
ATOM     75  C   UNL     1       4.912   7.424   3.347  1.00  0.00     0.254 C 
ATOM     76  H   UNL     1       4.516   6.011   1.996  1.00  0.00     0.164 HD
ATOM     77  O   UNL     1       3.861   8.027   3.115  1.00  0.00    -0.269 OA
BRANCH  75  78
ATOM     78  C   UNL     1       5.871   7.987   4.311  1.00  0.00     0.075 A 
ATOM     79  C   UNL     1       7.190   8.277   3.935  1.00  0.00     0.020 A 
ATOM     80  C   UNL     1       5.439   8.282   5.606  1.00  0.00     0.138 A 
ATOM     81  C   UNL     1       8.079   8.798   4.878  1.00  0.00     0.040 A 
ATOM     82  C   UNL     1       6.316   8.820   6.541  1.00  0.00     0.079 A 
ATOM     83  F   UNL     1       4.178   8.030   5.985  1.00  0.00    -0.206 F 
ATOM     84  C   UNL     1       7.633   9.062   6.171  1.00  0.00     0.126 A 
ATOM     85  F   UNL     1       8.489   9.563   7.070  1.00  0.00    -0.207 F 
ENDBRANCH  75  78
ENDBRANCH  62  74
ENDBRANCH  59  62
ENDBRANCH  57  58
ENDBRANCH   1  57
TORSDOF 14
