REMARK SMILES NC(=O)C[C@@H](NC(=O)c1ccc(CO)cc1)C(=O)NCCCNC(=O)c1ccc(-c2c3nc(c(-c4ccccc4)c4ccc([nH]4)c(-c4ccccc4)c4nc(c(-c5ccccc5)c5ccc2[nH]5)C=C4)C=C3)cc1
REMARK SMILES IDX 20 1 19 2 17 3 18 4 5 6 4 7 2 8 1 9 3 12 6 13 7 14 8 16 9 17
REMARK SMILES IDX 10 18 16 19 11 20 15 21 12 22 13 23 14 24 21 26 22 27 23 28
REMARK SMILES IDX 24 29 25 31 26 32 27 33 73 34 28 35 72 36 29 37 30 38 31 39
REMARK SMILES IDX 66 40 32 41 71 42 65 43 67 44 33 45 70 46 64 47 63 48 34 50
REMARK SMILES IDX 56 51 41 52 55 53 42 54 45 55 54 56 68 57 43 58 44 59 53 61
REMARK SMILES IDX 69 62 46 63 35 64 36 65 40 66 37 67 39 68 38 69 57 70 58 71
REMARK SMILES IDX 62 72 59 73 61 74 60 75 47 76 48 77 52 78 49 79 51 80 50 81
REMARK H PARENT 19 5 1 10 1 11 6 15 14 25 23 30 67 49 45 60
REMARK Flexibility Score: inf
ROOT
ATOM      1  C   UNL     1       3.493   0.202   3.595  1.00  0.00     0.117 C 
ENDROOT
BRANCH   1   2
ATOM      2  N   UNL     1       2.957  -0.992   4.223  1.00  0.00    -0.354 N 
ATOM      3  C   UNL     1       2.209  -1.995   3.688  1.00  0.00     0.243 C 
ATOM      4  O   UNL     1       1.741  -2.840   4.455  1.00  0.00    -0.273 OA
ATOM      5  H   UNL     1       3.165  -1.091   5.180  1.00  0.00     0.163 HD
BRANCH   3   6
ATOM      6  C   UNL     1       1.845  -1.991   2.199  1.00  0.00     0.180 C 
BRANCH   6   7
ATOM      7  C   UNL     1       0.700  -0.961   2.103  1.00  0.00     0.134 C 
BRANCH   7   8
ATOM      8  C   UNL     1       0.090  -0.822   0.739  1.00  0.00     0.220 C 
ATOM      9  N   UNL     1       0.808  -0.076  -0.148  1.00  0.00    -0.370 N 
ATOM     10  H   UNL     1       0.471   0.060  -1.063  1.00  0.00     0.159 HD
ATOM     11  H   UNL     1       1.663   0.328   0.126  1.00  0.00     0.159 HD
ATOM     12  O   UNL     1      -0.991  -1.308   0.434  1.00  0.00    -0.275 OA
ENDBRANCH   7   8
ENDBRANCH   6   7
BRANCH   6  13
ATOM     13  N   UNL     1       2.965  -1.716   1.270  1.00  0.00    -0.340 N 
ATOM     14  C   UNL     1       4.266  -2.175   1.222  1.00  0.00     0.251 C 
ATOM     15  H   UNL     1       2.738  -1.085   0.549  1.00  0.00     0.164 HD
ATOM     16  O   UNL     1       4.920  -1.981   0.200  1.00  0.00    -0.269 OA
BRANCH  14  17
ATOM     17  C   UNL     1       4.950  -2.719   2.419  1.00  0.00     0.039 A 
ATOM     18  C   UNL     1       6.065  -2.019   2.904  1.00  0.00     0.014 A 
ATOM     19  C   UNL     1       4.478  -3.832   3.110  1.00  0.00     0.014 A 
ATOM     20  C   UNL     1       6.600  -2.331   4.157  1.00  0.00     0.007 A 
ATOM     21  C   UNL     1       5.017  -4.145   4.365  1.00  0.00     0.007 A 
ATOM     22  C   UNL     1       6.045  -3.367   4.920  1.00  0.00    -0.023 A 
BRANCH  22  23
ATOM     23  C   UNL     1       6.536  -3.619   6.323  1.00  0.00     0.191 C 
BRANCH  23  24
ATOM     24  O   UNL     1       7.856  -4.136   6.318  1.00  0.00    -0.392 OA
ATOM     25  H   UNL     1       7.871  -4.980   5.840  1.00  0.00     0.211 HD
ENDBRANCH  23  24
ENDBRANCH  22  23
ENDBRANCH  14  17
ENDBRANCH   6  13
ENDBRANCH   3   6
ENDBRANCH   1   2
BRANCH   1  26
ATOM     26  C   UNL     1       3.257   1.421   4.462  1.00  0.00     0.042 C 
BRANCH  26  27
ATOM     27  C   UNL     1       4.028   1.360   5.770  1.00  0.00     0.118 C 
BRANCH  27  28
ATOM     28  N   UNL     1       5.472   1.334   5.573  1.00  0.00    -0.352 N 
ATOM     29  C   UNL     1       6.431   2.166   6.090  1.00  0.00     0.251 C 
ATOM     30  H   UNL     1       5.805   0.617   4.986  1.00  0.00     0.163 HD
ATOM     31  O   UNL     1       7.582   2.120   5.665  1.00  0.00    -0.269 OA
BRANCH  29  32
ATOM     32  C   UNL     1       6.058   3.133   7.140  1.00  0.00     0.039 A 
ATOM     33  C   UNL     1       6.548   4.436   7.066  1.00  0.00     0.014 A 
ATOM     34  C   UNL     1       5.197   2.758   8.176  1.00  0.00     0.014 A 
ATOM     35  C   UNL     1       6.122   5.378   8.000  1.00  0.00     0.010 A 
ATOM     36  C   UNL     1       4.682   3.724   9.028  1.00  0.00     0.010 A 
ATOM     37  C   UNL     1       5.155   5.040   8.963  1.00  0.00    -0.014 A 
BRANCH  37  38
ATOM     38  C   UNL     1       4.639   6.062   9.904  1.00  0.00     0.031 A 
ATOM     39  C   UNL     1       4.851   5.915  11.385  1.00  0.00     0.074 A 
ATOM     40  C   UNL     1       3.960   7.119   9.419  1.00  0.00     0.049 A 
ATOM     41  N   UNL     1       4.558   6.755  12.345  1.00  0.00    -0.248 NA
ATOM     42  C   UNL     1       5.443   4.652  11.854  1.00  0.00     0.031 C 
ATOM     43  C   UNL     1       3.633   7.340   8.008  1.00  0.00     0.029 A 
ATOM     44  N   UNL     1       3.448   8.219  10.056  1.00  0.00    -0.354 N 
ATOM     45  C   UNL     1       4.926   6.120  13.525  1.00  0.00     0.074 A 
ATOM     46  C   UNL     1       5.388   4.798  13.168  1.00  0.00     0.031 C 
ATOM     47  C   UNL     1       3.045   8.539   7.878  1.00  0.00     0.029 A 
ATOM     48  C   UNL     1       2.920   9.150   9.197  1.00  0.00     0.049 A 
ATOM     49  H   UNL     1       3.458   8.331  11.034  1.00  0.00     0.167 HD
ATOM     50  C   UNL     1       4.911   6.602  14.791  1.00  0.00     0.031 A 
ATOM     51  C   UNL     1       2.416  10.374   9.440  1.00  0.00     0.031 A 
ATOM     52  C   UNL     1       4.436   7.913  15.144  1.00  0.00     0.049 A 
ATOM     53  C   UNL     1       2.398  10.887  10.851  1.00  0.00     0.074 A 
ATOM     54  C   UNL     1       4.419   8.522  16.387  1.00  0.00     0.029 A 
ATOM     55  N   UNL     1       3.880   8.816  14.249  1.00  0.00    -0.354 N 
ATOM     56  N   UNL     1       2.831  10.312  11.947  1.00  0.00    -0.248 NA
ATOM     57  C   UNL     1       1.839  12.229  11.051  1.00  0.00     0.031 C 
ATOM     58  C   UNL     1       3.794   9.768  16.253  1.00  0.00     0.029 A 
ATOM     59  C   UNL     1       3.489   9.966  14.916  1.00  0.00     0.049 A 
ATOM     60  H   UNL     1       3.779   8.663  13.282  1.00  0.00     0.167 HD
ATOM     61  C   UNL     1       2.624  11.234  12.965  1.00  0.00     0.074 A 
ATOM     62  C   UNL     1       2.046  12.412  12.347  1.00  0.00     0.031 C 
ATOM     63  C   UNL     1       2.893  11.120  14.290  1.00  0.00     0.031 A 
BRANCH  50  64
ATOM     64  C   UNL     1       5.409   5.684  15.877  1.00  0.00    -0.014 A 
ATOM     65  C   UNL     1       6.754   5.278  15.934  1.00  0.00     0.009 A 
ATOM     66  C   UNL     1       4.518   5.202  16.848  1.00  0.00     0.009 A 
ATOM     67  C   UNL     1       7.181   4.365  16.901  1.00  0.00     0.001 A 
ATOM     68  C   UNL     1       4.956   4.319  17.837  1.00  0.00     0.001 A 
ATOM     69  C   UNL     1       6.282   3.888  17.853  1.00  0.00     0.000 A 
ENDBRANCH  50  64
BRANCH  51  70
ATOM     70  C   UNL     1       1.952  11.220   8.310  1.00  0.00    -0.014 A 
ATOM     71  C   UNL     1       2.690  12.350   7.923  1.00  0.00     0.009 A 
ATOM     72  C   UNL     1       0.790  10.891   7.596  1.00  0.00     0.009 A 
ATOM     73  C   UNL     1       2.262  13.144   6.857  1.00  0.00     0.001 A 
ATOM     74  C   UNL     1       0.381  11.670   6.512  1.00  0.00     0.001 A 
ATOM     75  C   UNL     1       1.112  12.800   6.148  1.00  0.00     0.000 A 
ENDBRANCH  51  70
BRANCH  63  76
ATOM     76  C   UNL     1       2.590  12.318  15.149  1.00  0.00    -0.014 A 
ATOM     77  C   UNL     1       1.272  12.733  15.395  1.00  0.00     0.009 A 
ATOM     78  C   UNL     1       3.647  13.043  15.722  1.00  0.00     0.009 A 
ATOM     79  C   UNL     1       1.021  13.881  16.149  1.00  0.00     0.001 A 
ATOM     80  C   UNL     1       3.393  14.169  16.507  1.00  0.00     0.001 A 
ATOM     81  C   UNL     1       2.081  14.596  16.706  1.00  0.00     0.000 A 
ENDBRANCH  63  76
ENDBRANCH  37  38
ENDBRANCH  29  32
ENDBRANCH  27  28
ENDBRANCH  26  27
ENDBRANCH   1  26
TORSDOF 16
